data_PCOD8248936
_publ_section_title
;
Structure prediction by ZEFSAII (Michael W. Deem and Ramdas Pophale) SiO2 
 PCOD8248936
Probable space group: P B C A
;
_chemical_formula_sum "Si O2"
_cell_formula_units_Z 64
_cell_length_a 17.317511
_cell_length_b 18.101012
_cell_length_c 11.140945
_cell_angle_alpha 90.000000
_cell_angle_beta 90.000000
_cell_angle_gamma 90.000000
_cell_volume 3492.290469
_symmetry_space_group_name_H-M "P B C A"
_symmetry_group_IT_number 61
_symmetry_cell_setting 'orthorhombic'
loop_
_space_group_symop_operation_xyz
x,y,z
1/2-x,-y,1/2+z
1/2+x,1/2-y,-z
-x,1/2+y,1/2-z
-x,-y,-z
1/2+x,y,1/2-z
1/2-x,1/2+y,z
x,1/2-y,1/2+z
loop_
_atom_site_type_symbol
_atom_site_label
_atom_site_fract_x
_atom_site_fract_y
_atom_site_fract_z
Si Si1 0.429387 0.593443 0.762505
Si Si2 0.239935 0.128975 0.162980
Si Si3 0.907606 0.649959 0.476818
Si Si4 0.850494 0.603872 0.112394
Si Si5 0.592025 0.870691 0.880106
Si Si6 0.520919 0.054459 0.282166
Si Si7 0.178742 0.491007 0.099576
Si Si8 0.466831 0.692249 0.543282
O O1 0.408835 0.638973 0.881123
O O2 0.487598 0.527511 0.795426
O O3 0.349574 0.562717 0.706491
O O4 0.469525 0.649651 0.669672
O O5 0.208000 0.144039 0.296515
O O6 0.324649 0.167086 0.150773
O O7 0.248055 0.039500 0.143241
O O8 0.181252 0.161291 0.064558
O O9 0.945100 0.579645 0.410115
O O10 0.956672 0.721009 0.436354
O O11 0.910676 0.552649 0.184230
O O12 0.800728 0.554335 0.020131
O O13 0.895983 0.665806 0.038758
O O14 0.542570 0.884581 0.759184
O O15 0.607799 0.953148 0.933598
O O16 0.548119 0.820862 0.976544
#
# Coordination Sequence:
#
# PCOD8248936 Si02
#       8
#     8   8   8   8   8   8   8   8
#     4  10  20  35  57  87 113 148 199 240 277 352
#     4   9  20  33  56  81 114 146 179 243 288 334
#     4  11  23  34  58  87 123 146 192 244 302 335
#     4   9  17  33  56  82 111 147 193 230 281 347
#     4   8  17  35  58  79 109 150 195 228 281 346
#     4   9  18  35  58  83 108 150 191 243 275 335
#     4   8  17  31  56  82 108 148 190 232 281 333
#     4  10  21  36  60  82 113 162 197 230 288 360
#
# _framework density 18.326082
#
# number of rings (size 3 to 8) (size 9 to 14) (size 15 to 20)
#    0.750    2.000    0.000    1.125    7.000    3.000 
#    0.000    1.250    0.000    4.500    0.000    0.000 
#    0.000    0.000    0.000    0.000    0.000    0.000 
#
# Total GULP energy -793190.358740 kJ/mol
# GULP energy per Si atom -12393.599355 kJ/mol
# Density = 1.828437 g / cm^3
# Si number density = 18.326082 Si / 1000 Ang^3
#
#
#
# Elastic Constant Matrix: (Units=GPa)
#
#
# Indices 1 2 3 4 5 6 
#
# 1 93.3343 18.1518 46.1974 0.0000 0.0000 0.0000
# 2 18.1518 65.2515 29.0892 0.0000 0.0000 0.0000
# 3 46.1974 29.0892 109.5655 0.0000 0.0000 0.0000
# 4 0.0000 0.0000 0.0000 19.7631 0.0000 0.0000
# 5 0.0000 0.0000 0.0000 0.0000 21.6679 0.0000
# 6 0.0000 0.0000 0.0000 0.0000 0.0000 22.1792
#
#
#
# Elastic Compliance Matrix: (Units=1/GPa)
#
#
# Indices 1 2 3 4 5 6 
#
# 1 0.013651 -0.001397 -0.005385 0.000000 0.000000 0.000000
# 2 -0.001397 0.017526 -0.004064 0.000000 0.000000 0.000000
# 3 -0.005385 -0.004064 0.012477 0.000000 0.000000 0.000000
# 4 0.000000 0.000000 0.000000 0.050599 0.000000 0.000000
# 5 0.000000 0.000000 0.000000 0.000000 0.046151 0.000000
# 6 0.000000 0.000000 0.000000 0.000000 0.000000 0.045087
#
#
# Mechanical properties :
#
#
# Convention : Reuss Voigt Hill
#
# Bulk Modulus (GPa) = 45.53420 50.55868 48.04644
# Shear Modulus (GPa) = 23.30963 24.36958 23.83961
#
# Velocity S-wave (km/s) = 3.57029 3.65057 3.61065
# Velocity P-wave (km/s) = 6.47276 6.73922 6.60733
#
# Compressibility (1/GPa) = 0.02196151
#
# Stress axis : x y z
#
# Youngs Moduli (GPa) = 73.25318 57.05926 80.15054
#
# Poissons Ratio (x) = 0.07970 0.43162
# Poissons Ratio (y) = 0.10232 0.32573
# Poissons Ratio (z) = 0.39448 0.23189
#
# Static dielectric constant tensor:
#      x y z
#    x 3.263460 0.000000 0.000000 
#    y 0.000000 3.052050 0.000000 
#    z 0.000000 0.000000 3.298350 
# 
# 
# High freq. dielectric constant tensor:
#      x y z
#    x 1.697030 0.000000 0.000000 
#    y 0.000000 1.684490 0.000000 
#    z 0.000000 0.000000 1.712510 
# 
# From -- ./inp_files/6367.got.cif
#   From: 2010.03.12/outbox.cif.g09.slc.cpg/sg61_4_cif.got.tgz:6367.got - 2010.04.10 19:05:03.
