data_PCOD8248875
_publ_section_title
;
Structure prediction by ZEFSAII (Michael W. Deem and Ramdas Pophale) SiO2 
 PCOD8248875
Probable space group: P B C A
;
_chemical_formula_sum "Si O2"
_cell_formula_units_Z 56
_cell_length_a 12.016175
_cell_length_b 8.242530
_cell_length_c 23.628624
_cell_angle_alpha 90.000000
_cell_angle_beta 90.000000
_cell_angle_gamma 90.000000
_cell_volume 2340.265943
_symmetry_space_group_name_H-M "P B C A"
_symmetry_group_IT_number 61
_symmetry_cell_setting 'orthorhombic'
loop_
_space_group_symop_operation_xyz
x,y,z
1/2-x,-y,1/2+z
1/2+x,1/2-y,-z
-x,1/2+y,1/2-z
-x,-y,-z
1/2+x,y,1/2-z
1/2-x,1/2+y,z
x,1/2-y,1/2+z
loop_
_atom_site_type_symbol
_atom_site_label
_atom_site_fract_x
_atom_site_fract_y
_atom_site_fract_z
Si Si1 0.215642 0.294105 0.535606
Si Si2 0.932459 0.109647 0.411233
Si Si3 0.006139 0.791953 0.795371
Si Si4 0.307576 0.860683 0.153052
Si Si5 0.113541 0.854942 0.400934
Si Si6 0.053249 0.648569 0.678412
Si Si7 0.703960 0.553444 0.043910
O O1 0.350541 0.334775 0.537919
O O2 0.169893 0.248878 0.596689
O O3 0.200430 0.150724 0.490411
O O4 0.149026 0.443401 0.506327
O O5 0.991447 0.263388 0.379250
O O6 0.850987 0.040239 0.361715
O O7 0.020043 0.970789 0.429413
O O8 0.879279 0.727340 0.798874
O O9 0.085122 0.679335 0.835191
O O10 0.041518 0.770976 0.730873
O O11 0.014120 0.981902 0.811824
O O12 0.182833 0.889098 0.171367
O O13 0.114175 0.676017 0.429502
O O14 0.233607 0.942874 0.408389
#
# Coordination Sequence:
#
# PCOD8248875 Si02
#       7
#     8   8   8   8   8   8   8
#     4  10  19  38  67  95 129 171 222 272 326 388
#     4  10  21  41  69  99 130 167 228 285 322 403
#     4  11  24  44  66 102 136 170 226 271 335 414
#     4  10  21  42  71 101 127 172 220 278 328 394
#     4  10  24  45  62  95 134 178 224 273 333 401
#     4  11  23  42  71 100 135 172 222 274 342 398
#     4  10  22  39  63  90 133 175 220 266 337 389
#
# _framework density 23.928902999999998
#
# number of rings (size 3 to 8) (size 9 to 14) (size 15 to 20)
#    0.000    1.714    1.429    3.429    2.000    4.571 
#   10.286    2.857    0.000    0.000    0.000    0.000 
#    0.000    0.000    0.000    0.000    0.000    0.000 
#
# Total GULP energy -693838.497381 kJ/mol
# GULP energy per Si atom -12389.973168 kJ/mol
# Density = 2.387444 g / cm^3
# Si number density = 23.928903 Si / 1000 Ang^3
#
#
#
# Elastic Constant Matrix: (Units=GPa)
#
#
# Indices 1 2 3 4 5 6 
#
# 1 48.8808 12.8126 21.9252 0.0000 0.0000 0.0000
# 2 12.8126 116.6895 19.4496 0.0000 0.0000 0.0000
# 3 21.9252 19.4496 70.2034 0.0000 0.0000 0.0000
# 4 0.0000 0.0000 0.0000 45.2591 0.0000 0.0000
# 5 0.0000 0.0000 0.0000 0.0000 25.1939 0.0000
# 6 0.0000 0.0000 0.0000 0.0000 0.0000 37.3302
#
#
#
# Elastic Compliance Matrix: (Units=1/GPa)
#
#
# Indices 1 2 3 4 5 6 
#
# 1 0.024024 -0.001454 -0.007100 0.000000 0.000000 0.000000
# 2 -0.001454 0.009073 -0.002059 0.000000 0.000000 0.000000
# 3 -0.007100 -0.002059 0.017032 0.000000 0.000000 0.000000
# 4 0.000000 0.000000 0.000000 0.022095 0.000000 0.000000
# 5 0.000000 0.000000 0.000000 0.000000 0.039692 0.000000
# 6 0.000000 0.000000 0.000000 0.000000 0.000000 0.026788
#
#
# Mechanical properties :
#
#
# Convention : Reuss Voigt Hill
#
# Bulk Modulus (GPa) = 34.60044 38.23873 36.41958
# Shear Modulus (GPa) = 29.48723 33.66240 31.57481
#
# Velocity S-wave (km/s) = 3.51420 3.75476 3.63647
# Velocity P-wave (km/s) = 5.56392 5.90021 5.73453
#
# Compressibility (1/GPa) = 0.02890136
#
# Stress axis : x y z
#
# Youngs Moduli (GPa) = 41.62538 110.22084 58.71224
#
# Poissons Ratio (x) = 0.16031 0.41685
# Poissons Ratio (y) = 0.06054 0.12091
# Poissons Ratio (z) = 0.29554 0.22698
#
# Static dielectric constant tensor:
#      x y z
#    x 3.943720 0.000000 0.000000 
#    y 0.000000 4.801190 0.000000 
#    z 0.000000 0.000000 4.124280 
# 
# 
# High freq. dielectric constant tensor:
#      x y z
#    x 1.909750 0.000000 0.000000 
#    y 0.000000 1.979100 0.000000 
#    z 0.000000 0.000000 1.933400 
# 
# From -- ./inp_files/10450.got.cif
#   From: 2010.03.12/outbox.cif.g09.slc.cpg/sg61_6_cif.got.tgz:10450.got - 2010.04.10 19:05:03.
