data_PCOD8248909
_publ_section_title
;
Structure prediction by ZEFSAII (Michael W. Deem and Ramdas Pophale) SiO2 
 PCOD8248909
Probable space group: P B C A
;
_chemical_formula_sum "Si O2"
_cell_formula_units_Z 64
_cell_length_a 9.548475
_cell_length_b 20.649650
_cell_length_c 18.783549
_cell_angle_alpha 90.000000
_cell_angle_beta 90.000000
_cell_angle_gamma 90.000000
_cell_volume 3703.602448
_symmetry_space_group_name_H-M "P B C A"
_symmetry_group_IT_number 61
_symmetry_cell_setting 'orthorhombic'
loop_
_space_group_symop_operation_xyz
x,y,z
1/2-x,-y,1/2+z
1/2+x,1/2-y,-z
-x,1/2+y,1/2-z
-x,-y,-z
1/2+x,y,1/2-z
1/2-x,1/2+y,z
x,1/2-y,1/2+z
loop_
_atom_site_type_symbol
_atom_site_label
_atom_site_fract_x
_atom_site_fract_y
_atom_site_fract_z
Si Si1 0.850707 0.692276 0.543459
Si Si2 0.603431 0.141229 0.695158
Si Si3 0.281450 0.507159 0.172245
Si Si4 0.902811 0.492080 0.698867
Si Si5 0.349825 0.061088 0.447586
Si Si6 0.785049 0.141648 0.828533
Si Si7 0.322312 0.190816 0.519092
Si Si8 0.326224 0.561878 0.025646
O O1 0.842504 0.683541 0.628734
O O2 0.756296 0.751817 0.520302
O O3 0.778015 0.629963 0.506750
O O4 0.010637 0.702473 0.518111
O O5 0.675919 0.164816 0.768274
O O6 0.438221 0.150493 0.705188
O O7 0.639501 0.065951 0.679716
O O8 0.431894 0.514696 0.208994
O O9 0.165145 0.530429 0.227572
O O10 0.259489 0.432787 0.148589
O O11 0.267056 0.554559 0.105185
O O12 0.847011 0.444139 0.637719
O O13 0.278958 0.127100 0.474203
O O14 0.506473 0.060489 0.477680
O O15 0.269169 0.998632 0.479465
O O16 0.767718 0.184465 0.899624
#
# Coordination Sequence:
#
# PCOD8248909 Si02
#       8
#     8   8   8   8   8   8   8   8
#     4  10  20  34  52  75 102 133 169 207 248 296
#     4   9  17  30  50  74  98 126 163 206 248 294
#     4   9  16  28  49  75  99 124 160 206 249 291
#     4   9  16  28  49  75  99 124 160 206 249 291
#     4   9  15  29  53  74  93 125 168 203 237 290
#     4   9  17  30  50  74  98 126 163 206 248 294
#     4  10  20  34  52  75 102 133 169 207 248 296
#     4   9  15  29  53  74  93 125 168 203 237 290
#
# _framework density 17.280472
#
# number of rings (size 3 to 8) (size 9 to 14) (size 15 to 20)
#    0.000    2.750    2.500    0.000    0.000    1.000 
#    0.000    2.500    0.000    7.500    0.000    0.000 
#    0.000    0.000    0.000    0.000    0.000    0.000 
#
# Total GULP energy -793426.296098 kJ/mol
# GULP energy per Si atom -12397.285877 kJ/mol
# Density = 1.724114 g / cm^3
# Si number density = 17.280472 Si / 1000 Ang^3
#
#
#
# Elastic Constant Matrix: (Units=GPa)
#
#
# Indices 1 2 3 4 5 6 
#
# 1 14.7279 2.8331 -3.5243 0.0000 0.0000 0.0000
# 2 2.8331 72.8708 7.8529 0.0000 0.0000 0.0000
# 3 -3.5243 7.8529 18.9964 0.0000 0.0000 0.0000
# 4 0.0000 0.0000 0.0000 25.1781 0.0000 0.0000
# 5 0.0000 0.0000 0.0000 0.0000 29.2686 0.0000
# 6 0.0000 0.0000 0.0000 0.0000 0.0000 21.0806
#
#
#
# Elastic Compliance Matrix: (Units=1/GPa)
#
#
# Indices 1 2 3 4 5 6 
#
# 1 0.072413 -0.004462 0.015279 0.000000 0.000000 0.000000
# 2 -0.004462 0.014638 -0.006879 0.000000 0.000000 0.000000
# 3 0.015279 -0.006879 0.058320 0.000000 0.000000 0.000000
# 4 0.000000 0.000000 0.000000 0.039717 0.000000 0.000000
# 5 0.000000 0.000000 0.000000 0.000000 0.034166 0.000000
# 6 0.000000 0.000000 0.000000 0.000000 0.000000 0.047437
#
#
# Mechanical properties :
#
#
# Convention : Reuss Voigt Hill
#
# Bulk Modulus (GPa) = 6.52545 13.43541 9.98043
# Shear Modulus (GPa) = 16.13442 21.73436 18.93439
#
# Velocity S-wave (km/s) = 3.05893 3.55031 3.31374
# Velocity P-wave (km/s) = 4.03243 4.95964 4.51988
#
# Compressibility (1/GPa) = 0.15324620
#
# Stress axis : x y z
#
# Youngs Moduli (GPa) = 13.80970 68.31686 17.14688
#
# Poissons Ratio (x) = 0.30482 -0.26198
# Poissons Ratio (y) = 0.06162 0.11795
# Poissons Ratio (z) = -0.21099 0.46994
#
# Static dielectric constant tensor:
#      x y z
#    x 2.955770 0.000000 0.000000 
#    y 0.000000 3.093090 0.000000 
#    z 0.000000 0.000000 3.243070 
# 
# 
# High freq. dielectric constant tensor:
#      x y z
#    x 1.637720 0.000000 0.000000 
#    y 0.000000 1.645210 0.000000 
#    z 0.000000 0.000000 1.675480 
# 
# From -- ./inp_files/9346.got.cif
#   From: 2010.03.12/outbox.cif.g09.slc.cpg/sg61_5_cif.got.tgz:9346.got - 2010.04.10 19:05:03.
