data_PCOD8248258
_publ_section_title
;
Structure prediction by ZEFSAII (Michael W. Deem and Ramdas Pophale) SiO2 
 PCOD8248258
Probable space group: P B C N
;
_chemical_formula_sum "Si O2"
_cell_formula_units_Z 40
_cell_length_a 7.550063
_cell_length_b 25.074013
_cell_length_c 9.428381
_cell_angle_alpha 90.000000
_cell_angle_beta 90.000000
_cell_angle_gamma 90.000000
_cell_volume 1784.890369
_symmetry_space_group_name_H-M "P B C N"
_symmetry_group_IT_number 60
_symmetry_cell_setting 'orthorhombic'
loop_
_space_group_symop_operation_xyz
x,y,z
1/2-x,1/2-y,1/2+z
1/2+x,1/2-y,-z
-x,y,1/2-z
-x,-y,-z
1/2+x,1/2+y,1/2-z
1/2-x,1/2+y,z
x,-y,1/2+z
loop_
_atom_site_type_symbol
_atom_site_label
_atom_site_fract_x
_atom_site_fract_y
_atom_site_fract_z
Si Si1 0.805667 0.461594 0.796346
Si Si2 0.820216 0.348715 0.672192
Si Si3 0.000000 0.130227 0.750000
Si Si4 0.358669 0.827816 0.142778
Si Si5 0.363407 0.536127 0.919028
Si Si6 0.500000 0.273823 0.750000
O O1 0.749771 0.404657 0.731944
O O2 0.685556 0.508496 0.730351
O O3 0.000000 0.476872 0.750000
O O4 0.796585 0.458293 0.967435
O O5 0.871628 0.356283 0.508183
O O6 0.658000 0.307853 0.683043
O O7 0.000000 0.329411 0.750000
O O8 0.838557 0.167938 0.794657
O O9 0.942149 0.094124 0.615861
O O10 0.500000 0.856443 0.250000
O O11 0.412792 0.764937 0.129907
O O12 0.500000 0.500000 0.000000
#
# Coordination Sequence:
#
# PCOD8248258 Si02
#       6
#     8   8   4   8   8   4
#     4  11  26  44  71 105 143 186 237 293 352 430
#     4  11  27  47  75 106 145 187 240 299 357 426
#     4  12  26  43  78  98 152 185 242 298 352 442
#     4  10  28  46  72 105 138 191 238 295 359 418
#     4  12  24  45  69 105 141 190 232 287 363 422
#     4  10  28  43  76 102 144 185 240 296 358 428
#
# _framework density 22.410340999999999
#
# number of rings (size 3 to 8) (size 9 to 14) (size 15 to 20)
#    0.600    0.400    2.000    1.800   15.400    0.800 
#    0.000    0.000    0.000    0.000    0.000    0.000 
#    0.000    0.000    0.000    0.000    0.000    0.000 
#
# Total GULP energy -495900.493141 kJ/mol
# GULP energy per Si atom -12397.512329 kJ/mol
# Density = 2.235933 g / cm^3
# Si number density = 22.410341 Si / 1000 Ang^3
#
#
#
# Elastic Constant Matrix: (Units=GPa)
#
#
# Indices 1 2 3 4 5 6 
#
# 1 143.3911 36.2010 37.2586 0.0000 0.0000 0.0000
# 2 36.2010 92.8929 13.9766 0.0000 0.0000 0.0000
# 3 37.2586 13.9766 139.3801 0.0000 0.0000 0.0000
# 4 0.0000 0.0000 0.0000 21.8890 0.0000 0.0000
# 5 0.0000 0.0000 0.0000 0.0000 39.1170 0.0000
# 6 0.0000 0.0000 0.0000 0.0000 0.0000 42.9620
#
#
#
# Elastic Compliance Matrix: (Units=1/GPa)
#
#
# Indices 1 2 3 4 5 6 
#
# 1 0.008203 -0.002911 -0.001901 0.000000 0.000000 0.000000
# 2 -0.002911 0.011963 -0.000422 0.000000 0.000000 0.000000
# 3 -0.001901 -0.000422 0.007725 0.000000 0.000000 0.000000
# 4 0.000000 0.000000 0.000000 0.045685 0.000000 0.000000
# 5 0.000000 0.000000 0.000000 0.000000 0.025564 0.000000
# 6 0.000000 0.000000 0.000000 0.000000 0.000000 0.023276
#
#
# Mechanical properties :
#
#
# Convention : Reuss Voigt Hill
#
# Bulk Modulus (GPa) = 57.39051 61.17071 59.28061
# Shear Modulus (GPa) = 36.05153 40.00880 38.03016
#
# Velocity S-wave (km/s) = 4.01521 4.22984 4.12393
# Velocity P-wave (km/s) = 6.86735 7.15615 7.01323
#
# Compressibility (1/GPa) = 0.01742448
#
# Stress axis : x y z
#
# Youngs Moduli (GPa) = 121.91142 83.59243 129.44942
#
# Poissons Ratio (x) = 0.24331 0.24606
# Poissons Ratio (y) = 0.35484 0.05457
# Poissons Ratio (z) = 0.23173 0.03524
#
# Static dielectric constant tensor:
#      x y z
#    x 4.011610 0.000000 0.000000 
#    y 0.000000 3.942150 0.000000 
#    z 0.000000 0.000000 4.565580 
# 
# 
# High freq. dielectric constant tensor:
#      x y z
#    x 1.898360 0.000000 0.000000 
#    y 0.000000 1.873510 0.000000 
#    z 0.000000 0.000000 1.885490 
# 
# From -- ./inp_files/3926.got.cif
#   From: 2010.03.12/outbox.cif.g09.slc.cpg/sg60_2_cif.got.tgz:3926.got - 2010.04.10 18:46:24.
