data_PCOD8248477
_publ_section_title
;
Structure prediction by ZEFSAII (Michael W. Deem and Ramdas Pophale) SiO2 
 PCOD8248477
Probable space group: P B C N
;
_chemical_formula_sum "Si O2"
_cell_formula_units_Z 48
_cell_length_a 27.672381
_cell_length_b 8.653791
_cell_length_c 9.252660
_cell_angle_alpha 90.000000
_cell_angle_beta 90.000000
_cell_angle_gamma 90.000000
_cell_volume 2215.743758
_symmetry_space_group_name_H-M "P B C N"
_symmetry_group_IT_number 60
_symmetry_cell_setting 'orthorhombic'
loop_
_space_group_symop_operation_xyz
x,y,z
1/2-x,1/2-y,1/2+z
1/2+x,1/2-y,-z
-x,y,1/2-z
-x,-y,-z
1/2+x,1/2+y,1/2-z
1/2-x,1/2+y,z
x,-y,1/2+z
loop_
_atom_site_type_symbol
_atom_site_label
_atom_site_fract_x
_atom_site_fract_y
_atom_site_fract_z
Si Si1 0.953208 0.187488 0.519488
Si Si2 0.707954 0.183866 0.187788
Si Si3 0.936797 0.167572 0.024545
Si Si4 0.713933 0.127709 0.851888
Si Si5 0.391822 0.824826 0.213508
Si Si6 0.102973 0.682535 0.243071
O O1 0.919307 0.308515 0.437006
O O2 0.942742 0.229171 0.685965
O O3 0.008139 0.225431 0.480290
O O4 0.937124 0.012805 0.484349
O O5 0.743019 0.311977 0.252211
O O6 0.653023 0.247021 0.188627
O O7 0.708946 0.049180 0.306904
O O8 0.723948 0.138240 0.024504
O O9 0.915537 0.196861 0.182844
O O10 0.901435 0.268629 0.923739
O O11 0.664529 0.215771 0.810161
O O12 0.399588 0.998920 0.268782
#
# Coordination Sequence:
#
# PCOD8248477 Si02
#       6
#     8   8   8   8   8   8
#     4  11  23  45  60  97 134 173 226 271 338 391
#     4  11  25  45  70  99 136 174 221 277 336 403
#     4  11  25  39  68  93 134 179 216 281 328 401
#     4  11  25  45  70  99 136 174 221 277 336 403
#     4  11  24  42  67  96 132 172 223 273 332 395
#     4  11  24  42  67  96 132 172 223 273 332 395
#
# _framework density 21.663157000000002
#
# number of rings (size 3 to 8) (size 9 to 14) (size 15 to 20)
#    0.000    1.000    1.667    4.000    9.333    9.333 
#    0.000    0.000    0.000    0.000    0.000    0.000 
#    0.000    0.000    0.000    0.000    0.000    0.000 
#
# Total GULP energy -595273.722056 kJ/mol
# GULP energy per Si atom -12401.535876 kJ/mol
# Density = 2.161385 g / cm^3
# Si number density = 21.663157 Si / 1000 Ang^3
#
#
#
# Elastic Constant Matrix: (Units=GPa)
#
#
# Indices 1 2 3 4 5 6 
#
# 1 106.6652 37.2636 19.9337 0.0000 0.0000 0.0000
# 2 37.2636 42.5185 19.7220 0.0000 0.0000 0.0000
# 3 19.9337 19.7220 89.2652 0.0000 0.0000 0.0000
# 4 0.0000 0.0000 0.0000 39.8401 0.0000 0.0000
# 5 0.0000 0.0000 0.0000 0.0000 41.5738 0.0000
# 6 0.0000 0.0000 0.0000 0.0000 0.0000 31.4607
#
#
#
# Elastic Compliance Matrix: (Units=1/GPa)
#
#
# Indices 1 2 3 4 5 6 
#
# 1 0.013528 -0.011649 -0.000447 0.000000 0.000000 0.000000
# 2 -0.011649 0.036235 -0.005404 0.000000 0.000000 0.000000
# 3 -0.000447 -0.005404 0.012496 0.000000 0.000000 0.000000
# 4 0.000000 0.000000 0.000000 0.025100 0.000000 0.000000
# 5 0.000000 0.000000 0.000000 0.000000 0.024054 0.000000
# 6 0.000000 0.000000 0.000000 0.000000 0.000000 0.031786
#
#
# Mechanical properties :
#
#
# Convention : Reuss Voigt Hill
#
# Bulk Modulus (GPa) = 36.68539 43.58750 40.13645
# Shear Modulus (GPa) = 26.69703 33.34356 30.02029
#
# Velocity S-wave (km/s) = 3.51432 3.92750 3.72664
# Velocity P-wave (km/s) = 5.78260 6.38210 6.08973
#
# Compressibility (1/GPa) = 0.02725881
#
# Stress axis : x y z
#
# Youngs Moduli (GPa) = 73.91950 27.59755 80.02243
#
# Poissons Ratio (x) = 0.32148 0.03580
# Poissons Ratio (y) = 0.86107 0.43247
# Poissons Ratio (z) = 0.03307 0.14915
#
# Static dielectric constant tensor:
#      x y z
#    x 4.133210 0.000000 0.000000 
#    y 0.000000 3.582940 0.000000 
#    z 0.000000 0.000000 3.859840 
# 
# 
# High freq. dielectric constant tensor:
#      x y z
#    x 1.860520 0.000000 0.000000 
#    y 0.000000 1.839890 0.000000 
#    z 0.000000 0.000000 1.866140 
# 
# From -- ./inp_files/4173.got.cif
#   From: 2010.03.12/outbox.cif.g09.slc.cpg/sg60_3_cif.got.tgz:4173.got - 2010.04.10 18:46:24.
