data_PCOD8248553
_publ_section_title
;
Structure prediction by ZEFSAII (Michael W. Deem and Ramdas Pophale) SiO2 
 PCOD8248553
Probable space group: P B C N
;
_chemical_formula_sum "Si O2"
_cell_formula_units_Z 40
_cell_length_a 8.335769
_cell_length_b 16.911586
_cell_length_c 11.095999
_cell_angle_alpha 90.000000
_cell_angle_beta 90.000000
_cell_angle_gamma 90.000000
_cell_volume 1564.214900
_symmetry_space_group_name_H-M "P B C N"
_symmetry_group_IT_number 60
_symmetry_cell_setting 'orthorhombic'
loop_
_space_group_symop_operation_xyz
x,y,z
1/2-x,1/2-y,1/2+z
1/2+x,1/2-y,-z
-x,y,1/2-z
-x,-y,-z
1/2+x,1/2+y,1/2-z
1/2-x,1/2+y,z
x,-y,1/2+z
loop_
_atom_site_type_symbol
_atom_site_label
_atom_site_fract_x
_atom_site_fract_y
_atom_site_fract_z
Si Si1 0.600420 0.032097 0.638364
Si Si2 0.025483 0.653761 0.482560
Si Si3 0.388752 0.574648 0.004794
Si Si4 0.635219 0.297455 0.578439
Si Si5 0.191261 0.620570 0.223344
O O1 0.500000 0.068479 0.750000
O O2 0.489697 0.061225 0.524189
O O3 0.775564 0.071787 0.614456
O O4 0.625430 0.937408 0.666345
O O5 0.910532 0.705398 0.571166
O O6 0.955082 0.666695 0.345391
O O7 0.203826 0.686460 0.497101
O O8 0.500000 0.500000 0.000000
O O9 0.491515 0.654252 0.014431
O O10 0.277706 0.566268 0.123990
O O11 0.675777 0.321344 0.717480
#
# Coordination Sequence:
#
# PCOD8248553 Si02
#       5
#     8   8   8   8   8
#     4  11  25  44  71 109 147 197 245 308 381 456
#     4  11  27  47  76 111 153 199 257 319 384 469
#     4  11  25  44  72 108 144 193 253 315 375 461
#     4  12  25  50  74 107 154 200 256 321 388 460
#     4  11  25  47  75 104 149 200 251 315 389 456
#
# _framework density 25.571933999999999
#
# number of rings (size 3 to 8) (size 9 to 14) (size 15 to 20)
#    0.000    0.800    2.000    4.800    2.800    5.600 
#    0.000    2.000    0.000    0.000    0.000    0.000 
#    0.000    0.000    0.000    0.000    0.000    0.000 
#
# Total GULP energy -495618.572692 kJ/mol
# GULP energy per Si atom -12390.464317 kJ/mol
# Density = 2.551373 g / cm^3
# Si number density = 25.571934 Si / 1000 Ang^3
#
#
#
# Elastic Constant Matrix: (Units=GPa)
#
#
# Indices 1 2 3 4 5 6 
#
# 1 149.3369 23.4040 40.9183 0.0000 0.0000 0.0000
# 2 23.4040 104.5494 32.1038 0.0000 0.0000 0.0000
# 3 40.9183 32.1038 133.6124 0.0000 0.0000 0.0000
# 4 0.0000 0.0000 0.0000 32.1328 0.0000 0.0000
# 5 0.0000 0.0000 0.0000 0.0000 67.7261 0.0000
# 6 0.0000 0.0000 0.0000 0.0000 0.0000 51.7748
#
#
#
# Elastic Compliance Matrix: (Units=1/GPa)
#
#
# Indices 1 2 3 4 5 6 
#
# 1 0.007413 -0.001039 -0.002020 0.000000 0.000000 0.000000
# 2 -0.001039 0.010472 -0.002198 0.000000 0.000000 0.000000
# 3 -0.002020 -0.002198 0.008631 0.000000 0.000000 0.000000
# 4 0.000000 0.000000 0.000000 0.031121 0.000000 0.000000
# 5 0.000000 0.000000 0.000000 0.000000 0.014765 0.000000
# 6 0.000000 0.000000 0.000000 0.000000 0.000000 0.019314
#
#
# Mechanical properties :
#
#
# Convention : Reuss Voigt Hill
#
# Bulk Modulus (GPa) = 62.49490 64.48345 63.48918
# Shear Modulus (GPa) = 46.48319 49.73158 48.10739
#
# Velocity S-wave (km/s) = 4.26812 4.41474 4.34205
# Velocity P-wave (km/s) = 6.98435 7.15946 7.07244
#
# Compressibility (1/GPa) = 0.01600131
#
# Stress axis : x y z
#
# Youngs Moduli (GPa) = 134.90359 95.48918 115.85819
#
# Poissons Ratio (x) = 0.09921 0.23409
# Poissons Ratio (y) = 0.14016 0.25467
# Poissons Ratio (z) = 0.27257 0.20989
#
# Static dielectric constant tensor:
#      x y z
#    x 5.159790 0.000000 0.000000 
#    y 0.000000 4.719750 0.000000 
#    z 0.000000 0.000000 4.733650 
# 
# 
# High freq. dielectric constant tensor:
#      x y z
#    x 2.055720 0.000000 0.000000 
#    y 0.000000 2.015320 0.000000 
#    z 0.000000 0.000000 2.025970 
# 
# From -- ./inp_files/9780.got.cif
#   From: 2010.03.12/outbox.cif.g09.slc.cpg/sg60_5_cif.got.tgz:9780.got - 2010.04.10 18:46:24.
