data_PCOD8248756
_publ_section_title
;
Structure prediction by ZEFSAII (Michael W. Deem and Ramdas Pophale) SiO2 
 PCOD8248756
Probable space group: P B C A
;
_chemical_formula_sum "Si O2"
_cell_formula_units_Z 48
_cell_length_a 30.842158
_cell_length_b 4.839646
_cell_length_c 12.539953
_cell_angle_alpha 90.000000
_cell_angle_beta 90.000000
_cell_angle_gamma 90.000000
_cell_volume 1871.777672
_symmetry_space_group_name_H-M "P B C A"
_symmetry_group_IT_number 61
_symmetry_cell_setting 'orthorhombic'
loop_
_space_group_symop_operation_xyz
x,y,z
1/2-x,-y,1/2+z
1/2+x,1/2-y,-z
-x,1/2+y,1/2-z
-x,-y,-z
1/2+x,y,1/2-z
1/2-x,1/2+y,z
x,1/2-y,1/2+z
loop_
_atom_site_type_symbol
_atom_site_label
_atom_site_fract_x
_atom_site_fract_y
_atom_site_fract_z
Si Si1 0.881142 0.287423 0.481450
Si Si2 0.721153 0.189762 0.705796
Si Si3 0.343552 0.737003 0.624540
Si Si4 0.447988 0.954753 0.300623
Si Si5 0.369211 0.640357 0.345918
Si Si6 0.957169 0.048383 0.842755
O O1 0.850548 0.565024 0.478377
O O2 0.860662 0.068299 0.398311
O O3 0.879136 0.151722 0.598696
O O4 0.930228 0.365456 0.448207
O O5 0.762542 0.381640 0.683116
O O6 0.705618 0.218327 0.830245
O O7 0.680169 0.256171 0.628842
O O8 0.372942 0.888526 0.716704
O O9 0.406452 0.869821 0.376532
O O10 0.491820 0.905465 0.369093
O O11 0.443460 0.268489 0.260685
O O12 0.449864 0.767320 0.193304
#
# Coordination Sequence:
#
# PCOD8248756 Si02
#       6
#     8   8   8   8   8   8
#     4  12  21  40  64  93 117 166 194 243 295 363
#     4  10  21  41  64  84 119 156 192 248 303 351
#     4  10  24  40  62  87 123 150 203 241 297 354
#     4  10  20  35  57  86 116 164 187 253 286 341
#     4  10  24  39  66  86 126 156 199 246 308 346
#     4  10  18  35  59  83 123 152 207 232 290 348
#
# _framework density 25.644072000000001
#
# number of rings (size 3 to 8) (size 9 to 14) (size 15 to 20)
#    1.000    0.667    3.333    1.000    0.000    6.000 
#    0.000    5.000    0.000    8.000    0.000    0.000 
#    0.000    0.000    0.000    0.000    0.000    0.000 
#
# Total GULP energy -594928.644977 kJ/mol
# GULP energy per Si atom -12394.346770 kJ/mol
# Density = 2.558571 g / cm^3
# Si number density = 25.644072 Si / 1000 Ang^3
#
#
#
# Elastic Constant Matrix: (Units=GPa)
#
#
# Indices 1 2 3 4 5 6 
#
# 1 123.6537 21.5349 31.5612 0.0000 0.0000 0.0000
# 2 21.5349 80.7303 -15.2319 0.0000 0.0000 0.0000
# 3 31.5612 -15.2319 42.3409 0.0000 0.0000 0.0000
# 4 0.0000 0.0000 0.0000 30.9074 0.0000 0.0000
# 5 0.0000 0.0000 0.0000 0.0000 37.1292 0.0000
# 6 0.0000 0.0000 0.0000 0.0000 0.0000 32.8660
#
#
#
# Elastic Compliance Matrix: (Units=1/GPa)
#
#
# Indices 1 2 3 4 5 6 
#
# 1 0.011661 -0.005097 -0.010526 0.000000 0.000000 0.000000
# 2 -0.005097 0.015516 0.009381 0.000000 0.000000 0.000000
# 3 -0.010526 0.009381 0.034839 0.000000 0.000000 0.000000
# 4 0.000000 0.000000 0.000000 0.032355 0.000000 0.000000
# 5 0.000000 0.000000 0.000000 0.000000 0.026933 0.000000
# 6 0.000000 0.000000 0.000000 0.000000 0.000000 0.030427
#
#
# Mechanical properties :
#
#
# Convention : Reuss Voigt Hill
#
# Bulk Modulus (GPa) = 20.18841 35.82814 28.00827
# Shear Modulus (GPa) = 27.66634 34.10456 30.88545
#
# Velocity S-wave (km/s) = 3.28816 3.65076 3.47420
# Velocity P-wave (km/s) = 4.72289 5.63670 5.19991
#
# Compressibility (1/GPa) = 0.04953337
#
# Stress axis : x y z
#
# Youngs Moduli (GPa) = 85.75341 64.44765 28.70373
#
# Poissons Ratio (x) = 0.32847 0.30213
# Poissons Ratio (y) = 0.43706 -0.26927
# Poissons Ratio (z) = 0.90263 -0.60459
#
# Static dielectric constant tensor:
#      x y z
#    x 4.678650 0.000000 0.000000 
#    y 0.000000 4.457910 0.000000 
#    z 0.000000 0.000000 4.141760 
# 
# 
# High freq. dielectric constant tensor:
#      x y z
#    x 2.032410 0.000000 0.000000 
#    y 0.000000 2.036460 0.000000 
#    z 0.000000 0.000000 2.003420 
# 
# From -- ./inp_files/8631.got.cif
#   From: 2010.03.12/outbox.cif.g09.slc.cpg/sg61_5_cif.got.tgz:8631.got - 2010.04.10 19:05:03.
