data_PCOD8248986
_publ_section_title
;
Structure prediction by ZEFSAII (Michael W. Deem and Ramdas Pophale) SiO2 
 PCOD8248986
Probable space group: P B C A
;
_chemical_formula_sum "Si O2"
_cell_formula_units_Z 64
_cell_length_a 27.348072
_cell_length_b 9.264087
_cell_length_c 12.796853
_cell_angle_alpha 90.000000
_cell_angle_beta 90.000000
_cell_angle_gamma 90.000000
_cell_volume 3242.145646
_symmetry_space_group_name_H-M "P B C A"
_symmetry_group_IT_number 61
_symmetry_cell_setting 'orthorhombic'
loop_
_space_group_symop_operation_xyz
x,y,z
1/2-x,-y,1/2+z
1/2+x,1/2-y,-z
-x,1/2+y,1/2-z
-x,-y,-z
1/2+x,y,1/2-z
1/2-x,1/2+y,z
x,1/2-y,1/2+z
loop_
_atom_site_type_symbol
_atom_site_label
_atom_site_fract_x
_atom_site_fract_y
_atom_site_fract_z
Si Si1 0.071857 0.632087 0.031839
Si Si2 0.323349 0.981640 0.501752
Si Si3 0.999282 0.939198 0.347568
Si Si4 0.250725 0.598480 0.825162
Si Si5 0.990478 0.884823 0.844060
Si Si6 0.432133 0.045516 0.490462
Si Si7 0.263077 0.851957 0.674683
Si Si8 0.684009 0.818228 0.991892
O O1 0.065354 0.802856 0.054230
O O2 0.130101 0.610619 0.017163
O O3 0.048185 0.538304 0.125124
O O4 0.041693 0.575087 0.932633
O O5 0.379899 0.974382 0.474759
O O6 0.310944 0.147520 0.525172
O O7 0.296720 0.913549 0.401944
O O8 0.311140 0.886670 0.605109
O O9 0.026320 0.015849 0.251213
O O10 0.980462 0.781203 0.315336
O O11 0.262953 0.691198 0.721431
O O12 0.237789 0.442801 0.780668
O O13 0.203827 0.650506 0.891614
O O14 0.961280 0.922019 0.949074
O O15 0.046943 0.920176 0.874488
O O16 0.216821 0.887699 0.599654
#
# Coordination Sequence:
#
# PCOD8248986 Si02
#       8
#     8   8   8   8   8   8   8   8
#     4   9  20  39  61  82 112 149 202 241 287 350
#     4  10  21  39  61  87 118 156 202 247 294 357
#     4  10  20  37  60  87 115 154 190 245 295 353
#     4  11  22  39  60  87 120 158 197 247 301 353
#     4  10  20  37  59  84 118 152 192 238 301 350
#     4   9  20  39  59  82 114 154 192 244 289 351
#     4  11  22  39  61  85 120 157 196 248 299 350
#     4  10  21  39  63  86 115 158 201 245 295 360
#
# _framework density 19.740015
#
# number of rings (size 3 to 8) (size 9 to 14) (size 15 to 20)
#    0.000    2.000    2.500    0.750    0.000    3.000 
#    9.000    0.000    0.000    0.000    0.000    0.000 
#    0.000    0.000    0.000    0.000    0.000    0.000 
#
# Total GULP energy -793250.725045 kJ/mol
# GULP energy per Si atom -12394.542579 kJ/mol
# Density = 1.969509 g / cm^3
# Si number density = 19.740015 Si / 1000 Ang^3
#
#
#
# Elastic Constant Matrix: (Units=GPa)
#
#
# Indices 1 2 3 4 5 6 
#
# 1 111.2191 20.0051 22.9321 0.0000 0.0000 0.0000
# 2 20.0051 64.5213 20.6611 0.0000 0.0000 0.0000
# 3 22.9321 20.6611 81.4730 0.0000 0.0000 0.0000
# 4 0.0000 0.0000 0.0000 43.2268 0.0000 0.0000
# 5 0.0000 0.0000 0.0000 0.0000 13.3260 0.0000
# 6 0.0000 0.0000 0.0000 0.0000 0.0000 29.6845
#
#
#
# Elastic Compliance Matrix: (Units=1/GPa)
#
#
# Indices 1 2 3 4 5 6 
#
# 1 0.009865 -0.002361 -0.002178 0.000000 0.000000 0.000000
# 2 -0.002361 0.017434 -0.003756 0.000000 0.000000 0.000000
# 3 -0.002178 -0.003756 0.013840 0.000000 0.000000 0.000000
# 4 0.000000 0.000000 0.000000 0.023134 0.000000 0.000000
# 5 0.000000 0.000000 0.000000 0.000000 0.075041 0.000000
# 6 0.000000 0.000000 0.000000 0.000000 0.000000 0.033688
#
#
# Mechanical properties :
#
#
# Convention : Reuss Voigt Hill
#
# Bulk Modulus (GPa) = 40.73796 42.71224 41.72510
# Shear Modulus (GPa) = 25.28129 30.15514 27.71821
#
# Velocity S-wave (km/s) = 3.58259 3.91271 3.75128
# Velocity P-wave (km/s) = 6.14779 6.48820 6.32029
#
# Compressibility (1/GPa) = 0.02454713
#
# Stress axis : x y z
#
# Youngs Moduli (GPa) = 101.36800 57.35989 72.25618
#
# Poissons Ratio (x) = 0.13544 0.15737
# Poissons Ratio (y) = 0.23936 0.27143
# Poissons Ratio (z) = 0.22077 0.21547
#
# Static dielectric constant tensor:
#      x y z
#    x 3.577470 0.000000 0.000000 
#    y 0.000000 3.620340 0.000000 
#    z 0.000000 0.000000 3.528420 
# 
# 
# High freq. dielectric constant tensor:
#      x y z
#    x 1.756940 0.000000 0.000000 
#    y 0.000000 1.775050 0.000000 
#    z 0.000000 0.000000 1.770550 
# 
# From -- ./inp_files/6773.got.cif
#   From: 2010.03.12/outbox.cif.g09.slc.cpg/sg61_4_cif.got.tgz:6773.got - 2010.04.10 19:05:03.
