data_PCOD8248324
_publ_section_title
;
Structure prediction by ZEFSAII (Michael W. Deem and Ramdas Pophale) SiO2 
 PCOD8248324
Probable space group: P B C N
;
_chemical_formula_sum "Si O2"
_cell_formula_units_Z 64
_cell_length_a 19.381342
_cell_length_b 13.676718
_cell_length_c 11.940050
_cell_angle_alpha 90.000000
_cell_angle_beta 90.000000
_cell_angle_gamma 90.000000
_cell_volume 3164.986653
_symmetry_space_group_name_H-M "P B C N"
_symmetry_group_IT_number 60
_symmetry_cell_setting 'orthorhombic'
loop_
_space_group_symop_operation_xyz
x,y,z
1/2-x,1/2-y,1/2+z
1/2+x,1/2-y,-z
-x,y,1/2-z
-x,-y,-z
1/2+x,1/2+y,1/2-z
1/2-x,1/2+y,z
x,-y,1/2+z
loop_
_atom_site_type_symbol
_atom_site_label
_atom_site_fract_x
_atom_site_fract_y
_atom_site_fract_z
Si Si1 0.952296 0.573031 0.140928
Si Si2 0.269379 0.606448 0.833994
Si Si3 0.803394 0.576475 0.434089
Si Si4 0.574244 0.733401 0.224636
Si Si5 0.178297 0.697167 0.399965
Si Si6 0.793985 0.897050 0.735427
Si Si7 0.335668 0.137195 0.644519
Si Si8 0.563678 0.869253 0.027826
O O1 0.883707 0.637781 0.158965
O O2 0.927919 0.464482 0.107733
O O3 0.000000 0.570328 0.250000
O O4 0.992168 0.624220 0.038543
O O5 0.325515 0.689152 0.863476
O O6 0.306548 0.512988 0.779638
O O7 0.218396 0.658148 0.744431
O O8 0.228726 0.567131 0.942549
O O9 0.747741 0.622563 0.350456
O O10 0.835255 0.475717 0.387272
O O11 0.872179 0.641493 0.442003
O O12 0.500000 0.686630 0.250000
O O13 0.631126 0.650413 0.241926
O O14 0.590459 0.825810 0.307315
O O15 0.568362 0.770451 0.097963
O O16 0.250904 0.648666 0.366057
O O17 0.179707 0.699316 0.534009
#
# Coordination Sequence:
#
# PCOD8248324 Si02
#       8
#     8   8   8   8   8   8   8   8
#     4  11  24  38  59  94 136 172 214 273 339 403
#     4  11  23  41  65  98 123 171 219 279 332 386
#     4  11  21  39  66  95 134 160 219 273 340 381
#     4  12  25  41  63  93 132 176 221 262 329 406
#     4  12  22  41  64  93 128 168 221 274 327 392
#     4  11  24  42  64  97 127 171 219 277 325 387
#     4  11  22  39  65  96 127 164 213 275 334 390
#     4  11  22  39  61  95 130 177 207 271 337 411
#
# _framework density 20.221253999999998
#
# number of rings (size 3 to 8) (size 9 to 14) (size 15 to 20)
#    0.000    0.750    5.000    2.625    5.250    0.000 
#    2.250    0.625    0.000    5.250    0.000    0.000 
#    0.000    0.000    0.000    0.000    0.000    0.000 
#
# Total GULP energy -793582.297079 kJ/mol
# GULP energy per Si atom -12399.723392 kJ/mol
# Density = 2.017523 g / cm^3
# Si number density = 20.221254 Si / 1000 Ang^3
#
#
#
# Elastic Constant Matrix: (Units=GPa)
#
#
# Indices 1 2 3 4 5 6 
#
# 1 134.0070 46.8743 29.4341 0.0000 0.0000 0.0000
# 2 46.8743 75.6007 17.4233 0.0000 0.0000 0.0000
# 3 29.4341 17.4233 95.0310 0.0000 0.0000 0.0000
# 4 0.0000 0.0000 0.0000 22.1158 0.0000 0.0000
# 5 0.0000 0.0000 0.0000 0.0000 27.4394 0.0000
# 6 0.0000 0.0000 0.0000 0.0000 0.0000 38.7528
#
#
#
# Elastic Compliance Matrix: (Units=1/GPa)
#
#
# Indices 1 2 3 4 5 6 
#
# 1 0.009888 -0.005664 -0.002024 0.000000 0.000000 0.000000
# 2 -0.005664 0.017056 -0.001373 0.000000 0.000000 0.000000
# 3 -0.002024 -0.001373 0.011401 0.000000 0.000000 0.000000
# 4 0.000000 0.000000 0.000000 0.045217 0.000000 0.000000
# 5 0.000000 0.000000 0.000000 0.000000 0.036444 0.000000
# 6 0.000000 0.000000 0.000000 0.000000 0.000000 0.025805
#
#
# Mechanical properties :
#
#
# Convention : Reuss Voigt Hill
#
# Bulk Modulus (GPa) = 49.44841 54.67803 52.06322
# Shear Modulus (GPa) = 29.29557 31.72206 30.50882
#
# Velocity S-wave (km/s) = 3.81038 3.96504 3.88848
# Velocity P-wave (km/s) = 6.62310 6.93258 6.77960
#
# Compressibility (1/GPa) = 0.02022310
#
# Stress axis : x y z
#
# Youngs Moduli (GPa) = 101.12988 58.63094 87.70788
#
# Poissons Ratio (x) = 0.33211 0.17754
# Poissons Ratio (y) = 0.57285 0.12039
# Poissons Ratio (z) = 0.20470 0.08048
#
# Static dielectric constant tensor:
#      x y z
#    x 3.581210 0.000000 0.000000 
#    y 0.000000 3.515510 0.000000 
#    z 0.000000 0.000000 4.006470 
# 
# 
# High freq. dielectric constant tensor:
#      x y z
#    x 1.779030 0.000000 0.000000 
#    y 0.000000 1.770170 0.000000 
#    z 0.000000 0.000000 1.808390 
# 
# From -- ./inp_files/12546.got.cif
#   From: 2010.03.12/outbox.cif.g09.slc.cpg/sg60_7_cif.got.tgz:12546.got - 2010.04.10 18:46:24.
