data_PCOD8248723
_publ_section_title
;
Structure prediction by ZEFSAII (Michael W. Deem and Ramdas Pophale) SiO2 
 PCOD8248723
Probable space group: P B C A
;
_chemical_formula_sum "Si O2"
_cell_formula_units_Z 64
_cell_length_a 5.350374
_cell_length_b 19.071864
_cell_length_c 28.985451
_cell_angle_alpha 90.000000
_cell_angle_beta 90.000000
_cell_angle_gamma 90.000000
_cell_volume 2957.721950
_symmetry_space_group_name_H-M "P B C A"
_symmetry_group_IT_number 61
_symmetry_cell_setting 'orthorhombic'
loop_
_space_group_symop_operation_xyz
x,y,z
1/2-x,-y,1/2+z
1/2+x,1/2-y,-z
-x,1/2+y,1/2-z
-x,-y,-z
1/2+x,y,1/2-z
1/2-x,1/2+y,z
x,1/2-y,1/2+z
loop_
_atom_site_type_symbol
_atom_site_label
_atom_site_fract_x
_atom_site_fract_y
_atom_site_fract_z
Si Si1 0.699223 0.291274 0.061775
Si Si2 0.786585 0.451293 0.734489
Si Si3 0.813048 0.944460 0.924093
Si Si4 0.358789 0.608308 0.728548
Si Si5 0.200989 0.472498 0.870915
Si Si6 0.312224 0.093136 0.541017
Si Si7 0.042193 0.665587 0.023247
Si Si8 0.037522 0.621201 0.873472
O O1 0.559801 0.361005 0.043998
O O2 0.548601 0.218535 0.063880
O O3 0.812461 0.307386 0.112811
O O4 0.905105 0.284183 0.020943
O O5 0.056130 0.412200 0.739018
O O6 0.850798 0.525819 0.759464
O O7 0.700056 0.453471 0.682273
O O8 0.564437 0.950643 0.892689
O O9 0.779465 0.876250 0.956262
O O10 0.062827 0.934052 0.893986
O O11 0.861450 0.009945 0.958159
O O12 0.097451 0.642751 0.745046
O O13 0.391339 0.624875 0.674619
O O14 0.233960 0.556690 0.873689
O O15 0.166946 0.109486 0.493104
O O16 0.160334 0.111302 0.586638
#
# Coordination Sequence:
#
# PCOD8248723 Si02
#       8
#     8   8   8   8   8   8   8   8
#     4  11  22  39  64  82 123 159 216 260 306 379
#     4  10  18  29  53  84 123 154 189 243 301 366
#     4  11  25  38  61  86 128 159 202 256 310 372
#     4  10  20  30  55  87 126 156 189 247 305 370
#     4  11  21  36  55  90 126 156 194 248 313 361
#     4  10  22  38  60  85 123 158 203 256 304 372
#     4  11  24  41  59  88 113 170 212 254 310 367
#     4  10  21  35  56  91 124 158 196 252 316 353
#
# _framework density 21.638276000000001
#
# number of rings (size 3 to 8) (size 9 to 14) (size 15 to 20)
#    0.000    1.500    5.000    1.125    8.750    0.500 
#    0.000    0.000    0.000    0.000    0.000    5.250 
#    0.000    0.000    0.000    0.000    0.000    0.000 
#
# Total GULP energy -793035.006447 kJ/mol
# GULP energy per Si atom -12391.171976 kJ/mol
# Density = 2.158903 g / cm^3
# Si number density = 21.638276 Si / 1000 Ang^3
#
#
#
# Elastic Constant Matrix: (Units=GPa)
#
#
# Indices 1 2 3 4 5 6 
#
# 1 121.7962 -5.4437 30.8243 0.0000 0.0000 0.0000
# 2 -5.4437 48.4458 13.4460 0.0000 0.0000 0.0000
# 3 30.8243 13.4460 103.9847 0.0000 0.0000 0.0000
# 4 0.0000 0.0000 0.0000 17.5317 0.0000 0.0000
# 5 0.0000 0.0000 0.0000 0.0000 25.8489 0.0000
# 6 0.0000 0.0000 0.0000 0.0000 0.0000 12.7524
#
#
#
# Elastic Compliance Matrix: (Units=1/GPa)
#
#
# Indices 1 2 3 4 5 6 
#
# 1 0.009029 0.001823 -0.002912 0.000000 0.000000 0.000000
# 2 0.001823 0.021778 -0.003356 0.000000 0.000000 0.000000
# 3 -0.002912 -0.003356 0.010914 0.000000 0.000000 0.000000
# 4 0.000000 0.000000 0.000000 0.057039 0.000000 0.000000
# 5 0.000000 0.000000 0.000000 0.000000 0.038686 0.000000
# 6 0.000000 0.000000 0.000000 0.000000 0.000000 0.078416
#
#
# Mechanical properties :
#
#
# Convention : Reuss Voigt Hill
#
# Bulk Modulus (GPa) = 30.46043 39.09777 34.77910
# Shear Modulus (GPa) = 21.21361 26.91996 24.06679
#
# Velocity S-wave (km/s) = 3.13449 3.53099 3.33863
# Velocity P-wave (km/s) = 5.21610 5.89338 5.56505
#
# Compressibility (1/GPa) = 0.03282948
#
# Stress axis : x y z
#
# Youngs Moduli (GPa) = 110.75525 45.91794 91.62495
#
# Poissons Ratio (x) = -0.08370 0.26683
# Poissons Ratio (y) = -0.20188 0.30753
# Poissons Ratio (z) = 0.32254 0.15412
#
# Static dielectric constant tensor:
#      x y z
#    x 4.452200 0.000000 0.000000 
#    y 0.000000 3.541670 0.000000 
#    z 0.000000 0.000000 3.994710 
# 
# 
# High freq. dielectric constant tensor:
#      x y z
#    x 1.873490 0.000000 0.000000 
#    y 0.000000 1.787820 0.000000 
#    z 0.000000 0.000000 1.848990 
# 
# From -- ./inp_files/10675.got.cif
#   From: 2010.03.12/outbox.cif.g09.slc.cpg/sg61_6_cif.got.tgz:10675.got - 2010.04.10 19:05:03.
