data_PCOD8248319
_publ_section_title
;
Structure prediction by ZEFSAII (Michael W. Deem and Ramdas Pophale) SiO2 
 PCOD8248319
Probable space group: P B C N
;
_chemical_formula_sum "Si O2"
_cell_formula_units_Z 40
_cell_length_a 23.306852
_cell_length_b 9.233385
_cell_length_c 8.845528
_cell_angle_alpha 90.000000
_cell_angle_beta 90.000000
_cell_angle_gamma 90.000000
_cell_volume 1903.567689
_symmetry_space_group_name_H-M "P B C N"
_symmetry_group_IT_number 60
_symmetry_cell_setting 'orthorhombic'
loop_
_space_group_symop_operation_xyz
x,y,z
1/2-x,1/2-y,1/2+z
1/2+x,1/2-y,-z
-x,y,1/2-z
-x,-y,-z
1/2+x,1/2+y,1/2-z
1/2-x,1/2+y,z
x,-y,1/2+z
loop_
_atom_site_type_symbol
_atom_site_label
_atom_site_fract_x
_atom_site_fract_y
_atom_site_fract_z
Si Si1 0.660947 0.085950 0.230445
Si Si2 0.632561 0.194692 0.905774
Si Si3 0.649219 0.360933 0.407466
Si Si4 0.705035 0.588802 0.231078
Si Si5 0.957129 0.936896 0.881637
O O1 0.643495 0.192195 0.367842
O O2 0.728411 0.097162 0.197918
O O3 0.636426 0.930173 0.278705
O O4 0.634034 0.128313 0.071758
O O5 0.684980 0.304025 0.866540
O O6 0.572872 0.282001 0.908911
O O7 0.696877 0.426224 0.294010
O O8 0.666311 0.381227 0.582668
O O9 0.590796 0.440565 0.359773
O O10 0.000000 0.905439 0.750000
O O11 0.000000 0.000000 0.000000
#
# Coordination Sequence:
#
# PCOD8248319 Si02
#       5
#     8   8   8   8   8
#     4  12  22  39  60  92 133 162 194 256 312 371
#     4  11  25  39  61  94 125 165 212 252 310 376
#     4  11  23  39  64  94 123 165 215 251 302 376
#     4  11  21  38  61  93 129 168 201 240 304 381
#     4  11  23  45  67  85 114 160 214 267 309 360
#
# _framework density 21.013176000000001
#
# number of rings (size 3 to 8) (size 9 to 14) (size 15 to 20)
#    0.000    0.800    0.000   10.800    0.000    0.000 
#    0.000    5.000    0.000    0.000    0.000    0.000 
#    0.000    0.000    0.000    0.000    0.000    0.000 
#
# Total GULP energy -495735.297912 kJ/mol
# GULP energy per Si atom -12393.382448 kJ/mol
# Density = 2.096535 g / cm^3
# Si number density = 21.013176 Si / 1000 Ang^3
#
#
#
# Elastic Constant Matrix: (Units=GPa)
#
#
# Indices 1 2 3 4 5 6 
#
# 1 106.8019 60.5805 32.0151 0.0000 0.0000 0.0000
# 2 60.5805 122.8024 35.6512 0.0000 0.0000 0.0000
# 3 32.0151 35.6512 109.9899 0.0000 0.0000 0.0000
# 4 0.0000 0.0000 0.0000 41.6601 0.0000 0.0000
# 5 0.0000 0.0000 0.0000 0.0000 31.8215 0.0000
# 6 0.0000 0.0000 0.0000 0.0000 0.0000 31.9546
#
#
#
# Elastic Compliance Matrix: (Units=1/GPa)
#
#
# Indices 1 2 3 4 5 6 
#
# 1 0.013364 -0.006031 -0.001935 0.000000 0.000000 0.000000
# 2 -0.006031 0.011711 -0.002040 0.000000 0.000000 0.000000
# 3 -0.001935 -0.002040 0.010316 0.000000 0.000000 0.000000
# 4 0.000000 0.000000 0.000000 0.024004 0.000000 0.000000
# 5 0.000000 0.000000 0.000000 0.000000 0.031425 0.000000
# 6 0.000000 0.000000 0.000000 0.000000 0.000000 0.031294
#
#
# Mechanical properties :
#
#
# Convention : Reuss Voigt Hill
#
# Bulk Modulus (GPa) = 65.02669 66.23197 65.62933
# Shear Modulus (GPa) = 33.95505 35.17707 34.56606
#
# Velocity S-wave (km/s) = 4.02418 4.09595 4.06022
# Velocity P-wave (km/s) = 7.25292 7.34553 7.29937
#
# Compressibility (1/GPa) = 0.01537830
#
# Stress axis : x y z
#
# Youngs Moduli (GPa) = 74.82737 85.39217 96.93362
#
# Poissons Ratio (x) = 0.51500 0.18758
# Poissons Ratio (y) = 0.45128 0.19778
# Poissons Ratio (z) = 0.14480 0.17423
#
# Static dielectric constant tensor:
#      x y z
#    x 3.705320 0.000000 0.000000 
#    y 0.000000 4.010890 0.000000 
#    z 0.000000 0.000000 3.965070 
# 
# 
# High freq. dielectric constant tensor:
#      x y z
#    x 1.813750 0.000000 0.000000 
#    y 0.000000 1.835700 0.000000 
#    z 0.000000 0.000000 1.837820 
# 
# From -- ./inp_files/7721.got.cif
#   From: 2010.03.12/outbox.cif.g09.slc.cpg/sg60_4_cif.got.tgz:7721.got - 2010.04.10 18:46:24.
