data_PCOD8248604
_publ_section_title
;
Structure prediction by ZEFSAII (Michael W. Deem and Ramdas Pophale) SiO2 
 PCOD8248604
Probable space group: P B C N
;
_chemical_formula_sum "Si O2"
_cell_formula_units_Z 48
_cell_length_a 13.559584
_cell_length_b 34.617525
_cell_length_c 5.032161
_cell_angle_alpha 90.000000
_cell_angle_beta 90.000000
_cell_angle_gamma 90.000000
_cell_volume 2362.092539
_symmetry_space_group_name_H-M "P B C N"
_symmetry_group_IT_number 60
_symmetry_cell_setting 'orthorhombic'
loop_
_space_group_symop_operation_xyz
x,y,z
1/2-x,1/2-y,1/2+z
1/2+x,1/2-y,-z
-x,y,1/2-z
-x,-y,-z
1/2+x,1/2+y,1/2-z
1/2-x,1/2+y,z
x,-y,1/2+z
loop_
_atom_site_type_symbol
_atom_site_label
_atom_site_fract_x
_atom_site_fract_y
_atom_site_fract_z
Si Si1 0.500000 0.355771 0.750000
Si Si2 0.208115 0.355234 0.263309
Si Si3 0.500000 0.939709 0.750000
Si Si4 0.795209 0.893116 0.736346
Si Si5 0.289608 0.975504 0.791956
Si Si6 0.500000 0.113900 0.750000
Si Si7 0.000000 0.801544 0.250000
Si Si8 0.287241 0.728689 0.796631
O O1 0.408174 0.383749 0.698463
O O2 0.520976 0.328581 0.500394
O O3 0.228048 0.368121 0.564749
O O4 0.240210 0.311693 0.212257
O O5 0.092679 0.358431 0.199182
O O6 0.268602 0.382728 0.065598
O O7 0.405647 0.966523 0.790375
O O8 0.479076 0.913119 0.498803
O O9 0.776321 0.938347 0.775127
O O10 0.262667 0.008509 0.581098
O O11 0.094078 0.774119 0.299883
O O12 0.251106 0.760757 0.589134
#
# Coordination Sequence:
#
# PCOD8248604 Si02
#       8
#     4   8   4   8   8   4   4   8
#     4  12  22  44  75 101 114 175 238 277 308 377
#     4  12  23  43  66  97 132 176 218 269 325 388
#     4  12  22  39  63  94 126 185 224 257 320 398
#     4  12  23  43  69  96 126 170 229 273 323 379
#     4  12  24  40  61  96 136 169 214 275 334 391
#     4  12  22  39  67  96 134 169 224 269 318 402
#     4  12  24  44  75  97 130 175 230 265 316 397
#     4  12  26  44  68 102 139 173 213 275 336 390
#
# _framework density 20.320965999999999
#
# number of rings (size 3 to 8) (size 9 to 14) (size 15 to 20)
#    0.000    0.000    6.667    4.500    0.000    1.333 
#    0.000    0.833    0.000    0.000    0.000    0.000 
#    0.000    0.000    0.000    0.000    0.000    0.000 
#
# Total GULP energy -595609.906750 kJ/mol
# GULP energy per Si atom -12408.539724 kJ/mol
# Density = 2.027471 g / cm^3
# Si number density = 20.320966 Si / 1000 Ang^3
#
#
#
# Elastic Constant Matrix: (Units=GPa)
#
#
# Indices 1 2 3 4 5 6 
#
# 1 111.2166 43.9293 -2.1287 0.0000 0.0000 0.0000
# 2 43.9293 86.6015 12.9405 0.0000 0.0000 0.0000
# 3 -2.1287 12.9405 86.2523 0.0000 0.0000 0.0000
# 4 0.0000 0.0000 0.0000 41.5150 0.0000 0.0000
# 5 0.0000 0.0000 0.0000 0.0000 23.3042 0.0000
# 6 0.0000 0.0000 0.0000 0.0000 0.0000 48.2205
#
#
#
# Elastic Compliance Matrix: (Units=1/GPa)
#
#
# Indices 1 2 3 4 5 6 
#
# 1 0.011359 -0.005937 0.001171 0.000000 0.000000 0.000000
# 2 -0.005937 0.014915 -0.002384 0.000000 0.000000 0.000000
# 3 0.001171 -0.002384 0.011981 0.000000 0.000000 0.000000
# 4 0.000000 0.000000 0.000000 0.024088 0.000000 0.000000
# 5 0.000000 0.000000 0.000000 0.000000 0.042911 0.000000
# 6 0.000000 0.000000 0.000000 0.000000 0.000000 0.020738
#
#
# Mechanical properties :
#
#
# Convention : Reuss Voigt Hill
#
# Bulk Modulus (GPa) = 41.74628 43.72807 42.73717
# Shear Modulus (GPa) = 33.72099 37.89655 35.80877
#
# Velocity S-wave (km/s) = 4.07802 4.32313 4.20236
# Velocity P-wave (km/s) = 6.53924 6.81797 6.68006
#
# Compressibility (1/GPa) = 0.02395423
#
# Stress axis : x y z
#
# Youngs Moduli (GPa) = 88.03692 67.04688 83.46890
#
# Poissons Ratio (x) = 0.39805 -0.09775
# Poissons Ratio (y) = 0.52266 0.19901
# Poissons Ratio (z) = -0.10310 0.15985
#
# Static dielectric constant tensor:
#      x y z
#    x 3.787790 0.000000 0.000000 
#    y 0.000000 3.612990 0.000000 
#    z 0.000000 0.000000 3.804620 
# 
# 
# High freq. dielectric constant tensor:
#      x y z
#    x 1.794580 0.000000 0.000000 
#    y 0.000000 1.791130 0.000000 
#    z 0.000000 0.000000 1.814620 
# 
# From -- ./inp_files/1462.got.cif
#   From: 2010.03.12/outbox.cif.g09.slc.cpg/sg60_1_cif.got.tgz:1462.got - 2010.04.10 18:46:24.
