data_PCOD8248705
_publ_section_title
;
Structure prediction by ZEFSAII (Michael W. Deem and Ramdas Pophale) SiO2 
 PCOD8248705
Probable space group: P B C A
;
_chemical_formula_sum "Si O2"
_cell_formula_units_Z 64
_cell_length_a 9.063287
_cell_length_b 14.224601
_cell_length_c 23.411266
_cell_angle_alpha 90.000000
_cell_angle_beta 90.000000
_cell_angle_gamma 90.000000
_cell_volume 3018.218838
_symmetry_space_group_name_H-M "P B C A"
_symmetry_group_IT_number 61
_symmetry_cell_setting 'orthorhombic'
loop_
_space_group_symop_operation_xyz
x,y,z
1/2-x,-y,1/2+z
1/2+x,1/2-y,-z
-x,1/2+y,1/2-z
-x,-y,-z
1/2+x,y,1/2-z
1/2-x,1/2+y,z
x,1/2-y,1/2+z
loop_
_atom_site_type_symbol
_atom_site_label
_atom_site_fract_x
_atom_site_fract_y
_atom_site_fract_z
Si Si1 0.355058 0.554636 0.772929
Si Si2 0.775097 0.236606 0.549380
Si Si3 0.385485 0.725305 0.065009
Si Si4 0.713940 0.567128 0.618022
Si Si5 0.116393 0.076989 0.244286
Si Si6 0.892581 0.618834 0.846059
Si Si7 0.277509 0.415567 0.631545
Si Si8 0.391042 0.635318 0.366732
O O1 0.350740 0.592573 0.838202
O O2 0.450289 0.457972 0.768685
O O3 0.187536 0.520961 0.764017
O O4 0.383015 0.631631 0.723111
O O5 0.701925 0.264569 0.489737
O O6 0.762419 0.123230 0.558521
O O7 0.682773 0.277603 0.602240
O O8 0.941728 0.274947 0.551085
O O9 0.337802 0.790816 0.118772
O O10 0.330664 0.619637 0.080718
O O11 0.563011 0.607499 0.642397
O O12 0.696442 0.455843 0.608588
O O13 0.200234 0.121054 0.190064
O O14 0.122709 0.148084 0.298076
O O15 0.795463 0.528431 0.865964
O O16 0.435564 0.368938 0.619437
#
# Coordination Sequence:
#
# PCOD8248705 Si02
#       8
#     8   8   8   8   8   8   8   8
#     4  10  16  35  60  93 119 151 194 238 293 370
#     4  11  25  44  60  87 120 162 213 265 301 366
#     4  11  25  43  61  85 122 160 216 262 305 363
#     4   9  20  38  64  87 122 163 197 242 311 366
#     4  10  18  33  62  93 125 149 191 242 297 369
#     4   9  19  40  62  86 123 165 193 244 313 366
#     4  10  21  39  63  92 120 164 199 248 307 367
#     4  10  20  40  64  87 125 162 199 246 310 365
#
# _framework density 21.204561000000002
#
# number of rings (size 3 to 8) (size 9 to 14) (size 15 to 20)
#    0.000    2.000    5.000    0.750    3.500    2.000 
#    9.000    7.500    0.000    0.000    0.000    0.000 
#    0.000    0.000    0.000    0.000    0.000    0.000 
#
# Total GULP energy -792872.632182 kJ/mol
# GULP energy per Si atom -12388.634878 kJ/mol
# Density = 2.115630 g / cm^3
# Si number density = 21.204561 Si / 1000 Ang^3
#
#
#
# Elastic Constant Matrix: (Units=GPa)
#
#
# Indices 1 2 3 4 5 6 
#
# 1 77.3879 26.9164 49.0940 0.0000 0.0000 0.0000
# 2 26.9164 52.7728 26.8634 0.0000 0.0000 0.0000
# 3 49.0940 26.8634 91.3425 0.0000 0.0000 0.0000
# 4 0.0000 0.0000 0.0000 34.4739 0.0000 0.0000
# 5 0.0000 0.0000 0.0000 0.0000 36.4135 0.0000
# 6 0.0000 0.0000 0.0000 0.0000 0.0000 23.3158
#
#
#
# Elastic Compliance Matrix: (Units=1/GPa)
#
#
# Indices 1 2 3 4 5 6 
#
# 1 0.021039 -0.005850 -0.009587 0.000000 0.000000 0.000000
# 2 -0.005850 0.023912 -0.003888 0.000000 0.000000 0.000000
# 3 -0.009587 -0.003888 0.017244 0.000000 0.000000 0.000000
# 4 0.000000 0.000000 0.000000 0.029007 0.000000 0.000000
# 5 0.000000 0.000000 0.000000 0.000000 0.027462 0.000000
# 6 0.000000 0.000000 0.000000 0.000000 0.000000 0.042889
#
#
# Mechanical properties :
#
#
# Convention : Reuss Voigt Hill
#
# Bulk Modulus (GPa) = 42.47394 47.47233 44.97313
# Shear Modulus (GPa) = 24.03228 26.74926 25.39077
#
# Velocity S-wave (km/s) = 3.37019 3.55559 3.46413
# Velocity P-wave (km/s) = 5.93450 6.26839 6.10373
#
# Compressibility (1/GPa) = 0.02354385
#
# Stress axis : x y z
#
# Youngs Moduli (GPa) = 47.53138 41.81953 57.99087
#
# Poissons Ratio (x) = 0.24466 0.55597
# Poissons Ratio (y) = 0.27808 0.22547
# Poissons Ratio (z) = 0.45569 0.16260
#
# Static dielectric constant tensor:
#      x y z
#    x 3.858480 0.000000 0.000000 
#    y 0.000000 3.668550 0.000000 
#    z 0.000000 0.000000 4.065440 
# 
# 
# High freq. dielectric constant tensor:
#      x y z
#    x 1.838190 0.000000 0.000000 
#    y 0.000000 1.798100 0.000000 
#    z 0.000000 0.000000 1.827480 
# 
# From -- ./inp_files/10903.got.cif
#   From: 2010.03.12/outbox.cif.g09.slc.cpg/sg61_6_cif.got.tgz:10903.got - 2010.04.10 19:05:03.
