data_PCOD8248581
_publ_section_title
;
Structure prediction by ZEFSAII (Michael W. Deem and Ramdas Pophale) SiO2 
 PCOD8248581
Probable space group: P B C N
;
_chemical_formula_sum "Si O2"
_cell_formula_units_Z 32
_cell_length_a 8.212847
_cell_length_b 19.859175
_cell_length_c 8.517850
_cell_angle_alpha 90.000000
_cell_angle_beta 90.000000
_cell_angle_gamma 90.000000
_cell_volume 1389.264451
_symmetry_space_group_name_H-M "P B C N"
_symmetry_group_IT_number 60
_symmetry_cell_setting 'orthorhombic'
loop_
_space_group_symop_operation_xyz
x,y,z
1/2-x,1/2-y,1/2+z
1/2+x,1/2-y,-z
-x,y,1/2-z
-x,-y,-z
1/2+x,1/2+y,1/2-z
1/2-x,1/2+y,z
x,-y,1/2+z
loop_
_atom_site_type_symbol
_atom_site_label
_atom_site_fract_x
_atom_site_fract_y
_atom_site_fract_z
Si Si1 0.325782 0.067694 0.827563
Si Si2 0.665846 0.540638 0.986974
Si Si3 0.127932 0.307422 0.527869
Si Si4 0.239505 0.322630 0.876330
O O1 0.500000 0.064576 0.750000
O O2 0.189406 0.060294 0.693922
O O3 0.291898 0.138346 0.912321
O O4 0.311434 0.007492 0.953236
O O5 0.500000 0.500000 0.000000
O O6 0.667189 0.607355 0.094358
O O7 0.222362 0.310163 0.691890
O O8 0.147775 0.234441 0.451848
O O9 0.937314 0.323962 0.542996
#
# Coordination Sequence:
#
# PCOD8248581 Si02
#       4
#     8   8   8   8
#     4  12  25  47  74 104 146 199 248 303 376 446
#     4  12  27  46  73 110 152 192 248 315 376 446
#     4  11  26  47  77 106 146 198 250 307 366 454
#     4  11  26  48  74 110 148 195 248 306 377 441
#
# _framework density 23.033771000000002
#
# number of rings (size 3 to 8) (size 9 to 14) (size 15 to 20)
#    0.000    0.500    2.500    4.500    7.000    0.000 
#    0.000    0.000    0.000    0.000    0.000    0.000 
#    0.000    0.000    0.000    0.000    0.000    0.000 
#
# Total GULP energy -397063.213019 kJ/mol
# GULP energy per Si atom -12408.225407 kJ/mol
# Density = 2.298134 g / cm^3
# Si number density = 23.033771 Si / 1000 Ang^3
#
#
#
# Elastic Constant Matrix: (Units=GPa)
#
#
# Indices 1 2 3 4 5 6 
#
# 1 96.8586 62.0899 65.6060 0.0000 0.0000 0.0000
# 2 62.0899 189.4686 49.8160 0.0000 0.0000 0.0000
# 3 65.6060 49.8160 121.2117 0.0000 0.0000 0.0000
# 4 0.0000 0.0000 0.0000 56.3336 0.0000 0.0000
# 5 0.0000 0.0000 0.0000 0.0000 37.0333 0.0000
# 6 0.0000 0.0000 0.0000 0.0000 0.0000 42.6587
#
#
#
# Elastic Compliance Matrix: (Units=1/GPa)
#
#
# Indices 1 2 3 4 5 6 
#
# 1 0.018502 -0.003846 -0.008434 0.000000 0.000000 0.000000
# 2 -0.003846 0.006717 -0.000679 0.000000 0.000000 0.000000
# 3 -0.008434 -0.000679 0.013094 0.000000 0.000000 0.000000
# 4 0.000000 0.000000 0.000000 0.017751 0.000000 0.000000
# 5 0.000000 0.000000 0.000000 0.000000 0.027003 0.000000
# 6 0.000000 0.000000 0.000000 0.000000 0.000000 0.023442
#
#
# Mechanical properties :
#
#
# Convention : Reuss Voigt Hill
#
# Bulk Modulus (GPa) = 80.67282 84.72921 82.70101
# Shear Modulus (GPa) = 36.61460 42.54026 39.57743
#
# Velocity S-wave (km/s) = 3.99131 4.30218 4.14966
# Velocity P-wave (km/s) = 7.50603 7.84493 7.67735
#
# Compressibility (1/GPa) = 0.01239575
#
# Stress axis : x y z
#
# Youngs Moduli (GPa) = 54.04777 148.88233 76.37184
#
# Poissons Ratio (x) = 0.57257 0.64410
# Poissons Ratio (y) = 0.20786 0.05185
# Poissons Ratio (z) = 0.45583 0.10108
#
# Static dielectric constant tensor:
#      x y z
#    x 4.014450 0.000000 0.000000 
#    y 0.000000 4.395840 0.000000 
#    z 0.000000 0.000000 4.755450 
# 
# 
# High freq. dielectric constant tensor:
#      x y z
#    x 1.906830 0.000000 0.000000 
#    y 0.000000 1.924770 0.000000 
#    z 0.000000 0.000000 1.930970 
# 
# From -- ./inp_files/3603.got.cif
#   From: 2010.03.12/outbox.cif.g09.slc.cpg/sg60_2_cif.got.tgz:3603.got - 2010.04.10 18:46:24.
