data_PCOD8248917
_publ_section_title
;
Structure prediction by ZEFSAII (Michael W. Deem and Ramdas Pophale) SiO2 
 PCOD8248917
Probable space group: P B C A
;
_chemical_formula_sum "Si O2"
_cell_formula_units_Z 48
_cell_length_a 10.689865
_cell_length_b 8.748023
_cell_length_c 20.439936
_cell_angle_alpha 90.000000
_cell_angle_beta 90.000000
_cell_angle_gamma 90.000000
_cell_volume 1911.444394
_symmetry_space_group_name_H-M "P B C A"
_symmetry_group_IT_number 61
_symmetry_cell_setting 'orthorhombic'
loop_
_space_group_symop_operation_xyz
x,y,z
1/2-x,-y,1/2+z
1/2+x,1/2-y,-z
-x,1/2+y,1/2-z
-x,-y,-z
1/2+x,y,1/2-z
1/2-x,1/2+y,z
x,1/2-y,1/2+z
loop_
_atom_site_type_symbol
_atom_site_label
_atom_site_fract_x
_atom_site_fract_y
_atom_site_fract_z
Si Si1 0.595127 0.925799 0.229154
Si Si2 0.348860 0.430363 0.784002
Si Si3 0.892692 0.929640 0.593921
Si Si4 0.648019 0.619958 0.475413
Si Si5 0.114238 0.408813 0.410082
Si Si6 0.137303 0.544421 0.548042
O O1 0.722010 0.014398 0.253373
O O2 0.470360 0.964694 0.270298
O O3 0.559434 0.979081 0.156454
O O4 0.620699 0.744326 0.231758
O O5 0.314730 0.467102 0.862034
O O6 0.839947 0.760819 0.611054
O O7 0.006329 0.900801 0.543952
O O8 0.809088 0.043143 0.547315
O O9 0.681382 0.795845 0.483447
O O10 0.738069 0.537096 0.421934
O O11 0.099930 0.430463 0.488379
O O12 0.964055 0.433249 0.394033
#
# Coordination Sequence:
#
# PCOD8248917 Si02
#       6
#     8   8   8   8   8   8
#     4  12  26  46  70  96 128 168 216 268 324 384
#     4  12  26  46  70  96 128 168 216 268 324 384
#     4  10  21  38  59  86 121 161 206 254 310 375
#     4  10  20  34  56  86 121 160 202 251 308 371
#     4  10  21  38  59  86 121 161 206 254 310 375
#     4  10  20  34  56  86 121 160 202 251 308 371
#
# _framework density 25.111899999999999
#
# number of rings (size 3 to 8) (size 9 to 14) (size 15 to 20)
#    0.000    1.333    0.000    6.000    0.000    5.333 
#    0.000    3.333    0.000    0.000    0.000    0.000 
#    0.000    0.000    0.000    0.000    0.000    0.000 
#
# Total GULP energy -594774.200827 kJ/mol
# GULP energy per Si atom -12391.129184 kJ/mol
# Density = 2.505474 g / cm^3
# Si number density = 25.111900 Si / 1000 Ang^3
#
#
#
# Elastic Constant Matrix: (Units=GPa)
#
#
# Indices 1 2 3 4 5 6 
#
# 1 86.0403 29.0256 6.1550 0.0000 0.0000 0.0000
# 2 29.0256 163.2201 9.9137 0.0000 0.0000 0.0000
# 3 6.1550 9.9137 41.0260 0.0000 0.0000 0.0000
# 4 0.0000 0.0000 0.0000 32.4216 0.0000 0.0000
# 5 0.0000 0.0000 0.0000 0.0000 28.5744 0.0000
# 6 0.0000 0.0000 0.0000 0.0000 0.0000 48.8260
#
#
#
# Elastic Compliance Matrix: (Units=1/GPa)
#
#
# Indices 1 2 3 4 5 6 
#
# 1 0.012438 -0.002130 -0.001351 0.000000 0.000000 0.000000
# 2 -0.002130 0.006583 -0.001271 0.000000 0.000000 0.000000
# 3 -0.001351 -0.001271 0.024885 0.000000 0.000000 0.000000
# 4 0.000000 0.000000 0.000000 0.030844 0.000000 0.000000
# 5 0.000000 0.000000 0.000000 0.000000 0.034996 0.000000
# 6 0.000000 0.000000 0.000000 0.000000 0.000000 0.020481
#
#
# Mechanical properties :
#
#
# Convention : Reuss Voigt Hill
#
# Bulk Modulus (GPa) = 29.06932 42.27500 35.67216
# Shear Modulus (GPa) = 33.06944 38.31054 35.68999
#
# Velocity S-wave (km/s) = 3.63283 3.91012 3.77402
# Velocity P-wave (km/s) = 5.40348 6.10382 5.76430
#
# Compressibility (1/GPa) = 0.03440053
#
# Stress axis : x y z
#
# Youngs Moduli (GPa) = 80.40151 151.91496 40.18536
#
# Poissons Ratio (x) = 0.32353 0.05430
# Poissons Ratio (y) = 0.17123 0.05108
# Poissons Ratio (z) = 0.10865 0.19311
#
# Static dielectric constant tensor:
#      x y z
#    x 5.711270 0.000000 0.000000 
#    y 0.000000 4.596200 0.000000 
#    z 0.000000 0.000000 4.086350 
# 
# 
# High freq. dielectric constant tensor:
#      x y z
#    x 2.055820 0.000000 0.000000 
#    y 0.000000 2.010370 0.000000 
#    z 0.000000 0.000000 1.966200 
# 
# From -- ./inp_files/10977.got.cif
#   From: 2010.03.12/outbox.cif.g09.slc.cpg/sg61_6_cif.got.tgz:10977.got - 2010.04.10 19:05:03.
