data_PCOD8248842
_publ_section_title
;
Structure prediction by ZEFSAII (Michael W. Deem and Ramdas Pophale) SiO2 
 PCOD8248842
Probable space group: P B C A
;
_chemical_formula_sum "Si O2"
_cell_formula_units_Z 64
_cell_length_a 17.471966
_cell_length_b 9.630841
_cell_length_c 19.568087
_cell_angle_alpha 90.000000
_cell_angle_beta 90.000000
_cell_angle_gamma 90.000000
_cell_volume 3292.716648
_symmetry_space_group_name_H-M "P B C A"
_symmetry_group_IT_number 61
_symmetry_cell_setting 'orthorhombic'
loop_
_space_group_symop_operation_xyz
x,y,z
1/2-x,-y,1/2+z
1/2+x,1/2-y,-z
-x,1/2+y,1/2-z
-x,-y,-z
1/2+x,y,1/2-z
1/2-x,1/2+y,z
x,1/2-y,1/2+z
loop_
_atom_site_type_symbol
_atom_site_label
_atom_site_fract_x
_atom_site_fract_y
_atom_site_fract_z
Si Si1 0.071555 0.397827 0.001185
Si Si2 0.043045 0.744767 0.823119
Si Si3 0.022551 0.382495 0.551058
Si Si4 0.077077 0.432132 0.853044
Si Si5 0.644975 0.963948 0.367099
Si Si6 0.124800 0.206758 0.223734
Si Si7 0.588403 0.826272 0.820807
Si Si8 0.316457 0.566600 0.629928
O O1 0.114033 0.414990 0.928326
O O2 0.034818 0.247713 0.003080
O O3 0.129192 0.409839 0.064714
O O4 0.000000 0.500000 0.000000
O O5 0.082500 0.595157 0.833828
O O6 0.086807 0.821215 0.761687
O O7 0.041659 0.842644 0.891130
O O8 0.954994 0.727446 0.801464
O O9 0.102556 0.431043 0.582424
O O10 0.000000 0.500000 0.500000
O O11 0.121869 0.319389 0.805506
O O12 0.987154 0.395074 0.852317
O O13 0.597639 0.823799 0.355335
O O14 0.729457 0.936057 0.396431
O O15 0.646350 0.049830 0.297021
O O16 0.183493 0.316961 0.190719
O O17 0.662026 0.918991 0.837760
#
# Coordination Sequence:
#
# PCOD8248842 Si02
#       8
#     8   8   8   8   8   8   8   8
#     4  12  21  39  61  94 124 167 209 258 319 378
#     4  10  19  36  59  91 122 147 202 265 310 357
#     4  11  23  39  61  93 128 157 209 265 306 378
#     4  11  20  36  66  90 122 155 204 264 318 364
#     4  11  23  39  62  88 123 165 206 254 311 370
#     4  10  20  39  59  89 118 156 204 261 301 366
#     4  11  21  34  64  92 110 162 208 256 313 363
#     4  12  23  40  63  87 128 169 214 255 312 391
#
# _framework density 19.436837000000001
#
# number of rings (size 3 to 8) (size 9 to 14) (size 15 to 20)
#    0.000    1.000    7.500    1.500    0.000    1.000 
#    0.000    0.000    8.250    0.000    0.000    0.000 
#    0.000    0.000    0.000    0.000    0.000    0.000 
#
# Total GULP energy -792984.230101 kJ/mol
# GULP energy per Si atom -12390.378595 kJ/mol
# Density = 1.939260 g / cm^3
# Si number density = 19.436837 Si / 1000 Ang^3
#
#
#
# Elastic Constant Matrix: (Units=GPa)
#
#
# Indices 1 2 3 4 5 6 
#
# 1 56.1793 21.0396 24.8532 0.0000 0.0000 0.0000
# 2 21.0396 123.5898 44.8421 0.0000 0.0000 0.0000
# 3 24.8532 44.8421 128.3481 0.0000 0.0000 0.0000
# 4 0.0000 0.0000 0.0000 37.2860 0.0000 0.0000
# 5 0.0000 0.0000 0.0000 0.0000 11.9153 0.0000
# 6 0.0000 0.0000 0.0000 0.0000 0.0000 24.2095
#
#
#
# Elastic Compliance Matrix: (Units=1/GPa)
#
#
# Indices 1 2 3 4 5 6 
#
# 1 0.020019 -0.002292 -0.003076 0.000000 0.000000 0.000000
# 2 -0.002292 0.009528 -0.002885 0.000000 0.000000 0.000000
# 3 -0.003076 -0.002885 0.009395 0.000000 0.000000 0.000000
# 4 0.000000 0.000000 0.000000 0.026820 0.000000 0.000000
# 5 0.000000 0.000000 0.000000 0.000000 0.083926 0.000000
# 6 0.000000 0.000000 0.000000 0.000000 0.000000 0.041306
#
#
# Mechanical properties :
#
#
# Convention : Reuss Voigt Hill
#
# Bulk Modulus (GPa) = 44.57007 54.39855 49.48431
# Shear Modulus (GPa) = 23.25808 29.17429 26.21619
#
# Velocity S-wave (km/s) = 3.46294 3.87845 3.67657
# Velocity P-wave (km/s) = 6.24258 6.93575 6.59827
#
# Compressibility (1/GPa) = 0.02243658
#
# Stress axis : x y z
#
# Youngs Moduli (GPa) = 49.95205 104.95050 106.44074
#
# Poissons Ratio (x) = 0.24055 0.32738
# Poissons Ratio (y) = 0.11449 0.30710
# Poissons Ratio (z) = 0.15364 0.30280
#
# Static dielectric constant tensor:
#      x y z
#    x 3.172250 0.000000 0.000000 
#    y 0.000000 3.635850 0.000000 
#    z 0.000000 0.000000 3.504040 
# 
# 
# High freq. dielectric constant tensor:
#      x y z
#    x 1.713320 0.000000 0.000000 
#    y 0.000000 1.777100 0.000000 
#    z 0.000000 0.000000 1.760840 
# 
# From -- ./inp_files/10560.got.cif
#   From: 2010.03.12/outbox.cif.g09.slc.cpg/sg61_6_cif.got.tgz:10560.got - 2010.04.10 19:05:03.
