data_PCOD8248166
_publ_section_title
;
Structure prediction by ZEFSAII (Michael W. Deem and Ramdas Pophale) SiO2 
 PCOD8248166
Probable space group: P B C N
;
_chemical_formula_sum "Si O2"
_cell_formula_units_Z 60
_cell_length_a 10.943093
_cell_length_b 9.220963
_cell_length_c 25.921768
_cell_angle_alpha 90.000000
_cell_angle_beta 90.000000
_cell_angle_gamma 90.000000
_cell_volume 2615.658180
_symmetry_space_group_name_H-M "P B C N"
_symmetry_group_IT_number 60
_symmetry_cell_setting 'orthorhombic'
loop_
_space_group_symop_operation_xyz
x,y,z
1/2-x,1/2-y,1/2+z
1/2+x,1/2-y,-z
-x,y,1/2-z
-x,-y,-z
1/2+x,1/2+y,1/2-z
1/2-x,1/2+y,z
x,-y,1/2+z
loop_
_atom_site_type_symbol
_atom_site_label
_atom_site_fract_x
_atom_site_fract_y
_atom_site_fract_z
Si Si1 0.629761 0.000175 0.635970
Si Si2 0.131944 0.537917 0.980721
Si Si3 0.017460 0.975537 0.587589
Si Si4 0.500000 0.576768 0.750000
Si Si5 0.851497 0.829517 0.159004
Si Si6 0.907943 0.453754 0.298433
Si Si7 0.643320 0.349914 0.498661
Si Si8 0.833528 0.871547 0.816456
O O1 0.640320 0.066068 0.579680
O O2 0.720876 0.095875 0.671811
O O3 0.491487 0.028769 0.651608
O O4 0.666343 0.830816 0.636662
O O5 0.223346 0.412227 0.994739
O O6 0.171508 0.682322 0.010085
O O7 0.000000 0.500000 0.000000
O O8 0.916297 0.063182 0.619084
O O9 0.088955 0.093121 0.554442
O O10 0.947242 0.869290 0.547843
O O11 0.113214 0.891603 0.625140
O O12 0.572253 0.683161 0.711684
O O13 0.409590 0.471868 0.720863
O O14 0.806613 0.579683 0.306730
O O15 0.843993 0.295816 0.298884
O O16 0.000000 0.477913 0.250000
#
# Coordination Sequence:
#
# PCOD8248166 Si02
#       8
#     8   8   8   4   8   8   8   8
#     4  12  27  45  74 104 145 189 243 296 364 436
#     4  12  27  44  72 107 148 193 247 300 365 434
#     4  10  24  45  75 101 148 193 241 301 363 431
#     4  10  24  44  74  92 138 182 228 296 358 420
#     4  11  25  45  72 104 140 186 244 296 363 435
#     4  12  29  47  73 105 143 184 241 296 365 432
#     4  11  25  45  71 105 149 192 245 299 365 431
#     4  11  26  48  71 104 141 185 237 295 361 426
#
# _framework density 22.938776000000001
#
# number of rings (size 3 to 8) (size 9 to 14) (size 15 to 20)
#    0.000    0.800    2.000    3.200   14.000    3.200 
#    0.000    0.000    0.000    0.000    0.000    0.000 
#    0.000    0.000    0.000    0.000    0.000    0.000 
#
# Total GULP energy -744044.232132 kJ/mol
# GULP energy per Si atom -12400.737202 kJ/mol
# Density = 2.288657 g / cm^3
# Si number density = 22.938776 Si / 1000 Ang^3
#
#
#
# Elastic Constant Matrix: (Units=GPa)
#
#
# Indices 1 2 3 4 5 6 
#
# 1 161.5193 41.2107 27.6610 0.0000 0.0000 0.0000
# 2 41.2107 91.8775 -0.7718 0.0000 0.0000 0.0000
# 3 27.6610 -0.7718 71.9572 0.0000 0.0000 0.0000
# 4 0.0000 0.0000 0.0000 74.6431 0.0000 0.0000
# 5 0.0000 0.0000 0.0000 0.0000 24.0054 0.0000
# 6 0.0000 0.0000 0.0000 0.0000 0.0000 42.6267
#
#
#
# Elastic Compliance Matrix: (Units=1/GPa)
#
#
# Indices 1 2 3 4 5 6 
#
# 1 0.007568 -0.003419 -0.002946 0.000000 0.000000 0.000000
# 2 -0.003419 0.012430 0.001448 0.000000 0.000000 0.000000
# 3 -0.002946 0.001448 0.015045 0.000000 0.000000 0.000000
# 4 0.000000 0.000000 0.000000 0.013397 0.000000 0.000000
# 5 0.000000 0.000000 0.000000 0.000000 0.041657 0.000000
# 6 0.000000 0.000000 0.000000 0.000000 0.000000 0.023459
#
#
# Mechanical properties :
#
#
# Convention : Reuss Voigt Hill
#
# Bulk Modulus (GPa) = 39.66975 51.28374 45.47675
# Shear Modulus (GPa) = 37.93776 45.40533 41.67154
#
# Velocity S-wave (km/s) = 4.07119 4.45389 4.26683
# Velocity P-wave (km/s) = 6.27939 6.98962 6.64400
#
# Compressibility (1/GPa) = 0.02520812
#
# Stress axis : x y z
#
# Youngs Moduli (GPa) = 132.13274 80.45095 66.46671
#
# Poissons Ratio (x) = 0.27509 0.19581
# Poissons Ratio (y) = 0.45181 -0.09623
# Poissons Ratio (z) = 0.38926 -0.11647
#
# Static dielectric constant tensor:
#      x y z
#    x 4.121280 0.000000 0.000000 
#    y 0.000000 4.154920 0.000000 
#    z 0.000000 0.000000 4.302830 
# 
# 
# High freq. dielectric constant tensor:
#      x y z
#    x 1.922730 0.000000 0.000000 
#    y 0.000000 1.912190 0.000000 
#    z 0.000000 0.000000 1.912580 
# 
# From -- ./inp_files/25330.got.cif
#   From: 2010.03.12/outbox.cif.g09.slc.cpg/sg60_13_cif.got.tgz:25330.got - 2010.04.10 18:46:24.
