data_PCOD8248040
_publ_section_title
;
Structure prediction by ZEFSAII (Michael W. Deem and Ramdas Pophale) SiO2 
 PCOD8248040
Probable space group: P B C N
;
_chemical_formula_sum "Si O2"
_cell_formula_units_Z 56
_cell_length_a 13.720566
_cell_length_b 21.309829
_cell_length_c 8.791249
_cell_angle_alpha 90.000000
_cell_angle_beta 90.000000
_cell_angle_gamma 90.000000
_cell_volume 2570.411011
_symmetry_space_group_name_H-M "P B C N"
_symmetry_group_IT_number 60
_symmetry_cell_setting 'orthorhombic'
loop_
_space_group_symop_operation_xyz
x,y,z
1/2-x,1/2-y,1/2+z
1/2+x,1/2-y,-z
-x,y,1/2-z
-x,-y,-z
1/2+x,1/2+y,1/2-z
1/2-x,1/2+y,z
x,-y,1/2+z
loop_
_atom_site_type_symbol
_atom_site_label
_atom_site_fract_x
_atom_site_fract_y
_atom_site_fract_z
Si Si1 0.777879 0.470144 0.308094
Si Si2 0.013846 0.814610 0.073387
Si Si3 0.321529 0.778380 0.613132
Si Si4 0.943423 0.948005 0.405255
Si Si5 0.356605 0.226029 0.465443
Si Si6 0.338729 0.918792 0.516030
Si Si7 0.543371 0.106841 0.913968
O O1 0.670623 0.459521 0.376079
O O2 0.802070 0.543996 0.333795
O O3 0.785423 0.448756 0.132706
O O4 0.859016 0.434630 0.409282
O O5 0.086080 0.756837 0.042545
O O6 0.047845 0.881401 0.003848
O O7 0.000000 0.825462 0.250000
O O8 0.910190 0.792812 0.007782
O O9 0.234481 0.730189 0.576747
O O10 0.324977 0.785979 0.792904
O O11 0.309978 0.845664 0.530657
O O12 0.000000 0.944229 0.250000
O O13 0.000000 0.000000 0.500000
O O14 0.430235 0.171147 0.505850
O O15 0.456312 0.926572 0.508161
O O16 0.500000 0.122450 0.750000
#
# Coordination Sequence:
#
# PCOD8248040 Si02
#       7
#     8   8   8   8   8   8   8
#     4  11  25  43  69  97 139 186 236 291 355 430
#     4   9  21  42  66  94 129 176 220 285 349 414
#     4  11  25  42  71 102 138 184 235 293 365 432
#     4  11  24  44  70  94 136 181 237 286 352 420
#     4  11  24  42  70 100 140 180 233 293 358 428
#     4  11  25  45  69 102 142 186 238 292 371 435
#     4  10  23  44  71 103 140 183 232 297 357 431
#
# _framework density 21.786397999999998
#
# number of rings (size 3 to 8) (size 9 to 14) (size 15 to 20)
#    0.000    1.429    1.429    2.143   14.000    0.000 
#    2.571    0.714    0.000    0.000    0.000    0.000 
#    0.000    0.000    0.000    0.000    0.000    0.000 
#
# Total GULP energy -694099.824160 kJ/mol
# GULP energy per Si atom -12394.639717 kJ/mol
# Density = 2.173681 g / cm^3
# Si number density = 21.786398 Si / 1000 Ang^3
#
#
#
# Elastic Constant Matrix: (Units=GPa)
#
#
# Indices 1 2 3 4 5 6 
#
# 1 141.6511 40.1524 44.9477 0.0000 0.0000 0.0000
# 2 40.1524 144.8926 52.1967 0.0000 0.0000 0.0000
# 3 44.9477 52.1967 62.4290 0.0000 0.0000 0.0000
# 4 0.0000 0.0000 0.0000 49.3638 0.0000 0.0000
# 5 0.0000 0.0000 0.0000 0.0000 30.2595 0.0000
# 6 0.0000 0.0000 0.0000 0.0000 0.0000 54.6046
#
#
#
# Elastic Compliance Matrix: (Units=1/GPa)
#
#
# Indices 1 2 3 4 5 6 
#
# 1 0.009155 -0.000233 -0.006397 0.000000 0.000000 0.000000
# 2 -0.000233 0.009882 -0.008095 0.000000 0.000000 0.000000
# 3 -0.006397 -0.008095 0.027392 0.000000 0.000000 0.000000
# 4 0.000000 0.000000 0.000000 0.020258 0.000000 0.000000
# 5 0.000000 0.000000 0.000000 0.000000 0.033047 0.000000
# 6 0.000000 0.000000 0.000000 0.000000 0.000000 0.018313
#
#
# Mechanical properties :
#
#
# Convention : Reuss Voigt Hill
#
# Bulk Modulus (GPa) = 58.89207 69.28515 64.08861
# Shear Modulus (GPa) = 32.64579 40.95732 36.80155
#
# Velocity S-wave (km/s) = 3.87518 4.34054 4.11444
# Velocity P-wave (km/s) = 6.86389 7.54927 7.21472
#
# Compressibility (1/GPa) = 0.01698022
#
# Stress axis : x y z
#
# Youngs Moduli (GPa) = 109.22429 101.19060 36.50636
#
# Poissons Ratio (x) = 0.02353 0.23354
# Poissons Ratio (y) = 0.02540 0.29553
# Poissons Ratio (z) = 0.69874 0.81915
#
# Static dielectric constant tensor:
#      x y z
#    x 3.971680 0.000000 0.000000 
#    y 0.000000 4.790300 0.000000 
#    z 0.000000 0.000000 3.637390 
# 
# 
# High freq. dielectric constant tensor:
#      x y z
#    x 1.874750 0.000000 0.000000 
#    y 0.000000 1.870100 0.000000 
#    z 0.000000 0.000000 1.832650 
# 
# From -- ./inp_files/6171.got.cif
#   From: 2010.03.12/outbox.cif.g09.slc.cpg/sg60_4_cif.got.tgz:6171.got - 2010.04.10 18:46:24.
