data_PCOD8248973
_publ_section_title
;
Structure prediction by ZEFSAII (Michael W. Deem and Ramdas Pophale) SiO2 
 PCOD8248973
Probable space group: P B C A
;
_chemical_formula_sum "Si O2"
_cell_formula_units_Z 48
_cell_length_a 17.837937
_cell_length_b 9.287205
_cell_length_c 15.861578
_cell_angle_alpha 90.000000
_cell_angle_beta 90.000000
_cell_angle_gamma 90.000000
_cell_volume 2627.701621
_symmetry_space_group_name_H-M "P B C A"
_symmetry_group_IT_number 61
_symmetry_cell_setting 'orthorhombic'
loop_
_space_group_symop_operation_xyz
x,y,z
1/2-x,-y,1/2+z
1/2+x,1/2-y,-z
-x,1/2+y,1/2-z
-x,-y,-z
1/2+x,y,1/2-z
1/2-x,1/2+y,z
x,1/2-y,1/2+z
loop_
_atom_site_type_symbol
_atom_site_label
_atom_site_fract_x
_atom_site_fract_y
_atom_site_fract_z
Si Si1 0.070234 0.361016 0.820230
Si Si2 0.179536 0.419676 0.146743
Si Si3 0.022527 0.086536 0.081496
Si Si4 0.064688 0.387218 0.010519
Si Si5 0.828604 0.592950 0.328252
Si Si6 0.451950 0.955408 0.264147
O O1 0.092173 0.338992 0.917728
O O2 0.146033 0.402887 0.769765
O O3 0.009935 0.489528 0.807505
O O4 0.033697 0.213189 0.784307
O O5 0.195098 0.250744 0.143277
O O6 0.259546 0.491622 0.152898
O O7 0.131834 0.470613 0.227849
O O8 0.134502 0.457737 0.060733
O O9 0.102290 0.031120 0.116674
O O10 0.959906 0.055003 0.152803
O O11 0.029332 0.255551 0.063360
O O12 0.000000 0.000000 0.000000
O O13 0.000000 0.500000 0.000000
#
# Coordination Sequence:
#
# PCOD8248973 Si02
#       6
#     8   8   8   8   8   8
#     4  10  20  37  59  87 115 152 194 244 293 352
#     4  10  21  40  57  82 119 155 194 238 298 347
#     4  10  20  38  61  85 114 151 196 244 299 344
#     4  11  21  37  60  90 120 149 197 255 287 345
#     4   9  22  38  56  81 118 156 190 239 294 354
#     4  10  20  36  62  84 117 150 193 241 295 360
#
# _framework density 18.266914
#
# number of rings (size 3 to 8) (size 9 to 14) (size 15 to 20)
#    0.000    2.000    3.333    1.000    0.000    4.000 
#    3.000    0.000    0.000    0.000    0.000    0.000 
#    0.000    0.000    0.000    0.000    0.000    0.000 
#
# Total GULP energy -595078.950733 kJ/mol
# GULP energy per Si atom -12397.478140 kJ/mol
# Density = 1.822534 g / cm^3
# Si number density = 18.266914 Si / 1000 Ang^3
#
#
#
# Elastic Constant Matrix: (Units=GPa)
#
#
# Indices 1 2 3 4 5 6 
#
# 1 98.3551 48.3222 49.9238 0.0000 0.0000 0.0000
# 2 48.3222 68.7658 37.3551 0.0000 0.0000 0.0000
# 3 49.9238 37.3551 131.0000 0.0000 0.0000 0.0000
# 4 0.0000 0.0000 0.0000 31.4365 0.0000 0.0000
# 5 0.0000 0.0000 0.0000 0.0000 25.9748 0.0000
# 6 0.0000 0.0000 0.0000 0.0000 0.0000 37.4317
#
#
#
# Elastic Compliance Matrix: (Units=1/GPa)
#
#
# Indices 1 2 3 4 5 6 
#
# 1 0.016853 -0.009885 -0.003604 0.000000 0.000000 0.000000
# 2 -0.009885 0.023006 -0.002793 0.000000 0.000000 0.000000
# 3 -0.003604 -0.002793 0.009803 0.000000 0.000000 0.000000
# 4 0.000000 0.000000 0.000000 0.031810 0.000000 0.000000
# 5 0.000000 0.000000 0.000000 0.000000 0.038499 0.000000
# 6 0.000000 0.000000 0.000000 0.000000 0.000000 0.026715
#
#
# Mechanical properties :
#
#
# Convention : Reuss Voigt Hill
#
# Bulk Modulus (GPa) = 58.48538 63.25815 60.87176
# Shear Modulus (GPa) = 27.03434 29.80324 28.41879
#
# Velocity S-wave (km/s) = 3.85120 4.04362 3.94858
# Velocity P-wave (km/s) = 7.20155 7.51706 7.36099
#
# Compressibility (1/GPa) = 0.01709829
#
# Stress axis : x y z
#
# Youngs Moduli (GPa) = 59.33615 43.46758 102.00487
#
# Poissons Ratio (x) = 0.42968 0.36762
# Poissons Ratio (y) = 0.58654 0.28490
# Poissons Ratio (z) = 0.21384 0.12140
#
# Static dielectric constant tensor:
#      x y z
#    x 3.206650 0.000000 0.000000 
#    y 0.000000 3.410170 0.000000 
#    z 0.000000 0.000000 3.949270 
# 
# 
# High freq. dielectric constant tensor:
#      x y z
#    x 1.684390 0.000000 0.000000 
#    y 0.000000 1.710590 0.000000 
#    z 0.000000 0.000000 1.723660 
# 
# From -- ./inp_files/3496.got.cif
#   From: 2010.03.12/outbox.cif.g09.slc.cpg/sg61_2_cif.got.tgz:3496.got - 2010.04.10 19:05:03.
