data_PCOD8248300
_publ_section_title
;
Structure prediction by ZEFSAII (Michael W. Deem and Ramdas Pophale) SiO2 
 PCOD8248300
Probable space group: P B C N
;
_chemical_formula_sum "Si O2"
_cell_formula_units_Z 64
_cell_length_a 14.285060
_cell_length_b 11.640100
_cell_length_c 18.285349
_cell_angle_alpha 90.000000
_cell_angle_beta 90.000000
_cell_angle_gamma 90.000000
_cell_volume 3040.479181
_symmetry_space_group_name_H-M "P B C N"
_symmetry_group_IT_number 60
_symmetry_cell_setting 'orthorhombic'
loop_
_space_group_symop_operation_xyz
x,y,z
1/2-x,1/2-y,1/2+z
1/2+x,1/2-y,-z
-x,y,1/2-z
-x,-y,-z
1/2+x,1/2+y,1/2-z
1/2-x,1/2+y,z
x,-y,1/2+z
loop_
_atom_site_type_symbol
_atom_site_label
_atom_site_fract_x
_atom_site_fract_y
_atom_site_fract_z
Si Si1 0.170368 0.624768 0.360114
Si Si2 0.756301 0.256423 0.265592
Si Si3 0.907537 0.595210 0.702860
Si Si4 0.909762 0.088455 0.299245
Si Si5 0.523428 0.276964 0.596748
Si Si6 0.365167 0.633226 0.613687
Si Si7 0.442247 0.297736 0.447004
Si Si8 0.660107 0.539567 0.046180
O O1 0.189918 0.727583 0.302597
O O2 0.101149 0.535973 0.320821
O O3 0.118656 0.691588 0.423236
O O4 0.250282 0.550211 0.401272
O O5 0.816303 0.371188 0.250187
O O6 0.822467 0.144073 0.257816
O O7 0.699796 0.273578 0.342652
O O8 0.913819 0.676390 0.631280
O O9 0.000000 0.612715 0.750000
O O10 0.000000 0.058935 0.250000
O O11 0.934420 0.191184 0.354513
O O12 0.867620 0.976764 0.335380
O O13 0.487281 0.240676 0.518373
O O14 0.580082 0.395194 0.590210
O O15 0.472132 0.675987 0.607781
O O16 0.323569 0.599006 0.533723
O O17 0.376770 0.409010 0.463032
#
# Coordination Sequence:
#
# PCOD8248300 Si02
#       8
#     8   8   8   8   8   8   8   8
#     4  12  28  42  67 101 142 183 220 287 349 415
#     4  12  25  43  65 104 135 183 231 281 343 411
#     4  12  25  45  68  95 142 183 224 280 349 419
#     4  12  21  41  72  97 130 183 228 280 345 413
#     4  11  20  45  71  93 127 178 232 274 339 410
#     4  11  26  41  71 104 135 173 236 294 333 408
#     4  11  25  45  71  99 136 178 233 287 348 411
#     4  11  22  45  71 101 132 174 239 289 338 402
#
# _framework density 21.049313000000001
#
# number of rings (size 3 to 8) (size 9 to 14) (size 15 to 20)
#    0.000    0.500    6.250    2.250    5.250    0.500 
#    2.250    0.000    0.000    0.000    0.000    0.000 
#    0.000    0.000    0.000    0.000    0.000    0.000 
#
# Total GULP energy -793281.343605 kJ/mol
# GULP energy per Si atom -12395.020994 kJ/mol
# Density = 2.100140 g / cm^3
# Si number density = 21.049313 Si / 1000 Ang^3
#
#
#
# Elastic Constant Matrix: (Units=GPa)
#
#
# Indices 1 2 3 4 5 6 
#
# 1 61.5916 23.4114 41.8081 0.0000 0.0000 0.0000
# 2 23.4114 69.4541 38.2548 0.0000 0.0000 0.0000
# 3 41.8081 38.2548 90.9907 0.0000 0.0000 0.0000
# 4 0.0000 0.0000 0.0000 33.8091 0.0000 0.0000
# 5 0.0000 0.0000 0.0000 0.0000 37.0592 0.0000
# 6 0.0000 0.0000 0.0000 0.0000 0.0000 12.4587
#
#
#
# Elastic Compliance Matrix: (Units=1/GPa)
#
#
# Indices 1 2 3 4 5 6 
#
# 1 0.023956 -0.002619 -0.009906 0.000000 0.000000 0.000000
# 2 -0.002619 0.019023 -0.006795 0.000000 0.000000 0.000000
# 3 -0.009906 -0.006795 0.018398 0.000000 0.000000 0.000000
# 4 0.000000 0.000000 0.000000 0.029578 0.000000 0.000000
# 5 0.000000 0.000000 0.000000 0.000000 0.026984 0.000000
# 6 0.000000 0.000000 0.000000 0.000000 0.000000 0.080265
#
#
# Mechanical properties :
#
#
# Convention : Reuss Voigt Hill
#
# Bulk Modulus (GPa) = 43.97855 47.66500 45.82177
# Shear Modulus (GPa) = 20.45644 24.56954 22.51299
#
# Velocity S-wave (km/s) = 3.12081 3.42019 3.27392
# Velocity P-wave (km/s) = 5.82446 6.18794 6.00895
#
# Compressibility (1/GPa) = 0.02273836
#
# Stress axis : x y z
#
# Youngs Moduli (GPa) = 41.74401 52.56773 54.35274
#
# Poissons Ratio (x) = 0.13766 0.53842
# Poissons Ratio (y) = 0.10931 0.36930
# Poissons Ratio (z) = 0.41352 0.35717
#
# Static dielectric constant tensor:
#      x y z
#    x 3.962850 0.000000 0.000000 
#    y 0.000000 3.709300 0.000000 
#    z 0.000000 0.000000 3.990480 
# 
# 
# High freq. dielectric constant tensor:
#      x y z
#    x 1.825620 0.000000 0.000000 
#    y 0.000000 1.816450 0.000000 
#    z 0.000000 0.000000 1.837640 
# 
# From -- ./inp_files/20653.got.cif
#   From: 2010.03.12/outbox.cif.g09.slc.cpg/sg60_11_cif.got.tgz:20653.got - 2010.04.10 18:46:24.
