data_PCOD8248145
_publ_section_title
;
Structure prediction by ZEFSAII (Michael W. Deem and Ramdas Pophale) SiO2 
 PCOD8248145
Probable space group: P B C N
;
_chemical_formula_sum "Si O2"
_cell_formula_units_Z 48
_cell_length_a 9.511155
_cell_length_b 26.871201
_cell_length_c 8.888391
_cell_angle_alpha 90.000000
_cell_angle_beta 90.000000
_cell_angle_gamma 90.000000
_cell_volume 2271.660820
_symmetry_space_group_name_H-M "P B C N"
_symmetry_group_IT_number 60
_symmetry_cell_setting 'orthorhombic'
loop_
_space_group_symop_operation_xyz
x,y,z
1/2-x,1/2-y,1/2+z
1/2+x,1/2-y,-z
-x,y,1/2-z
-x,-y,-z
1/2+x,1/2+y,1/2-z
1/2-x,1/2+y,z
x,-y,1/2+z
loop_
_atom_site_type_symbol
_atom_site_label
_atom_site_fract_x
_atom_site_fract_y
_atom_site_fract_z
Si Si1 0.461686 0.646680 0.075748
Si Si2 0.590419 0.536784 0.398961
Si Si3 0.244375 0.711305 0.904893
Si Si4 0.415288 0.038890 0.097948
Si Si5 0.226534 0.186256 0.562082
Si Si6 0.009102 0.633790 0.918092
O O1 0.500000 0.654680 0.250000
O O2 0.399943 0.592473 0.036014
O O3 0.352707 0.688480 0.023932
O O4 0.596996 0.650836 0.971665
O O5 0.500000 0.539171 0.250000
O O6 0.500000 0.500000 0.500000
O O7 0.753767 0.519940 0.377225
O O8 0.290590 0.706193 0.731624
O O9 0.095478 0.684792 0.923352
O O10 0.227616 0.768981 0.942997
O O11 0.500000 0.044040 0.250000
O O12 0.417659 0.092908 0.021728
O O13 0.500000 0.000000 0.000000
O O14 0.355635 0.149635 0.528006
O O15 0.000000 0.611463 0.750000
#
# Coordination Sequence:
#
# PCOD8248145 Si02
#       6
#     8   8   8   8   8   8
#     4  11  24  42  65  96 135 175 228 275 336 405
#     4  11  26  46  70 100 138 177 224 281 344 410
#     4  11  22  44  62 100 132 177 228 278 346 396
#     4  12  26  45  73 102 136 175 227 280 342 411
#     4  11  24  38  70  94 135 179 223 284 336 410
#     4  10  24  43  65  96 134 173 224 277 336 401
#
# _framework density 21.129915
#
# number of rings (size 3 to 8) (size 9 to 14) (size 15 to 20)
#    0.000    1.000    1.667    4.000    7.000    4.000 
#    0.000    0.000    0.000    0.000    0.000    0.000 
#    0.000    0.000    0.000    0.000    0.000    0.000 
#
# Total GULP energy -595230.598142 kJ/mol
# GULP energy per Si atom -12400.637461 kJ/mol
# Density = 2.108182 g / cm^3
# Si number density = 21.129915 Si / 1000 Ang^3
#
#
#
# Elastic Constant Matrix: (Units=GPa)
#
#
# Indices 1 2 3 4 5 6 
#
# 1 152.4214 30.0803 39.1442 0.0000 0.0000 0.0000
# 2 30.0803 74.2333 30.3527 0.0000 0.0000 0.0000
# 3 39.1442 30.3527 97.4268 0.0000 0.0000 0.0000
# 4 0.0000 0.0000 0.0000 28.6120 0.0000 0.0000
# 5 0.0000 0.0000 0.0000 0.0000 37.3878 0.0000
# 6 0.0000 0.0000 0.0000 0.0000 0.0000 24.9685
#
#
#
# Elastic Compliance Matrix: (Units=1/GPa)
#
#
# Indices 1 2 3 4 5 6 
#
# 1 0.007590 -0.002096 -0.002397 0.000000 0.000000 0.000000
# 2 -0.002096 0.016016 -0.004148 0.000000 0.000000 0.000000
# 3 -0.002397 -0.004148 0.012519 0.000000 0.000000 0.000000
# 4 0.000000 0.000000 0.000000 0.034950 0.000000 0.000000
# 5 0.000000 0.000000 0.000000 0.000000 0.026747 0.000000
# 6 0.000000 0.000000 0.000000 0.000000 0.000000 0.040050
#
#
# Mechanical properties :
#
#
# Convention : Reuss Voigt Hill
#
# Bulk Modulus (GPa) = 53.06352 58.13733 55.60042
# Shear Modulus (GPa) = 30.97236 33.16061 32.06648
#
# Velocity S-wave (km/s) = 3.83274 3.96582 3.89985
# Velocity P-wave (km/s) = 6.68984 6.96737 6.83002
#
# Compressibility (1/GPa) = 0.01884534
#
# Stress axis : x y z
#
# Youngs Moduli (GPa) = 131.75580 62.43700 79.87711
#
# Poissons Ratio (x) = 0.13084 0.19143
# Poissons Ratio (y) = 0.27610 0.33131
# Poissons Ratio (z) = 0.31576 0.25897
#
# Static dielectric constant tensor:
#      x y z
#    x 4.120460 0.000000 0.000000 
#    y 0.000000 4.444560 0.000000 
#    z 0.000000 0.000000 3.528390 
# 
# 
# High freq. dielectric constant tensor:
#      x y z
#    x 1.848420 0.000000 0.000000 
#    y 0.000000 1.832820 0.000000 
#    z 0.000000 0.000000 1.833680 
# 
# From -- ./inp_files/4225.got.cif
#   From: 2010.03.12/outbox.cif.g09.slc.cpg/sg60_3_cif.got.tgz:4225.got - 2010.04.10 18:46:24.
