data_PCOD8248056
_publ_section_title
;
Structure prediction by ZEFSAII (Michael W. Deem and Ramdas Pophale) SiO2 
 PCOD8248056
Probable space group: P B C N
;
_chemical_formula_sum "Si O2"
_cell_formula_units_Z 56
_cell_length_a 12.608035
_cell_length_b 14.219226
_cell_length_c 14.453657
_cell_angle_alpha 90.000000
_cell_angle_beta 90.000000
_cell_angle_gamma 90.000000
_cell_volume 2591.201026
_symmetry_space_group_name_H-M "P B C N"
_symmetry_group_IT_number 60
_symmetry_cell_setting 'orthorhombic'
loop_
_space_group_symop_operation_xyz
x,y,z
1/2-x,1/2-y,1/2+z
1/2+x,1/2-y,-z
-x,y,1/2-z
-x,-y,-z
1/2+x,1/2+y,1/2-z
1/2-x,1/2+y,z
x,-y,1/2+z
loop_
_atom_site_type_symbol
_atom_site_label
_atom_site_fract_x
_atom_site_fract_y
_atom_site_fract_z
Si Si1 0.121908 0.637873 0.514178
Si Si2 0.969974 0.855559 0.146376
Si Si3 0.744973 0.300987 0.074566
Si Si4 0.970940 0.750866 0.642686
Si Si5 0.226470 0.449187 0.578480
Si Si6 0.469634 0.843203 0.643613
Si Si7 0.460643 0.549654 0.144983
O O1 0.207922 0.718129 0.493473
O O2 0.186203 0.552907 0.557613
O O3 0.037046 0.672268 0.589290
O O4 0.057392 0.605928 0.421519
O O5 0.847281 0.825878 0.146862
O O6 0.000000 0.878836 0.250000
O O7 0.037464 0.766156 0.107539
O O8 0.993228 0.955033 0.093668
O O9 0.846823 0.269923 0.132267
O O10 0.763326 0.395790 0.017985
O O11 0.000000 0.746147 0.750000
O O12 0.997486 0.853719 0.597969
O O13 0.142655 0.393098 0.640317
O O14 0.333501 0.453147 0.638133
O O15 0.500000 0.844212 0.750000
O O16 0.500000 0.554543 0.250000
#
# Coordination Sequence:
#
# PCOD8248056 Si02
#       7
#     8   8   8   8   8   8   8
#     4  11  25  46  67 104 140 179 230 288 341 416
#     4   9  22  44  67  98 132 176 228 279 336 412
#     4  11  25  44  69  97 135 186 222 283 357 394
#     4  11  25  45  70 103 143 179 234 289 340 408
#     4  12  25  42  71  99 136 183 224 283 351 408
#     4  10  23  45  72  98 141 180 233 281 338 415
#     4  10  24  42  67 102 135 174 233 285 338 407
#
# _framework density 21.611599999999999
#
# number of rings (size 3 to 8) (size 9 to 14) (size 15 to 20)
#    0.000    1.429    2.857    0.429    4.000   10.286 
#    2.571    0.000    0.000    0.000    0.000    0.000 
#    0.000    0.000    0.000    0.000    0.000    0.000 
#
# Total GULP energy -694286.089723 kJ/mol
# GULP energy per Si atom -12397.965888 kJ/mol
# Density = 2.156241 g / cm^3
# Si number density = 21.611600 Si / 1000 Ang^3
#
#
#
# Elastic Constant Matrix: (Units=GPa)
#
#
# Indices 1 2 3 4 5 6 
#
# 1 170.5617 90.5008 44.9845 0.0000 0.0000 0.0000
# 2 90.5008 151.6697 40.3079 0.0000 0.0000 0.0000
# 3 44.9845 40.3079 73.8843 0.0000 0.0000 0.0000
# 4 0.0000 0.0000 0.0000 15.4908 0.0000 0.0000
# 5 0.0000 0.0000 0.0000 0.0000 40.6248 0.0000
# 6 0.0000 0.0000 0.0000 0.0000 0.0000 40.7256
#
#
#
# Elastic Compliance Matrix: (Units=1/GPa)
#
#
# Indices 1 2 3 4 5 6 
#
# 1 0.009122 -0.004640 -0.003023 0.000000 0.000000 0.000000
# 2 -0.004640 0.010071 -0.002669 0.000000 0.000000 0.000000
# 3 -0.003023 -0.002669 0.016831 0.000000 0.000000 0.000000
# 4 0.000000 0.000000 0.000000 0.064554 0.000000 0.000000
# 5 0.000000 0.000000 0.000000 0.000000 0.024615 0.000000
# 6 0.000000 0.000000 0.000000 0.000000 0.000000 0.024555
#
#
# Mechanical properties :
#
#
# Convention : Reuss Voigt Hill
#
# Bulk Modulus (GPa) = 65.10094 83.07800 74.08947
# Shear Modulus (GPa) = 28.48457 34.05641 31.27049
#
# Velocity S-wave (km/s) = 3.63440 3.97399 3.80798
# Velocity P-wave (km/s) = 6.91378 7.71892 7.32741
#
# Compressibility (1/GPa) = 0.01536076
#
# Stress axis : x y z
#
# Youngs Moduli (GPa) = 109.62377 99.29227 59.41270
#
# Poissons Ratio (x) = 0.46070 0.17959
# Poissons Ratio (y) = 0.50863 0.15860
# Poissons Ratio (z) = 0.33136 0.26506
#
# Static dielectric constant tensor:
#      x y z
#    x 4.113910 0.000000 0.000000 
#    y 0.000000 4.499970 0.000000 
#    z 0.000000 0.000000 3.919030 
# 
# 
# High freq. dielectric constant tensor:
#      x y z
#    x 1.854410 0.000000 0.000000 
#    y 0.000000 1.869070 0.000000 
#    z 0.000000 0.000000 1.839530 
# 
# From -- ./inp_files/16154.got.cif
#   From: 2010.03.12/outbox.cif.g09.slc.cpg/sg60_9_cif.got.tgz:16154.got - 2010.04.10 18:46:24.
