data_PCOD8248527
_publ_section_title
;
Structure prediction by ZEFSAII (Michael W. Deem and Ramdas Pophale) SiO2 
 PCOD8248527
Probable space group: P B C N
;
_chemical_formula_sum "Si O2"
_cell_formula_units_Z 60
_cell_length_a 10.798117
_cell_length_b 18.167491
_cell_length_c 14.345939
_cell_angle_alpha 90.000000
_cell_angle_beta 90.000000
_cell_angle_gamma 90.000000
_cell_volume 2814.310185
_symmetry_space_group_name_H-M "P B C N"
_symmetry_group_IT_number 60
_symmetry_cell_setting 'orthorhombic'
loop_
_space_group_symop_operation_xyz
x,y,z
1/2-x,1/2-y,1/2+z
1/2+x,1/2-y,-z
-x,y,1/2-z
-x,-y,-z
1/2+x,1/2+y,1/2-z
1/2-x,1/2+y,z
x,-y,1/2+z
loop_
_atom_site_type_symbol
_atom_site_label
_atom_site_fract_x
_atom_site_fract_y
_atom_site_fract_z
Si Si1 0.500000 0.813440 0.750000
Si Si2 0.097228 0.324120 0.071981
Si Si3 0.984630 0.168843 0.507294
Si Si4 0.080751 0.561563 0.840263
Si Si5 0.650120 0.094038 0.108982
Si Si6 0.862060 0.090568 0.672696
Si Si7 0.073555 0.926315 0.840891
Si Si8 0.339904 0.308715 0.166055
O O1 0.452682 0.862024 0.834532
O O2 0.616798 0.767348 0.787664
O O3 0.190966 0.313203 0.159043
O O4 0.978858 0.371091 0.103328
O O5 0.057795 0.243684 0.040160
O O6 0.166717 0.369478 0.991455
O O7 0.883838 0.143707 0.584088
O O8 0.003192 0.105657 0.430545
O O9 0.112288 0.184083 0.560573
O O10 0.097261 0.488584 0.903658
O O11 0.216573 0.584850 0.810648
O O12 0.000000 0.540911 0.750000
O O13 0.782456 0.097315 0.162031
O O14 0.901756 0.126567 0.771754
O O15 0.933810 0.014677 0.655053
O O16 0.000000 0.897331 0.750000
#
# Coordination Sequence:
#
# PCOD8248527 Si02
#       8
#     4   8   8   8   8   8   8   8
#     4  12  24  42  72  98 134 178 234 278 342 408
#     4  12  26  43  67 102 139 176 226 278 339 415
#     4  12  25  43  70 100 139 180 226 279 345 407
#     4  11  24  45  69  99 134 178 225 284 337 402
#     4  11  24  46  69  97 136 179 232 283 336 407
#     4  11  24  46  72  99 135 180 231 280 346 410
#     4  11  26  46  68 101 138 180 232 288 342 407
#     4  12  23  42  70  99 137 182 220 285 340 403
#
# _framework density 21.319611999999999
#
# number of rings (size 3 to 8) (size 9 to 14) (size 15 to 20)
#    0.000    0.533    6.000    1.600    3.733    1.600 
#    0.000    0.000    0.000    0.000    0.000    0.000 
#    0.000    0.000    0.000    0.000    0.000    0.000 
#
# Total GULP energy -744028.750927 kJ/mol
# GULP energy per Si atom -12400.479182 kJ/mol
# Density = 2.127109 g / cm^3
# Si number density = 21.319612 Si / 1000 Ang^3
#
#
#
# Elastic Constant Matrix: (Units=GPa)
#
#
# Indices 1 2 3 4 5 6 
#
# 1 66.3710 25.0256 18.6753 0.0000 0.0000 0.0000
# 2 25.0256 127.5668 47.7399 0.0000 0.0000 0.0000
# 3 18.6753 47.7399 104.6605 0.0000 0.0000 0.0000
# 4 0.0000 0.0000 0.0000 35.9017 0.0000 0.0000
# 5 0.0000 0.0000 0.0000 0.0000 41.9361 0.0000
# 6 0.0000 0.0000 0.0000 0.0000 0.0000 21.0692
#
#
#
# Elastic Compliance Matrix: (Units=1/GPa)
#
#
# Indices 1 2 3 4 5 6 
#
# 1 0.016539 -0.002581 -0.001774 0.000000 0.000000 0.000000
# 2 -0.002581 0.009855 -0.004035 0.000000 0.000000 0.000000
# 3 -0.001774 -0.004035 0.011712 0.000000 0.000000 0.000000
# 4 0.000000 0.000000 0.000000 0.027854 0.000000 0.000000
# 5 0.000000 0.000000 0.000000 0.000000 0.023846 0.000000
# 6 0.000000 0.000000 0.000000 0.000000 0.000000 0.047463
#
#
# Mechanical properties :
#
#
# Convention : Reuss Voigt Hill
#
# Bulk Modulus (GPa) = 46.88921 53.49775 50.19348
# Shear Modulus (GPa) = 31.02573 33.59191 32.30882
#
# Velocity S-wave (km/s) = 3.81893 3.97373 3.89710
# Velocity P-wave (km/s) = 6.44103 6.79719 6.62150
#
# Compressibility (1/GPa) = 0.02132687
#
# Stress axis : x y z
#
# Youngs Moduli (GPa) = 60.46302 101.46827 85.38435
#
# Poissons Ratio (x) = 0.26186 0.15147
# Poissons Ratio (y) = 0.15603 0.34452
# Poissons Ratio (z) = 0.10726 0.40942
#
# Static dielectric constant tensor:
#      x y z
#    x 3.770440 0.000000 0.000000 
#    y 0.000000 3.922680 0.000000 
#    z 0.000000 0.000000 3.846600 
# 
# 
# High freq. dielectric constant tensor:
#      x y z
#    x 1.846440 0.000000 0.000000 
#    y 0.000000 1.845080 0.000000 
#    z 0.000000 0.000000 1.836740 
# 
# From -- ./inp_files/16334.got.cif
#   From: 2010.03.12/outbox.cif.g09.slc.cpg/sg60_9_cif.got.tgz:16334.got - 2010.04.10 18:46:24.
