data_PCOD8248230
_publ_section_title
;
Structure prediction by ZEFSAII (Michael W. Deem and Ramdas Pophale) SiO2 
 PCOD8248230
Probable space group: P B C N
;
_chemical_formula_sum "Si O2"
_cell_formula_units_Z 64
_cell_length_a 22.625676
_cell_length_b 14.652604
_cell_length_c 8.289556
_cell_angle_alpha 90.000000
_cell_angle_beta 90.000000
_cell_angle_gamma 90.000000
_cell_volume 2748.195639
_symmetry_space_group_name_H-M "P B C N"
_symmetry_group_IT_number 60
_symmetry_cell_setting 'orthorhombic'
loop_
_space_group_symop_operation_xyz
x,y,z
1/2-x,1/2-y,1/2+z
1/2+x,1/2-y,-z
-x,y,1/2-z
-x,-y,-z
1/2+x,1/2+y,1/2-z
1/2-x,1/2+y,z
x,-y,1/2+z
loop_
_atom_site_type_symbol
_atom_site_label
_atom_site_fract_x
_atom_site_fract_y
_atom_site_fract_z
Si Si1 0.609626 0.222474 0.410736
Si Si2 0.369477 0.099884 0.649825
Si Si3 0.263167 0.019365 0.518303
Si Si4 0.434857 0.963141 0.461223
Si Si5 0.152008 0.208495 0.244085
Si Si6 0.369131 0.463060 0.533779
Si Si7 0.279246 0.857323 0.713190
Si Si8 0.066328 0.101173 0.721969
O O1 0.575686 0.126938 0.431234
O O2 0.631824 0.269833 0.575191
O O3 0.664492 0.208260 0.288713
O O4 0.566155 0.292138 0.322265
O O5 0.299221 0.073064 0.662849
O O6 0.373112 0.209098 0.633350
O O7 0.389825 0.046680 0.490128
O O8 0.417796 0.064425 0.779707
O O9 0.281136 0.065254 0.350531
O O10 0.192393 0.019257 0.534153
O O11 0.280620 0.911679 0.539943
O O12 0.500000 0.000000 0.500000
O O13 0.128142 0.112610 0.176384
O O14 0.222915 0.207455 0.234998
O O15 0.386727 0.417430 0.365144
O O16 0.416421 0.540645 0.568861
O O17 0.000000 0.070821 0.750000
#
# Coordination Sequence:
#
# PCOD8248230 Si02
#       8
#     8   8   8   8   8   8   8   8
#     4  11  26  46  67 106 144 184 248 295 358 449
#     4  11  24  43  68 101 141 182 241 293 364 437
#     4  11  23  42  69 104 137 181 232 290 371 443
#     4  11  25  46  70  99 144 196 238 299 357 433
#     4  10  26  43  69 106 141 187 235 297 373 438
#     4  11  25  48  75 104 143 189 242 303 376 432
#     4  11  24  41  68 102 144 186 224 301 364 442
#     4  12  27  47  73 103 140 192 244 306 358 430
#
# _framework density 23.288005999999999
#
# number of rings (size 3 to 8) (size 9 to 14) (size 15 to 20)
#    0.000    1.000    1.250    4.500    7.000    3.000 
#    0.000    2.500    0.000    0.000    0.000    0.000 
#    0.000    0.000    0.000    0.000    0.000    0.000 
#
# Total GULP energy -792949.042935 kJ/mol
# GULP energy per Si atom -12389.828796 kJ/mol
# Density = 2.323500 g / cm^3
# Si number density = 23.288006 Si / 1000 Ang^3
#
#
#
# Elastic Constant Matrix: (Units=GPa)
#
#
# Indices 1 2 3 4 5 6 
#
# 1 120.1409 53.3101 26.3209 0.0000 0.0000 0.0000
# 2 53.3101 117.5040 37.2790 0.0000 0.0000 0.0000
# 3 26.3209 37.2790 67.3245 0.0000 0.0000 0.0000
# 4 0.0000 0.0000 0.0000 35.1600 0.0000 0.0000
# 5 0.0000 0.0000 0.0000 0.0000 26.1053 0.0000
# 6 0.0000 0.0000 0.0000 0.0000 0.0000 37.3378
#
#
#
# Elastic Compliance Matrix: (Units=1/GPa)
#
#
# Indices 1 2 3 4 5 6 
#
# 1 0.010598 -0.004238 -0.001797 0.000000 0.000000 0.000000
# 2 -0.004238 0.012019 -0.004998 0.000000 0.000000 0.000000
# 3 -0.001797 -0.004998 0.018323 0.000000 0.000000 0.000000
# 4 0.000000 0.000000 0.000000 0.028441 0.000000 0.000000
# 5 0.000000 0.000000 0.000000 0.000000 0.038306 0.000000
# 6 0.000000 0.000000 0.000000 0.000000 0.000000 0.026782
#
#
# Mechanical properties :
#
#
# Convention : Reuss Voigt Hill
#
# Bulk Modulus (GPa) = 52.98189 59.86549 56.42369
# Shear Modulus (GPa) = 30.70740 32.25793 31.48267
#
# Velocity S-wave (km/s) = 3.63518 3.72583 3.68079
# Velocity P-wave (km/s) = 6.35763 6.65368 6.50734
#
# Compressibility (1/GPa) = 0.01887437
#
# Stress axis : x y z
#
# Youngs Moduli (GPa) = 94.36000 83.20284 54.57504
#
# Poissons Ratio (x) = 0.35262 0.09804
# Poissons Ratio (y) = 0.39991 0.27278
# Poissons Ratio (z) = 0.16952 0.41586
#
# Static dielectric constant tensor:
#      x y z
#    x 4.156710 0.000000 0.000000 
#    y 0.000000 4.396300 0.000000 
#    z 0.000000 0.000000 4.142100 
# 
# 
# High freq. dielectric constant tensor:
#      x y z
#    x 1.918120 0.000000 0.000000 
#    y 0.000000 1.935080 0.000000 
#    z 0.000000 0.000000 1.913830 
# 
# From -- ./inp_files/7971.got.cif
#   From: 2010.03.12/outbox.cif.g09.slc.cpg/sg60_4_cif.got.tgz:7971.got - 2010.04.10 18:46:24.
