data_PCOD8248470
_publ_section_title
;
Structure prediction by ZEFSAII (Michael W. Deem and Ramdas Pophale) SiO2 
 PCOD8248470
Probable space group: P B C N
;
_chemical_formula_sum "Si O2"
_cell_formula_units_Z 32
_cell_length_a 9.574527
_cell_length_b 9.654231
_cell_length_c 16.228645
_cell_angle_alpha 90.000000
_cell_angle_beta 90.000000
_cell_angle_gamma 90.000000
_cell_volume 1500.089857
_symmetry_space_group_name_H-M "P B C N"
_symmetry_group_IT_number 60
_symmetry_cell_setting 'orthorhombic'
loop_
_space_group_symop_operation_xyz
x,y,z
1/2-x,1/2-y,1/2+z
1/2+x,1/2-y,-z
-x,y,1/2-z
-x,-y,-z
1/2+x,1/2+y,1/2-z
1/2-x,1/2+y,z
x,-y,1/2+z
loop_
_atom_site_type_symbol
_atom_site_label
_atom_site_fract_x
_atom_site_fract_y
_atom_site_fract_z
Si Si1 0.374531 0.800154 0.027710
Si Si2 0.349206 0.965882 0.780222
Si Si3 0.826675 0.413364 0.037910
Si Si4 0.347498 0.756270 0.212396
O O1 0.539660 0.820358 0.010149
O O2 0.345318 0.726290 0.115375
O O3 0.307208 0.689522 0.963422
O O4 0.304744 0.953363 0.021607
O O5 0.500000 0.914540 0.750000
O O6 0.245484 0.839888 0.769670
O O7 0.355917 0.022390 0.872853
O O8 0.291945 0.087858 0.722293
O O9 0.500000 0.745945 0.250000
#
# Coordination Sequence:
#
# PCOD8248470 Si02
#       4
#     8   8   8   8
#     4  11  24  43  68  97 135 174 221 273 335 393
#     4  11  23  45  67  94 136 174 222 271 333 393
#     4  11  24  44  67 100 132 177 218 275 332 396
#     4  11  23  44  64  95 132 174 221 272 327 395
#
# _framework density 21.332055
#
# number of rings (size 3 to 8) (size 9 to 14) (size 15 to 20)
#    0.000    1.000    5.000    3.000    3.500    2.000 
#    4.500    0.000    0.000    0.000    0.000    0.000 
#    0.000    0.000    0.000    0.000    0.000    0.000 
#
# Total GULP energy -396682.447338 kJ/mol
# GULP energy per Si atom -12396.326479 kJ/mol
# Density = 2.128350 g / cm^3
# Si number density = 21.332055 Si / 1000 Ang^3
#
#
#
# Elastic Constant Matrix: (Units=GPa)
#
#
# Indices 1 2 3 4 5 6 
#
# 1 71.9081 64.2501 36.9671 0.0000 0.0000 0.0000
# 2 64.2501 92.3903 17.8715 0.0000 0.0000 0.0000
# 3 36.9671 17.8715 98.6273 0.0000 0.0000 0.0000
# 4 0.0000 0.0000 0.0000 25.7076 0.0000 0.0000
# 5 0.0000 0.0000 0.0000 0.0000 -101.7247 0.0000
# 6 0.0000 0.0000 0.0000 0.0000 0.0000 29.0797
#
#
#
# Elastic Compliance Matrix: (Units=1/GPa)
#
#
# Indices 1 2 3 4 5 6 
#
# 1 0.047847 -0.030887 -0.012337 0.000000 0.000000 0.000000
# 2 -0.030887 0.031156 0.005931 0.000000 0.000000 0.000000
# 3 -0.012337 0.005931 0.013688 0.000000 0.000000 0.000000
# 4 0.000000 0.000000 0.000000 0.038899 0.000000 0.000000
# 5 0.000000 0.000000 0.000000 0.000000 -0.009830 0.000000
# 6 0.000000 0.000000 0.000000 0.000000 0.000000 0.034388
#
#
# Mechanical properties :
#
#
# Convention : Reuss Voigt Hill
#
# Bulk Modulus (GPa) = 55.23071 55.67811 55.45441
# Shear Modulus (GPa) = 21.11770 0.20167 10.65968
#
# Velocity S-wave (km/s) = 3.14976 0.30780 2.23783
# Velocity P-wave (km/s) = 6.25901 5.12676 5.72096
#
# Compressibility (1/GPa) = 0.01810587
#
# Stress axis : x y z
#
# Youngs Moduli (GPa) = 20.90009 32.09666 73.05442
#
# Poissons Ratio (x) = 0.99138 0.90126
# Poissons Ratio (y) = 0.64555 -0.43332
# Poissons Ratio (z) = 0.25784 -0.19038
#
# Static dielectric constant tensor:
#      x y z
#    x 3.663510 0.000000 0.000000 
#    y 0.000000 4.037180 0.000000 
#    z 0.000000 0.000000 3.857550 
# 
# 
# High freq. dielectric constant tensor:
#      x y z
#    x 1.822780 0.000000 0.000000 
#    y 0.000000 1.842880 0.000000 
#    z 0.000000 0.000000 1.845990 
# 
# From -- ./inp_files/14322.got.cif
#   From: 2010.03.12/outbox.cif.g09.slc.cpg/sg60_8_cif.got.tgz:14322.got - 2010.04.10 18:46:24.
