data_PCOD8248416
_publ_section_title
;
Structure prediction by ZEFSAII (Michael W. Deem and Ramdas Pophale) SiO2 
 PCOD8248416
Probable space group: P B C N
;
_chemical_formula_sum "Si O2"
_cell_formula_units_Z 48
_cell_length_a 8.009916
_cell_length_b 19.369262
_cell_length_c 13.760433
_cell_angle_alpha 90.000000
_cell_angle_beta 90.000000
_cell_angle_gamma 90.000000
_cell_volume 2134.878362
_symmetry_space_group_name_H-M "P B C N"
_symmetry_group_IT_number 60
_symmetry_cell_setting 'orthorhombic'
loop_
_space_group_symop_operation_xyz
x,y,z
1/2-x,1/2-y,1/2+z
1/2+x,1/2-y,-z
-x,y,1/2-z
-x,-y,-z
1/2+x,1/2+y,1/2-z
1/2-x,1/2+y,z
x,-y,1/2+z
loop_
_atom_site_type_symbol
_atom_site_label
_atom_site_fract_x
_atom_site_fract_y
_atom_site_fract_z
Si Si1 0.729982 0.317356 0.585127
Si Si2 0.706188 0.396775 0.317816
Si Si3 0.352582 0.690564 0.026788
Si Si4 0.337261 0.045898 0.491929
Si Si5 0.338009 0.570722 0.888500
Si Si6 0.811977 0.734752 0.283284
O O1 0.841860 0.264648 0.523509
O O2 0.547273 0.327956 0.539375
O O3 0.834800 0.388894 0.581636
O O4 0.698052 0.289090 0.693296
O O5 0.828641 0.424540 0.399425
O O6 0.762447 0.429427 0.214205
O O7 0.526569 0.420782 0.354525
O O8 0.713364 0.314311 0.309398
O O9 0.245247 0.688471 0.125627
O O10 0.274523 0.634262 0.954299
O O11 0.500000 0.000000 0.500000
O O12 0.186628 0.998272 0.451707
O O13 0.000000 0.718799 0.250000
#
# Coordination Sequence:
#
# PCOD8248416 Si02
#       6
#     8   8   8   8   8   8
#     4  12  26  46  72 113 147 198 259 316 394 458
#     4  11  22  49  75 103 143 200 253 301 387 459
#     4  12  24  44  78 110 151 198 262 321 380 466
#     4  12  29  47  72 110 156 198 249 324 388 465
#     4  11  24  46  78 102 143 201 246 304 382 465
#     4  12  24  45  76 112 150 199 258 324 379 451
#
# _framework density 22.483716000000001
#
# number of rings (size 3 to 8) (size 9 to 14) (size 15 to 20)
#    0.000    0.333    6.667    2.000    4.667    2.000 
#    6.000    0.000    0.000    0.000    0.000    0.000 
#    0.000    0.000    0.000    0.000    0.000    0.000 
#
# Total GULP energy -595061.098780 kJ/mol
# GULP energy per Si atom -12397.106225 kJ/mol
# Density = 2.243254 g / cm^3
# Si number density = 22.483716 Si / 1000 Ang^3
#
#
#
# Elastic Constant Matrix: (Units=GPa)
#
#
# Indices 1 2 3 4 5 6 
#
# 1 62.2680 53.2602 48.2499 0.0000 0.0000 0.0000
# 2 53.2602 144.4066 60.3588 0.0000 0.0000 0.0000
# 3 48.2499 60.3588 166.9431 0.0000 0.0000 0.0000
# 4 0.0000 0.0000 0.0000 49.2709 0.0000 0.0000
# 5 0.0000 0.0000 0.0000 0.0000 36.1678 0.0000
# 6 0.0000 0.0000 0.0000 0.0000 0.0000 30.3762
#
#
#
# Elastic Compliance Matrix: (Units=1/GPa)
#
#
# Indices 1 2 3 4 5 6 
#
# 1 0.026414 -0.007717 -0.004844 0.000000 0.000000 0.000000
# 2 -0.007717 0.010412 -0.001534 0.000000 0.000000 0.000000
# 3 -0.004844 -0.001534 0.007945 0.000000 0.000000 0.000000
# 4 0.000000 0.000000 0.000000 0.020296 0.000000 0.000000
# 5 0.000000 0.000000 0.000000 0.000000 0.027649 0.000000
# 6 0.000000 0.000000 0.000000 0.000000 0.000000 0.032920
#
#
# Mechanical properties :
#
#
# Convention : Reuss Voigt Hill
#
# Bulk Modulus (GPa) = 60.31277 77.48393 68.89835
# Shear Modulus (GPa) = 31.37663 37.27959 34.32811
#
# Velocity S-wave (km/s) = 3.73973 4.07636 3.91167
# Velocity P-wave (km/s) = 6.74765 7.52945 7.14924
#
# Compressibility (1/GPa) = 0.01658024
#
# Stress axis : x y z
#
# Youngs Moduli (GPa) = 37.85870 96.03858 125.86932
#
# Poissons Ratio (x) = 0.74117 0.60970
# Poissons Ratio (y) = 0.29217 0.19311
# Poissons Ratio (z) = 0.18338 0.14734
#
# Static dielectric constant tensor:
#      x y z
#    x 3.836910 0.000000 0.000000 
#    y 0.000000 4.169830 0.000000 
#    z 0.000000 0.000000 5.414780 
# 
# 
# High freq. dielectric constant tensor:
#      x y z
#    x 1.871160 0.000000 0.000000 
#    y 0.000000 1.884640 0.000000 
#    z 0.000000 0.000000 1.912970 
# 
# From -- ./inp_files/15118.got.cif
#   From: 2010.03.12/outbox.cif.g09.slc.cpg/sg60_8_cif.got.tgz:15118.got - 2010.04.10 18:46:24.
