data_PCOD8248223
_publ_section_title
;
Structure prediction by ZEFSAII (Michael W. Deem and Ramdas Pophale) SiO2 
 PCOD8248223
Probable space group: P B C N
;
_chemical_formula_sum "Si O2"
_cell_formula_units_Z 40
_cell_length_a 9.283065
_cell_length_b 9.378447
_cell_length_c 17.279942
_cell_angle_alpha 90.000000
_cell_angle_beta 90.000000
_cell_angle_gamma 90.000000
_cell_volume 1504.404418
_symmetry_space_group_name_H-M "P B C N"
_symmetry_group_IT_number 60
_symmetry_cell_setting 'orthorhombic'
loop_
_space_group_symop_operation_xyz
x,y,z
1/2-x,1/2-y,1/2+z
1/2+x,1/2-y,-z
-x,y,1/2-z
-x,-y,-z
1/2+x,1/2+y,1/2-z
1/2-x,1/2+y,z
x,-y,1/2+z
loop_
_atom_site_type_symbol
_atom_site_label
_atom_site_fract_x
_atom_site_fract_y
_atom_site_fract_z
Si Si1 0.722985 0.025738 0.808840
Si Si2 0.982093 0.821311 0.835818
Si Si3 0.072761 0.362800 0.465120
Si Si4 0.179685 0.067112 0.855535
Si Si5 0.092550 0.259272 0.628308
O O1 0.592040 0.924951 0.840044
O O2 0.862825 0.941073 0.835907
O O3 0.712825 0.060616 0.717943
O O4 0.755038 0.183223 0.846038
O O5 0.966131 0.694062 0.897599
O O6 0.000000 0.752524 0.750000
O O7 0.124678 0.905255 0.864041
O O8 0.231770 0.393857 0.431898
O O9 0.089571 0.251116 0.535234
O O10 0.000000 0.500000 0.500000
O O11 0.050902 0.181145 0.839152
#
# Coordination Sequence:
#
# PCOD8248223 Si02
#       5
#     8   8   8   8   8
#     4  10  25  48  82 109 157 207 270 335 409 498
#     4   9  23  48  73 104 153 209 264 330 400 484
#     4  12  30  43  77 116 165 211 269 334 414 493
#     4  10  26  50  77 110 160 213 269 342 405 487
#     4  11  27  46  80 119 157 209 271 344 416 487
#
# _framework density 26.588595000000002
#
# number of rings (size 3 to 8) (size 9 to 14) (size 15 to 20)
#    0.000    1.600    0.000    1.800   16.800    3.200 
#    0.000    0.000    0.000    0.000    0.000    0.000 
#    0.000    0.000    0.000    0.000    0.000    0.000 
#
# Total GULP energy -495781.769262 kJ/mol
# GULP energy per Si atom -12394.544232 kJ/mol
# Density = 2.652808 g / cm^3
# Si number density = 26.588595 Si / 1000 Ang^3
#
#
#
# Elastic Constant Matrix: (Units=GPa)
#
#
# Indices 1 2 3 4 5 6 
#
# 1 73.9592 17.0420 13.3759 0.0000 0.0000 0.0000
# 2 17.0420 127.1877 43.0505 0.0000 0.0000 0.0000
# 3 13.3759 43.0505 146.2806 0.0000 0.0000 0.0000
# 4 0.0000 0.0000 0.0000 26.1825 0.0000 0.0000
# 5 0.0000 0.0000 0.0000 0.0000 30.7599 0.0000
# 6 0.0000 0.0000 0.0000 0.0000 0.0000 45.5577
#
#
#
# Elastic Compliance Matrix: (Units=1/GPa)
#
#
# Indices 1 2 3 4 5 6 
#
# 1 0.014038 -0.001606 -0.000811 0.000000 0.000000 0.000000
# 2 -0.001606 0.008916 -0.002477 0.000000 0.000000 0.000000
# 3 -0.000811 -0.002477 0.007639 0.000000 0.000000 0.000000
# 4 0.000000 0.000000 0.000000 0.038193 0.000000 0.000000
# 5 0.000000 0.000000 0.000000 0.000000 0.032510 0.000000
# 6 0.000000 0.000000 0.000000 0.000000 0.000000 0.021950
#
#
# Mechanical properties :
#
#
# Convention : Reuss Voigt Hill
#
# Bulk Modulus (GPa) = 48.06683 54.92937 51.49810
# Shear Modulus (GPa) = 35.72183 38.76396 37.24289
#
# Velocity S-wave (km/s) = 3.66936 3.82241 3.74667
# Velocity P-wave (km/s) = 6.00579 6.33916 6.17472
#
# Compressibility (1/GPa) = 0.02080437
#
# Stress axis : x y z
#
# Youngs Moduli (GPa) = 71.23629 112.15655 130.90141
#
# Poissons Ratio (x) = 0.18018 0.10614
# Poissons Ratio (y) = 0.11444 0.32426
# Poissons Ratio (z) = 0.05776 0.27783
#
# Static dielectric constant tensor:
#      x y z
#    x 5.092650 0.000000 0.000000 
#    y 0.000000 5.370770 0.000000 
#    z 0.000000 0.000000 5.212040 
# 
# 
# High freq. dielectric constant tensor:
#      x y z
#    x 2.075060 0.000000 0.000000 
#    y 0.000000 2.089720 0.000000 
#    z 0.000000 0.000000 2.062770 
# 
# From -- ./inp_files/19860.got.cif
#   From: 2010.03.12/outbox.cif.g09.slc.cpg/sg60_10_cif.got.tgz:19860.got - 2010.04.10 18:46:24.
