data_PCOD8248128
_publ_section_title
;
Structure prediction by ZEFSAII (Michael W. Deem and Ramdas Pophale) SiO2 
 PCOD8248128
Probable space group: P B C N
;
_chemical_formula_sum "Si O2"
_cell_formula_units_Z 36
_cell_length_a 18.755863
_cell_length_b 10.271689
_cell_length_c 8.248551
_cell_angle_alpha 90.000000
_cell_angle_beta 90.000000
_cell_angle_gamma 90.000000
_cell_volume 1589.119575
_symmetry_space_group_name_H-M "P B C N"
_symmetry_group_IT_number 60
_symmetry_cell_setting 'orthorhombic'
loop_
_space_group_symop_operation_xyz
x,y,z
1/2-x,1/2-y,1/2+z
1/2+x,1/2-y,-z
-x,y,1/2-z
-x,-y,-z
1/2+x,1/2+y,1/2-z
1/2-x,1/2+y,z
x,-y,1/2+z
loop_
_atom_site_type_symbol
_atom_site_label
_atom_site_fract_x
_atom_site_fract_y
_atom_site_fract_z
Si Si1 0.196140 0.106540 0.501807
Si Si2 0.440491 0.823696 0.028048
Si Si3 0.000000 0.529012 0.250000
Si Si4 0.035418 0.123003 0.576869
Si Si5 0.799841 0.173958 0.376843
O O1 0.119669 0.111174 0.588155
O O2 0.242638 0.212231 0.597535
O O3 0.192908 0.140556 0.312616
O O4 0.223814 0.957833 0.527795
O O5 0.514137 0.741638 0.042649
O O6 0.442648 0.885379 0.848331
O O7 0.443913 0.942694 0.150586
O O8 0.373814 0.728795 0.052451
O O9 0.000000 0.147978 0.750000
O O10 0.000000 0.000000 0.500000
#
# Coordination Sequence:
#
# PCOD8248128 Si02
#       5
#     8   8   4   8   8
#     4  12  28  48  76 114 150 205 249 321 378 463
#     4  11  24  44  71 103 144 193 242 310 368 454
#     4  10  24  42  68 106 144 188 244 304 382 438
#     4  12  25  44  77 107 145 189 261 307 371 440
#     4  12  28  48  76 107 156 195 258 305 393 450
#
# _framework density 22.654055
#
# number of rings (size 3 to 8) (size 9 to 14) (size 15 to 20)
#    0.000    0.444    3.333    4.000    4.667    7.111 
#    0.000    0.000    0.000    0.000    0.000    0.000 
#    0.000    0.000    0.000    0.000    0.000    0.000 
#
# Total GULP energy -446240.708575 kJ/mol
# GULP energy per Si atom -12395.575238 kJ/mol
# Density = 2.260249 g / cm^3
# Si number density = 22.654055 Si / 1000 Ang^3
#
#
#
# Elastic Constant Matrix: (Units=GPa)
#
#
# Indices 1 2 3 4 5 6 
#
# 1 117.2787 60.6054 35.3044 0.0000 0.0000 0.0000
# 2 60.6054 181.5858 59.7083 0.0000 0.0000 0.0000
# 3 35.3044 59.7083 139.0860 0.0000 0.0000 0.0000
# 4 0.0000 0.0000 0.0000 21.8643 0.0000 0.0000
# 5 0.0000 0.0000 0.0000 0.0000 36.1921 0.0000
# 6 0.0000 0.0000 0.0000 0.0000 0.0000 51.7222
#
#
#
# Elastic Compliance Matrix: (Units=1/GPa)
#
#
# Indices 1 2 3 4 5 6 
#
# 1 0.010518 -0.003065 -0.001354 0.000000 0.000000 0.000000
# 2 -0.003065 0.007306 -0.002358 0.000000 0.000000 0.000000
# 3 -0.001354 -0.002358 0.008546 0.000000 0.000000 0.000000
# 4 0.000000 0.000000 0.000000 0.045737 0.000000 0.000000
# 5 0.000000 0.000000 0.000000 0.000000 0.027630 0.000000
# 6 0.000000 0.000000 0.000000 0.000000 0.000000 0.019334
#
#
# Mechanical properties :
#
#
# Convention : Reuss Voigt Hill
#
# Bulk Modulus (GPa) = 78.03476 83.24295 80.63885
# Shear Modulus (GPa) = 36.52378 40.77788 38.65083
#
# Velocity S-wave (km/s) = 4.01963 4.24727 4.13502
# Velocity P-wave (km/s) = 7.48761 7.80240 7.64662
#
# Compressibility (1/GPa) = 0.01281480
#
# Stress axis : x y z
#
# Youngs Moduli (GPa) = 95.07193 136.88309 117.01679
#
# Poissons Ratio (x) = 0.41960 0.15844
# Poissons Ratio (y) = 0.29143 0.27594
# Poissons Ratio (z) = 0.12872 0.32278
#
# Static dielectric constant tensor:
#      x y z
#    x 4.166330 0.000000 0.000000 
#    y 0.000000 4.612730 0.000000 
#    z 0.000000 0.000000 4.322180 
# 
# 
# High freq. dielectric constant tensor:
#      x y z
#    x 1.875660 0.000000 0.000000 
#    y 0.000000 1.932510 0.000000 
#    z 0.000000 0.000000 1.906490 
# 
# From -- ./inp_files/7198.got.cif
#   From: 2010.03.12/outbox.cif.g09.slc.cpg/sg60_4_cif.got.tgz:7198.got - 2010.04.10 18:46:24.
