data_PCOD8248053
_publ_section_title
;
Structure prediction by ZEFSAII (Michael W. Deem and Ramdas Pophale) SiO2 
 PCOD8248053
Probable space group: P B C N
;
_chemical_formula_sum "Si O2"
_cell_formula_units_Z 40
_cell_length_a 8.523810
_cell_length_b 23.736412
_cell_length_c 8.966246
_cell_angle_alpha 90.000000
_cell_angle_beta 90.000000
_cell_angle_gamma 90.000000
_cell_volume 1814.092727
_symmetry_space_group_name_H-M "P B C N"
_symmetry_group_IT_number 60
_symmetry_cell_setting 'orthorhombic'
loop_
_space_group_symop_operation_xyz
x,y,z
1/2-x,1/2-y,1/2+z
1/2+x,1/2-y,-z
-x,y,1/2-z
-x,-y,-z
1/2+x,1/2+y,1/2-z
1/2-x,1/2+y,z
x,-y,1/2+z
loop_
_atom_site_type_symbol
_atom_site_label
_atom_site_fract_x
_atom_site_fract_y
_atom_site_fract_z
Si Si1 0.156243 0.434330 0.922997
Si Si2 0.687130 0.318752 0.534320
Si Si3 0.792724 0.458748 0.906924
Si Si4 0.320448 0.217104 0.760423
Si Si5 0.400195 0.373141 0.397884
O O1 0.192568 0.370149 0.958984
O O2 0.242179 0.451594 0.768250
O O3 0.969751 0.437978 0.927755
O O4 0.224505 0.475304 0.051185
O O5 0.736632 0.278937 0.398313
O O6 0.697311 0.280431 0.679654
O O7 0.511600 0.341468 0.515082
O O8 0.673594 0.425950 0.015266
O O9 0.500000 0.198598 0.750000
O O10 0.238057 0.169578 0.859067
O O11 0.500000 0.391570 0.250000
#
# Coordination Sequence:
#
# PCOD8248053 Si02
#       5
#     8   8   8   8   8
#     4  10  24  43  72  97 132 177 226 271 333 400
#     4  11  25  43  66 103 131 177 221 274 333 390
#     4  10  23  45  68  99 134 174 226 274 330 405
#     4  11  24  43  67  92 135 180 221 269 326 394
#     4  10  24  43  66 101 136 174 227 277 338 396
#
# _framework density 22.049588
#
# number of rings (size 3 to 8) (size 9 to 14) (size 15 to 20)
#    0.000    1.600    0.000    2.400   11.200    0.800 
#    7.200    0.000    0.000    0.000    0.000    0.000 
#    0.000    0.000    0.000    0.000    0.000    0.000 
#
# Total GULP energy -496048.288922 kJ/mol
# GULP energy per Si atom -12401.207223 kJ/mol
# Density = 2.199940 g / cm^3
# Si number density = 22.049588 Si / 1000 Ang^3
#
#
#
# Elastic Constant Matrix: (Units=GPa)
#
#
# Indices 1 2 3 4 5 6 
#
# 1 75.9312 29.2987 16.8312 0.0000 0.0000 0.0000
# 2 29.2987 92.0085 54.9337 0.0000 0.0000 0.0000
# 3 16.8312 54.9337 105.9703 0.0000 0.0000 0.0000
# 4 0.0000 0.0000 0.0000 21.1552 0.0000 0.0000
# 5 0.0000 0.0000 0.0000 0.0000 33.4610 0.0000
# 6 0.0000 0.0000 0.0000 0.0000 0.0000 10.5854
#
#
#
# Elastic Compliance Matrix: (Units=1/GPa)
#
#
# Indices 1 2 3 4 5 6 
#
# 1 0.015016 -0.004863 0.000136 0.000000 0.000000 0.000000
# 2 -0.004863 0.017315 -0.008203 0.000000 0.000000 0.000000
# 3 0.000136 -0.008203 0.013668 0.000000 0.000000 0.000000
# 4 0.000000 0.000000 0.000000 0.047270 0.000000 0.000000
# 5 0.000000 0.000000 0.000000 0.000000 0.029886 0.000000
# 6 0.000000 0.000000 0.000000 0.000000 0.000000 0.094470
#
#
# Mechanical properties :
#
#
# Convention : Reuss Voigt Hill
#
# Bulk Modulus (GPa) = 49.65799 52.89301 51.27550
# Shear Modulus (GPa) = 19.98426 24.56341 22.27383
#
# Velocity S-wave (km/s) = 3.01380 3.34130 3.18177
# Velocity P-wave (km/s) = 5.88902 6.23907 6.06657
#
# Compressibility (1/GPa) = 0.02013774
#
# Stress axis : x y z
#
# Youngs Moduli (GPa) = 66.59555 57.75371 73.16557
#
# Poissons Ratio (x) = 0.28084 -0.00993
# Poissons Ratio (y) = 0.32383 0.60021
# Poissons Ratio (z) = -0.00904 0.47378
#
# Static dielectric constant tensor:
#      x y z
#    x 4.002970 0.000000 0.000000 
#    y 0.000000 3.834440 0.000000 
#    z 0.000000 0.000000 4.179490 
# 
# 
# High freq. dielectric constant tensor:
#      x y z
#    x 1.872560 0.000000 0.000000 
#    y 0.000000 1.869390 0.000000 
#    z 0.000000 0.000000 1.874700 
# 
# From -- ./inp_files/3844.got.cif
#   From: 2010.03.12/outbox.cif.g09.slc.cpg/sg60_2_cif.got.tgz:3844.got - 2010.04.10 18:46:24.
