data_PCOD8248558
_publ_section_title
;
Structure prediction by ZEFSAII (Michael W. Deem and Ramdas Pophale) SiO2 
 PCOD8248558
Probable space group: P B C N
;
_chemical_formula_sum "Si O2"
_cell_formula_units_Z 36
_cell_length_a 8.597640
_cell_length_b 22.789498
_cell_length_c 8.412395
_cell_angle_alpha 90.000000
_cell_angle_beta 90.000000
_cell_angle_gamma 90.000000
_cell_volume 1648.290182
_symmetry_space_group_name_H-M "P B C N"
_symmetry_group_IT_number 60
_symmetry_cell_setting 'orthorhombic'
loop_
_space_group_symop_operation_xyz
x,y,z
1/2-x,1/2-y,1/2+z
1/2+x,1/2-y,-z
-x,y,1/2-z
-x,-y,-z
1/2+x,1/2+y,1/2-z
1/2-x,1/2+y,z
x,-y,1/2+z
loop_
_atom_site_type_symbol
_atom_site_label
_atom_site_fract_x
_atom_site_fract_y
_atom_site_fract_z
Si Si1 0.174171 0.930583 0.690932
Si Si2 0.500000 0.891164 0.250000
Si Si3 0.925183 0.292871 0.494230
Si Si4 0.763684 0.299597 0.820435
Si Si5 0.664031 0.011920 0.581146
O O1 0.219596 0.865714 0.636513
O O2 0.198072 0.973006 0.540643
O O3 0.000000 0.934746 0.750000
O O4 0.289857 0.952543 0.828671
O O5 0.564757 0.853266 0.396904
O O6 0.355807 0.932403 0.301546
O O7 0.794694 0.296042 0.631923
O O8 0.880057 0.241950 0.369114
O O9 0.088890 0.278771 0.576710
O O10 0.500000 0.000000 0.500000
#
# Coordination Sequence:
#
# PCOD8248558 Si02
#       5
#     8   4   8   8   8
#     4  12  27  45  72 109 151 189 241 313 369 429
#     4  12  22  42  76 100 146 188 260 290 358 460
#     4  11  25  45  70 106 144 189 247 301 372 442
#     4  11  26  45  72 104 146 193 241 304 370 444
#     4  12  24  46  74 106 143 202 246 298 366 451
#
# _framework density 21.840814999999999
#
# number of rings (size 3 to 8) (size 9 to 14) (size 15 to 20)
#    0.000    0.444    4.444    3.333    7.778    0.000 
#    0.000    0.000    0.000    0.000    0.000    0.000 
#    0.000    0.000    0.000    0.000    0.000    0.000 
#
# Total GULP energy -446510.837511 kJ/mol
# GULP energy per Si atom -12403.078820 kJ/mol
# Density = 2.179110 g / cm^3
# Si number density = 21.840815 Si / 1000 Ang^3
#
#
#
# Elastic Constant Matrix: (Units=GPa)
#
#
# Indices 1 2 3 4 5 6 
#
# 1 111.7279 46.2804 50.2332 0.0000 0.0000 0.0000
# 2 46.2804 119.8907 32.7401 0.0000 0.0000 0.0000
# 3 50.2332 32.7401 103.4766 0.0000 0.0000 0.0000
# 4 0.0000 0.0000 0.0000 49.4801 0.0000 0.0000
# 5 0.0000 0.0000 0.0000 0.0000 51.2110 0.0000
# 6 0.0000 0.0000 0.0000 0.0000 0.0000 33.5254
#
#
#
# Elastic Compliance Matrix: (Units=1/GPa)
#
#
# Indices 1 2 3 4 5 6 
#
# 1 0.012672 -0.003516 -0.005040 0.000000 0.000000 0.000000
# 2 -0.003516 0.010105 -0.001491 0.000000 0.000000 0.000000
# 3 -0.005040 -0.001491 0.012582 0.000000 0.000000 0.000000
# 4 0.000000 0.000000 0.000000 0.020210 0.000000 0.000000
# 5 0.000000 0.000000 0.000000 0.000000 0.019527 0.000000
# 6 0.000000 0.000000 0.000000 0.000000 0.000000 0.029828
#
#
# Mechanical properties :
#
#
# Convention : Reuss Voigt Hill
#
# Bulk Modulus (GPa) = 65.49594 65.95585 65.72589
# Shear Modulus (GPa) = 38.43032 40.56607 39.49819
#
# Velocity S-wave (km/s) = 4.19927 4.31438 4.25721
# Velocity P-wave (km/s) = 7.31879 7.42175 7.37045
#
# Compressibility (1/GPa) = 0.01526812
#
# Stress axis : x y z
#
# Youngs Moduli (GPa) = 78.91198 98.96016 79.47799
#
# Poissons Ratio (x) = 0.34790 0.40053
# Poissons Ratio (y) = 0.27742 0.11847
# Poissons Ratio (z) = 0.39768 0.14751
#
# Static dielectric constant tensor:
#      x y z
#    x 3.831350 0.000000 0.000000 
#    y 0.000000 4.001010 0.000000 
#    z 0.000000 0.000000 4.291800 
# 
# 
# High freq. dielectric constant tensor:
#      x y z
#    x 1.848160 0.000000 0.000000 
#    y 0.000000 1.863890 0.000000 
#    z 0.000000 0.000000 1.879290 
# 
# From -- ./inp_files/3675.got.cif
#   From: 2010.03.12/outbox.cif.g09.slc.cpg/sg60_2_cif.got.tgz:3675.got - 2010.04.10 18:46:24.
