data_PCOD8248191
_publ_section_title
;
Structure prediction by ZEFSAII (Michael W. Deem and Ramdas Pophale) SiO2 
 PCOD8248191
Probable space group: P B C N
;
_chemical_formula_sum "Si O2"
_cell_formula_units_Z 24
_cell_length_a 11.065328
_cell_length_b 11.438515
_cell_length_c 8.523926
_cell_angle_alpha 90.000000
_cell_angle_beta 90.000000
_cell_angle_gamma 90.000000
_cell_volume 1078.881158
_symmetry_space_group_name_H-M "P B C N"
_symmetry_group_IT_number 60
_symmetry_cell_setting 'orthorhombic'
loop_
_space_group_symop_operation_xyz
x,y,z
1/2-x,1/2-y,1/2+z
1/2+x,1/2-y,-z
-x,y,1/2-z
-x,-y,-z
1/2+x,1/2+y,1/2-z
1/2-x,1/2+y,z
x,-y,1/2+z
loop_
_atom_site_type_symbol
_atom_site_label
_atom_site_fract_x
_atom_site_fract_y
_atom_site_fract_z
Si Si1 0.560780 0.150005 0.983918
Si Si2 0.656847 0.047545 0.667293
Si Si3 0.428137 0.596977 0.905690
O O1 0.636597 0.090333 0.843629
O O2 0.417641 0.131359 0.952606
O O3 0.587406 0.287134 0.990093
O O4 0.605294 0.084630 0.142448
O O5 0.797727 0.046362 0.632671
O O6 0.500000 0.631586 0.750000
O O7 0.500000 0.500000 0.000000
#
# Coordination Sequence:
#
# PCOD8248191 Si02
#       3
#     8   8   8
#     4  10  25  46  74 103 135 194 237 291 352 429
#     4  10  24  46  74  97 143 181 242 286 358 418
#     4  12  29  44  71 110 146 187 238 300 365 421
#
# _framework density 22.245269
#
# number of rings (size 3 to 8) (size 9 to 14) (size 15 to 20)
#    0.000    1.333    0.000    2.000   23.333    0.000 
#    0.000    0.000    0.000    0.000    0.000    0.000 
#    0.000    0.000    0.000    0.000    0.000    0.000 
#
# Total GULP energy -297620.283740 kJ/mol
# GULP energy per Si atom -12400.845156 kJ/mol
# Density = 2.219464 g / cm^3
# Si number density = 22.245269 Si / 1000 Ang^3
#
#
#
# Elastic Constant Matrix: (Units=GPa)
#
#
# Indices 1 2 3 4 5 6 
#
# 1 174.1945 28.8069 40.0737 0.0000 0.0000 0.0000
# 2 28.8069 165.1429 57.4399 0.0000 0.0000 0.0000
# 3 40.0737 57.4399 107.7623 0.0000 0.0000 0.0000
# 4 0.0000 0.0000 0.0000 34.6913 0.0000 0.0000
# 5 0.0000 0.0000 0.0000 0.0000 29.9864 0.0000
# 6 0.0000 0.0000 0.0000 0.0000 0.0000 19.8487
#
#
#
# Elastic Compliance Matrix: (Units=1/GPa)
#
#
# Indices 1 2 3 4 5 6 
#
# 1 0.006294 -0.000348 -0.002155 0.000000 0.000000 0.000000
# 2 -0.000348 0.007453 -0.003843 0.000000 0.000000 0.000000
# 3 -0.002155 -0.003843 0.012129 0.000000 0.000000 0.000000
# 4 0.000000 0.000000 0.000000 0.028826 0.000000 0.000000
# 5 0.000000 0.000000 0.000000 0.000000 0.033348 0.000000
# 6 0.000000 0.000000 0.000000 0.000000 0.000000 0.050381
#
#
# Mechanical properties :
#
#
# Convention : Reuss Voigt Hill
#
# Bulk Modulus (GPa) = 75.85073 77.74899 76.79986
# Shear Modulus (GPa) = 32.15050 38.29055 35.22053
#
# Velocity S-wave (km/s) = 3.80580 4.15334 3.98336
# Velocity P-wave (km/s) = 7.31325 7.61755 7.46695
#
# Compressibility (1/GPa) = 0.01318379
#
# Stress axis : x y z
#
# Youngs Moduli (GPa) = 158.88002 134.17790 82.44420
#
# Poissons Ratio (x) = 0.04675 0.17766
# Poissons Ratio (y) = 0.05535 0.31683
# Poissons Ratio (z) = 0.34237 0.51564
#
# Static dielectric constant tensor:
#      x y z
#    x 4.115550 0.000000 0.000000 
#    y 0.000000 3.964440 0.000000 
#    z 0.000000 0.000000 4.028950 
# 
# 
# High freq. dielectric constant tensor:
#      x y z
#    x 1.886990 0.000000 0.000000 
#    y 0.000000 1.872270 0.000000 
#    z 0.000000 0.000000 1.880390 
# 
# From -- ./inp_files/4381.got.cif
#   From: 2010.03.12/outbox.cif.g09.slc.cpg/sg60_3_cif.got.tgz:4381.got - 2010.04.10 18:46:24.
