data_PCOD8248521
_publ_section_title
;
Structure prediction by ZEFSAII (Michael W. Deem and Ramdas Pophale) SiO2 
 PCOD8248521
Probable space group: P B C N
;
_chemical_formula_sum "Si O2"
_cell_formula_units_Z 64
_cell_length_a 21.960258
_cell_length_b 15.074299
_cell_length_c 8.764544
_cell_angle_alpha 90.000000
_cell_angle_beta 90.000000
_cell_angle_gamma 90.000000
_cell_volume 2901.375163
_symmetry_space_group_name_H-M "P B C N"
_symmetry_group_IT_number 60
_symmetry_cell_setting 'orthorhombic'
loop_
_space_group_symop_operation_xyz
x,y,z
1/2-x,1/2-y,1/2+z
1/2+x,1/2-y,-z
-x,y,1/2-z
-x,-y,-z
1/2+x,1/2+y,1/2-z
1/2-x,1/2+y,z
x,-y,1/2+z
loop_
_atom_site_type_symbol
_atom_site_label
_atom_site_fract_x
_atom_site_fract_y
_atom_site_fract_z
Si Si1 0.593000 0.748231 0.059638
Si Si2 0.606970 0.089725 0.033948
Si Si3 0.621462 0.585824 0.605328
Si Si4 0.736219 0.859304 0.615739
Si Si5 0.969894 0.239891 0.595562
Si Si6 0.194323 0.201657 0.675592
Si Si7 0.357135 0.409523 0.750519
Si Si8 0.931691 0.573777 0.709431
O O1 0.615591 0.684862 0.196540
O O2 0.599783 0.850546 0.107280
O O3 0.522263 0.726748 0.030010
O O4 0.632963 0.736099 0.907195
O O5 0.674605 0.084727 0.101797
O O6 0.580182 0.188825 0.043800
O O7 0.564965 0.019477 0.121838
O O8 0.609228 0.061249 0.858568
O O9 0.561503 0.645333 0.621293
O O10 0.676111 0.622434 0.710527
O O11 0.604786 0.487910 0.667337
O O12 0.642130 0.581862 0.430472
O O13 0.756460 0.829627 0.447251
O O14 0.726390 0.775642 0.723916
O O15 0.787622 0.920202 0.692598
O O16 0.000000 0.275591 0.750000
O O17 0.000000 0.603445 0.750000
#
# Coordination Sequence:
#
# PCOD8248521 Si02
#       8
#     8   8   8   8   8   8   8   8
#     4  11  25  47  71 104 141 189 231 292 351 420
#     4  12  27  44  69 106 138 190 234 287 355 411
#     4  12  25  47  72 104 141 181 234 291 352 421
#     4  11  25  46  70 103 140 184 238 290 348 418
#     4  12  24  45  76 100 143 183 235 286 357 417
#     4  11  24  44  74 101 138 187 236 287 351 413
#     4  11  27  47  71 104 144 181 238 291 351 417
#     4  12  27  44  70 104 147 182 236 289 348 422
#
# _framework density 22.058506000000001
#
# number of rings (size 3 to 8) (size 9 to 14) (size 15 to 20)
#    0.000    0.500    3.750    3.750    7.000    2.500 
#    0.000    0.000    0.000    0.000    0.000    0.000 
#    0.000    0.000    0.000    0.000    0.000    0.000 
#
# Total GULP energy -794014.595882 kJ/mol
# GULP energy per Si atom -12406.478061 kJ/mol
# Density = 2.200830 g / cm^3
# Si number density = 22.058506 Si / 1000 Ang^3
#
#
#
# Elastic Constant Matrix: (Units=GPa)
#
#
# Indices 1 2 3 4 5 6 
#
# 1 99.5596 41.5614 37.0540 0.0000 0.0000 0.0000
# 2 41.5614 100.6383 35.7337 0.0000 0.0000 0.0000
# 3 37.0540 35.7337 150.7959 0.0000 0.0000 0.0000
# 4 0.0000 0.0000 0.0000 38.8373 0.0000 0.0000
# 5 0.0000 0.0000 0.0000 0.0000 29.9341 0.0000
# 6 0.0000 0.0000 0.0000 0.0000 0.0000 28.7421
#
#
#
# Elastic Compliance Matrix: (Units=1/GPa)
#
#
# Indices 1 2 3 4 5 6 
#
# 1 0.012691 -0.004514 -0.002049 0.000000 0.000000 0.000000
# 2 -0.004514 0.012455 -0.001842 0.000000 0.000000 0.000000
# 3 -0.002049 -0.001842 0.007571 0.000000 0.000000 0.000000
# 4 0.000000 0.000000 0.000000 0.025748 0.000000 0.000000
# 5 0.000000 0.000000 0.000000 0.000000 0.033407 0.000000
# 6 0.000000 0.000000 0.000000 0.000000 0.000000 0.034792
#
#
# Mechanical properties :
#
#
# Convention : Reuss Voigt Hill
#
# Bulk Modulus (GPa) = 62.86265 64.41024 63.63644
# Shear Modulus (GPa) = 33.60741 35.27900 34.44321
#
# Velocity S-wave (km/s) = 3.90751 4.00351 3.95580
# Velocity P-wave (km/s) = 6.99416 7.11575 7.05522
#
# Compressibility (1/GPa) = 0.01590770
#
# Stress axis : x y z
#
# Youngs Moduli (GPa) = 78.79597 80.29075 132.07427
#
# Poissons Ratio (x) = 0.36240 0.27061
# Poissons Ratio (y) = 0.35565 0.24332
# Poissons Ratio (z) = 0.16144 0.14792
#
# Static dielectric constant tensor:
#      x y z
#    x 3.987400 0.000000 0.000000 
#    y 0.000000 3.872650 0.000000 
#    z 0.000000 0.000000 4.162430 
# 
# 
# High freq. dielectric constant tensor:
#      x y z
#    x 1.867080 0.000000 0.000000 
#    y 0.000000 1.866640 0.000000 
#    z 0.000000 0.000000 1.888120 
# 
# From -- ./inp_files/7976.got.cif
#   From: 2010.03.12/outbox.cif.g09.slc.cpg/sg60_4_cif.got.tgz:7976.got - 2010.04.10 18:46:24.
