data_PCOD8248736
_publ_section_title
;
Structure prediction by ZEFSAII (Michael W. Deem and Ramdas Pophale) SiO2 
 PCOD8248736
Probable space group: P B C A
;
_chemical_formula_sum "Si O2"
_cell_formula_units_Z 64
_cell_length_a 18.846921
_cell_length_b 20.535957
_cell_length_c 8.684770
_cell_angle_alpha 90.000000
_cell_angle_beta 90.000000
_cell_angle_gamma 90.000000
_cell_volume 3361.349553
_symmetry_space_group_name_H-M "P B C A"
_symmetry_group_IT_number 61
_symmetry_cell_setting 'orthorhombic'
loop_
_space_group_symop_operation_xyz
x,y,z
1/2-x,-y,1/2+z
1/2+x,1/2-y,-z
-x,1/2+y,1/2-z
-x,-y,-z
1/2+x,y,1/2-z
1/2-x,1/2+y,z
x,1/2-y,1/2+z
loop_
_atom_site_type_symbol
_atom_site_label
_atom_site_fract_x
_atom_site_fract_y
_atom_site_fract_z
Si Si1 0.478690 0.170970 0.276432
Si Si2 0.948579 0.755826 0.044629
Si Si3 0.556451 0.039019 0.664748
Si Si4 0.350450 0.091135 0.357990
Si Si5 0.878732 0.662962 0.802699
Si Si6 0.750976 0.085263 0.879596
Si Si7 0.213984 0.031157 0.313579
Si Si8 0.437551 0.552006 0.182052
O O1 0.510893 0.194132 0.437448
O O2 0.488124 0.225854 0.147919
O O3 0.395733 0.152084 0.295711
O O4 0.523547 0.108323 0.221250
O O5 0.890836 0.792541 0.151940
O O6 0.907724 0.699522 0.952722
O O7 0.583235 0.092580 0.785649
O O8 0.553636 0.071249 0.496769
O O9 0.605493 0.975484 0.650541
O O10 0.477169 0.016703 0.716091
O O11 0.325033 0.105396 0.535566
O O12 0.278411 0.079428 0.258365
O O13 0.795019 0.648325 0.829043
O O14 0.767185 0.043518 0.726696
O O15 0.706443 0.039530 0.001337
O O16 0.144037 0.051860 0.225334
#
# Coordination Sequence:
#
# PCOD8248736 Si02
#       8
#     8   8   8   8   8   8   8   8
#     4  10  20  40  59  82 109 153 199 243 281 343
#     4  10  23  36  62  77 111 152 207 241 282 322
#     4  10  18  32  59  86 115 147 186 233 293 358
#     4   9  20  36  59  84 119 148 182 237 301 358
#     4  11  20  40  54  88 111 155 193 248 281 343
#     4  10  20  34  57  81 122 144 183 228 299 356
#     4  10  19  34  56  89 120 150 174 231 301 364
#     4  10  18  32  58  91 113 144 186 232 302 350
#
# _framework density 19.039971000000001
#
# number of rings (size 3 to 8) (size 9 to 14) (size 15 to 20)
#    0.750    1.250    3.750    0.750    0.000    0.000 
#    2.250    3.125    0.000    0.000    0.000    0.000 
#    0.000    0.000    0.000    0.000    0.000    0.000 
#
# Total GULP energy -792946.083666 kJ/mol
# GULP energy per Si atom -12389.782557 kJ/mol
# Density = 1.899664 g / cm^3
# Si number density = 19.039971 Si / 1000 Ang^3
#
#
#
# Elastic Constant Matrix: (Units=GPa)
#
#
# Indices 1 2 3 4 5 6 
#
# 1 121.2808 41.0840 21.7579 0.0000 0.0000 0.0000
# 2 41.0840 72.5031 32.8919 0.0000 0.0000 0.0000
# 3 21.7579 32.8919 63.0772 0.0000 0.0000 0.0000
# 4 0.0000 0.0000 0.0000 16.8008 0.0000 0.0000
# 5 0.0000 0.0000 0.0000 0.0000 25.1925 0.0000
# 6 0.0000 0.0000 0.0000 0.0000 0.0000 31.1416
#
#
#
# Elastic Compliance Matrix: (Units=1/GPa)
#
#
# Indices 1 2 3 4 5 6 
#
# 1 0.010225 -0.005494 -0.000662 0.000000 0.000000 0.000000
# 2 -0.005494 0.021018 -0.009065 0.000000 0.000000 0.000000
# 3 -0.000662 -0.009065 0.020809 0.000000 0.000000 0.000000
# 4 0.000000 0.000000 0.000000 0.059521 0.000000 0.000000
# 5 0.000000 0.000000 0.000000 0.000000 0.039694 0.000000
# 6 0.000000 0.000000 0.000000 0.000000 0.000000 0.032111
#
#
# Mechanical properties :
#
#
# Convention : Reuss Voigt Hill
#
# Bulk Modulus (GPa) = 46.27440 49.81430 48.04435
# Shear Modulus (GPa) = 22.62199 25.36880 23.99539
#
# Velocity S-wave (km/s) = 3.45067 3.65416 3.55387
# Velocity P-wave (km/s) = 6.34293 6.63503 6.49062
#
# Compressibility (1/GPa) = 0.02161022
#
# Stress axis : x y z
#
# Youngs Moduli (GPa) = 97.79839 47.57861 48.05612
#
# Poissons Ratio (x) = 0.26138 0.03183
# Poissons Ratio (y) = 0.53726 0.43562
# Poissons Ratio (z) = 0.06478 0.43129
#
# Static dielectric constant tensor:
#      x y z
#    x 3.517560 0.000000 0.000000 
#    y 0.000000 3.383130 0.000000 
#    z 0.000000 0.000000 3.327830 
# 
# 
# High freq. dielectric constant tensor:
#      x y z
#    x 1.736330 0.000000 0.000000 
#    y 0.000000 1.726640 0.000000 
#    z 0.000000 0.000000 1.726090 
# 
# From -- ./inp_files/4118.got.cif
#   From: 2010.03.12/outbox.cif.g09.slc.cpg/sg61_3_cif.got.tgz:4118.got - 2010.04.10 19:05:03.
