data_PCOD8248388
_publ_section_title
;
Structure prediction by ZEFSAII (Michael W. Deem and Ramdas Pophale) SiO2 
 PCOD8248388
Probable space group: P B C N
;
_chemical_formula_sum "Si O2"
_cell_formula_units_Z 56
_cell_length_a 14.342055
_cell_length_b 11.665935
_cell_length_c 14.902828
_cell_angle_alpha 90.000000
_cell_angle_beta 90.000000
_cell_angle_gamma 90.000000
_cell_volume 2493.444035
_symmetry_space_group_name_H-M "P B C N"
_symmetry_group_IT_number 60
_symmetry_cell_setting 'orthorhombic'
loop_
_space_group_symop_operation_xyz
x,y,z
1/2-x,1/2-y,1/2+z
1/2+x,1/2-y,-z
-x,y,1/2-z
-x,-y,-z
1/2+x,1/2+y,1/2-z
1/2-x,1/2+y,z
x,-y,1/2+z
loop_
_atom_site_type_symbol
_atom_site_label
_atom_site_fract_x
_atom_site_fract_y
_atom_site_fract_z
Si Si1 0.261956 0.108262 0.684574
Si Si2 0.690898 0.928909 0.679033
Si Si3 0.000000 0.351245 0.750000
Si Si4 0.000000 0.967633 0.750000
Si Si5 0.062008 0.836264 0.127189
Si Si6 0.143308 0.222889 0.298449
Si Si7 0.960361 0.311448 0.029950
Si Si8 0.632254 0.036016 0.979210
O O1 0.166594 0.174816 0.664104
O O2 0.344090 0.196899 0.711274
O O3 0.286572 0.039233 0.594363
O O4 0.247021 0.022990 0.768714
O O5 0.593203 0.925443 0.734313
O O6 0.751149 0.811971 0.673228
O O7 0.675165 0.964679 0.577536
O O8 0.996697 0.270627 0.836463
O O9 0.017841 0.044054 0.660683
O O10 0.088118 0.889370 0.769744
O O11 0.051998 0.812600 0.020122
O O12 0.090305 0.296242 0.374542
O O13 0.066765 0.353473 0.041649
O O14 0.916992 0.412965 0.968423
#
# Coordination Sequence:
#
# PCOD8248388 Si02
#       8
#     8   8   4   4   8   8   8   8
#     4  12  25  44  72 103 142 185 237 299 357 427
#     4  12  24  45  71 105 138 184 242 294 355 430
#     4  11  22  41  76  94 142 189 226 291 350 420
#     4  11  26  43  68 102 140 183 232 285 370 432
#     4  11  23  45  68 100 139 185 230 286 361 426
#     4  12  25  45  70 102 142 186 234 298 359 430
#     4  11  24  45  69 100 141 185 239 298 356 424
#     4  11  25  43  69 109 137 184 248 293 355 427
#
# _framework density 22.458897
#
# number of rings (size 3 to 8) (size 9 to 14) (size 15 to 20)
#    0.000    0.571    5.714    2.571    2.000    1.143 
#    0.000    0.000    0.000    0.000    0.000    0.000 
#    0.000    0.000    0.000    0.000    0.000    0.000 
#
# Total GULP energy -694258.954177 kJ/mol
# GULP energy per Si atom -12397.481325 kJ/mol
# Density = 2.240778 g / cm^3
# Si number density = 22.458897 Si / 1000 Ang^3
#
#
#
# Elastic Constant Matrix: (Units=GPa)
#
#
# Indices 1 2 3 4 5 6 
#
# 1 73.5070 21.1407 19.1069 0.0000 0.0000 0.0000
# 2 21.1407 95.6752 29.8286 0.0000 0.0000 0.0000
# 3 19.1069 29.8286 79.3469 0.0000 0.0000 0.0000
# 4 0.0000 0.0000 0.0000 35.7274 0.0000 0.0000
# 5 0.0000 0.0000 0.0000 0.0000 20.8524 0.0000
# 6 0.0000 0.0000 0.0000 0.0000 0.0000 44.1896
#
#
#
# Elastic Compliance Matrix: (Units=1/GPa)
#
#
# Indices 1 2 3 4 5 6 
#
# 1 0.015015 -0.002481 -0.002683 0.000000 0.000000 0.000000
# 2 -0.002481 0.012250 -0.004007 0.000000 0.000000 0.000000
# 3 -0.002683 -0.004007 0.014755 0.000000 0.000000 0.000000
# 4 0.000000 0.000000 0.000000 0.027990 0.000000 0.000000
# 5 0.000000 0.000000 0.000000 0.000000 0.047956 0.000000
# 6 0.000000 0.000000 0.000000 0.000000 0.000000 0.022630
#
#
# Mechanical properties :
#
#
# Convention : Reuss Voigt Hill
#
# Bulk Modulus (GPa) = 42.23526 43.18684 42.71105
# Shear Modulus (GPa) = 29.97033 32.05074 31.01054
#
# Velocity S-wave (km/s) = 3.65698 3.78178 3.71990
# Velocity P-wave (km/s) = 6.05621 6.19194 6.12445
#
# Compressibility (1/GPa) = 0.02367690
#
# Stress axis : x y z
#
# Youngs Moduli (GPa) = 66.59938 81.63445 67.77158
#
# Poissons Ratio (x) = 0.20256 0.18182
# Poissons Ratio (y) = 0.16526 0.27159
# Poissons Ratio (z) = 0.17868 0.32715
#
# Static dielectric constant tensor:
#      x y z
#    x 4.009390 0.000000 0.000000 
#    y 0.000000 4.003940 0.000000 
#    z 0.000000 0.000000 3.991420 
# 
# 
# High freq. dielectric constant tensor:
#      x y z
#    x 1.885450 0.000000 0.000000 
#    y 0.000000 1.883960 0.000000 
#    z 0.000000 0.000000 1.887030 
# 
# From -- ./inp_files/16896.got.cif
#   From: 2010.03.12/outbox.cif.g09.slc.cpg/sg60_9_cif.got.tgz:16896.got - 2010.04.10 18:46:24.
