data_PCOD8248829
_publ_section_title
;
Structure prediction by ZEFSAII (Michael W. Deem and Ramdas Pophale) SiO2 
 PCOD8248829
Probable space group: P B C A
;
_chemical_formula_sum "Si O2"
_cell_formula_units_Z 64
_cell_length_a 23.551930
_cell_length_b 14.330202
_cell_length_c 8.960955
_cell_angle_alpha 90.000000
_cell_angle_beta 90.000000
_cell_angle_gamma 90.000000
_cell_volume 3024.357389
_symmetry_space_group_name_H-M "P B C A"
_symmetry_group_IT_number 61
_symmetry_cell_setting 'orthorhombic'
loop_
_space_group_symop_operation_xyz
x,y,z
1/2-x,-y,1/2+z
1/2+x,1/2-y,-z
-x,1/2+y,1/2-z
-x,-y,-z
1/2+x,y,1/2-z
1/2-x,1/2+y,z
x,1/2-y,1/2+z
loop_
_atom_site_type_symbol
_atom_site_label
_atom_site_fract_x
_atom_site_fract_y
_atom_site_fract_z
Si Si1 0.270378 0.648510 0.213934
Si Si2 0.875129 0.523875 0.316084
Si Si3 0.678707 0.297729 0.489130
Si Si4 0.573409 0.174550 0.511720
Si Si5 0.515736 0.329015 0.323297
Si Si6 0.114005 0.823939 0.268584
Si Si7 0.097765 0.043441 0.525231
Si Si8 0.350986 0.147593 0.085204
O O1 0.311567 0.563775 0.169285
O O2 0.275407 0.667757 0.389797
O O3 0.208018 0.619726 0.162173
O O4 0.286649 0.746093 0.138200
O O5 0.913373 0.573076 0.441847
O O6 0.873610 0.412279 0.339776
O O7 0.901544 0.544859 0.153948
O O8 0.630843 0.228962 0.560398
O O9 0.647179 0.386698 0.416220
O O10 0.540335 0.232821 0.386244
O O11 0.533252 0.159180 0.651969
O O12 0.448423 0.329648 0.338599
O O13 0.537425 0.418076 0.417830
O O14 0.157216 0.825323 0.410185
O O15 0.119813 0.731378 0.172976
O O16 0.108300 0.942189 0.595661
#
# Coordination Sequence:
#
# PCOD8248829 Si02
#       8
#     8   8   8   8   8   8   8   8
#     4  10  19  36  60  83 112 148 181 236 293 332
#     4   9  21  39  59  85 117 150 196 245 286 345
#     4   9  17  34  59  86 111 140 187 233 279 342
#     4  10  19  35  61  91 116 148 195 238 288 351
#     4  11  21  36  61  86 118 157 189 240 296 339
#     4  11  25  41  57  85 121 155 196 241 288 351
#     4   9  20  38  58  84 113 152 198 235 284 351
#     4  11  24  40  57  83 116 154 198 239 292 352
#
# _framework density 21.161521
#
# number of rings (size 3 to 8) (size 9 to 14) (size 15 to 20)
#    0.000    2.000    0.000    5.250    0.000    5.500 
#    0.000   10.000    0.000    0.000    0.000    0.000 
#    0.000    0.000    0.000    0.000    0.000    0.000 
#
# Total GULP energy -793700.461057 kJ/mol
# GULP energy per Si atom -12401.569704 kJ/mol
# Density = 2.111336 g / cm^3
# Si number density = 21.161521 Si / 1000 Ang^3
#
#
#
# Elastic Constant Matrix: (Units=GPa)
#
#
# Indices 1 2 3 4 5 6 
#
# 1 81.3633 28.0468 34.4763 0.0000 0.0000 0.0000
# 2 28.0468 116.8387 37.9240 0.0000 0.0000 0.0000
# 3 34.4763 37.9240 76.7658 0.0000 0.0000 0.0000
# 4 0.0000 0.0000 0.0000 31.8053 0.0000 0.0000
# 5 0.0000 0.0000 0.0000 0.0000 31.5297 0.0000
# 6 0.0000 0.0000 0.0000 0.0000 0.0000 19.8475
#
#
#
# Elastic Compliance Matrix: (Units=1/GPa)
#
#
# Indices 1 2 3 4 5 6 
#
# 1 0.015470 -0.001737 -0.006090 0.000000 0.000000 0.000000
# 2 -0.001737 0.010388 -0.004352 0.000000 0.000000 0.000000
# 3 -0.006090 -0.004352 0.017911 0.000000 0.000000 0.000000
# 4 0.000000 0.000000 0.000000 0.031441 0.000000 0.000000
# 5 0.000000 0.000000 0.000000 0.000000 0.031716 0.000000
# 6 0.000000 0.000000 0.000000 0.000000 0.000000 0.050384
#
#
# Mechanical properties :
#
#
# Convention : Reuss Voigt Hill
#
# Bulk Modulus (GPa) = 51.51286 52.87356 52.19321
# Shear Modulus (GPa) = 26.57615 28.27122 27.42369
#
# Velocity S-wave (km/s) = 3.54767 3.65906 3.60380
# Velocity P-wave (km/s) = 6.41692 6.54917 6.48338
#
# Compressibility (1/GPa) = 0.01941263
#
# Stress axis : x y z
#
# Youngs Moduli (GPa) = 64.64287 96.26180 55.83005
#
# Poissons Ratio (x) = 0.16720 0.33998
# Poissons Ratio (y) = 0.11228 0.24297
# Poissons Ratio (z) = 0.39364 0.41893
#
# Static dielectric constant tensor:
#      x y z
#    x 3.695960 0.000000 0.000000 
#    y 0.000000 4.002180 0.000000 
#    z 0.000000 0.000000 3.707090 
# 
# 
# High freq. dielectric constant tensor:
#      x y z
#    x 1.818690 0.000000 0.000000 
#    y 0.000000 1.835520 0.000000 
#    z 0.000000 0.000000 1.822760 
# 
# From -- ./inp_files/4337.got.cif
#   From: 2010.03.12/outbox.cif.g09.slc.cpg/sg61_3_cif.got.tgz:4337.got - 2010.04.10 19:05:03.
