data_PCOD8248806
_publ_section_title
;
Structure prediction by ZEFSAII (Michael W. Deem and Ramdas Pophale) SiO2 
 PCOD8248806
Probable space group: P B C A
;
_chemical_formula_sum "Si O2"
_cell_formula_units_Z 48
_cell_length_a 15.677467
_cell_length_b 17.882895
_cell_length_c 8.888449
_cell_angle_alpha 90.000000
_cell_angle_beta 90.000000
_cell_angle_gamma 90.000000
_cell_volume 2491.952195
_symmetry_space_group_name_H-M "P B C A"
_symmetry_group_IT_number 61
_symmetry_cell_setting 'orthorhombic'
loop_
_space_group_symop_operation_xyz
x,y,z
1/2-x,-y,1/2+z
1/2+x,1/2-y,-z
-x,1/2+y,1/2-z
-x,-y,-z
1/2+x,y,1/2-z
1/2-x,1/2+y,z
x,1/2-y,1/2+z
loop_
_atom_site_type_symbol
_atom_site_label
_atom_site_fract_x
_atom_site_fract_y
_atom_site_fract_z
Si Si1 0.894451 0.841081 0.005008
Si Si2 0.321580 0.770650 0.786008
Si Si3 0.239144 0.914604 0.869496
Si Si4 0.585299 0.665814 0.982605
Si Si5 0.235629 0.933994 0.518479
Si Si6 0.853056 0.306029 0.160345
O O1 0.853227 0.790429 0.877236
O O2 0.833861 0.913393 0.023672
O O3 0.891669 0.785224 0.146805
O O4 0.991290 0.865209 0.974982
O O5 0.306754 0.846498 0.882780
O O6 0.231234 0.729801 0.768002
O O7 0.219496 0.933993 0.696374
O O8 0.151286 0.893934 0.951928
O O9 0.282645 0.984051 0.953502
O O10 0.590060 0.669181 0.801730
O O11 0.596864 0.747400 0.056033
O O12 0.169345 0.876877 0.443006
#
# Coordination Sequence:
#
# PCOD8248806 Si02
#       6
#     8   8   8   8   8   8
#     4  10  20  33  54  80 106 133 167 217 264 305
#     4   9  18  34  53  75 101 135 174 208 252 309
#     4  10  20  35  55  76 103 139 178 216 254 310
#     4  11  20  33  55  81 108 133 168 218 264 305
#     4  10  21  37  56  76 103 141 180 213 256 312
#     4  10  19  34  55  78 103 138 177 211 254 311
#
# _framework density 19.262007000000001
#
# number of rings (size 3 to 8) (size 9 to 14) (size 15 to 20)
#    0.000    2.000    0.000    7.000    0.000    2.000 
#    0.000    0.000    0.000    6.000    0.000    0.000 
#    0.000    0.000    0.000    0.000    0.000    0.000 
#
# Total GULP energy -595232.561720 kJ/mol
# GULP energy per Si atom -12400.678369 kJ/mol
# Density = 1.921817 g / cm^3
# Si number density = 19.262007 Si / 1000 Ang^3
#
#
#
# Elastic Constant Matrix: (Units=GPa)
#
#
# Indices 1 2 3 4 5 6 
#
# 1 57.8108 -0.9641 -2.1582 0.0000 0.0000 0.0000
# 2 -0.9641 72.1169 8.0695 0.0000 0.0000 0.0000
# 3 -2.1582 8.0695 68.4484 0.0000 0.0000 0.0000
# 4 0.0000 0.0000 0.0000 32.0948 0.0000 0.0000
# 5 0.0000 0.0000 0.0000 0.0000 14.9598 0.0000
# 6 0.0000 0.0000 0.0000 0.0000 0.0000 14.8528
#
#
#
# Elastic Compliance Matrix: (Units=1/GPa)
#
#
# Indices 1 2 3 4 5 6 
#
# 1 0.017320 0.000173 0.000526 0.000000 0.000000 0.000000
# 2 0.000173 0.014053 -0.001651 0.000000 0.000000 0.000000
# 3 0.000526 -0.001651 0.014821 0.000000 0.000000 0.000000
# 4 0.000000 0.000000 0.000000 0.031158 0.000000 0.000000
# 5 0.000000 0.000000 0.000000 0.000000 0.066846 0.000000
# 6 0.000000 0.000000 0.000000 0.000000 0.000000 0.067328
#
#
# Mechanical properties :
#
#
# Convention : Reuss Voigt Hill
#
# Bulk Modulus (GPa) = 22.57906 23.14118 22.86012
# Shear Modulus (GPa) = 21.91117 25.27675 23.59396
#
# Velocity S-wave (km/s) = 3.37639 3.62644 3.50365
# Velocity P-wave (km/s) = 5.19110 5.43827 5.31612
#
# Compressibility (1/GPa) = 0.04428882
#
# Stress axis : x y z
#
# Youngs Moduli (GPa) = 57.73566 71.15689 67.47277
#
# Poissons Ratio (x) = -0.01229 -0.03547
# Poissons Ratio (y) = -0.00997 0.11142
# Poissons Ratio (z) = -0.03036 0.11750
#
# Static dielectric constant tensor:
#      x y z
#    x 3.362540 0.000000 0.000000 
#    y 0.000000 3.516710 0.000000 
#    z 0.000000 0.000000 3.540870 
# 
# 
# High freq. dielectric constant tensor:
#      x y z
#    x 1.727310 0.000000 0.000000 
#    y 0.000000 1.745320 0.000000 
#    z 0.000000 0.000000 1.760600 
# 
# From -- ./inp_files/2820.got.cif
#   From: 2010.03.12/outbox.cif.g09.slc.cpg/sg61_2_cif.got.tgz:2820.got - 2010.04.10 19:05:03.
