data_PCOD8248162
_publ_section_title
;
Structure prediction by ZEFSAII (Michael W. Deem and Ramdas Pophale) SiO2 
 PCOD8248162
Probable space group: P B C N
;
_chemical_formula_sum "Si O2"
_cell_formula_units_Z 36
_cell_length_a 9.528485
_cell_length_b 21.104537
_cell_length_c 8.070744
_cell_angle_alpha 90.000000
_cell_angle_beta 90.000000
_cell_angle_gamma 90.000000
_cell_volume 1622.980327
_symmetry_space_group_name_H-M "P B C N"
_symmetry_group_IT_number 60
_symmetry_cell_setting 'orthorhombic'
loop_
_space_group_symop_operation_xyz
x,y,z
1/2-x,1/2-y,1/2+z
1/2+x,1/2-y,-z
-x,y,1/2-z
-x,-y,-z
1/2+x,1/2+y,1/2-z
1/2-x,1/2+y,z
x,-y,1/2+z
loop_
_atom_site_type_symbol
_atom_site_label
_atom_site_fract_x
_atom_site_fract_y
_atom_site_fract_z
Si Si1 0.842881 0.916877 0.003698
Si Si2 0.978592 0.427994 0.946198
Si Si3 0.875822 0.684006 0.868403
Si Si4 0.000000 0.994649 0.750000
Si Si5 0.623159 0.289433 0.134048
O O1 0.920849 0.849130 0.020768
O O2 0.894227 0.962844 0.147270
O O3 0.675956 0.906463 0.000943
O O4 0.890405 0.948624 0.835849
O O5 0.000000 0.419061 0.750000
O O6 0.000000 0.500000 0.000000
O O7 0.087367 0.383960 0.049195
O O8 0.742206 0.680377 0.750640
O O9 0.000000 0.709546 0.750000
O O10 0.834544 0.731947 0.015872
O O11 0.500000 0.263549 0.250000
#
# Coordination Sequence:
#
# PCOD8248162 Si02
#       5
#     8   8   8   4   8
#     4  11  24  45  68 106 139 190 240 294 372 435
#     4  12  27  46  78 108 149 194 248 312 383 454
#     4  12  27  49  73 105 148 192 255 309 376 448
#     4  10  24  44  72 102 152 182 236 302 364 454
#     4  12  27  46  73 103 145 194 245 308 368 446
#
# _framework density 22.181417
#
# number of rings (size 3 to 8) (size 9 to 14) (size 15 to 20)
#    0.000    0.444    3.333    4.000    7.778    1.778 
#    0.000    0.000    0.000    0.000    0.000    0.000 
#    0.000    0.000    0.000    0.000    0.000    0.000 
#
# Total GULP energy -446355.993330 kJ/mol
# GULP energy per Si atom -12398.777593 kJ/mol
# Density = 2.213093 g / cm^3
# Si number density = 22.181417 Si / 1000 Ang^3
#
#
#
# Elastic Constant Matrix: (Units=GPa)
#
#
# Indices 1 2 3 4 5 6 
#
# 1 85.9453 17.8387 33.5577 0.0000 0.0000 0.0000
# 2 17.8387 156.5653 50.8612 0.0000 0.0000 0.0000
# 3 33.5577 50.8612 89.8487 0.0000 0.0000 0.0000
# 4 0.0000 0.0000 0.0000 35.6818 0.0000 0.0000
# 5 0.0000 0.0000 0.0000 0.0000 26.8611 0.0000
# 6 0.0000 0.0000 0.0000 0.0000 0.0000 27.0050
#
#
#
# Elastic Compliance Matrix: (Units=1/GPa)
#
#
# Indices 1 2 3 4 5 6 
#
# 1 0.013624 0.000123 -0.005158 0.000000 0.000000 0.000000
# 2 0.000123 0.007827 -0.004477 0.000000 0.000000 0.000000
# 3 -0.005158 -0.004477 0.015591 0.000000 0.000000 0.000000
# 4 0.000000 0.000000 0.000000 0.028026 0.000000 0.000000
# 5 0.000000 0.000000 0.000000 0.000000 0.037229 0.000000
# 6 0.000000 0.000000 0.000000 0.000000 0.000000 0.037030
#
#
# Mechanical properties :
#
#
# Convention : Reuss Voigt Hill
#
# Bulk Modulus (GPa) = 55.49928 59.65272 57.57600
# Shear Modulus (GPa) = 30.42178 33.24967 31.83573
#
# Velocity S-wave (km/s) = 3.70739 3.87588 3.79257
# Velocity P-wave (km/s) = 6.58797 6.85430 6.72245
#
# Compressibility (1/GPa) = 0.01801825
#
# Stress axis : x y z
#
# Youngs Moduli (GPa) = 73.40124 127.75575 64.14079
#
# Poissons Ratio (x) = -0.01577 0.33085
# Poissons Ratio (y) = -0.00906 0.28716
# Poissons Ratio (z) = 0.37862 0.57196
#
# Static dielectric constant tensor:
#      x y z
#    x 4.106690 0.000000 0.000000 
#    y 0.000000 3.984160 0.000000 
#    z 0.000000 0.000000 4.188460 
# 
# 
# High freq. dielectric constant tensor:
#      x y z
#    x 1.872280 0.000000 0.000000 
#    y 0.000000 1.887110 0.000000 
#    z 0.000000 0.000000 1.893530 
# 
# From -- ./inp_files/3718.got.cif
#   From: 2010.03.12/outbox.cif.g09.slc.cpg/sg60_2_cif.got.tgz:3718.got - 2010.04.10 18:46:24.
