data_PCOD8248085
_publ_section_title
;
Structure prediction by ZEFSAII (Michael W. Deem and Ramdas Pophale) SiO2 
 PCOD8248085
Probable space group: P B C N
;
_chemical_formula_sum "Si O2"
_cell_formula_units_Z 56
_cell_length_a 15.569188
_cell_length_b 21.077424
_cell_length_c 8.327106
_cell_angle_alpha 90.000000
_cell_angle_beta 90.000000
_cell_angle_gamma 90.000000
_cell_volume 2732.609588
_symmetry_space_group_name_H-M "P B C N"
_symmetry_group_IT_number 60
_symmetry_cell_setting 'orthorhombic'
loop_
_space_group_symop_operation_xyz
x,y,z
1/2-x,1/2-y,1/2+z
1/2+x,1/2-y,-z
-x,y,1/2-z
-x,-y,-z
1/2+x,1/2+y,1/2-z
1/2-x,1/2+y,z
x,-y,1/2+z
loop_
_atom_site_type_symbol
_atom_site_label
_atom_site_fract_x
_atom_site_fract_y
_atom_site_fract_z
Si Si1 0.780403 0.431959 0.763997
Si Si2 0.046686 0.443690 0.588347
Si Si3 0.816429 0.296241 0.618504
Si Si4 0.644867 0.715227 0.917197
Si Si5 0.998076 0.689903 0.441649
Si Si6 0.908653 0.076522 0.832079
Si Si7 0.319252 0.482597 0.458032
O O1 0.857687 0.464227 0.864234
O O2 0.804555 0.360391 0.721189
O O3 0.757957 0.470819 0.601973
O O4 0.703610 0.436300 0.893427
O O5 0.000000 0.426477 0.750000
O O6 0.000000 0.500000 0.500000
O O7 0.038589 0.377355 0.489824
O O8 0.831462 0.238808 0.740376
O O9 0.731673 0.281718 0.519070
O O10 0.901820 0.300802 0.503801
O O11 0.568809 0.756288 0.002400
O O12 0.608818 0.644617 0.907221
O O13 0.000000 0.694358 0.250000
O O14 0.840746 0.061667 0.692196
O O15 0.000000 0.071668 0.750000
O O16 0.897906 0.026527 0.978635
#
# Coordination Sequence:
#
# PCOD8248085 Si02
#       7
#     8   8   8   8   8   8   8
#     4  11  20  40  59  92 129 160 211 263 315 381
#     4  11  20  34  59  88 122 167 200 251 312 373
#     4  11  22  41  64  86 125 166 209 268 318 379
#     4  11  23  40  66  90 120 171 215 257 328 384
#     4   9  19  39  59  85 121 162 207 249 310 384
#     4  11  22  41  65  90 123 166 212 265 329 386
#     4  10  24  37  62  94 124 161 212 265 319 391
#
# _framework density 20.493231000000002
#
# number of rings (size 3 to 8) (size 9 to 14) (size 15 to 20)
#    0.000    1.429    5.714    2.571    2.000    0.000 
#    0.000    2.143    0.000    0.000    0.000    0.000 
#    0.000    0.000    0.000    0.000    0.000    0.000 
#
# Total GULP energy -694012.554152 kJ/mol
# GULP energy per Si atom -12393.081324 kJ/mol
# Density = 2.044659 g / cm^3
# Si number density = 20.493231 Si / 1000 Ang^3
#
#
#
# Elastic Constant Matrix: (Units=GPa)
#
#
# Indices 1 2 3 4 5 6 
#
# 1 137.0537 53.3295 20.1836 0.0000 0.0000 0.0000
# 2 53.3295 104.9562 15.7488 0.0000 0.0000 0.0000
# 3 20.1836 15.7488 40.7676 0.0000 0.0000 0.0000
# 4 0.0000 0.0000 0.0000 25.0143 0.0000 0.0000
# 5 0.0000 0.0000 0.0000 0.0000 40.8743 0.0000
# 6 0.0000 0.0000 0.0000 0.0000 0.0000 40.0322
#
#
#
# Elastic Compliance Matrix: (Units=1/GPa)
#
#
# Indices 1 2 3 4 5 6 
#
# 1 0.009426 -0.004341 -0.002990 0.000000 0.000000 0.000000
# 2 -0.004341 0.012113 -0.002530 0.000000 0.000000 0.000000
# 3 -0.002990 -0.002530 0.026987 0.000000 0.000000 0.000000
# 4 0.000000 0.000000 0.000000 0.039977 0.000000 0.000000
# 5 0.000000 0.000000 0.000000 0.000000 0.024465 0.000000
# 6 0.000000 0.000000 0.000000 0.000000 0.000000 0.024980
#
#
# Mechanical properties :
#
#
# Convention : Reuss Voigt Hill
#
# Bulk Modulus (GPa) = 34.71717 51.25568 42.98642
# Shear Modulus (GPa) = 29.89165 34.08520 31.98842
#
# Velocity S-wave (km/s) = 3.82332 4.08271 3.95514
# Velocity P-wave (km/s) = 6.03887 6.87677 6.47140
#
# Compressibility (1/GPa) = 0.02880419
#
# Stress axis : x y z
#
# Youngs Moduli (GPa) = 106.09252 82.55570 37.05502
#
# Poissons Ratio (x) = 0.35835 0.11078
# Poissons Ratio (y) = 0.46052 0.09376
# Poissons Ratio (z) = 0.31719 0.20889
#
# Static dielectric constant tensor:
#      x y z
#    x 4.248940 0.000000 0.000000 
#    y 0.000000 4.137990 0.000000 
#    z 0.000000 0.000000 3.422870 
# 
# 
# High freq. dielectric constant tensor:
#      x y z
#    x 1.815080 0.000000 0.000000 
#    y 0.000000 1.807680 0.000000 
#    z 0.000000 0.000000 1.769920 
# 
# From -- ./inp_files/6177.got.cif
#   From: 2010.03.12/outbox.cif.g09.slc.cpg/sg60_4_cif.got.tgz:6177.got - 2010.04.10 18:46:24.
