data_PCOD8248550
_publ_section_title
;
Structure prediction by ZEFSAII (Michael W. Deem and Ramdas Pophale) SiO2 
 PCOD8248550
Probable space group: P B C N
;
_chemical_formula_sum "Si O2"
_cell_formula_units_Z 32
_cell_length_a 13.577379
_cell_length_b 9.576547
_cell_length_c 9.092238
_cell_angle_alpha 90.000000
_cell_angle_beta 90.000000
_cell_angle_gamma 90.000000
_cell_volume 1182.212865
_symmetry_space_group_name_H-M "P B C N"
_symmetry_group_IT_number 60
_symmetry_cell_setting 'orthorhombic'
loop_
_space_group_symop_operation_xyz
x,y,z
1/2-x,1/2-y,1/2+z
1/2+x,1/2-y,-z
-x,y,1/2-z
-x,-y,-z
1/2+x,1/2+y,1/2-z
1/2-x,1/2+y,z
x,-y,1/2+z
loop_
_atom_site_type_symbol
_atom_site_label
_atom_site_fract_x
_atom_site_fract_y
_atom_site_fract_z
Si Si1 0.804139 0.545671 0.234874
Si Si2 0.396656 0.844322 0.053534
Si Si3 0.904176 0.954177 0.845402
Si Si4 0.068615 0.254805 0.607829
O O1 0.827995 0.581915 0.067175
O O2 0.871195 0.414007 0.289482
O O3 0.688613 0.512529 0.239370
O O4 0.828348 0.675043 0.345972
O O5 0.513962 0.853132 0.013292
O O6 0.376354 0.677561 0.053411
O O7 0.000000 0.917435 0.750000
O O8 0.919081 0.093933 0.945975
O O9 0.000000 0.251660 0.750000
#
# Coordination Sequence:
#
# PCOD8248550 Si02
#       4
#     8   8   8   8
#     4  11  25  46  72 106 144 189 242 301 367 440
#     4  11  25  45  74 108 144 191 244 304 367 436
#     4  11  25  44  70 104 146 193 242 301 367 435
#     4   9  21  43  68 100 139 181 236 298 359 427
#
# _framework density 27.067882000000001
#
# number of rings (size 3 to 8) (size 9 to 14) (size 15 to 20)
#    0.000    1.500    0.000    3.000    0.000   17.000 
#    0.000    0.000    0.000    0.000    0.000    0.000 
#    0.000    0.000    0.000    0.000    0.000    0.000 
#
# Total GULP energy -396717.609759 kJ/mol
# GULP energy per Si atom -12397.425305 kJ/mol
# Density = 2.700627 g / cm^3
# Si number density = 27.067882 Si / 1000 Ang^3
#
#
#
# Elastic Constant Matrix: (Units=GPa)
#
#
# Indices 1 2 3 4 5 6 
#
# 1 140.3167 26.8663 39.8569 0.0000 0.0000 0.0000
# 2 26.8663 168.3077 48.6529 0.0000 0.0000 0.0000
# 3 39.8569 48.6529 68.7699 0.0000 0.0000 0.0000
# 4 0.0000 0.0000 0.0000 45.7478 0.0000 0.0000
# 5 0.0000 0.0000 0.0000 0.0000 21.1231 0.0000
# 6 0.0000 0.0000 0.0000 0.0000 0.0000 25.1837
#
#
#
# Elastic Compliance Matrix: (Units=1/GPa)
#
#
# Indices 1 2 3 4 5 6 
#
# 1 0.008532 0.000085 -0.005005 0.000000 0.000000 0.000000
# 2 0.000085 0.007470 -0.005334 0.000000 0.000000 0.000000
# 3 -0.005005 -0.005334 0.021216 0.000000 0.000000 0.000000
# 4 0.000000 0.000000 0.000000 0.021859 0.000000 0.000000
# 5 0.000000 0.000000 0.000000 0.000000 0.047342 0.000000
# 6 0.000000 0.000000 0.000000 0.000000 0.000000 0.039708
#
#
# Mechanical properties :
#
#
# Convention : Reuss Voigt Hill
#
# Bulk Modulus (GPa) = 59.84626 67.57183 63.70904
# Shear Modulus (GPa) = 29.03531 35.87881 32.45706
#
# Velocity S-wave (km/s) = 3.27874 3.64471 3.46656
# Velocity P-wave (km/s) = 6.04080 6.53681 6.29369
#
# Compressibility (1/GPa) = 0.01670948
#
# Stress axis : x y z
#
# Youngs Moduli (GPa) = 117.20364 133.87195 47.13520
#
# Poissons Ratio (x) = -0.01136 0.23591
# Poissons Ratio (y) = -0.00994 0.25141
# Poissons Ratio (z) = 0.58660 0.71406
#
# Static dielectric constant tensor:
#      x y z
#    x 5.022600 0.000000 0.000000 
#    y 0.000000 5.168970 0.000000 
#    z 0.000000 0.000000 4.393920 
# 
# 
# High freq. dielectric constant tensor:
#      x y z
#    x 2.092730 0.000000 0.000000 
#    y 0.000000 2.103830 0.000000 
#    z 0.000000 0.000000 2.061710 
# 
# From -- ./inp_files/11566.got.cif
#   From: 2010.03.12/outbox.cif.g09.slc.cpg/sg60_6_cif.got.tgz:11566.got - 2010.04.10 18:46:24.
