data_PCOD8248246
_publ_section_title
;
Structure prediction by ZEFSAII (Michael W. Deem and Ramdas Pophale) SiO2 
 PCOD8248246
Probable space group: P B C N
;
_chemical_formula_sum "Si O2"
_cell_formula_units_Z 32
_cell_length_a 5.194565
_cell_length_b 8.975969
_cell_length_c 26.493844
_cell_angle_alpha 90.000000
_cell_angle_beta 90.000000
_cell_angle_gamma 90.000000
_cell_volume 1235.308711
_symmetry_space_group_name_H-M "P B C N"
_symmetry_group_IT_number 60
_symmetry_cell_setting 'orthorhombic'
loop_
_space_group_symop_operation_xyz
x,y,z
1/2-x,1/2-y,1/2+z
1/2+x,1/2-y,-z
-x,y,1/2-z
-x,-y,-z
1/2+x,1/2+y,1/2-z
1/2-x,1/2+y,z
x,-y,1/2+z
loop_
_atom_site_type_symbol
_atom_site_label
_atom_site_fract_x
_atom_site_fract_y
_atom_site_fract_z
Si Si1 0.901449 0.830161 0.610008
Si Si2 0.567973 0.164695 0.017247
Si Si3 0.257554 0.077892 0.633419
Si Si4 0.531976 0.831956 0.691260
O O1 0.641751 0.841221 0.576791
O O2 0.826214 0.841572 0.669851
O O3 0.093110 0.967656 0.597155
O O4 0.038904 0.670941 0.598931
O O5 0.321649 0.272175 0.011371
O O6 0.500000 0.000000 0.000000
O O7 0.396451 0.985632 0.677244
O O8 0.078986 0.192071 0.662110
O O9 0.500000 0.804054 0.750000
#
# Coordination Sequence:
#
# PCOD8248246 Si02
#       4
#     8   8   8   8
#     4  11  27  50  79 114 162 211 272 338 413 494
#     4  12  32  56  90 125 169 220 284 348 424 499
#     4  10  26  46  76 110 161 209 264 329 414 484
#     4  11  26  43  78 111 157 205 268 333 413 493
#
# _framework density 25.904453
#
# number of rings (size 3 to 8) (size 9 to 14) (size 15 to 20)
#    0.000    1.000    0.000    2.250   21.000    2.000 
#    0.000    0.000    0.000    0.000    0.000    0.000 
#    0.000    0.000    0.000    0.000    0.000    0.000 
#
# Total GULP energy -396816.821241 kJ/mol
# GULP energy per Si atom -12400.525664 kJ/mol
# Density = 2.584549 g / cm^3
# Si number density = 25.904453 Si / 1000 Ang^3
#
#
#
# Elastic Constant Matrix: (Units=GPa)
#
#
# Indices 1 2 3 4 5 6 
#
# 1 140.4355 68.1423 48.2019 0.0000 0.0000 0.0000
# 2 68.1423 181.6268 49.3943 0.0000 0.0000 0.0000
# 3 48.2019 49.3943 122.7299 0.0000 0.0000 0.0000
# 4 0.0000 0.0000 0.0000 18.9642 0.0000 0.0000
# 5 0.0000 0.0000 0.0000 0.0000 35.1254 0.0000
# 6 0.0000 0.0000 0.0000 0.0000 0.0000 17.1742
#
#
#
# Elastic Compliance Matrix: (Units=1/GPa)
#
#
# Indices 1 2 3 4 5 6 
#
# 1 0.009362 -0.002821 -0.002541 0.000000 0.000000 0.000000
# 2 -0.002821 0.007033 -0.001722 0.000000 0.000000 0.000000
# 3 -0.002541 -0.001722 0.009839 0.000000 0.000000 0.000000
# 4 0.000000 0.000000 0.000000 0.052731 0.000000 0.000000
# 5 0.000000 0.000000 0.000000 0.000000 0.028469 0.000000
# 6 0.000000 0.000000 0.000000 0.000000 0.000000 0.058227
#
#
# Mechanical properties :
#
#
# Convention : Reuss Voigt Hill
#
# Bulk Modulus (GPa) = 82.89230 86.25214 84.57222
# Shear Modulus (GPa) = 27.19572 32.85634 30.02603
#
# Velocity S-wave (km/s) = 3.24365 3.56528 3.40826
# Velocity P-wave (km/s) = 6.78948 7.09343 6.94312
#
# Compressibility (1/GPa) = 0.01206385
#
# Stress axis : x y z
#
# Youngs Moduli (GPa) = 106.81568 142.19366 101.63319
#
# Poissons Ratio (x) = 0.40116 0.25829
# Poissons Ratio (y) = 0.30135 0.17505
# Poissons Ratio (z) = 0.27146 0.24491
#
# Static dielectric constant tensor:
#      x y z
#    x 5.121430 0.000000 0.000000 
#    y 0.000000 5.065320 0.000000 
#    z 0.000000 0.000000 4.782840 
# 
# 
# High freq. dielectric constant tensor:
#      x y z
#    x 2.053560 0.000000 0.000000 
#    y 0.000000 2.064750 0.000000 
#    z 0.000000 0.000000 2.022950 
# 
# From -- ./inp_files/25571.got.cif
#   From: 2010.03.12/outbox.cif.g09.slc.cpg/sg60_13_cif.got.tgz:25571.got - 2010.04.10 18:46:24.
