data_PCOD8248845
_publ_section_title
;
Structure prediction by ZEFSAII (Michael W. Deem and Ramdas Pophale) SiO2 
 PCOD8248845
Probable space group: P B C A
;
_chemical_formula_sum "Si O2"
_cell_formula_units_Z 56
_cell_length_a 9.894149
_cell_length_b 12.661581
_cell_length_c 19.393964
_cell_angle_alpha 90.000000
_cell_angle_beta 90.000000
_cell_angle_gamma 90.000000
_cell_volume 2429.589875
_symmetry_space_group_name_H-M "P B C A"
_symmetry_group_IT_number 61
_symmetry_cell_setting 'orthorhombic'
loop_
_space_group_symop_operation_xyz
x,y,z
1/2-x,-y,1/2+z
1/2+x,1/2-y,-z
-x,1/2+y,1/2-z
-x,-y,-z
1/2+x,y,1/2-z
1/2-x,1/2+y,z
x,1/2-y,1/2+z
loop_
_atom_site_type_symbol
_atom_site_label
_atom_site_fract_x
_atom_site_fract_y
_atom_site_fract_z
Si Si1 0.223859 0.801434 0.385227
Si Si2 0.949639 0.130821 0.435675
Si Si3 0.175317 0.159666 0.265668
Si Si4 0.907991 0.457919 0.797141
Si Si5 0.912114 0.811406 0.350428
Si Si6 0.702893 0.002030 0.046746
Si Si7 0.291155 0.185825 0.523834
O O1 0.314263 0.746964 0.326287
O O2 0.262067 0.753016 0.459078
O O3 0.066588 0.785251 0.367589
O O4 0.259530 0.928399 0.391109
O O5 0.864096 0.092918 0.370083
O O6 0.925087 0.258414 0.443746
O O7 0.105432 0.096174 0.424669
O O8 0.889379 0.076584 0.503054
O O9 0.309229 0.088066 0.261234
O O10 0.151078 0.217710 0.193594
O O11 0.058127 0.076524 0.278659
O O12 0.900299 0.583762 0.803775
O O13 0.831852 0.821895 0.422092
O O14 0.819168 0.064956 0.003430
#
# Coordination Sequence:
#
# PCOD8248845 Si02
#       7
#     8   8   8   8   8   8   8
#     4  11  25  43  70 106 141 193 245 304 366 445
#     4  10  19  36  66  98 129 184 230 288 356 426
#     4  12  28  47  73 110 148 193 248 314 364 457
#     4  12  25  46  76 101 147 196 244 296 385 435
#     4  12  25  46  74 106 148 192 255 302 374 452
#     4  10  19  39  67  99 135 181 237 289 360 426
#     4  11  21  38  72 102 138 183 245 296 354 430
#
# _framework density 23.049157999999998
#
# number of rings (size 3 to 8) (size 9 to 14) (size 15 to 20)
#    0.000    0.857    5.714    2.571    2.000    0.000 
#    0.000    0.000    0.000   15.429    0.000    0.000 
#    0.000    0.000    0.000    0.000    0.000    0.000 
#
# Total GULP energy -693923.667447 kJ/mol
# GULP energy per Si atom -12391.494062 kJ/mol
# Density = 2.299670 g / cm^3
# Si number density = 23.049158 Si / 1000 Ang^3
#
#
#
# Elastic Constant Matrix: (Units=GPa)
#
#
# Indices 1 2 3 4 5 6 
#
# 1 66.8210 44.1813 16.7694 0.0000 0.0000 0.0000
# 2 44.1813 114.5568 26.2019 0.0000 0.0000 0.0000
# 3 16.7694 26.2019 72.9559 0.0000 0.0000 0.0000
# 4 0.0000 0.0000 0.0000 50.2511 0.0000 0.0000
# 5 0.0000 0.0000 0.0000 0.0000 15.6559 0.0000
# 6 0.0000 0.0000 0.0000 0.0000 0.0000 32.8457
#
#
#
# Elastic Compliance Matrix: (Units=1/GPa)
#
#
# Indices 1 2 3 4 5 6 
#
# 1 0.020359 -0.007388 -0.002026 0.000000 0.000000 0.000000
# 2 -0.007388 0.012192 -0.002680 0.000000 0.000000 0.000000
# 3 -0.002026 -0.002680 0.015135 0.000000 0.000000 0.000000
# 4 0.000000 0.000000 0.000000 0.019900 0.000000 0.000000
# 5 0.000000 0.000000 0.000000 0.000000 0.063874 0.000000
# 6 0.000000 0.000000 0.000000 0.000000 0.000000 0.030445
#
#
# Mechanical properties :
#
#
# Convention : Reuss Voigt Hill
#
# Bulk Modulus (GPa) = 42.56002 47.62655 45.09328
# Shear Modulus (GPa) = 25.78283 30.89594 28.33938
#
# Velocity S-wave (km/s) = 3.34818 3.66517 3.51025
# Velocity P-wave (km/s) = 5.78377 6.21443 6.00297
#
# Compressibility (1/GPa) = 0.02349623
#
# Stress axis : x y z
#
# Youngs Moduli (GPa) = 49.11829 82.02169 66.07076
#
# Poissons Ratio (x) = 0.60602 0.13387
# Poissons Ratio (y) = 0.36291 0.17710
# Poissons Ratio (z) = 0.09952 0.21985
#
# Static dielectric constant tensor:
#      x y z
#    x 3.908250 0.000000 0.000000 
#    y 0.000000 4.604170 0.000000 
#    z 0.000000 0.000000 4.382900 
# 
# 
# High freq. dielectric constant tensor:
#      x y z
#    x 1.879120 0.000000 0.000000 
#    y 0.000000 1.923310 0.000000 
#    z 0.000000 0.000000 1.921030 
# 
# From -- ./inp_files/10310.got.cif
#   From: 2010.03.12/outbox.cif.g09.slc.cpg/sg61_6_cif.got.tgz:10310.got - 2010.04.10 19:05:03.
