data_PCOD8248196
_publ_section_title
;
Structure prediction by ZEFSAII (Michael W. Deem and Ramdas Pophale) SiO2 
 PCOD8248196
Probable space group: P B C N
;
_chemical_formula_sum "Si O2"
_cell_formula_units_Z 44
_cell_length_a 17.016593
_cell_length_b 9.118731
_cell_length_c 13.317596
_cell_angle_alpha 90.000000
_cell_angle_beta 90.000000
_cell_angle_gamma 90.000000
_cell_volume 2066.487830
_symmetry_space_group_name_H-M "P B C N"
_symmetry_group_IT_number 60
_symmetry_cell_setting 'orthorhombic'
loop_
_space_group_symop_operation_xyz
x,y,z
1/2-x,1/2-y,1/2+z
1/2+x,1/2-y,-z
-x,y,1/2-z
-x,-y,-z
1/2+x,1/2+y,1/2-z
1/2-x,1/2+y,z
x,-y,1/2+z
loop_
_atom_site_type_symbol
_atom_site_label
_atom_site_fract_x
_atom_site_fract_y
_atom_site_fract_z
Si Si1 0.245585 0.553892 0.936442
Si Si2 0.868945 0.651802 0.731040
Si Si3 0.500000 0.086414 0.250000
Si Si4 0.093203 0.090816 0.398958
Si Si5 0.508704 0.697126 0.571405
Si Si6 0.160142 0.696853 0.540866
O O1 0.206744 0.620961 0.837192
O O2 0.315291 0.447565 0.902638
O O3 0.276515 0.684123 0.006187
O O4 0.181139 0.463107 0.998584
O O5 0.919417 0.787286 0.686672
O O6 0.922872 0.508730 0.732692
O O7 0.837814 0.694944 0.839676
O O8 0.516698 0.185041 0.346883
O O9 0.068046 0.155800 0.507183
O O10 0.041778 0.947550 0.372557
O O11 0.573461 0.761953 0.496065
#
# Coordination Sequence:
#
# PCOD8248196 Si02
#       6
#     8   8   4   8   8   8
#     4  11  24  46  66 104 142 183 237 292 348 431
#     4  12  26  42  72 104 142 188 233 296 363 428
#     4  12  26  42  76 106 140 184 242 302 356 432
#     4  10  24  47  69  96 145 183 237 291 350 432
#     4  10  24  47  71 101 136 189 240 296 355 426
#     4  11  25  44  71 100 142 186 233 292 360 417
#
# _framework density 21.292165000000001
#
# number of rings (size 3 to 8) (size 9 to 14) (size 15 to 20)
#    0.000    1.091    3.636    1.091    5.091    6.545 
#    3.273    0.000    0.000    0.000    0.000    0.000 
#    0.000    0.000    0.000    0.000    0.000    0.000 
#
# Total GULP energy -545898.955793 kJ/mol
# GULP energy per Si atom -12406.794450 kJ/mol
# Density = 2.124370 g / cm^3
# Si number density = 21.292165 Si / 1000 Ang^3
#
#
#
# Elastic Constant Matrix: (Units=GPa)
#
#
# Indices 1 2 3 4 5 6 
#
# 1 77.6407 36.4299 42.9842 0.0000 0.0000 0.0000
# 2 36.4299 117.1032 72.8003 0.0000 0.0000 0.0000
# 3 42.9842 72.8003 146.0233 0.0000 0.0000 0.0000
# 4 0.0000 0.0000 0.0000 45.2921 0.0000 0.0000
# 5 0.0000 0.0000 0.0000 0.0000 32.4380 0.0000
# 6 0.0000 0.0000 0.0000 0.0000 0.0000 29.8665
#
#
#
# Elastic Compliance Matrix: (Units=1/GPa)
#
#
# Indices 1 2 3 4 5 6 
#
# 1 0.016076 -0.002984 -0.003245 0.000000 0.000000 0.000000
# 2 -0.002984 0.012929 -0.005567 0.000000 0.000000 0.000000
# 3 -0.003245 -0.005567 0.010579 0.000000 0.000000 0.000000
# 4 0.000000 0.000000 0.000000 0.022079 0.000000 0.000000
# 5 0.000000 0.000000 0.000000 0.000000 0.030828 0.000000
# 6 0.000000 0.000000 0.000000 0.000000 0.000000 0.033482
#
#
# Mechanical properties :
#
#
# Convention : Reuss Voigt Hill
#
# Bulk Modulus (GPa) = 62.53094 71.68845 67.10970
# Shear Modulus (GPa) = 32.27971 34.08951 33.18461
#
# Velocity S-wave (km/s) = 3.89786 4.00563 3.95211
# Velocity P-wave (km/s) = 7.04908 7.42533 7.23965
#
# Compressibility (1/GPa) = 0.01599208
#
# Stress axis : x y z
#
# Youngs Moduli (GPa) = 62.20333 77.34622 94.52786
#
# Poissons Ratio (x) = 0.23081 0.30670
# Poissons Ratio (y) = 0.18562 0.52626
# Poissons Ratio (z) = 0.20182 0.43061
#
# Static dielectric constant tensor:
#      x y z
#    x 3.825610 0.000000 0.000000 
#    y 0.000000 4.185420 0.000000 
#    z 0.000000 0.000000 3.695880 
# 
# 
# High freq. dielectric constant tensor:
#      x y z
#    x 1.836960 0.000000 0.000000 
#    y 0.000000 1.859470 0.000000 
#    z 0.000000 0.000000 1.831900 
# 
# From -- ./inp_files/17294.got.cif
#   From: 2010.03.12/outbox.cif.g09.slc.cpg/sg60_9_cif.got.tgz:17294.got - 2010.04.10 18:46:24.
