data_PCOD8248318
_publ_section_title
;
Structure prediction by ZEFSAII (Michael W. Deem and Ramdas Pophale) SiO2 
 PCOD8248318
Probable space group: P B C N
;
_chemical_formula_sum "Si O2"
_cell_formula_units_Z 64
_cell_length_a 9.350908
_cell_length_b 18.815484
_cell_length_c 16.583765
_cell_angle_alpha 90.000000
_cell_angle_beta 90.000000
_cell_angle_gamma 90.000000
_cell_volume 2917.778458
_symmetry_space_group_name_H-M "P B C N"
_symmetry_group_IT_number 60
_symmetry_cell_setting 'orthorhombic'
loop_
_space_group_symop_operation_xyz
x,y,z
1/2-x,1/2-y,1/2+z
1/2+x,1/2-y,-z
-x,y,1/2-z
-x,-y,-z
1/2+x,1/2+y,1/2-z
1/2-x,1/2+y,z
x,-y,1/2+z
loop_
_atom_site_type_symbol
_atom_site_label
_atom_site_fract_x
_atom_site_fract_y
_atom_site_fract_z
Si Si1 0.220957 0.336788 0.040214
Si Si2 0.407194 0.349186 0.319236
Si Si3 0.697795 0.413587 0.938209
Si Si4 0.431941 0.959485 0.669555
Si Si5 0.041436 0.786785 0.482826
Si Si6 0.149666 0.385260 0.213942
Si Si7 0.029875 0.994347 0.839930
Si Si8 0.702130 0.977205 0.562870
O O1 0.370253 0.298055 0.016877
O O2 0.202271 0.341334 0.136491
O O3 0.084376 0.292795 0.007525
O O4 0.214198 0.414263 0.001471
O O5 0.500000 0.310395 0.250000
O O6 0.394168 0.296802 0.393917
O O7 0.252968 0.372148 0.288767
O O8 0.492100 0.420690 0.345292
O O9 0.820751 0.404020 0.870094
O O10 0.578555 0.466615 0.906128
O O11 0.623659 0.338742 0.955528
O O12 0.764990 0.447977 0.018907
O O13 0.500000 0.924121 0.750000
O O14 0.546002 0.981035 0.601499
O O15 0.349424 0.031027 0.695018
O O16 0.000000 0.358317 0.250000
O O17 0.187099 0.967154 0.863968
O O18 0.000000 0.965306 0.750000
#
# Coordination Sequence:
#
# PCOD8248318 Si02
#       8
#     8   8   8   8   8   8   8   8
#     4  12  28  48  69 103 140 188 238 287 346 419
#     4  11  21  41  72 100 132 178 231 289 347 415
#     4  12  23  41  69 103 134 173 232 286 349 408
#     4  11  24  40  65 107 142 177 220 287 355 408
#     4  12  28  46  72 100 138 187 239 286 350 416
#     4  11  24  42  71 105 139 177 233 286 348 421
#     4  11  21  37  69 102 134 169 222 292 347 406
#     4  12  23  41  69 102 139 175 227 288 349 406
#
# _framework density 21.934497
#
# number of rings (size 3 to 8) (size 9 to 14) (size 15 to 20)
#    0.000    0.500    5.000    5.250    3.500    0.000 
#    0.000    3.750    0.000    0.000    0.000    0.000 
#    0.000    0.000    0.000    0.000    0.000    0.000 
#
# Total GULP energy -793865.309296 kJ/mol
# GULP energy per Si atom -12404.145458 kJ/mol
# Density = 2.188457 g / cm^3
# Si number density = 21.934497 Si / 1000 Ang^3
#
#
#
# Elastic Constant Matrix: (Units=GPa)
#
#
# Indices 1 2 3 4 5 6 
#
# 1 84.8280 -1.1211 17.7218 0.0000 0.0000 0.0000
# 2 -1.1211 40.4678 13.8321 0.0000 0.0000 0.0000
# 3 17.7218 13.8321 100.2756 0.0000 0.0000 0.0000
# 4 0.0000 0.0000 0.0000 21.2489 0.0000 0.0000
# 5 0.0000 0.0000 0.0000 0.0000 49.0936 0.0000
# 6 0.0000 0.0000 0.0000 0.0000 0.0000 30.7630
#
#
#
# Elastic Compliance Matrix: (Units=1/GPa)
#
#
# Indices 1 2 3 4 5 6 
#
# 1 0.012290 0.001136 -0.002329 0.000000 0.000000 0.000000
# 2 0.001136 0.026039 -0.003793 0.000000 0.000000 0.000000
# 3 -0.002329 -0.003793 0.010907 0.000000 0.000000 0.000000
# 4 0.000000 0.000000 0.000000 0.047061 0.000000 0.000000
# 5 0.000000 0.000000 0.000000 0.000000 0.020369 0.000000
# 6 0.000000 0.000000 0.000000 0.000000 0.000000 0.032507
#
#
# Mechanical properties :
#
#
# Convention : Reuss Voigt Hill
#
# Bulk Modulus (GPa) = 25.46717 31.82632 28.64675
# Shear Modulus (GPa) = 29.03059 33.23033 31.13046
#
# Velocity S-wave (km/s) = 3.64196 3.89650 3.77138
# Velocity P-wave (km/s) = 5.41488 5.89786 5.66152
#
# Compressibility (1/GPa) = 0.03926624
#
# Stress axis : x y z
#
# Youngs Moduli (GPa) = 81.36631 38.40412 91.68216
#
# Poissons Ratio (x) = -0.04365 0.21351
# Poissons Ratio (y) = -0.09247 0.34772
# Poissons Ratio (z) = 0.18949 0.14565
#
# Static dielectric constant tensor:
#      x y z
#    x 4.215290 0.000000 0.000000 
#    y 0.000000 3.517310 0.000000 
#    z 0.000000 0.000000 4.274290 
# 
# 
# High freq. dielectric constant tensor:
#      x y z
#    x 1.885150 0.000000 0.000000 
#    y 0.000000 1.813770 0.000000 
#    z 0.000000 0.000000 1.882420 
# 
# From -- ./inp_files/19728.got.cif
#   From: 2010.03.12/outbox.cif.g09.slc.cpg/sg60_10_cif.got.tgz:19728.got - 2010.04.10 18:46:24.
