data_PCOD8248630
_publ_section_title
;
Structure prediction by ZEFSAII (Michael W. Deem and Ramdas Pophale) SiO2 
 PCOD8248630
Probable space group: P B C N
;
_chemical_formula_sum "Si O2"
_cell_formula_units_Z 36
_cell_length_a 7.588152
_cell_length_b 14.705775
_cell_length_c 13.695853
_cell_angle_alpha 90.000000
_cell_angle_beta 90.000000
_cell_angle_gamma 90.000000
_cell_volume 1528.315525
_symmetry_space_group_name_H-M "P B C N"
_symmetry_group_IT_number 60
_symmetry_cell_setting 'orthorhombic'
loop_
_space_group_symop_operation_xyz
x,y,z
1/2-x,1/2-y,1/2+z
1/2+x,1/2-y,-z
-x,y,1/2-z
-x,-y,-z
1/2+x,1/2+y,1/2-z
1/2-x,1/2+y,z
x,-y,1/2+z
loop_
_atom_site_type_symbol
_atom_site_label
_atom_site_fract_x
_atom_site_fract_y
_atom_site_fract_z
Si Si1 0.793640 0.029191 0.263370
Si Si2 0.811160 0.043914 0.481681
Si Si3 0.601706 0.199485 0.551188
Si Si4 0.000000 0.380578 0.250000
Si Si5 0.309674 0.128349 0.424376
O O1 0.772238 0.070376 0.370563
O O2 0.715358 0.104978 0.189818
O O3 0.000000 0.005360 0.250000
O O4 0.679166 0.938558 0.251235
O O5 0.775426 0.134476 0.545461
O O6 0.678734 0.964586 0.514542
O O7 0.000000 0.000000 0.500000
O O8 0.499169 0.181623 0.652794
O O9 0.488627 0.179625 0.453488
O O10 0.647972 0.305892 0.546648
#
# Coordination Sequence:
#
# PCOD8248630 Si02
#       5
#     8   8   8   4   8
#     4  12  25  44  78 107 144 196 253 308 370 450
#     4  12  23  47  75 102 145 195 247 305 378 442
#     4  12  27  45  74 107 150 194 248 313 371 454
#     4  12  24  48  76 108 146 198 248 308 378 450
#     4  12  26  45  71 110 145 196 248 307 378 436
#
# _framework density 23.555347000000001
#
# number of rings (size 3 to 8) (size 9 to 14) (size 15 to 20)
#    0.000    0.000    6.667    3.333    1.556    0.000 
#    0.000    0.000    0.000    0.000    0.000    0.000 
#    0.000    0.000    0.000    0.000    0.000    0.000 
#
# Total GULP energy -446282.051731 kJ/mol
# GULP energy per Si atom -12396.723659 kJ/mol
# Density = 2.350173 g / cm^3
# Si number density = 23.555347 Si / 1000 Ang^3
#
#
#
# Elastic Constant Matrix: (Units=GPa)
#
#
# Indices 1 2 3 4 5 6 
#
# 1 72.5258 12.5492 38.1649 0.0000 0.0000 0.0000
# 2 12.5492 79.8600 40.4668 0.0000 0.0000 0.0000
# 3 38.1649 40.4668 179.5779 0.0000 0.0000 0.0000
# 4 0.0000 0.0000 0.0000 27.3229 0.0000 0.0000
# 5 0.0000 0.0000 0.0000 0.0000 33.6574 0.0000
# 6 0.0000 0.0000 0.0000 0.0000 0.0000 39.7084
#
#
#
# Elastic Compliance Matrix: (Units=1/GPa)
#
#
# Indices 1 2 3 4 5 6 
#
# 1 0.015578 -0.000870 -0.003115 0.000000 0.000000 0.000000
# 2 -0.000870 0.014185 -0.003012 0.000000 0.000000 0.000000
# 3 -0.003115 -0.003012 0.006909 0.000000 0.000000 0.000000
# 4 0.000000 0.000000 0.000000 0.036599 0.000000 0.000000
# 5 0.000000 0.000000 0.000000 0.000000 0.029711 0.000000
# 6 0.000000 0.000000 0.000000 0.000000 0.000000 0.025184
#
#
# Mechanical properties :
#
#
# Convention : Reuss Voigt Hill
#
# Bulk Modulus (GPa) = 44.09223 57.14725 50.61974
# Shear Modulus (GPa) = 33.39628 36.18993 34.79311
#
# Velocity S-wave (km/s) = 3.76943 3.92392 3.84745
# Velocity P-wave (km/s) = 6.14036 6.69649 6.42445
#
# Compressibility (1/GPa) = 0.02267973
#
# Stress axis : x y z
#
# Youngs Moduli (GPa) = 64.19434 70.49895 144.73421
#
# Poissons Ratio (x) = 0.06130 0.45080
# Poissons Ratio (y) = 0.05582 0.43588
# Poissons Ratio (z) = 0.19995 0.21232
#
# Static dielectric constant tensor:
#      x y z
#    x 4.357170 0.000000 0.000000 
#    y 0.000000 4.742760 0.000000 
#    z 0.000000 0.000000 4.821910 
# 
# 
# High freq. dielectric constant tensor:
#      x y z
#    x 1.939590 0.000000 0.000000 
#    y 0.000000 1.926060 0.000000 
#    z 0.000000 0.000000 1.941810 
# 
# From -- ./inp_files/14557.got.cif
#   From: 2010.03.12/outbox.cif.g09.slc.cpg/sg60_8_cif.got.tgz:14557.got - 2010.04.10 18:46:24.
