data_PCOD8248061
_publ_section_title
;
Structure prediction by ZEFSAII (Michael W. Deem and Ramdas Pophale) SiO2 
 PCOD8248061
Probable space group: P B C N
;
_chemical_formula_sum "Si O2"
_cell_formula_units_Z 40
_cell_length_a 9.049155
_cell_length_b 17.072505
_cell_length_c 11.541227
_cell_angle_alpha 90.000000
_cell_angle_beta 90.000000
_cell_angle_gamma 90.000000
_cell_volume 1783.024287
_symmetry_space_group_name_H-M "P B C N"
_symmetry_group_IT_number 60
_symmetry_cell_setting 'orthorhombic'
loop_
_space_group_symop_operation_xyz
x,y,z
1/2-x,1/2-y,1/2+z
1/2+x,1/2-y,-z
-x,y,1/2-z
-x,-y,-z
1/2+x,1/2+y,1/2-z
1/2-x,1/2+y,z
x,-y,1/2+z
loop_
_atom_site_type_symbol
_atom_site_label
_atom_site_fract_x
_atom_site_fract_y
_atom_site_fract_z
Si Si1 0.237019 0.645088 0.564363
Si Si2 0.046679 0.909098 0.497782
Si Si3 0.352965 0.299964 0.685147
Si Si4 0.145542 0.604908 0.324453
Si Si5 0.829233 0.952647 0.222147
O O1 0.403337 0.645968 0.515210
O O2 0.194721 0.732526 0.597684
O O3 0.122434 0.616328 0.463601
O O4 0.234349 0.588132 0.676327
O O5 0.125621 0.881715 0.615180
O O6 0.163162 0.896877 0.391946
O O7 0.000000 0.000000 0.500000
O O8 0.500000 0.272562 0.750000
O O9 0.222680 0.316125 0.776736
O O10 0.255283 0.533208 0.311199
O O11 0.000000 0.588466 0.250000
O O12 0.000000 0.970100 0.250000
#
# Coordination Sequence:
#
# PCOD8248061 Si02
#       5
#     8   8   8   8   8
#     4  11  26  43  71 108 139 185 248 299 375 435
#     4  11  21  46  80 103 138 192 253 295 361 457
#     4  12  26  45  73  99 147 189 236 306 374 438
#     4  12  27  44  68 104 147 184 245 303 366 437
#     4  10  23  45  74  99 136 191 243 294 360 455
#
# _framework density 22.433793999999999
#
# number of rings (size 3 to 8) (size 9 to 14) (size 15 to 20)
#    0.000    0.800    4.000    3.000    5.600    2.400 
#    0.000    0.000    0.000    0.000    0.000    0.000 
#    0.000    0.000    0.000    0.000    0.000    0.000 
#
# Total GULP energy -495929.135201 kJ/mol
# GULP energy per Si atom -12398.228380 kJ/mol
# Density = 2.238273 g / cm^3
# Si number density = 22.433794 Si / 1000 Ang^3
#
#
#
# Elastic Constant Matrix: (Units=GPa)
#
#
# Indices 1 2 3 4 5 6 
#
# 1 84.5860 33.6463 36.4920 0.0000 0.0000 0.0000
# 2 33.6463 113.8078 48.2905 0.0000 0.0000 0.0000
# 3 36.4920 48.2905 160.6620 0.0000 0.0000 0.0000
# 4 0.0000 0.0000 0.0000 41.1677 0.0000 0.0000
# 5 0.0000 0.0000 0.0000 0.0000 39.0440 0.0000
# 6 0.0000 0.0000 0.0000 0.0000 0.0000 24.4055
#
#
#
# Elastic Compliance Matrix: (Units=1/GPa)
#
#
# Indices 1 2 3 4 5 6 
#
# 1 0.014061 -0.003211 -0.002229 0.000000 0.000000 0.000000
# 2 -0.003211 0.010805 -0.002518 0.000000 0.000000 0.000000
# 3 -0.002229 -0.002518 0.007487 0.000000 0.000000 0.000000
# 4 0.000000 0.000000 0.000000 0.024291 0.000000 0.000000
# 5 0.000000 0.000000 0.000000 0.000000 0.025612 0.000000
# 6 0.000000 0.000000 0.000000 0.000000 0.000000 0.040974
#
#
# Mechanical properties :
#
#
# Convention : Reuss Voigt Hill
#
# Bulk Modulus (GPa) = 60.83876 66.21260 63.52568
# Shear Modulus (GPa) = 34.57199 36.96523 35.76861
#
# Velocity S-wave (km/s) = 3.92990 4.06365 3.99734
# Velocity P-wave (km/s) = 6.91161 7.18306 7.04864
#
# Compressibility (1/GPa) = 0.01643689
#
# Stress axis : x y z
#
# Youngs Moduli (GPa) = 71.11793 92.55245 133.55942
#
# Poissons Ratio (x) = 0.29723 0.29764
# Poissons Ratio (y) = 0.22839 0.33632
# Poissons Ratio (z) = 0.15849 0.23306
#
# Static dielectric constant tensor:
#      x y z
#    x 3.912050 0.000000 0.000000 
#    y 0.000000 3.740760 0.000000 
#    z 0.000000 0.000000 5.045180 
# 
# 
# High freq. dielectric constant tensor:
#      x y z
#    x 1.859330 0.000000 0.000000 
#    y 0.000000 1.872960 0.000000 
#    z 0.000000 0.000000 1.917950 
# 
# From -- ./inp_files/9769.got.cif
#   From: 2010.03.12/outbox.cif.g09.slc.cpg/sg60_5_cif.got.tgz:9769.got - 2010.04.10 18:46:24.
