data_PCOD8248202
_publ_section_title
;
Structure prediction by ZEFSAII (Michael W. Deem and Ramdas Pophale) SiO2 
 PCOD8248202
Probable space group: P B C N
;
_chemical_formula_sum "Si O2"
_cell_formula_units_Z 40
_cell_length_a 18.370038
_cell_length_b 8.818037
_cell_length_c 10.296340
_cell_angle_alpha 90.000000
_cell_angle_beta 90.000000
_cell_angle_gamma 90.000000
_cell_volume 1667.880175
_symmetry_space_group_name_H-M "P B C N"
_symmetry_group_IT_number 60
_symmetry_cell_setting 'orthorhombic'
loop_
_space_group_symop_operation_xyz
x,y,z
1/2-x,1/2-y,1/2+z
1/2+x,1/2-y,-z
-x,y,1/2-z
-x,-y,-z
1/2+x,1/2+y,1/2-z
1/2-x,1/2+y,z
x,-y,1/2+z
loop_
_atom_site_type_symbol
_atom_site_label
_atom_site_fract_x
_atom_site_fract_y
_atom_site_fract_z
Si Si1 0.211628 0.121610 0.098265
Si Si2 0.377432 0.823037 0.653462
Si Si3 0.547908 0.694457 0.083998
Si Si4 0.359045 0.564362 0.832271
Si Si5 0.096208 0.661317 0.670122
O O1 0.296718 0.148651 0.103157
O O2 0.174362 0.287336 0.115728
O O3 0.183499 0.010272 0.211166
O O4 0.193626 0.055228 0.956512
O O5 0.423172 0.713048 0.560740
O O6 0.377267 0.738655 0.793442
O O7 0.418743 0.983515 0.654760
O O8 0.565521 0.523088 0.132787
O O9 0.462467 0.732394 0.094922
O O10 0.592192 0.809992 0.175944
#
# Coordination Sequence:
#
# PCOD8248202 Si02
#       5
#     8   8   8   8   8
#     4  11  26  44  72 107 148 190 243 304 363 439
#     4  12  25  43  76 105 144 193 249 296 374 429
#     4  10  24  50  67 105 148 189 246 298 362 441
#     4  11  25  47  71 107 146 198 238 302 366 438
#     4  10  25  46  71 103 150 187 240 311 360 433
#
# _framework density 23.982538000000002
#
# number of rings (size 3 to 8) (size 9 to 14) (size 15 to 20)
#    0.000    1.200    2.000    1.800   11.200    0.800 
#    7.200    0.000    0.000    0.000    0.000    0.000 
#    0.000    0.000    0.000    0.000    0.000    0.000 
#
# Total GULP energy -496051.507517 kJ/mol
# GULP energy per Si atom -12401.287688 kJ/mol
# Density = 2.392795 g / cm^3
# Si number density = 23.982538 Si / 1000 Ang^3
#
#
#
# Elastic Constant Matrix: (Units=GPa)
#
#
# Indices 1 2 3 4 5 6 
#
# 1 82.8830 33.0766 0.2627 0.0000 0.0000 0.0000
# 2 33.0766 134.4133 24.5668 0.0000 0.0000 0.0000
# 3 0.2627 24.5668 100.9215 0.0000 0.0000 0.0000
# 4 0.0000 0.0000 0.0000 21.2630 0.0000 0.0000
# 5 0.0000 0.0000 0.0000 0.0000 21.1215 0.0000
# 6 0.0000 0.0000 0.0000 0.0000 0.0000 30.3860
#
#
#
# Elastic Compliance Matrix: (Units=1/GPa)
#
#
# Indices 1 2 3 4 5 6 
#
# 1 0.013441 -0.003455 0.000806 0.000000 0.000000 0.000000
# 2 -0.003455 0.008674 -0.002103 0.000000 0.000000 0.000000
# 3 0.000806 -0.002103 0.010418 0.000000 0.000000 0.000000
# 4 0.000000 0.000000 0.000000 0.047030 0.000000 0.000000
# 5 0.000000 0.000000 0.000000 0.000000 0.047345 0.000000
# 6 0.000000 0.000000 0.000000 0.000000 0.000000 0.032910
#
#
# Mechanical properties :
#
#
# Convention : Reuss Voigt Hill
#
# Bulk Modulus (GPa) = 43.41955 48.22556 45.82255
# Shear Modulus (GPa) = 28.24873 31.90822 30.07848
#
# Velocity S-wave (km/s) = 3.43576 3.65153 3.54529
# Velocity P-wave (km/s) = 5.82093 6.15877 5.99223
#
# Compressibility (1/GPa) = 0.02303110
#
# Stress axis : x y z
#
# Youngs Moduli (GPa) = 74.39671 115.28395 95.98400
#
# Poissons Ratio (x) = 0.39831 -0.07737
# Poissons Ratio (y) = 0.25704 0.20181
# Poissons Ratio (z) = -0.05997 0.24239
#
# Static dielectric constant tensor:
#      x y z
#    x 4.136590 0.000000 0.000000 
#    y 0.000000 4.483980 0.000000 
#    z 0.000000 0.000000 4.378780 
# 
# 
# High freq. dielectric constant tensor:
#      x y z
#    x 1.945530 0.000000 0.000000 
#    y 0.000000 1.955530 0.000000 
#    z 0.000000 0.000000 1.957350 
# 
# From -- ./inp_files/12302.got.cif
#   From: 2010.03.12/outbox.cif.g09.slc.cpg/sg60_7_cif.got.tgz:12302.got - 2010.04.10 18:46:24.
