data_PCOD8248548
_publ_section_title
;
Structure prediction by ZEFSAII (Michael W. Deem and Ramdas Pophale) SiO2 
 PCOD8248548
Probable space group: P B C N
;
_chemical_formula_sum "Si O2"
_cell_formula_units_Z 36
_cell_length_a 9.238829
_cell_length_b 11.364518
_cell_length_c 17.132942
_cell_angle_alpha 90.000000
_cell_angle_beta 90.000000
_cell_angle_gamma 90.000000
_cell_volume 1798.870478
_symmetry_space_group_name_H-M "P B C N"
_symmetry_group_IT_number 60
_symmetry_cell_setting 'orthorhombic'
loop_
_space_group_symop_operation_xyz
x,y,z
1/2-x,1/2-y,1/2+z
1/2+x,1/2-y,-z
-x,y,1/2-z
-x,-y,-z
1/2+x,1/2+y,1/2-z
1/2-x,1/2+y,z
x,-y,1/2+z
loop_
_atom_site_type_symbol
_atom_site_label
_atom_site_fract_x
_atom_site_fract_y
_atom_site_fract_z
Si Si1 0.035377 0.852495 0.418151
Si Si2 0.000000 0.520291 0.750000
Si Si3 0.167534 0.676509 0.172154
Si Si4 0.471372 0.620008 0.098775
Si Si5 0.800724 0.286327 0.177337
O O1 0.014000 0.838874 0.510090
O O2 0.198984 0.817719 0.395725
O O3 0.918817 0.769591 0.378522
O O4 0.007962 0.984252 0.389355
O O5 0.926317 0.441300 0.816921
O O6 0.878033 0.596936 0.707984
O O7 0.310279 0.643502 0.126120
O O8 0.199302 0.731612 0.256374
O O9 0.579606 0.692646 0.152717
#
# Coordination Sequence:
#
# PCOD8248548 Si02
#       5
#     8   4   8   8   8
#     4  11  25  44  66  96 132 171 213 266 324 382
#     4  12  24  40  70 100 124 168 224 266 320 376
#     4  12  23  44  68  97 131 169 219 264 322 383
#     4  11  25  44  66  96 132 171 213 266 324 382
#     4  12  23  44  68  97 131 169 219 264 322 383
#
# _framework density 20.012557999999999
#
# number of rings (size 3 to 8) (size 9 to 14) (size 15 to 20)
#    0.000    0.444    4.444    4.000    0.000    1.778 
#    0.000    2.222    0.000    0.000    0.000    0.000 
#    0.000    0.000    0.000    0.000    0.000    0.000 
#
# Total GULP energy -446691.443891 kJ/mol
# GULP energy per Si atom -12408.095664 kJ/mol
# Density = 1.996701 g / cm^3
# Si number density = 20.012558 Si / 1000 Ang^3
#
#
#
# Elastic Constant Matrix: (Units=GPa)
#
#
# Indices 1 2 3 4 5 6 
#
# 1 82.5961 10.3688 9.3815 0.0000 0.0000 0.0000
# 2 10.3688 75.2139 31.9571 0.0000 0.0000 0.0000
# 3 9.3815 31.9571 62.8824 0.0000 0.0000 0.0000
# 4 0.0000 0.0000 0.0000 37.1848 0.0000 0.0000
# 5 0.0000 0.0000 0.0000 0.0000 56.6175 0.0000
# 6 0.0000 0.0000 0.0000 0.0000 0.0000 36.6275
#
#
#
# Elastic Compliance Matrix: (Units=1/GPa)
#
#
# Indices 1 2 3 4 5 6 
#
# 1 0.012397 -0.001177 -0.001251 0.000000 0.000000 0.000000
# 2 -0.001177 0.017069 -0.008499 0.000000 0.000000 0.000000
# 3 -0.001251 -0.008499 0.020408 0.000000 0.000000 0.000000
# 4 0.000000 0.000000 0.000000 0.026893 0.000000 0.000000
# 5 0.000000 0.000000 0.000000 0.000000 0.017662 0.000000
# 6 0.000000 0.000000 0.000000 0.000000 0.000000 0.027302
#
#
# Mechanical properties :
#
#
# Convention : Reuss Voigt Hill
#
# Bulk Modulus (GPa) = 35.68935 36.01192 35.85064
# Shear Modulus (GPa) = 32.69564 37.35163 35.02364
#
# Velocity S-wave (km/s) = 4.04636 4.32488 4.18794
# Velocity P-wave (km/s) = 6.30102 6.55540 6.42947
#
# Compressibility (1/GPa) = 0.02801956
#
# Stress axis : x y z
#
# Youngs Moduli (GPa) = 80.66450 58.58682 48.99932
#
# Poissons Ratio (x) = 0.06898 0.06131
# Poissons Ratio (y) = 0.09498 0.41643
# Poissons Ratio (z) = 0.10092 0.49791
#
# Static dielectric constant tensor:
#      x y z
#    x 3.790800 0.000000 0.000000 
#    y 0.000000 3.826980 0.000000 
#    z 0.000000 0.000000 3.684420 
# 
# 
# High freq. dielectric constant tensor:
#      x y z
#    x 1.803920 0.000000 0.000000 
#    y 0.000000 1.797430 0.000000 
#    z 0.000000 0.000000 1.785940 
# 
# From -- ./inp_files/21914.got.cif
#   From: 2010.03.12/outbox.cif.g09.slc.cpg/sg60_11_cif.got.tgz:21914.got - 2010.04.10 18:46:24.
