data_PCOD8248107
_publ_section_title
;
Structure prediction by ZEFSAII (Michael W. Deem and Ramdas Pophale) SiO2 
 PCOD8248107
Probable space group: P B C N
;
_chemical_formula_sum "Si O2"
_cell_formula_units_Z 56
_cell_length_a 13.334665
_cell_length_b 22.575004
_cell_length_c 8.721357
_cell_angle_alpha 90.000000
_cell_angle_beta 90.000000
_cell_angle_gamma 90.000000
_cell_volume 2625.391107
_symmetry_space_group_name_H-M "P B C N"
_symmetry_group_IT_number 60
_symmetry_cell_setting 'orthorhombic'
loop_
_space_group_symop_operation_xyz
x,y,z
1/2-x,1/2-y,1/2+z
1/2+x,1/2-y,-z
-x,y,1/2-z
-x,-y,-z
1/2+x,1/2+y,1/2-z
1/2-x,1/2+y,z
x,-y,1/2+z
loop_
_atom_site_type_symbol
_atom_site_label
_atom_site_fract_x
_atom_site_fract_y
_atom_site_fract_z
Si Si1 0.102007 0.795823 0.821539
Si Si2 0.736417 0.995589 0.969262
Si Si3 0.104947 0.780920 0.167571
Si Si4 0.678140 0.819061 0.335382
Si Si5 0.386103 0.935952 0.281219
Si Si6 0.890771 0.660005 0.180830
Si Si7 0.715423 0.417236 0.716125
O O1 0.152953 0.747174 0.714971
O O2 0.164195 0.855935 0.824092
O O3 0.000000 0.817320 0.750000
O O4 0.081511 0.769425 0.989594
O O5 0.808959 0.948545 0.879616
O O6 0.685706 0.039505 0.850085
O O7 0.647835 0.961403 0.056402
O O8 0.805190 0.034909 0.082234
O O9 0.199557 0.826643 0.170761
O O10 0.147479 0.720786 0.242380
O O11 0.000000 0.802507 0.250000
O O12 0.629412 0.864985 0.215983
O O13 0.624743 0.831200 0.498656
O O14 0.500000 0.953665 0.250000
O O15 0.833011 0.600070 0.227223
O O16 0.000000 0.648863 0.250000
#
# Coordination Sequence:
#
# PCOD8248107 Si02
#       7
#     8   8   8   8   8   8   8
#     4  12  25  42  68 100 134 173 229 282 350 417
#     4  10  24  41  62  88 128 181 228 274 335 401
#     4  11  23  41  65  95 138 179 216 270 341 410
#     4  12  23  43  65 103 140 175 224 279 341 420
#     4  11  23  37  60  92 131 174 221 273 330 401
#     4  11  23  39  66  95 139 181 218 268 345 411
#     4  11  23  45  66  93 134 174 226 284 344 407
#
# _framework density 21.330155999999999
#
# number of rings (size 3 to 8) (size 9 to 14) (size 15 to 20)
#    0.000    0.857    4.286    2.571    4.000    4.571 
#    0.000    0.714    0.000    3.429    0.000    0.000 
#    0.000    0.000    0.000    0.000    0.000    0.000 
#
# Total GULP energy -693937.176151 kJ/mol
# GULP energy per Si atom -12391.735288 kJ/mol
# Density = 2.128161 g / cm^3
# Si number density = 21.330156 Si / 1000 Ang^3
#
#
#
# Elastic Constant Matrix: (Units=GPa)
#
#
# Indices 1 2 3 4 5 6 
#
# 1 64.2139 14.0343 27.0329 0.0000 0.0000 0.0000
# 2 14.0343 101.4898 36.4035 0.0000 0.0000 0.0000
# 3 27.0329 36.4035 96.5840 0.0000 0.0000 0.0000
# 4 0.0000 0.0000 0.0000 31.4087 0.0000 0.0000
# 5 0.0000 0.0000 0.0000 0.0000 26.5409 0.0000
# 6 0.0000 0.0000 0.0000 0.0000 0.0000 11.5870
#
#
#
# Elastic Compliance Matrix: (Units=1/GPa)
#
#
# Indices 1 2 3 4 5 6 
#
# 1 0.017706 -0.000776 -0.004663 0.000000 0.000000 0.000000
# 2 -0.000776 0.011428 -0.004090 0.000000 0.000000 0.000000
# 3 -0.004663 -0.004090 0.013200 0.000000 0.000000 0.000000
# 4 0.000000 0.000000 0.000000 0.031838 0.000000 0.000000
# 5 0.000000 0.000000 0.000000 0.000000 0.037678 0.000000
# 6 0.000000 0.000000 0.000000 0.000000 0.000000 0.086303
#
#
# Mechanical properties :
#
#
# Convention : Reuss Voigt Hill
#
# Bulk Modulus (GPa) = 42.96344 46.35880 44.66112
# Shear Modulus (GPa) = 22.22522 26.22845 24.22683
#
# Velocity S-wave (km/s) = 3.23145 3.51043 3.37382
# Velocity P-wave (km/s) = 5.84028 6.18158 6.01335
#
# Compressibility (1/GPa) = 0.02327560
#
# Stress axis : x y z
#
# Youngs Moduli (GPa) = 56.47919 87.50787 75.75495
#
# Poissons Ratio (x) = 0.06788 0.35326
# Poissons Ratio (y) = 0.04381 0.30984
# Poissons Ratio (z) = 0.26338 0.35791
#
# Static dielectric constant tensor:
#      x y z
#    x 3.849620 0.000000 0.000000 
#    y 0.000000 4.148850 0.000000 
#    z 0.000000 0.000000 4.033540 
# 
# 
# High freq. dielectric constant tensor:
#      x y z
#    x 1.818030 0.000000 0.000000 
#    y 0.000000 1.842410 0.000000 
#    z 0.000000 0.000000 1.849720 
# 
# From -- ./inp_files/6137.got.cif
#   From: 2010.03.12/outbox.cif.g09.slc.cpg/sg60_4_cif.got.tgz:6137.got - 2010.04.10 18:46:24.
