data_PCOD8248625
_publ_section_title
;
Structure prediction by ZEFSAII (Michael W. Deem and Ramdas Pophale) SiO2 
 PCOD8248625
Probable space group: P B C N
;
_chemical_formula_sum "Si O2"
_cell_formula_units_Z 40
_cell_length_a 16.780550
_cell_length_b 7.790948
_cell_length_c 13.769555
_cell_angle_alpha 90.000000
_cell_angle_beta 90.000000
_cell_angle_gamma 90.000000
_cell_volume 1800.181946
_symmetry_space_group_name_H-M "P B C N"
_symmetry_group_IT_number 60
_symmetry_cell_setting 'orthorhombic'
loop_
_space_group_symop_operation_xyz
x,y,z
1/2-x,1/2-y,1/2+z
1/2+x,1/2-y,-z
-x,y,1/2-z
-x,-y,-z
1/2+x,1/2+y,1/2-z
1/2-x,1/2+y,z
x,-y,1/2+z
loop_
_atom_site_type_symbol
_atom_site_label
_atom_site_fract_x
_atom_site_fract_y
_atom_site_fract_z
Si Si1 0.081250 0.471435 0.945475
Si Si2 0.414814 0.720912 0.298485
Si Si3 0.147665 0.119268 0.890270
Si Si4 0.757957 0.667101 0.791240
Si Si5 0.730348 0.090042 0.438528
O O1 0.087405 0.603949 0.858317
O O2 0.086105 0.274942 0.908585
O O3 0.151965 0.506371 0.019378
O O4 0.000000 0.500000 0.000000
O O5 0.500000 0.696138 0.250000
O O6 0.400639 0.551664 0.363372
O O7 0.344746 0.744395 0.220424
O O8 0.205785 0.186395 0.805178
O O9 0.197600 0.073491 0.985886
O O10 0.762015 0.468126 0.822478
O O11 0.722204 0.713800 0.901409
#
# Coordination Sequence:
#
# PCOD8248625 Si02
#       5
#     8   8   8   8   8
#     4  12  27  47  71 108 151 187 242 308 366 431
#     4  12  27  46  70 106 149 189 241 304 369 432
#     4  12  26  49  75 107 144 193 250 298 356 454
#     4  12  23  44  76 105 141 189 244 297 360 435
#     4  12  23  44  77 105 141 192 243 296 363 434
#
# _framework density 22.219975999999999
#
# number of rings (size 3 to 8) (size 9 to 14) (size 15 to 20)
#    0.000    0.000    6.000    4.800    0.000    3.200 
#    0.000    0.000    0.000    0.000    0.000    0.000 
#    0.000    0.000    0.000    0.000    0.000    0.000 
#
# Total GULP energy -495594.395199 kJ/mol
# GULP energy per Si atom -12389.859880 kJ/mol
# Density = 2.216940 g / cm^3
# Si number density = 22.219976 Si / 1000 Ang^3
#
#
#
# Elastic Constant Matrix: (Units=GPa)
#
#
# Indices 1 2 3 4 5 6 
#
# 1 112.0459 76.2834 47.4665 0.0000 0.0000 0.0000
# 2 76.2834 119.0871 56.5828 0.0000 0.0000 0.0000
# 3 47.4665 56.5828 117.3202 0.0000 0.0000 0.0000
# 4 0.0000 0.0000 0.0000 7.7916 0.0000 0.0000
# 5 0.0000 0.0000 0.0000 0.0000 37.9609 0.0000
# 6 0.0000 0.0000 0.0000 0.0000 0.0000 31.5542
#
#
#
# Elastic Compliance Matrix: (Units=1/GPa)
#
#
# Indices 1 2 3 4 5 6 
#
# 1 0.016184 -0.009413 -0.002008 0.000000 0.000000 0.000000
# 2 -0.009413 0.016368 -0.004086 0.000000 0.000000 0.000000
# 3 -0.002008 -0.004086 0.011307 0.000000 0.000000 0.000000
# 4 0.000000 0.000000 0.000000 0.128343 0.000000 0.000000
# 5 0.000000 0.000000 0.000000 0.000000 0.026343 0.000000
# 6 0.000000 0.000000 0.000000 0.000000 0.000000 0.031692
#
#
# Mechanical properties :
#
#
# Convention : Reuss Voigt Hill
#
# Bulk Modulus (GPa) = 77.85025 78.79096 78.32061
# Shear Modulus (GPa) = 18.83010 26.66936 22.74973
#
# Velocity S-wave (km/s) = 2.91424 3.46821 3.20322
# Velocity P-wave (km/s) = 6.81439 7.18154 7.00037
#
# Compressibility (1/GPa) = 0.01284517
#
# Stress axis : x y z
#
# Youngs Moduli (GPa) = 61.78886 61.09405 88.44255
#
# Poissons Ratio (x) = 0.57507 0.17761
# Poissons Ratio (y) = 0.58161 0.36137
# Poissons Ratio (z) = 0.12408 0.24963
#
# Static dielectric constant tensor:
#      x y z
#    x 4.172660 0.000000 0.000000 
#    y 0.000000 4.560680 0.000000 
#    z 0.000000 0.000000 4.099900 
# 
# 
# High freq. dielectric constant tensor:
#      x y z
#    x 1.858320 0.000000 0.000000 
#    y 0.000000 1.919920 0.000000 
#    z 0.000000 0.000000 1.894490 
# 
# From -- ./inp_files/12298.got.cif
#   From: 2010.03.12/outbox.cif.g09.slc.cpg/sg60_7_cif.got.tgz:12298.got - 2010.04.10 18:46:24.
