data_PCOD8248567
_publ_section_title
;
Structure prediction by ZEFSAII (Michael W. Deem and Ramdas Pophale) SiO2 
 PCOD8248567
Probable space group: P B C N
;
_chemical_formula_sum "Si O2"
_cell_formula_units_Z 48
_cell_length_a 9.527816
_cell_length_b 8.346359
_cell_length_c 26.456360
_cell_angle_alpha 90.000000
_cell_angle_beta 90.000000
_cell_angle_gamma 90.000000
_cell_volume 2103.877815
_symmetry_space_group_name_H-M "P B C N"
_symmetry_group_IT_number 60
_symmetry_cell_setting 'orthorhombic'
loop_
_space_group_symop_operation_xyz
x,y,z
1/2-x,1/2-y,1/2+z
1/2+x,1/2-y,-z
-x,y,1/2-z
-x,-y,-z
1/2+x,1/2+y,1/2-z
1/2-x,1/2+y,z
x,-y,1/2+z
loop_
_atom_site_type_symbol
_atom_site_label
_atom_site_fract_x
_atom_site_fract_y
_atom_site_fract_z
Si Si1 0.401913 0.608190 0.796507
Si Si2 0.691241 0.731346 0.933602
Si Si3 0.907255 0.486235 0.703068
Si Si4 0.314727 0.212491 0.950809
Si Si5 0.451510 0.047612 0.600538
Si Si6 0.437469 0.538053 0.907677
O O1 0.500000 0.554650 0.750000
O O2 0.245899 0.551697 0.784958
O O3 0.405516 0.797182 0.804847
O O4 0.457191 0.522595 0.847421
O O5 0.618258 0.874118 0.903116
O O6 0.835045 0.686179 0.905619
O O7 0.587023 0.578542 0.933124
O O8 0.724738 0.782224 0.990571
O O9 0.000000 0.539273 0.750000
O O10 0.973117 0.571134 0.654110
O O11 0.381219 0.375596 0.931162
O O12 0.428298 0.070509 0.942224
O O13 0.173030 0.179759 0.919668
#
# Coordination Sequence:
#
# PCOD8248567 Si02
#       6
#     8   8   8   8   8   8
#     4  11  25  48  71 103 135 179 230 283 349 414
#     4  12  25  43  68 101 143 187 233 283 340 416
#     4  11  26  46  72 103 134 176 227 287 350 413
#     4  12  24  43  70 101 141 187 233 284 345 410
#     4  12  25  45  66 103 140 184 236 290 349 411
#     4  12  23  43  69 100 138 180 231 284 344 408
#
# _framework density 22.815011999999999
#
# number of rings (size 3 to 8) (size 9 to 14) (size 15 to 20)
#    0.000    0.333    3.333    6.000    2.333    0.667 
#    0.000    0.000    0.000    0.000    0.000    0.000 
#    0.000    0.000    0.000    0.000    0.000    0.000 
#
# Total GULP energy -595601.267868 kJ/mol
# GULP energy per Si atom -12408.359747 kJ/mol
# Density = 2.276308 g / cm^3
# Si number density = 22.815012 Si / 1000 Ang^3
#
#
#
# Elastic Constant Matrix: (Units=GPa)
#
#
# Indices 1 2 3 4 5 6 
#
# 1 132.9797 9.9971 69.6452 0.0000 0.0000 0.0000
# 2 9.9971 47.1246 27.0313 0.0000 0.0000 0.0000
# 3 69.6452 27.0313 134.3618 0.0000 0.0000 0.0000
# 4 0.0000 0.0000 0.0000 28.4835 0.0000 0.0000
# 5 0.0000 0.0000 0.0000 0.0000 49.6223 0.0000
# 6 0.0000 0.0000 0.0000 0.0000 0.0000 39.1646
#
#
#
# Elastic Compliance Matrix: (Units=1/GPa)
#
#
# Indices 1 2 3 4 5 6 
#
# 1 0.010363 0.000998 -0.005573 0.000000 0.000000 0.000000
# 2 0.000998 0.024085 -0.005363 0.000000 0.000000 0.000000
# 3 -0.005573 -0.005363 0.011410 0.000000 0.000000 0.000000
# 4 0.000000 0.000000 0.000000 0.035108 0.000000 0.000000
# 5 0.000000 0.000000 0.000000 0.000000 0.020152 0.000000
# 6 0.000000 0.000000 0.000000 0.000000 0.000000 0.025533
#
#
# Mechanical properties :
#
#
# Convention : Reuss Voigt Hill
#
# Bulk Modulus (GPa) = 38.48592 58.64592 48.56592
# Shear Modulus (GPa) = 32.21909 37.30692 34.76301
#
# Velocity S-wave (km/s) = 3.76199 4.04814 3.90768
# Velocity P-wave (km/s) = 5.98125 6.90005 6.45701
#
# Compressibility (1/GPa) = 0.02598353
#
# Stress axis : x y z
#
# Youngs Moduli (GPa) = 96.49317 41.51998 87.64261
#
# Poissons Ratio (x) = -0.04144 0.48839
# Poissons Ratio (y) = -0.09630 0.47000
# Poissons Ratio (z) = 0.53771 0.22266
#
# Static dielectric constant tensor:
#      x y z
#    x 4.438820 0.000000 0.000000 
#    y 0.000000 4.102690 0.000000 
#    z 0.000000 0.000000 4.156980 
# 
# 
# High freq. dielectric constant tensor:
#      x y z
#    x 1.919720 0.000000 0.000000 
#    y 0.000000 1.905380 0.000000 
#    z 0.000000 0.000000 1.902880 
# 
# From -- ./inp_files/25946.got.cif
#   From: 2010.03.12/outbox.cif.g09.slc.cpg/sg60_13_cif.got.tgz:25946.got - 2010.04.10 18:46:24.
