data_PCOD8248587
_publ_section_title
;
Structure prediction by ZEFSAII (Michael W. Deem and Ramdas Pophale) SiO2 
 PCOD8248587
Probable space group: P B C N
;
_chemical_formula_sum "Si O2"
_cell_formula_units_Z 32
_cell_length_a 14.988493
_cell_length_b 7.498257
_cell_length_c 11.551543
_cell_angle_alpha 90.000000
_cell_angle_beta 90.000000
_cell_angle_gamma 90.000000
_cell_volume 1298.249877
_symmetry_space_group_name_H-M "P B C N"
_symmetry_group_IT_number 60
_symmetry_cell_setting 'orthorhombic'
loop_
_space_group_symop_operation_xyz
x,y,z
1/2-x,1/2-y,1/2+z
1/2+x,1/2-y,-z
-x,y,1/2-z
-x,-y,-z
1/2+x,1/2+y,1/2-z
1/2-x,1/2+y,z
x,-y,1/2+z
loop_
_atom_site_type_symbol
_atom_site_label
_atom_site_fract_x
_atom_site_fract_y
_atom_site_fract_z
Si Si1 0.036783 0.316817 0.133897
Si Si2 0.594672 0.199539 0.276566
Si Si3 0.166886 0.844918 0.447967
Si Si4 0.139102 0.765008 0.982551
O O1 0.082469 0.496598 0.180591
O O2 0.000000 0.214727 0.250000
O O3 0.112546 0.212864 0.062697
O O4 0.949168 0.348694 0.052519
O O5 0.500000 0.289347 0.250000
O O6 0.651647 0.211599 0.159349
O O7 0.638372 0.310631 0.380511
O O8 0.272954 0.852289 0.465009
O O9 0.138926 0.046580 0.415498
#
# Coordination Sequence:
#
# PCOD8248587 Si02
#       4
#     8   8   8   8
#     4  11  27  48  78 108 153 197 251 314 380 443
#     4  11  26  48  79 103 153 197 252 311 379 445
#     4  12  29  47  76 116 153 201 260 309 382 453
#     4  12  28  47  77 111 157 199 256 313 378 450
#
# _framework density 24.648568000000001
#
# number of rings (size 3 to 8) (size 9 to 14) (size 15 to 20)
#    0.000    0.500    2.500    3.000   17.500    0.000 
#    0.000    0.000    0.000    0.000    0.000    0.000 
#    0.000    0.000    0.000    0.000    0.000    0.000 
#
# Total GULP energy -396655.225679 kJ/mol
# GULP energy per Si atom -12395.475802 kJ/mol
# Density = 2.459247 g / cm^3
# Si number density = 24.648568 Si / 1000 Ang^3
#
#
#
# Elastic Constant Matrix: (Units=GPa)
#
#
# Indices 1 2 3 4 5 6 
#
# 1 132.7976 24.2749 21.7492 0.0000 0.0000 0.0000
# 2 24.2749 98.6697 20.6207 0.0000 0.0000 0.0000
# 3 21.7492 20.6207 136.1278 0.0000 0.0000 0.0000
# 4 0.0000 0.0000 0.0000 37.5336 0.0000 0.0000
# 5 0.0000 0.0000 0.0000 0.0000 37.7580 0.0000
# 6 0.0000 0.0000 0.0000 0.0000 0.0000 21.6137
#
#
#
# Elastic Compliance Matrix: (Units=1/GPa)
#
#
# Indices 1 2 3 4 5 6 
#
# 1 0.008018 -0.001761 -0.001014 0.000000 0.000000 0.000000
# 2 -0.001761 0.010853 -0.001363 0.000000 0.000000 0.000000
# 3 -0.001014 -0.001363 0.007715 0.000000 0.000000 0.000000
# 4 0.000000 0.000000 0.000000 0.026643 0.000000 0.000000
# 5 0.000000 0.000000 0.000000 0.000000 0.026484 0.000000
# 6 0.000000 0.000000 0.000000 0.000000 0.000000 0.046267
#
#
# Mechanical properties :
#
#
# Convention : Reuss Voigt Hill
#
# Bulk Modulus (GPa) = 54.61470 55.65385 55.13427
# Shear Modulus (GPa) = 35.62305 39.44441 37.53373
#
# Velocity S-wave (km/s) = 3.80575 4.00468 3.90648
# Velocity P-wave (km/s) = 6.44338 6.63410 6.53943
#
# Compressibility (1/GPa) = 0.01831009
#
# Stress axis : x y z
#
# Youngs Moduli (GPa) = 124.71581 92.14241 129.62563
#
# Poissons Ratio (x) = 0.16223 0.13149
# Poissons Ratio (y) = 0.21958 0.17664
# Poissons Ratio (z) = 0.12651 0.12556
#
# Static dielectric constant tensor:
#      x y z
#    x 4.435720 0.000000 0.000000 
#    y 0.000000 4.003440 0.000000 
#    z 0.000000 0.000000 4.975000 
# 
# 
# High freq. dielectric constant tensor:
#      x y z
#    x 1.985470 0.000000 0.000000 
#    y 0.000000 1.964580 0.000000 
#    z 0.000000 0.000000 1.998670 
# 
# From -- ./inp_files/11573.got.cif
#   From: 2010.03.12/outbox.cif.g09.slc.cpg/sg60_6_cif.got.tgz:11573.got - 2010.04.10 18:46:24.
