data_PCOD8248464
_publ_section_title
;
Structure prediction by ZEFSAII (Michael W. Deem and Ramdas Pophale) SiO2 
 PCOD8248464
Probable space group: P B C N
;
_chemical_formula_sum "Si O2"
_cell_formula_units_Z 24
_cell_length_a 8.952381
_cell_length_b 15.590910
_cell_length_c 7.357096
_cell_angle_alpha 90.000000
_cell_angle_beta 90.000000
_cell_angle_gamma 90.000000
_cell_volume 1026.872313
_symmetry_space_group_name_H-M "P B C N"
_symmetry_group_IT_number 60
_symmetry_cell_setting 'orthorhombic'
loop_
_space_group_symop_operation_xyz
x,y,z
1/2-x,1/2-y,1/2+z
1/2+x,1/2-y,-z
-x,y,1/2-z
-x,-y,-z
1/2+x,1/2+y,1/2-z
1/2-x,1/2+y,z
x,-y,1/2+z
loop_
_atom_site_type_symbol
_atom_site_label
_atom_site_fract_x
_atom_site_fract_y
_atom_site_fract_z
Si Si1 0.321898 0.661494 0.871247
Si Si2 0.895502 0.917101 0.480559
Si Si3 0.328565 0.148679 0.234389
O O1 0.487218 0.662670 0.965134
O O2 0.306963 0.589185 0.711884
O O3 0.290343 0.755134 0.793471
O O4 0.203003 0.634934 0.022280
O O5 0.780825 0.911861 0.647206
O O6 0.000000 0.000000 0.500000
O O7 0.500000 0.121477 0.250000
#
# Coordination Sequence:
#
# PCOD8248464 Si02
#       3
#     8   8   8
#     4  11  23  43  72 104 144 198 249 305 382 459
#     4  11  26  45  72 105 151 202 246 302 394 467
#     4  12  23  43  71 111 146 189 259 318 368 450
#
# _framework density 23.371939999999999
#
# number of rings (size 3 to 8) (size 9 to 14) (size 15 to 20)
#    0.000    0.667    6.667    1.000    9.333    1.333 
#    0.000    1.667    0.000    0.000    0.000    0.000 
#    0.000    0.000    0.000    0.000    0.000    0.000 
#
# Total GULP energy -297470.043458 kJ/mol
# GULP energy per Si atom -12394.585144 kJ/mol
# Density = 2.331874 g / cm^3
# Si number density = 23.371940 Si / 1000 Ang^3
#
#
#
# Elastic Constant Matrix: (Units=GPa)
#
#
# Indices 1 2 3 4 5 6 
#
# 1 106.5017 53.8847 84.3590 0.0000 0.0000 0.0000
# 2 53.8847 101.7372 67.3579 0.0000 0.0000 0.0000
# 3 84.3590 67.3579 176.9412 0.0000 0.0000 0.0000
# 4 0.0000 0.0000 0.0000 28.4894 0.0000 0.0000
# 5 0.0000 0.0000 0.0000 0.0000 54.9247 0.0000
# 6 0.0000 0.0000 0.0000 0.0000 0.0000 43.9270
#
#
#
# Elastic Compliance Matrix: (Units=1/GPa)
#
#
# Indices 1 2 3 4 5 6 
#
# 1 0.016652 -0.004764 -0.006125 0.000000 0.000000 0.000000
# 2 -0.004764 0.014504 -0.003250 0.000000 0.000000 0.000000
# 3 -0.006125 -0.003250 0.009809 0.000000 0.000000 0.000000
# 4 0.000000 0.000000 0.000000 0.035101 0.000000 0.000000
# 5 0.000000 0.000000 0.000000 0.000000 0.018207 0.000000
# 6 0.000000 0.000000 0.000000 0.000000 0.000000 0.022765
#
#
# Mechanical properties :
#
#
# Convention : Reuss Voigt Hill
#
# Bulk Modulus (GPa) = 78.82628 88.48704 83.65666
# Shear Modulus (GPa) = 33.43455 37.44012 35.43734
#
# Velocity S-wave (km/s) = 3.78635 4.00675 3.89811
# Velocity P-wave (km/s) = 7.27430 7.70376 7.49211
#
# Compressibility (1/GPa) = 0.01268612
#
# Stress axis : x y z
#
# Youngs Moduli (GPa) = 60.05368 68.94455 101.94494
#
# Poissons Ratio (x) = 0.32846 0.62445
# Poissons Ratio (y) = 0.28610 0.33134
# Poissons Ratio (z) = 0.36785 0.22408
#
# Static dielectric constant tensor:
#      x y z
#    x 4.258710 0.000000 0.000000 
#    y 0.000000 4.145050 0.000000 
#    z 0.000000 0.000000 4.838030 
# 
# 
# High freq. dielectric constant tensor:
#      x y z
#    x 1.913510 0.000000 0.000000 
#    y 0.000000 1.910950 0.000000 
#    z 0.000000 0.000000 1.945280 
# 
# From -- ./inp_files/3373.got.cif
#   From: 2010.03.12/outbox.cif.g09.slc.cpg/sg60_2_cif.got.tgz:3373.got - 2010.04.10 18:46:24.
