data_PCOD8248859
_publ_section_title
;
Structure prediction by ZEFSAII (Michael W. Deem and Ramdas Pophale) SiO2 
 PCOD8248859
Probable space group: P B C A
;
_chemical_formula_sum "Si O2"
_cell_formula_units_Z 48
_cell_length_a 5.293013
_cell_length_b 15.986339
_cell_length_c 23.563742
_cell_angle_alpha 90.000000
_cell_angle_beta 90.000000
_cell_angle_gamma 90.000000
_cell_volume 1993.867240
_symmetry_space_group_name_H-M "P B C A"
_symmetry_group_IT_number 61
_symmetry_cell_setting 'orthorhombic'
loop_
_space_group_symop_operation_xyz
x,y,z
1/2-x,-y,1/2+z
1/2+x,1/2-y,-z
-x,1/2+y,1/2-z
-x,-y,-z
1/2+x,y,1/2-z
1/2-x,1/2+y,z
x,1/2-y,1/2+z
loop_
_atom_site_type_symbol
_atom_site_label
_atom_site_fract_x
_atom_site_fract_y
_atom_site_fract_z
Si Si1 0.252342 0.272930 0.302045
Si Si2 0.733636 0.304565 0.503321
Si Si3 0.251284 0.953432 0.083456
Si Si4 0.249584 0.417376 0.780016
Si Si5 0.249061 0.552508 0.411730
Si Si6 0.252378 0.339301 0.181243
O O1 0.249574 0.182611 0.273543
O O2 0.253712 0.341228 0.250100
O O3 0.003895 0.289549 0.339977
O O4 0.502464 0.288327 0.339660
O O5 0.465152 0.259204 0.499341
O O6 0.757073 0.368024 0.451185
O O7 0.746005 0.354467 0.562893
O O8 0.250212 0.929809 0.150810
O O9 0.503263 0.003647 0.066734
O O10 0.005696 0.007354 0.067370
O O11 0.500172 0.454179 0.750253
O O12 0.247718 0.444128 0.844531
#
# Coordination Sequence:
#
# PCOD8248859 Si02
#       6
#     8   8   8   8   8   8
#     4  10  19  37  61  97 132 177 232 306 323 398
#     4  12  28  48  82 114 136 186 258 306 358 445
#     4  12  26  49  72 106 151 196 229 302 383 443
#     4  12  23  43  69  99 145 195 243 290 363 418
#     4  12  28  49  72 106 157 194 232 305 379 443
#     4  10  20  36  64  92 131 182 232 273 360 397
#
# _framework density 24.073820999999999
#
# number of rings (size 3 to 8) (size 9 to 14) (size 15 to 20)
#    0.000    0.667    3.333    5.000    4.667    0.000 
#   18.000    0.000    0.000    0.000    0.000    0.000 
#    0.000    0.000    0.000    0.000    0.000    0.000 
#
# Total GULP energy -595112.361875 kJ/mol
# GULP energy per Si atom -12398.174206 kJ/mol
# Density = 2.401903 g / cm^3
# Si number density = 24.073821 Si / 1000 Ang^3
#
#
#
# Elastic Constant Matrix: (Units=GPa)
#
#
# Indices 1 2 3 4 5 6 
#
# 1 235.5666 32.1002 19.6447 0.0000 0.0000 0.0000
# 2 32.1002 66.8520 23.8154 0.0000 0.0000 0.0000
# 3 19.6447 23.8154 90.1144 0.0000 0.0000 0.0000
# 4 0.0000 0.0000 0.0000 41.3474 0.0000 0.0000
# 5 0.0000 0.0000 0.0000 0.0000 12.7030 0.0000
# 6 0.0000 0.0000 0.0000 0.0000 0.0000 47.4018
#
#
#
# Elastic Compliance Matrix: (Units=1/GPa)
#
#
# Indices 1 2 3 4 5 6 
#
# 1 0.004559 -0.002026 -0.000459 0.000000 0.000000 0.000000
# 2 -0.002026 0.017413 -0.004160 0.000000 0.000000 0.000000
# 3 -0.000459 -0.004160 0.012296 0.000000 0.000000 0.000000
# 4 0.000000 0.000000 0.000000 0.024185 0.000000 0.000000
# 5 0.000000 0.000000 0.000000 0.000000 0.078721 0.000000
# 6 0.000000 0.000000 0.000000 0.000000 0.000000 0.021096
#
#
# Mechanical properties :
#
#
# Convention : Reuss Voigt Hill
#
# Bulk Modulus (GPa) = 47.66543 60.40595 54.03569
# Shear Modulus (GPa) = 28.00259 41.42195 34.71227
#
# Velocity S-wave (km/s) = 3.41427 4.15254 3.80137
# Velocity P-wave (km/s) = 5.94858 6.93815 6.46233
#
# Compressibility (1/GPa) = 0.02097956
#
# Stress axis : x y z
#
# Youngs Moduli (GPa) = 219.32757 57.42741 81.32421
#
# Poissons Ratio (x) = 0.11634 0.03729
# Poissons Ratio (y) = 0.44434 0.33834
# Poissons Ratio (z) = 0.10057 0.23892
#
# Static dielectric constant tensor:
#      x y z
#    x 5.265800 0.000000 0.000000 
#    y 0.000000 4.159310 0.000000 
#    z 0.000000 0.000000 4.116400 
# 
# 
# High freq. dielectric constant tensor:
#      x y z
#    x 1.992450 0.000000 0.000000 
#    y 0.000000 1.940070 0.000000 
#    z 0.000000 0.000000 1.943730 
# 
# From -- ./inp_files/10735.got.cif
#   From: 2010.03.12/outbox.cif.g09.slc.cpg/sg61_6_cif.got.tgz:10735.got - 2010.04.10 19:05:03.
