data_PCOD8248978
_publ_section_title
;
Structure prediction by ZEFSAII (Michael W. Deem and Ramdas Pophale) SiO2 
 PCOD8248978
Probable space group: P B C A
;
_chemical_formula_sum "Si O2"
_cell_formula_units_Z 40
_cell_length_a 18.332735
_cell_length_b 19.571423
_cell_length_c 4.948910
_cell_angle_alpha 90.000000
_cell_angle_beta 90.000000
_cell_angle_gamma 90.000000
_cell_volume 1775.657582
_symmetry_space_group_name_H-M "P B C A"
_symmetry_group_IT_number 61
_symmetry_cell_setting 'orthorhombic'
loop_
_space_group_symop_operation_xyz
x,y,z
1/2-x,-y,1/2+z
1/2+x,1/2-y,-z
-x,1/2+y,1/2-z
-x,-y,-z
1/2+x,y,1/2-z
1/2-x,1/2+y,z
x,1/2-y,1/2+z
loop_
_atom_site_type_symbol
_atom_site_label
_atom_site_fract_x
_atom_site_fract_y
_atom_site_fract_z
Si Si1 0.768865 0.706091 0.186093
Si Si2 0.582260 0.133981 0.156602
Si Si3 0.509084 0.880205 0.317760
Si Si4 0.151993 0.903281 0.953110
Si Si5 0.607629 0.518136 0.580539
O O1 0.749603 0.732318 0.483799
O O2 0.854038 0.689116 0.165624
O O3 0.723000 0.638786 0.122562
O O4 0.552339 0.119951 0.454270
O O5 0.612666 0.062633 0.038440
O O6 0.521743 0.162246 0.941382
O O7 0.586066 0.852323 0.440671
O O8 0.528073 0.957030 0.200990
O O9 0.122320 0.945268 0.700800
O O10 0.168747 0.956622 0.198333
#
# Coordination Sequence:
#
# PCOD8248978 Si02
#       5
#     8   8   8   8   8
#     4  12  28  48  61  83 128 177 217 259 306 356
#     4  12  22  38  68  97 132 157 200 262 323 375
#     4  10  20  38  65 101 123 161 192 252 325 380
#     4  10  22  40  65  91 126 163 209 248 308 383
#     4  10  20  36  69 100 127 153 198 259 325 380
#
# _framework density 22.526866999999999
#
# number of rings (size 3 to 8) (size 9 to 14) (size 15 to 20)
#    1.200    0.000    2.000    4.800    0.000    1.600 
#    0.000    6.000    0.000    0.000    0.000    0.000 
#    0.000    0.000    0.000    0.000    0.000    0.000 
#
# Total GULP energy -495630.821598 kJ/mol
# GULP energy per Si atom -12390.770540 kJ/mol
# Density = 2.247559 g / cm^3
# Si number density = 22.526867 Si / 1000 Ang^3
#
#
#
# Elastic Constant Matrix: (Units=GPa)
#
#
# Indices 1 2 3 4 5 6 
#
# 1 51.2351 5.0819 18.2668 0.0000 0.0000 0.0000
# 2 5.0819 20.6020 9.1806 0.0000 0.0000 0.0000
# 3 18.2668 9.1806 132.6133 0.0000 0.0000 0.0000
# 4 0.0000 0.0000 0.0000 24.3643 0.0000 0.0000
# 5 0.0000 0.0000 0.0000 0.0000 28.4633 0.0000
# 6 0.0000 0.0000 0.0000 0.0000 0.0000 20.6641
#
#
#
# Elastic Compliance Matrix: (Units=1/GPa)
#
#
# Indices 1 2 3 4 5 6 
#
# 1 0.020838 -0.003984 -0.002595 0.000000 0.000000 0.000000
# 2 -0.003984 0.050846 -0.002971 0.000000 0.000000 0.000000
# 3 -0.002595 -0.002971 0.008104 0.000000 0.000000 0.000000
# 4 0.000000 0.000000 0.000000 0.041044 0.000000 0.000000
# 5 0.000000 0.000000 0.000000 0.000000 0.035133 0.000000
# 6 0.000000 0.000000 0.000000 0.000000 0.000000 0.048393
#
#
# Mechanical properties :
#
#
# Convention : Reuss Voigt Hill
#
# Bulk Modulus (GPa) = 16.47768 29.94544 23.21156
# Shear Modulus (GPa) = 20.51821 26.15976 23.33898
#
# Velocity S-wave (km/s) = 3.02127 3.41144 3.22227
# Velocity P-wave (km/s) = 4.41603 5.37022 4.91633
#
# Compressibility (1/GPa) = 0.06068817
#
# Stress axis : x y z
#
# Youngs Moduli (GPa) = 47.98909 19.66735 123.39895
#
# Poissons Ratio (x) = 0.07835 0.32016
# Poissons Ratio (y) = 0.19119 0.36664
# Poissons Ratio (z) = 0.12451 0.05844
#
# Static dielectric constant tensor:
#      x y z
#    x 3.947100 0.000000 0.000000 
#    y 0.000000 3.577880 0.000000 
#    z 0.000000 0.000000 4.353420 
# 
# 
# High freq. dielectric constant tensor:
#      x y z
#    x 1.875420 0.000000 0.000000 
#    y 0.000000 1.842890 0.000000 
#    z 0.000000 0.000000 1.919280 
# 
# From -- ./inp_files/699.got.cif
#   From: 2010.03.12/outbox.cif.g09.slc.cpg/sg61_1_cif.got.tgz:699.got - 2010.04.10 19:05:03.
