data_PCOD8248607
_publ_section_title
;
Structure prediction by ZEFSAII (Michael W. Deem and Ramdas Pophale) SiO2 
 PCOD8248607
Probable space group: P B C N
;
_chemical_formula_sum "Si O2"
_cell_formula_units_Z 56
_cell_length_a 14.976492
_cell_length_b 14.341066
_cell_length_c 11.561852
_cell_angle_alpha 90.000000
_cell_angle_beta 90.000000
_cell_angle_gamma 90.000000
_cell_volume 2483.241395
_symmetry_space_group_name_H-M "P B C N"
_symmetry_group_IT_number 60
_symmetry_cell_setting 'orthorhombic'
loop_
_space_group_symop_operation_xyz
x,y,z
1/2-x,1/2-y,1/2+z
1/2+x,1/2-y,-z
-x,y,1/2-z
-x,-y,-z
1/2+x,1/2+y,1/2-z
1/2-x,1/2+y,z
x,-y,1/2+z
loop_
_atom_site_type_symbol
_atom_site_label
_atom_site_fract_x
_atom_site_fract_y
_atom_site_fract_z
Si Si1 0.916513 0.119501 0.818811
Si Si2 0.414528 0.885825 0.320794
Si Si3 0.829417 0.177212 0.451426
Si Si4 0.532373 0.699059 0.055544
Si Si5 0.270869 0.856907 0.135365
Si Si6 0.765870 0.491493 0.057061
Si Si7 0.874434 0.924322 0.731277
O O1 0.816443 0.148308 0.780337
O O2 0.000000 0.166426 0.750000
O O3 0.922067 0.008103 0.802131
O O4 0.912677 0.153053 0.951162
O O5 0.500000 0.925274 0.250000
O O6 0.440577 0.804891 0.412600
O O7 0.352974 0.842982 0.221179
O O8 0.363981 0.969755 0.388457
O O9 0.773998 0.273390 0.457782
O O10 0.783597 0.106289 0.538470
O O11 0.824776 0.142407 0.320185
O O12 0.931088 0.194936 0.488663
O O13 0.547500 0.631762 0.164841
O O14 0.275885 0.954036 0.064316
O O15 0.704542 0.547006 0.145473
#
# Coordination Sequence:
#
# PCOD8248607 Si02
#       7
#     8   8   8   8   8   8   8
#     4  12  25  43  69 112 148 180 244 301 372 443
#     4  12  25  50  75  98 144 200 250 300 358 443
#     4  12  24  43  72 103 146 190 240 310 370 437
#     4  12  24  44  73 106 143 197 244 303 379 444
#     4  12  25  47  71 106 142 193 246 297 370 445
#     4  12  26  44  74 107 144 194 244 309 371 435
#     4  12  22  42  70 107 147 185 238 304 377 443
#
# _framework density 22.551169999999999
#
# number of rings (size 3 to 8) (size 9 to 14) (size 15 to 20)
#    0.000    0.000    7.143    3.000    0.000    2.286 
#    0.000    0.000    0.000    0.000    0.000    0.000 
#    0.000    0.000    0.000    0.000    0.000    0.000 
#
# Total GULP energy -694244.176728 kJ/mol
# GULP energy per Si atom -12397.217442 kJ/mol
# Density = 2.249984 g / cm^3
# Si number density = 22.551170 Si / 1000 Ang^3
#
#
#
# Elastic Constant Matrix: (Units=GPa)
#
#
# Indices 1 2 3 4 5 6 
#
# 1 139.6232 32.9107 23.9706 0.0000 0.0000 0.0000
# 2 32.9107 72.7124 8.9642 0.0000 0.0000 0.0000
# 3 23.9706 8.9642 77.2432 0.0000 0.0000 0.0000
# 4 0.0000 0.0000 0.0000 22.3142 0.0000 0.0000
# 5 0.0000 0.0000 0.0000 0.0000 41.5159 0.0000
# 6 0.0000 0.0000 0.0000 0.0000 0.0000 27.2608
#
#
#
# Elastic Compliance Matrix: (Units=1/GPa)
#
#
# Indices 1 2 3 4 5 6 
#
# 1 0.008367 -0.003517 -0.002188 0.000000 0.000000 0.000000
# 2 -0.003517 0.015431 -0.000699 0.000000 0.000000 0.000000
# 3 -0.002188 -0.000699 0.013706 0.000000 0.000000 0.000000
# 4 0.000000 0.000000 0.000000 0.044814 0.000000 0.000000
# 5 0.000000 0.000000 0.000000 0.000000 0.024087 0.000000
# 6 0.000000 0.000000 0.000000 0.000000 0.000000 0.036683
#
#
# Mechanical properties :
#
#
# Convention : Reuss Voigt Hill
#
# Bulk Modulus (GPa) = 40.49465 46.80776 43.65120
# Shear Modulus (GPa) = 30.46372 33.13372 31.79872
#
# Velocity S-wave (km/s) = 3.67941 3.83726 3.75916
# Velocity P-wave (km/s) = 6.00387 6.35878 6.18387
#
# Compressibility (1/GPa) = 0.02469462
#
# Stress axis : x y z
#
# Youngs Moduli (GPa) = 119.51915 64.80475 72.95878
#
# Poissons Ratio (x) = 0.22793 0.15965
# Poissons Ratio (y) = 0.42037 0.05102
# Poissons Ratio (z) = 0.26154 0.04532
#
# Static dielectric constant tensor:
#      x y z
#    x 4.220770 0.000000 0.000000 
#    y 0.000000 3.944580 0.000000 
#    z 0.000000 0.000000 3.977480 
# 
# 
# High freq. dielectric constant tensor:
#      x y z
#    x 1.905670 0.000000 0.000000 
#    y 0.000000 1.872800 0.000000 
#    z 0.000000 0.000000 1.891740 
# 
# From -- ./inp_files/11948.got.cif
#   From: 2010.03.12/outbox.cif.g09.slc.cpg/sg60_6_cif.got.tgz:11948.got - 2010.04.10 18:46:24.
