data_PCOD8248332
_publ_section_title
;
Structure prediction by ZEFSAII (Michael W. Deem and Ramdas Pophale) SiO2 
 PCOD8248332
Probable space group: P B C N
;
_chemical_formula_sum "Si O2"
_cell_formula_units_Z 40
_cell_length_a 7.955605
_cell_length_b 22.334202
_cell_length_c 9.935017
_cell_angle_alpha 90.000000
_cell_angle_beta 90.000000
_cell_angle_gamma 90.000000
_cell_volume 1765.274576
_symmetry_space_group_name_H-M "P B C N"
_symmetry_group_IT_number 60
_symmetry_cell_setting 'orthorhombic'
loop_
_space_group_symop_operation_xyz
x,y,z
1/2-x,1/2-y,1/2+z
1/2+x,1/2-y,-z
-x,y,1/2-z
-x,-y,-z
1/2+x,1/2+y,1/2-z
1/2-x,1/2+y,z
x,-y,1/2+z
loop_
_atom_site_type_symbol
_atom_site_label
_atom_site_fract_x
_atom_site_fract_y
_atom_site_fract_z
Si Si1 0.617029 0.008914 0.870219
Si Si2 0.342100 0.181441 0.951163
Si Si3 0.192521 0.619245 0.213265
Si Si4 0.818186 0.118326 0.796472
Si Si5 0.769412 0.312442 0.532184
O O1 0.500000 0.028481 0.750000
O O2 0.743396 0.064182 0.887046
O O3 0.722386 0.949792 0.828125
O O4 0.500000 0.000000 0.000000
O O5 0.299996 0.136764 0.828622
O O6 0.540346 0.180737 0.978643
O O7 0.249674 0.159167 0.086748
O O8 0.270110 0.246386 0.914350
O O9 0.286158 0.641666 0.348212
O O10 0.000000 0.630376 0.250000
O O11 0.843412 0.173280 0.900934
O O12 0.000000 0.097179 0.750000
#
# Coordination Sequence:
#
# PCOD8248332 Si02
#       5
#     8   8   8   8   8
#     4  11  21  41  68  91 119 165 216 265 324 385
#     4  11  22  40  65  92 125 166 210 260 320 383
#     4   9  20  38  62  89 118 155 206 261 318 380
#     4  12  25  41  61  93 132 171 214 262 318 387
#     4  11  22  40  64  93 126 165 210 264 322 385
#
# _framework density 22.659365000000001
#
# number of rings (size 3 to 8) (size 9 to 14) (size 15 to 20)
#    0.000    1.200    0.000    9.000    0.000    1.600 
#    0.000   14.000    0.000    0.000    0.000    0.000 
#    0.000    0.000    0.000    0.000    0.000    0.000 
#
# Total GULP energy -495873.439418 kJ/mol
# GULP energy per Si atom -12396.835985 kJ/mol
# Density = 2.260779 g / cm^3
# Si number density = 22.659365 Si / 1000 Ang^3
#
#
#
# Elastic Constant Matrix: (Units=GPa)
#
#
# Indices 1 2 3 4 5 6 
#
# 1 56.7183 40.0924 30.9189 0.0000 0.0000 0.0000
# 2 40.0924 141.3160 57.4199 0.0000 0.0000 0.0000
# 3 30.9189 57.4199 155.5987 0.0000 0.0000 0.0000
# 4 0.0000 0.0000 0.0000 42.3922 0.0000 0.0000
# 5 0.0000 0.0000 0.0000 0.0000 28.4538 0.0000
# 6 0.0000 0.0000 0.0000 0.0000 0.0000 32.5678
#
#
#
# Elastic Compliance Matrix: (Units=1/GPa)
#
#
# Indices 1 2 3 4 5 6 
#
# 1 0.022870 -0.005461 -0.002529 0.000000 0.000000 0.000000
# 2 -0.005461 0.009628 -0.002468 0.000000 0.000000 0.000000
# 3 -0.002529 -0.002468 0.007840 0.000000 0.000000 0.000000
# 4 0.000000 0.000000 0.000000 0.023589 0.000000 0.000000
# 5 0.000000 0.000000 0.000000 0.000000 0.035145 0.000000
# 6 0.000000 0.000000 0.000000 0.000000 0.000000 0.030705
#
#
# Mechanical properties :
#
#
# Convention : Reuss Voigt Hill
#
# Bulk Modulus (GPa) = 51.48713 67.83283 59.65998
# Shear Modulus (GPa) = 31.81321 35.69622 33.75472
#
# Velocity S-wave (km/s) = 3.75103 3.97336 3.86380
# Velocity P-wave (km/s) = 6.44452 7.14500 6.80378
#
# Compressibility (1/GPa) = 0.01942233
#
# Stress axis : x y z
#
# Youngs Moduli (GPa) = 43.72593 103.85966 127.54839
#
# Poissons Ratio (x) = 0.56714 0.32261
# Poissons Ratio (y) = 0.23877 0.31480
# Poissons Ratio (z) = 0.11060 0.25633
#
# Static dielectric constant tensor:
#      x y z
#    x 3.614540 0.000000 0.000000 
#    y 0.000000 4.145380 0.000000 
#    z 0.000000 0.000000 4.375140 
# 
# 
# High freq. dielectric constant tensor:
#      x y z
#    x 1.856260 0.000000 0.000000 
#    y 0.000000 1.903390 0.000000 
#    z 0.000000 0.000000 1.917070 
# 
# From -- ./inp_files/3813.got.cif
#   From: 2010.03.12/outbox.cif.g09.slc.cpg/sg60_2_cif.got.tgz:3813.got - 2010.04.10 18:46:24.
