data_PCOD8248131
_publ_section_title
;
Structure prediction by ZEFSAII (Michael W. Deem and Ramdas Pophale) SiO2 
 PCOD8248131
Probable space group: P B C N
;
_chemical_formula_sum "Si O2"
_cell_formula_units_Z 40
_cell_length_a 10.979956
_cell_length_b 18.308008
_cell_length_c 8.658300
_cell_angle_alpha 90.000000
_cell_angle_beta 90.000000
_cell_angle_gamma 90.000000
_cell_volume 1740.501183
_symmetry_space_group_name_H-M "P B C N"
_symmetry_group_IT_number 60
_symmetry_cell_setting 'orthorhombic'
loop_
_space_group_symop_operation_xyz
x,y,z
1/2-x,1/2-y,1/2+z
1/2+x,1/2-y,-z
-x,y,1/2-z
-x,-y,-z
1/2+x,1/2+y,1/2-z
1/2-x,1/2+y,z
x,-y,1/2+z
loop_
_atom_site_type_symbol
_atom_site_label
_atom_site_fract_x
_atom_site_fract_y
_atom_site_fract_z
Si Si1 0.385658 0.553193 0.008588
Si Si2 0.133127 0.815359 0.289594
Si Si3 0.335608 0.946681 0.986061
Si Si4 0.500000 0.029816 0.750000
Si Si5 0.000000 0.845414 0.750000
Si Si6 0.713769 0.696927 0.050493
O O1 0.375512 0.601765 0.852751
O O2 0.264257 0.506997 0.033669
O O3 0.500000 0.500000 0.000000
O O4 0.404866 0.605892 0.154243
O O5 0.201264 0.765901 0.415596
O O6 0.000000 0.784000 0.250000
O O7 0.207722 0.811222 0.132828
O O8 0.276718 0.878222 0.897823
O O9 0.428587 0.977765 0.864342
O O10 0.407236 0.922649 0.144170
O O11 0.081188 0.796165 0.867079
#
# Coordination Sequence:
#
# PCOD8248131 Si02
#       6
#     8   8   8   4   4   8
#     4  12  25  45  81 111 147 185 254 318 377 438
#     4  12  27  50  71 110 145 197 244 309 374 450
#     4  11  23  46  70 104 142 189 239 304 360 454
#     4  10  24  42  69 105 142 190 238 284 374 443
#     4  12  24  44  77 113 140 194 244 316 384 441
#     4  12  27  47  74 103 151 191 250 304 381 446
#
# _framework density 22.981885999999999
#
# number of rings (size 3 to 8) (size 9 to 14) (size 15 to 20)
#    0.000    0.400    4.000    3.600    5.600    0.000 
#    7.200    1.000    0.000    0.000    0.000    0.000 
#    0.000    0.000    0.000    0.000    0.000    0.000 
#
# Total GULP energy -496046.475851 kJ/mol
# GULP energy per Si atom -12401.161896 kJ/mol
# Density = 2.292958 g / cm^3
# Si number density = 22.981886 Si / 1000 Ang^3
#
#
#
# Elastic Constant Matrix: (Units=GPa)
#
#
# Indices 1 2 3 4 5 6 
#
# 1 139.9049 53.2038 45.8982 0.0000 0.0000 0.0000
# 2 53.2038 102.0047 29.6604 0.0000 0.0000 0.0000
# 3 45.8982 29.6604 113.0466 0.0000 0.0000 0.0000
# 4 0.0000 0.0000 0.0000 24.8124 0.0000 0.0000
# 5 0.0000 0.0000 0.0000 0.0000 51.4613 0.0000
# 6 0.0000 0.0000 0.0000 0.0000 0.0000 -20.2118
#
#
#
# Elastic Compliance Matrix: (Units=1/GPa)
#
#
# Indices 1 2 3 4 5 6 
#
# 1 0.009682 -0.004229 -0.002821 0.000000 0.000000 0.000000
# 2 -0.004229 0.012461 -0.001552 0.000000 0.000000 0.000000
# 3 -0.002821 -0.001552 0.010399 0.000000 0.000000 0.000000
# 4 0.000000 0.000000 0.000000 0.040302 0.000000 0.000000
# 5 0.000000 0.000000 0.000000 0.000000 0.019432 0.000000
# 6 0.000000 0.000000 0.000000 0.000000 0.000000 -0.049476
#
#
# Mechanical properties :
#
#
# Convention : Reuss Voigt Hill
#
# Bulk Modulus (GPa) = 65.20835 68.05344 66.63089
# Shear Modulus (GPa) = 76.78497 26.29196 51.53846
#
# Velocity S-wave (km/s) = 5.78650 3.38602 4.74071
# Velocity P-wave (km/s) = 8.54870 6.70544 7.68255
#
# Compressibility (1/GPa) = 0.01533546
#
# Stress axis : x y z
#
# Youngs Moduli (GPa) = 103.28826 80.25162 96.16693
#
# Poissons Ratio (x) = 0.33942 0.27130
# Poissons Ratio (y) = 0.43685 0.14927
# Poissons Ratio (z) = 0.29139 0.12456
#
# Static dielectric constant tensor:
#      x y z
#    x 2.839720 0.000000 0.000000 
#    y 0.000000 4.002800 0.000000 
#    z 0.000000 0.000000 4.329110 
# 
# 
# High freq. dielectric constant tensor:
#      x y z
#    x 1.926490 0.000000 0.000000 
#    y 0.000000 1.881700 0.000000 
#    z 0.000000 0.000000 1.928290 
# 
# From -- ./inp_files/4801.got.cif
#   From: 2010.03.12/outbox.cif.g09.slc.cpg/sg60_3_cif.got.tgz:4801.got - 2010.04.10 18:46:24.
