data_PCOD8248770
_publ_section_title
;
Structure prediction by ZEFSAII (Michael W. Deem and Ramdas Pophale) SiO2 
 PCOD8248770
Probable space group: P B C A
;
_chemical_formula_sum "Si O2"
_cell_formula_units_Z 64
_cell_length_a 12.956913
_cell_length_b 16.008160
_cell_length_c 14.959970
_cell_angle_alpha 90.000000
_cell_angle_beta 90.000000
_cell_angle_gamma 90.000000
_cell_volume 3102.942170
_symmetry_space_group_name_H-M "P B C A"
_symmetry_group_IT_number 61
_symmetry_cell_setting 'orthorhombic'
loop_
_space_group_symop_operation_xyz
x,y,z
1/2-x,-y,1/2+z
1/2+x,1/2-y,-z
-x,1/2+y,1/2-z
-x,-y,-z
1/2+x,y,1/2-z
1/2-x,1/2+y,z
x,1/2-y,1/2+z
loop_
_atom_site_type_symbol
_atom_site_label
_atom_site_fract_x
_atom_site_fract_y
_atom_site_fract_z
Si Si1 0.067171 0.484986 0.364346
Si Si2 0.566098 0.472582 0.703717
Si Si3 0.988335 0.191417 0.909400
Si Si4 0.934553 0.891465 0.376239
Si Si5 0.127770 0.163681 0.431945
Si Si6 0.752999 0.583217 0.742771
Si Si7 0.591682 0.722316 0.722114
Si Si8 0.867287 0.347332 0.573761
O O1 0.996564 0.408794 0.398338
O O2 0.173818 0.441624 0.338400
O O3 0.091087 0.557338 0.435863
O O4 0.016114 0.535872 0.282962
O O5 0.512917 0.530706 0.628967
O O6 0.591634 0.385039 0.657096
O O7 0.668255 0.510169 0.750886
O O8 0.097470 0.238994 0.919474
O O9 0.927322 0.234168 0.827566
O O10 0.922745 0.208508 0.998790
O O11 0.927755 0.871097 0.480058
O O12 0.820586 0.907712 0.333691
O O13 0.988122 0.818368 0.318640
O O14 0.247646 0.154266 0.447327
O O15 0.695608 0.667825 0.713337
O O16 0.611771 0.809639 0.672241
#
# Coordination Sequence:
#
# PCOD8248770 Si02
#       8
#     8   8   8   8   8   8   8   8
#     4  11  22  43  65  93 130 169 209 264 323 386
#     4  10  21  40  69  95 129 168 209 265 326 381
#     4  12  24  44  65  92 133 174 208 268 331 374
#     4  10  21  40  68  92 131 166 213 260 325 384
#     4  12  24  41  66 101 127 165 222 271 313 387
#     4  10  18  40  70  91 120 178 204 249 339 374
#     4  11  22  43  66  89 130 171 210 266 319 384
#     4  12  26  41  65  97 126 167 222 265 312 394
#
# _framework density 20.625585999999998
#
# number of rings (size 3 to 8) (size 9 to 14) (size 15 to 20)
#    0.000    1.000    6.250    3.000    0.000    0.000 
#    0.000    0.000    0.000    0.000    0.000    0.000 
#    0.000    0.000    0.000    0.000    0.000    0.000 
#
# Total GULP energy -793359.033854 kJ/mol
# GULP energy per Si atom -12396.234904 kJ/mol
# Density = 2.057864 g / cm^3
# Si number density = 20.625586 Si / 1000 Ang^3
#
#
#
# Elastic Constant Matrix: (Units=GPa)
#
#
# Indices 1 2 3 4 5 6 
#
# 1 100.9948 25.2872 28.2987 0.0000 0.0000 0.0000
# 2 25.2872 79.9113 20.7280 0.0000 0.0000 0.0000
# 3 28.2987 20.7280 73.5691 0.0000 0.0000 0.0000
# 4 0.0000 0.0000 0.0000 27.2032 0.0000 0.0000
# 5 0.0000 0.0000 0.0000 0.0000 24.9906 0.0000
# 6 0.0000 0.0000 0.0000 0.0000 0.0000 19.5669
#
#
#
# Elastic Compliance Matrix: (Units=1/GPa)
#
#
# Indices 1 2 3 4 5 6 
#
# 1 0.011619 -0.002716 -0.003704 0.000000 0.000000 0.000000
# 2 -0.002716 0.014135 -0.002938 0.000000 0.000000 0.000000
# 3 -0.003704 -0.002938 0.015845 0.000000 0.000000 0.000000
# 4 0.000000 0.000000 0.000000 0.036760 0.000000 0.000000
# 5 0.000000 0.000000 0.000000 0.000000 0.040015 0.000000
# 6 0.000000 0.000000 0.000000 0.000000 0.000000 0.051107
#
#
# Mechanical properties :
#
#
# Convention : Reuss Voigt Hill
#
# Bulk Modulus (GPa) = 43.69907 44.78922 44.24414
# Shear Modulus (GPa) = 25.53278 26.36288 25.94783
#
# Velocity S-wave (km/s) = 3.52222 3.57902 3.55073
# Velocity P-wave (km/s) = 6.14607 6.23231 6.18934
#
# Compressibility (1/GPa) = 0.02288378
#
# Stress axis : x y z
#
# Youngs Moduli (GPa) = 86.06245 70.74436 63.11036
#
# Poissons Ratio (x) = 0.19215 0.23378
# Poissons Ratio (y) = 0.23375 0.18541
# Poissons Ratio (z) = 0.31880 0.20784
#
# Static dielectric constant tensor:
#      x y z
#    x 3.792950 0.000000 0.000000 
#    y 0.000000 3.680320 0.000000 
#    z 0.000000 0.000000 3.648650 
# 
# 
# High freq. dielectric constant tensor:
#      x y z
#    x 1.816020 0.000000 0.000000 
#    y 0.000000 1.799450 0.000000 
#    z 0.000000 0.000000 1.802830 
# 
# From -- ./inp_files/7623.got.cif
#   From: 2010.03.12/outbox.cif.g09.slc.cpg/sg61_4_cif.got.tgz:7623.got - 2010.04.10 19:05:03.
