data_PCOD8248101
_publ_section_title
;
Structure prediction by ZEFSAII (Michael W. Deem and Ramdas Pophale) SiO2 
 PCOD8248101
Probable space group: P B C N
;
_chemical_formula_sum "Si O2"
_cell_formula_units_Z 40
_cell_length_a 9.122506
_cell_length_b 21.768714
_cell_length_c 9.016107
_cell_angle_alpha 90.000000
_cell_angle_beta 90.000000
_cell_angle_gamma 90.000000
_cell_volume 1790.465629
_symmetry_space_group_name_H-M "P B C N"
_symmetry_group_IT_number 60
_symmetry_cell_setting 'orthorhombic'
loop_
_space_group_symop_operation_xyz
x,y,z
1/2-x,1/2-y,1/2+z
1/2+x,1/2-y,-z
-x,y,1/2-z
-x,-y,-z
1/2+x,1/2+y,1/2-z
1/2-x,1/2+y,z
x,-y,1/2+z
loop_
_atom_site_type_symbol
_atom_site_label
_atom_site_fract_x
_atom_site_fract_y
_atom_site_fract_z
Si Si1 0.000000 0.508663 0.250000
Si Si2 0.593715 0.414081 0.496978
Si Si3 0.925592 0.803061 0.093262
Si Si4 0.594672 0.084521 0.981349
Si Si5 0.076318 0.699908 0.905441
Si Si6 0.500000 0.503821 0.250000
O O1 0.090327 0.552087 0.359521
O O2 0.896702 0.465957 0.351017
O O3 0.461417 0.364648 0.501370
O O4 0.750218 0.379015 0.479407
O O5 0.591436 0.460926 0.359610
O O6 0.600625 0.452150 0.649462
O O7 0.751513 0.792480 0.103943
O O8 0.000000 0.815550 0.250000
O O9 0.006151 0.744447 0.025936
O O10 0.459197 0.130364 0.954890
O O11 0.000000 0.715538 0.750000
#
# Coordination Sequence:
#
# PCOD8248101 Si02
#       6
#     4   8   8   8   8   4
#     4  10  24  40  68 102 142 180 230 274 346 398
#     4  11  23  43  69 101 139 181 230 280 338 405
#     4  12  27  48  73 101 136 179 230 285 344 407
#     4  11  23  43  69 101 139 181 230 280 338 405
#     4  12  27  48  73 101 136 179 230 285 344 407
#     4  10  24  40  68 102 142 180 230 274 346 398
#
# _framework density 22.340555999999999
#
# number of rings (size 3 to 8) (size 9 to 14) (size 15 to 20)
#    0.000    0.800    2.000    4.800    2.800    8.000 
#    0.000    0.000    0.000    0.000    0.000    0.000 
#    0.000    0.000    0.000    0.000    0.000    0.000 
#
# Total GULP energy -495834.355835 kJ/mol
# GULP energy per Si atom -12395.858896 kJ/mol
# Density = 2.228971 g / cm^3
# Si number density = 22.340556 Si / 1000 Ang^3
#
#
#
# Elastic Constant Matrix: (Units=GPa)
#
#
# Indices 1 2 3 4 5 6 
#
# 1 185.0628 33.6072 29.1027 0.0000 0.0000 0.0000
# 2 33.6072 86.8341 28.7606 0.0000 0.0000 0.0000
# 3 29.1027 28.7606 115.1030 0.0000 0.0000 0.0000
# 4 0.0000 0.0000 0.0000 20.5107 0.0000 0.0000
# 5 0.0000 0.0000 0.0000 0.0000 17.2376 0.0000
# 6 0.0000 0.0000 0.0000 0.0000 0.0000 31.2367
#
#
#
# Elastic Compliance Matrix: (Units=1/GPa)
#
#
# Indices 1 2 3 4 5 6 
#
# 1 0.005917 -0.001957 -0.001007 0.000000 0.000000 0.000000
# 2 -0.001957 0.013202 -0.002804 0.000000 0.000000 0.000000
# 3 -0.001007 -0.002804 0.009643 0.000000 0.000000 0.000000
# 4 0.000000 0.000000 0.000000 0.048755 0.000000 0.000000
# 5 0.000000 0.000000 0.000000 0.000000 0.058013 0.000000
# 6 0.000000 0.000000 0.000000 0.000000 0.000000 0.032014
#
#
# Mechanical properties :
#
#
# Convention : Reuss Voigt Hill
#
# Bulk Modulus (GPa) = 58.04886 63.32677 60.68782
# Shear Modulus (GPa) = 27.05303 33.49896 30.27599
#
# Velocity S-wave (km/s) = 3.48363 3.87650 3.68530
# Velocity P-wave (km/s) = 6.49776 6.96017 6.73294
#
# Compressibility (1/GPa) = 0.01722687
#
# Stress axis : x y z
#
# Youngs Moduli (GPa) = 168.99677 75.74492 103.69996
#
# Poissons Ratio (x) = 0.14820 0.10445
# Poissons Ratio (y) = 0.33065 0.29079
# Poissons Ratio (z) = 0.17022 0.21240
#
# Static dielectric constant tensor:
#      x y z
#    x 3.991710 0.000000 0.000000 
#    y 0.000000 3.994230 0.000000 
#    z 0.000000 0.000000 4.335710 
# 
# 
# High freq. dielectric constant tensor:
#      x y z
#    x 1.882080 0.000000 0.000000 
#    y 0.000000 1.879980 0.000000 
#    z 0.000000 0.000000 1.894290 
# 
# From -- ./inp_files/3917.got.cif
#   From: 2010.03.12/outbox.cif.g09.slc.cpg/sg60_2_cif.got.tgz:3917.got - 2010.04.10 18:46:24.
