data_PCOD8248989
_publ_section_title
;
Structure prediction by ZEFSAII (Michael W. Deem and Ramdas Pophale) SiO2 
 PCOD8248989
Probable space group: P B C A
;
_chemical_formula_sum "Si O2"
_cell_formula_units_Z 40
_cell_length_a 8.692319
_cell_length_b 18.534627
_cell_length_c 10.128288
_cell_angle_alpha 90.000000
_cell_angle_beta 90.000000
_cell_angle_gamma 90.000000
_cell_volume 1631.757242
_symmetry_space_group_name_H-M "P B C A"
_symmetry_group_IT_number 61
_symmetry_cell_setting 'orthorhombic'
loop_
_space_group_symop_operation_xyz
x,y,z
1/2-x,-y,1/2+z
1/2+x,1/2-y,-z
-x,1/2+y,1/2-z
-x,-y,-z
1/2+x,y,1/2-z
1/2-x,1/2+y,z
x,1/2-y,1/2+z
loop_
_atom_site_type_symbol
_atom_site_label
_atom_site_fract_x
_atom_site_fract_y
_atom_site_fract_z
Si Si1 0.832881 0.919768 0.955771
Si Si2 0.403971 0.693526 0.488986
Si Si3 0.703445 0.790342 0.841538
Si Si4 0.829376 0.417613 0.462707
Si Si5 0.333858 0.340254 0.316251
O O1 0.777579 0.889313 0.096838
O O2 0.016915 0.917729 0.949467
O O3 0.762144 0.873034 0.833522
O O4 0.772247 0.001066 0.936759
O O5 0.296612 0.761165 0.529349
O O6 0.520081 0.713279 0.370587
O O7 0.297008 0.625274 0.450861
O O8 0.500590 0.667676 0.616984
O O9 0.734685 0.741985 0.711255
O O10 0.857214 0.376296 0.325708
#
# Coordination Sequence:
#
# PCOD8248989 Si02
#       5
#     8   8   8   8   8
#     4  10  22  40  63  90 122 157 199 247 298 355
#     4  10  21  36  60  86 116 155 197 245 297 352
#     4  10  20  37  59  86 117 152 196 242 293 353
#     4  10  20  39  63  89 122 157 197 248 300 355
#     4  10  21  39  61  84 119 161 197 245 300 352
#
# _framework density 24.513452000000001
#
# number of rings (size 3 to 8) (size 9 to 14) (size 15 to 20)
#    0.000    2.000    0.000    4.800    0.000    6.400 
#    0.000   18.000    0.000    0.000    0.000    0.000 
#    0.000    0.000    0.000    0.000    0.000    0.000 
#
# Total GULP energy -495975.202332 kJ/mol
# GULP energy per Si atom -12399.380058 kJ/mol
# Density = 2.445766 g / cm^3
# Si number density = 24.513452 Si / 1000 Ang^3
#
#
#
# Elastic Constant Matrix: (Units=GPa)
#
#
# Indices 1 2 3 4 5 6 
#
# 1 104.4446 25.2334 -23.2823 0.0000 0.0000 0.0000
# 2 25.2334 128.7605 -27.2063 0.0000 0.0000 0.0000
# 3 -23.2823 -27.2063 38.1525 0.0000 0.0000 0.0000
# 4 0.0000 0.0000 0.0000 15.1403 0.0000 0.0000
# 5 0.0000 0.0000 0.0000 0.0000 16.7099 0.0000
# 6 0.0000 0.0000 0.0000 0.0000 0.0000 48.0781
#
#
#
# Elastic Compliance Matrix: (Units=1/GPa)
#
#
# Indices 1 2 3 4 5 6 
#
# 1 0.011166 -0.000881 0.006186 0.000000 0.000000 0.000000
# 2 -0.000881 0.009214 0.006032 0.000000 0.000000 0.000000
# 3 0.006186 0.006032 0.034287 0.000000 0.000000 0.000000
# 4 0.000000 0.000000 0.000000 0.066049 0.000000 0.000000
# 5 0.000000 0.000000 0.000000 0.000000 0.059845 0.000000
# 6 0.000000 0.000000 0.000000 0.000000 0.000000 0.020799
#
#
# Mechanical properties :
#
#
# Convention : Reuss Voigt Hill
#
# Bulk Modulus (GPa) = 12.92981 24.53859 18.73420
# Shear Modulus (GPa) = 24.45387 35.75985 30.10686
#
# Velocity S-wave (km/s) = 3.16186 3.82355 3.50834
# Velocity P-wave (km/s) = 4.31461 5.43366 4.90614
#
# Compressibility (1/GPa) = 0.07734066
#
# Stress axis : x y z
#
# Youngs Moduli (GPa) = 89.55549 108.53444 29.16554
#
# Poissons Ratio (x) = 0.09565 -0.18041
# Poissons Ratio (y) = 0.07892 -0.17594
# Poissons Ratio (z) = -0.55396 -0.65472
#
# Static dielectric constant tensor:
#      x y z
#    x 4.525890 0.000000 0.000000 
#    y 0.000000 4.701770 0.000000 
#    z 0.000000 0.000000 4.009270 
# 
# 
# High freq. dielectric constant tensor:
#      x y z
#    x 1.985180 0.000000 0.000000 
#    y 0.000000 1.982200 0.000000 
#    z 0.000000 0.000000 1.959750 
# 
# From -- ./inp_files/4800.got.cif
#   From: 2010.03.12/outbox.cif.g09.slc.cpg/sg61_3_cif.got.tgz:4800.got - 2010.04.10 19:05:03.
