data_PCOD8248397
_publ_section_title
;
Structure prediction by ZEFSAII (Michael W. Deem and Ramdas Pophale) SiO2 
 PCOD8248397
Probable space group: P B C N
;
_chemical_formula_sum "Si O2"
_cell_formula_units_Z 64
_cell_length_a 10.780151
_cell_length_b 9.533638
_cell_length_c 28.942067
_cell_angle_alpha 90.000000
_cell_angle_beta 90.000000
_cell_angle_gamma 90.000000
_cell_volume 2974.493650
_symmetry_space_group_name_H-M "P B C N"
_symmetry_group_IT_number 60
_symmetry_cell_setting 'orthorhombic'
loop_
_space_group_symop_operation_xyz
x,y,z
1/2-x,1/2-y,1/2+z
1/2+x,1/2-y,-z
-x,y,1/2-z
-x,-y,-z
1/2+x,1/2+y,1/2-z
1/2-x,1/2+y,z
x,-y,1/2+z
loop_
_atom_site_type_symbol
_atom_site_label
_atom_site_fract_x
_atom_site_fract_y
_atom_site_fract_z
Si Si1 0.841120 0.851699 0.452684
Si Si2 0.634404 0.330052 0.809922
Si Si3 0.291387 0.937144 0.134804
Si Si4 0.101460 0.841638 0.427427
Si Si5 0.260880 0.095085 0.846027
Si Si6 0.688991 0.079671 0.507468
Si Si7 0.538485 0.028307 0.091003
Si Si8 0.347727 0.358468 0.795417
O O1 0.795856 0.850971 0.399997
O O2 0.857149 0.689068 0.468717
O O3 0.980830 0.915476 0.450334
O O4 0.753261 0.941814 0.486048
O O5 0.714862 0.445284 0.837315
O O6 0.649860 0.175138 0.830538
O O7 0.490873 0.373351 0.809978
O O8 0.677081 0.315557 0.757107
O O9 0.394116 0.007713 0.101850
O O10 0.152252 0.928519 0.383818
O O11 0.209490 0.832121 0.464793
O O12 0.070084 0.690037 0.408161
O O13 0.277712 0.253625 0.829912
O O14 0.390145 0.046214 0.867438
O O15 0.220902 0.006364 0.801576
O O16 0.573829 0.037656 0.540717
#
# Coordination Sequence:
#
# PCOD8248397 Si02
#       8
#     8   8   8   8   8   8   8   8
#     4  12  25  42  66  93 136 176 222 283 330 400
#     4  11  25  45  69 103 135 174 227 277 342 405
#     4  12  25  45  68  97 140 179 222 277 344 400
#     4  11  23  41  66  97 132 168 233 272 332 403
#     4  11  22  42  70  99 132 178 221 273 343 396
#     4  11  25  43  64  98 131 175 228 278 335 394
#     4  11  23  42  69  94 136 177 220 281 327 411
#     4  11  23  44  72 100 136 173 223 284 332 412
#
# _framework density 21.516269000000001
#
# number of rings (size 3 to 8) (size 9 to 14) (size 15 to 20)
#    0.000    0.750    3.750    4.125    1.750    1.000 
#    2.250    0.000    0.000    0.000    0.000    0.000 
#    0.000    0.000    0.000    0.000    0.000    0.000 
#
# Total GULP energy -793618.680737 kJ/mol
# GULP energy per Si atom -12400.291887 kJ/mol
# Density = 2.146730 g / cm^3
# Si number density = 21.516269 Si / 1000 Ang^3
#
#
#
# Elastic Constant Matrix: (Units=GPa)
#
#
# Indices 1 2 3 4 5 6 
#
# 1 79.1662 17.5016 48.2252 0.0000 0.0000 0.0000
# 2 17.5016 79.4748 23.7909 0.0000 0.0000 0.0000
# 3 48.2252 23.7909 102.8647 0.0000 0.0000 0.0000
# 4 0.0000 0.0000 0.0000 40.5100 0.0000 0.0000
# 5 0.0000 0.0000 0.0000 0.0000 33.6728 0.0000
# 6 0.0000 0.0000 0.0000 0.0000 0.0000 30.6188
#
#
#
# Elastic Compliance Matrix: (Units=1/GPa)
#
#
# Indices 1 2 3 4 5 6 
#
# 1 0.017853 -0.001532 -0.008016 0.000000 0.000000 0.000000
# 2 -0.001532 0.013650 -0.002439 0.000000 0.000000 0.000000
# 3 -0.008016 -0.002439 0.014043 0.000000 0.000000 0.000000
# 4 0.000000 0.000000 0.000000 0.024685 0.000000 0.000000
# 5 0.000000 0.000000 0.000000 0.000000 0.029698 0.000000
# 6 0.000000 0.000000 0.000000 0.000000 0.000000 0.032660
#
#
# Mechanical properties :
#
#
# Convention : Reuss Voigt Hill
#
# Bulk Modulus (GPa) = 46.35254 48.94899 47.65077
# Shear Modulus (GPa) = 30.53372 32.42617 31.47994
#
# Velocity S-wave (km/s) = 3.77118 3.88629 3.82917
# Velocity P-wave (km/s) = 6.36806 6.55262 6.46100
#
# Compressibility (1/GPa) = 0.02157379
#
# Stress axis : x y z
#
# Youngs Moduli (GPa) = 56.01241 73.25985 71.20758
#
# Poissons Ratio (x) = 0.11224 0.57077
# Poissons Ratio (y) = 0.08581 0.17366
# Poissons Ratio (z) = 0.44897 0.17866
#
# Static dielectric constant tensor:
#      x y z
#    x 4.081950 0.000000 0.000000 
#    y 0.000000 3.668310 0.000000 
#    z 0.000000 0.000000 3.955970 
# 
# 
# High freq. dielectric constant tensor:
#      x y z
#    x 1.856240 0.000000 0.000000 
#    y 0.000000 1.844720 0.000000 
#    z 0.000000 0.000000 1.855760 
# 
# From -- ./inp_files/26118.got.cif
#   From: 2010.03.12/outbox.cif.g09.slc.cpg/sg60_14_cif.got.tgz:26118.got - 2010.04.10 18:46:24.
