data_PCOD8248614
_publ_section_title
;
Structure prediction by ZEFSAII (Michael W. Deem and Ramdas Pophale) SiO2 
 PCOD8248614
Probable space group: P B C N
;
_chemical_formula_sum "Si O2"
_cell_formula_units_Z 32
_cell_length_a 7.987527
_cell_length_b 22.361160
_cell_length_c 7.725632
_cell_angle_alpha 90.000000
_cell_angle_beta 90.000000
_cell_angle_gamma 90.000000
_cell_volume 1379.877984
_symmetry_space_group_name_H-M "P B C N"
_symmetry_group_IT_number 60
_symmetry_cell_setting 'orthorhombic'
loop_
_space_group_symop_operation_xyz
x,y,z
1/2-x,1/2-y,1/2+z
1/2+x,1/2-y,-z
-x,y,1/2-z
-x,-y,-z
1/2+x,1/2+y,1/2-z
1/2-x,1/2+y,z
x,-y,1/2+z
loop_
_atom_site_type_symbol
_atom_site_label
_atom_site_fract_x
_atom_site_fract_y
_atom_site_fract_z
Si Si1 0.000000 0.362512 0.250000
Si Si2 0.751044 0.314642 0.001060
Si Si3 0.000000 0.750070 0.250000
Si Si4 0.677286 0.563170 0.332478
Si Si5 0.657019 0.957438 0.490413
O O1 0.105437 0.315400 0.357207
O O2 0.125972 0.402630 0.137297
O O3 0.838301 0.285009 0.830746
O O4 0.707986 0.383741 0.965721
O O5 0.583129 0.285691 0.086460
O O6 0.500000 0.572287 0.250000
O O7 0.688021 0.498511 0.426443
O O8 0.813495 0.568430 0.180285
O O9 0.500000 0.000000 0.500000
#
# Coordination Sequence:
#
# PCOD8248614 Si02
#       5
#     4   8   4   8   8
#     4  12  24  43  78 102 146 185 236 286 368 434
#     4  12  28  49  76 104 141 190 246 309 368 425
#     4  12  30  51  76 104 142 187 258 312 366 424
#     4  12  26  42  72 104 149 185 233 292 364 430
#     4  12  22  44  69 109 145 190 230 279 353 457
#
# _framework density 23.190453999999999
#
# number of rings (size 3 to 8) (size 9 to 14) (size 15 to 20)
#    0.000    0.000    5.000    3.750    7.000    0.000 
#    2.250    0.000    0.000    0.000    0.000    0.000 
#    0.000    0.000    0.000    0.000    0.000    0.000 
#
# Total GULP energy -396655.586290 kJ/mol
# GULP energy per Si atom -12395.487072 kJ/mol
# Density = 2.313767 g / cm^3
# Si number density = 23.190454 Si / 1000 Ang^3
#
#
#
# Elastic Constant Matrix: (Units=GPa)
#
#
# Indices 1 2 3 4 5 6 
#
# 1 92.7413 10.6261 16.8643 0.0000 0.0000 0.0000
# 2 10.6261 63.9290 10.4026 0.0000 0.0000 0.0000
# 3 16.8643 10.4026 78.9202 0.0000 0.0000 0.0000
# 4 0.0000 0.0000 0.0000 18.2012 0.0000 0.0000
# 5 0.0000 0.0000 0.0000 0.0000 59.1256 0.0000
# 6 0.0000 0.0000 0.0000 0.0000 0.0000 26.0894
#
#
#
# Elastic Compliance Matrix: (Units=1/GPa)
#
#
# Indices 1 2 3 4 5 6 
#
# 1 0.011362 -0.001526 -0.002227 0.000000 0.000000 0.000000
# 2 -0.001526 0.016190 -0.001808 0.000000 0.000000 0.000000
# 3 -0.002227 -0.001808 0.013385 0.000000 0.000000 0.000000
# 4 0.000000 0.000000 0.000000 0.054941 0.000000 0.000000
# 5 0.000000 0.000000 0.000000 0.000000 0.016913 0.000000
# 6 0.000000 0.000000 0.000000 0.000000 0.000000 0.038330
#
#
# Mechanical properties :
#
#
# Convention : Reuss Voigt Hill
#
# Bulk Modulus (GPa) = 33.53924 34.59739 34.06832
# Shear Modulus (GPa) = 29.03889 33.86308 31.45099
#
# Velocity S-wave (km/s) = 3.54247 3.82542 3.68666
# Velocity P-wave (km/s) = 5.58803 5.87052 5.73101
#
# Compressibility (1/GPa) = 0.02981582
#
# Stress axis : x y z
#
# Youngs Moduli (GPa) = 88.00888 61.76558 74.70945
#
# Poissons Ratio (x) = 0.09427 0.16637
# Poissons Ratio (y) = 0.13433 0.13507
# Poissons Ratio (z) = 0.19598 0.11167
#
# Static dielectric constant tensor:
#      x y z
#    x 4.916610 0.000000 0.000000 
#    y 0.000000 4.839510 0.000000 
#    z 0.000000 0.000000 5.418370 
# 
# 
# High freq. dielectric constant tensor:
#      x y z
#    x 1.921620 0.000000 0.000000 
#    y 0.000000 1.910320 0.000000 
#    z 0.000000 0.000000 1.936740 
# 
# From -- ./inp_files/3632.got.cif
#   From: 2010.03.12/outbox.cif.g09.slc.cpg/sg60_2_cif.got.tgz:3632.got - 2010.04.10 18:46:24.
