data_PCOD8248817
_publ_section_title
;
Structure prediction by ZEFSAII (Michael W. Deem and Ramdas Pophale) SiO2 
 PCOD8248817
Probable space group: P B C A
;
_chemical_formula_sum "Si O2"
_cell_formula_units_Z 64
_cell_length_a 5.192845
_cell_length_b 18.172393
_cell_length_c 32.328751
_cell_angle_alpha 90.000000
_cell_angle_beta 90.000000
_cell_angle_gamma 90.000000
_cell_volume 3050.748499
_symmetry_space_group_name_H-M "P B C A"
_symmetry_group_IT_number 61
_symmetry_cell_setting 'orthorhombic'
loop_
_space_group_symop_operation_xyz
x,y,z
1/2-x,-y,1/2+z
1/2+x,1/2-y,-z
-x,1/2+y,1/2-z
-x,-y,-z
1/2+x,y,1/2-z
1/2-x,1/2+y,z
x,1/2-y,1/2+z
loop_
_atom_site_type_symbol
_atom_site_label
_atom_site_fract_x
_atom_site_fract_y
_atom_site_fract_z
Si Si1 0.484320 0.223545 0.520923
Si Si2 0.548288 0.851829 0.929601
Si Si3 0.252243 0.077336 0.499742
Si Si4 0.085624 0.006108 0.156361
Si Si5 0.596262 0.400673 0.656318
Si Si6 0.013733 0.716558 0.224204
Si Si7 0.507543 0.612783 0.775814
Si Si8 0.611219 0.020101 0.434556
O O1 0.781560 0.241218 0.511434
O O2 0.419883 0.263330 0.565625
O O3 0.450918 0.135582 0.521068
O O4 0.465340 0.877683 0.975924
O O5 0.365809 0.873922 0.891301
O O6 0.813726 0.895710 0.922615
O O7 0.369693 0.023249 0.464895
O O8 0.167910 0.025183 0.538828
O O9 0.865485 0.063810 0.170401
O O10 0.368759 0.040232 0.162153
O O11 0.044711 0.980625 0.108695
O O12 0.057898 0.932870 0.182947
O O13 0.530188 0.329262 0.682847
O O14 0.290131 0.696268 0.243304
O O15 0.011009 0.801866 0.211646
O O16 0.230246 0.592656 0.756939
#
# Coordination Sequence:
#
# PCOD8248817 Si02
#       8
#     8   8   8   8   8   8   8   8
#     4  10  20  34  54  78 105 143 189 234 277 333
#     4  10  20  36  55  80 118 149 195 241 292 332
#     4  10  19  35  56  78 110 155 195 234 287 335
#     4  11  23  39  58  91 122 150 197 240 293 346
#     4  11  23  37  61  87 120 155 189 246 294 345
#     4  10  22  41  62  88 117 152 193 234 289 357
#     4  10  22  41  65  87 121 157 191 239 295 354
#     4  10  20  35  55  81 113 152 191 238 283 338
#
# _framework density 20.978456999999999
#
# number of rings (size 3 to 8) (size 9 to 14) (size 15 to 20)
#    0.000    1.750    2.500    1.875    0.000    4.000 
#    0.000    0.000    0.000    6.000    0.000    0.000 
#    0.000    0.000    0.000    0.000    0.000    0.000 
#
# Total GULP energy -792994.170031 kJ/mol
# GULP energy per Si atom -12390.533907 kJ/mol
# Density = 2.093071 g / cm^3
# Si number density = 20.978457 Si / 1000 Ang^3
#
#
#
# Elastic Constant Matrix: (Units=GPa)
#
#
# Indices 1 2 3 4 5 6 
#
# 1 78.2793 10.3526 16.4730 0.0000 0.0000 0.0000
# 2 10.3526 72.7052 56.9471 0.0000 0.0000 0.0000
# 3 16.4730 56.9471 105.4534 0.0000 0.0000 0.0000
# 4 0.0000 0.0000 0.0000 41.7988 0.0000 0.0000
# 5 0.0000 0.0000 0.0000 0.0000 24.1065 0.0000
# 6 0.0000 0.0000 0.0000 0.0000 0.0000 26.7248
#
#
#
# Elastic Compliance Matrix: (Units=1/GPa)
#
#
# Indices 1 2 3 4 5 6 
#
# 1 0.013218 -0.000459 -0.001817 0.000000 0.000000 0.000000
# 2 -0.000459 0.023852 -0.012809 0.000000 0.000000 0.000000
# 3 -0.001817 -0.012809 0.016684 0.000000 0.000000 0.000000
# 4 0.000000 0.000000 0.000000 0.023924 0.000000 0.000000
# 5 0.000000 0.000000 0.000000 0.000000 0.041483 0.000000
# 6 0.000000 0.000000 0.000000 0.000000 0.000000 0.037418
#
#
# Mechanical properties :
#
#
# Convention : Reuss Voigt Hill
#
# Bulk Modulus (GPa) = 42.40148 47.10926 44.75537
# Shear Modulus (GPa) = 25.69231 30.03701 27.86466
#
# Velocity S-wave (km/s) = 3.50337 3.78802 3.64847
# Velocity P-wave (km/s) = 6.05149 6.45267 6.25530
#
# Compressibility (1/GPa) = 0.02358408
#
# Stress axis : x y z
#
# Youngs Moduli (GPa) = 75.65543 41.92450 59.93809
#
# Poissons Ratio (x) = 0.01924 0.10890
# Poissons Ratio (y) = 0.03472 0.76775
# Poissons Ratio (z) = 0.13746 0.53702
#
# Static dielectric constant tensor:
#      x y z
#    x 3.754460 0.000000 0.000000 
#    y 0.000000 4.166250 0.000000 
#    z 0.000000 0.000000 3.812430 
# 
# 
# High freq. dielectric constant tensor:
#      x y z
#    x 1.821360 0.000000 0.000000 
#    y 0.000000 1.823530 0.000000 
#    z 0.000000 0.000000 1.807450 
# 
# From -- ./inp_files/11637.got.cif
#   From: 2010.03.12/outbox.cif.g09.slc.cpg/sg61_6_cif.got.tgz:11637.got - 2010.04.10 19:05:03.
