data_PCOD8248601
_publ_section_title
;
Structure prediction by ZEFSAII (Michael W. Deem and Ramdas Pophale) SiO2 
 PCOD8248601
Probable space group: P B C N
;
_chemical_formula_sum "Si O2"
_cell_formula_units_Z 48
_cell_length_a 17.179225
_cell_length_b 8.862882
_cell_length_c 15.996104
_cell_angle_alpha 90.000000
_cell_angle_beta 90.000000
_cell_angle_gamma 90.000000
_cell_volume 2435.525909
_symmetry_space_group_name_H-M "P B C N"
_symmetry_group_IT_number 60
_symmetry_cell_setting 'orthorhombic'
loop_
_space_group_symop_operation_xyz
x,y,z
1/2-x,1/2-y,1/2+z
1/2+x,1/2-y,-z
-x,y,1/2-z
-x,-y,-z
1/2+x,1/2+y,1/2-z
1/2-x,1/2+y,z
x,-y,1/2+z
loop_
_atom_site_type_symbol
_atom_site_label
_atom_site_fract_x
_atom_site_fract_y
_atom_site_fract_z
Si Si1 0.302517 0.221470 0.557473
Si Si2 0.682920 0.518513 0.844730
Si Si3 0.918075 0.270557 0.795879
Si Si4 0.582051 0.954097 0.964726
Si Si5 0.271068 0.109762 0.305139
Si Si6 0.702306 0.842276 0.083391
O O1 0.331616 0.352070 0.619840
O O2 0.230104 0.128790 0.594055
O O3 0.277365 0.306300 0.473096
O O4 0.372552 0.110353 0.540830
O O5 0.600478 0.600442 0.827141
O O6 0.731524 0.502869 0.759928
O O7 0.923470 0.385116 0.872754
O O8 0.848341 0.316722 0.733773
O O9 0.000000 0.271292 0.750000
O O10 0.623932 0.833543 0.027019
O O11 0.500000 0.000000 0.000000
O O12 0.206228 0.231324 0.336495
O O13 0.294541 0.014682 0.386570
#
# Coordination Sequence:
#
# PCOD8248601 Si02
#       6
#     8   8   8   8   8   8
#     4  12  21  43  72  98 130 180 229 278 329 407
#     4  12  21  44  71  96 131 180 226 279 333 404
#     4  12  26  45  65  96 143 178 222 288 346 399
#     4  12  26  46  67  99 140 182 224 280 349 403
#     4  12  22  38  69 100 129 171 228 273 332 404
#     4  12  22  38  68 101 130 169 227 276 324 409
#
# _framework density 19.708268
#
# number of rings (size 3 to 8) (size 9 to 14) (size 15 to 20)
#    0.000    0.000   10.000    1.000    0.000    0.000 
#    3.000    0.833    0.000    0.000    0.000    0.000 
#    0.000    0.000    0.000    0.000    0.000    0.000 
#
# Total GULP energy -595178.292347 kJ/mol
# GULP energy per Si atom -12399.547757 kJ/mol
# Density = 1.966341 g / cm^3
# Si number density = 19.708268 Si / 1000 Ang^3
#
#
#
# Elastic Constant Matrix: (Units=GPa)
#
#
# Indices 1 2 3 4 5 6 
#
# 1 125.2871 51.3703 53.4909 0.0000 0.0000 0.0000
# 2 51.3703 97.6803 43.1219 0.0000 0.0000 0.0000
# 3 53.4909 43.1219 97.1408 0.0000 0.0000 0.0000
# 4 0.0000 0.0000 0.0000 27.1107 0.0000 0.0000
# 5 0.0000 0.0000 0.0000 0.0000 41.8281 0.0000
# 6 0.0000 0.0000 0.0000 0.0000 0.0000 31.8520
#
#
#
# Elastic Compliance Matrix: (Units=1/GPa)
#
#
# Indices 1 2 3 4 5 6 
#
# 1 0.011612 -0.004085 -0.004581 0.000000 0.000000 0.000000
# 2 -0.004085 0.014169 -0.004041 0.000000 0.000000 0.000000
# 3 -0.004581 -0.004041 0.014611 0.000000 0.000000 0.000000
# 4 0.000000 0.000000 0.000000 0.036886 0.000000 0.000000
# 5 0.000000 0.000000 0.000000 0.000000 0.023907 0.000000
# 6 0.000000 0.000000 0.000000 0.000000 0.000000 0.031395
#
#
# Mechanical properties :
#
#
# Convention : Reuss Voigt Hill
#
# Bulk Modulus (GPa) = 66.75826 68.45270 67.60548
# Shear Modulus (GPa) = 30.67727 31.63315 31.15521
#
# Velocity S-wave (km/s) = 3.94962 4.01068 3.98027
# Velocity P-wave (km/s) = 7.39906 7.50039 7.44989
#
# Compressibility (1/GPa) = 0.01497942
#
# Stress axis : x y z
#
# Youngs Moduli (GPa) = 86.11526 70.57468 68.44282
#
# Poissons Ratio (x) = 0.28827 0.31355
# Poissons Ratio (y) = 0.35174 0.27656
# Poissons Ratio (z) = 0.39451 0.28518
#
# Static dielectric constant tensor:
#      x y z
#    x 3.470010 0.000000 0.000000 
#    y 0.000000 0.420260 0.000000 
#    z 0.000000 0.000000 3.882950 
# 
# 
# High freq. dielectric constant tensor:
#      x y z
#    x 1.738260 0.000000 0.000000 
#    y 0.000000 1.782900 0.000000 
#    z 0.000000 0.000000 1.793470 
# 
# From -- ./inp_files/17303.got.cif
#   From: 2010.03.12/outbox.cif.g09.slc.cpg/sg60_9_cif.got.tgz:17303.got - 2010.04.10 18:46:24.
