data_PCOD8248870
_publ_section_title
;
Structure prediction by ZEFSAII (Michael W. Deem and Ramdas Pophale) SiO2 
 PCOD8248870
Probable space group: P B C A
;
_chemical_formula_sum "Si O2"
_cell_formula_units_Z 56
_cell_length_a 5.196595
_cell_length_b 17.082652
_cell_length_c 29.773897
_cell_angle_alpha 90.000000
_cell_angle_beta 90.000000
_cell_angle_gamma 90.000000
_cell_volume 2643.077189
_symmetry_space_group_name_H-M "P B C A"
_symmetry_group_IT_number 61
_symmetry_cell_setting 'orthorhombic'
loop_
_space_group_symop_operation_xyz
x,y,z
1/2-x,-y,1/2+z
1/2+x,1/2-y,-z
-x,1/2+y,1/2-z
-x,-y,-z
1/2+x,y,1/2-z
1/2-x,1/2+y,z
x,1/2-y,1/2+z
loop_
_atom_site_type_symbol
_atom_site_label
_atom_site_fract_x
_atom_site_fract_y
_atom_site_fract_z
Si Si1 0.281681 0.949442 0.374474
Si Si2 0.284454 0.887410 0.914863
Si Si3 0.196849 0.006426 0.772164
Si Si4 0.287154 0.853128 0.103948
Si Si5 0.229229 0.665725 0.233017
Si Si6 0.268094 0.801017 0.004450
Si Si7 0.216136 0.320910 0.630282
O O1 0.315386 0.984841 0.325270
O O2 0.535976 0.904577 0.389011
O O3 0.035862 0.893637 0.374931
O O4 0.243577 0.019913 0.409443
O O5 0.251793 0.868595 0.967284
O O6 0.569007 0.862408 0.899732
O O7 0.067845 0.840965 0.887147
O O8 0.449026 0.047069 0.750885
O O9 0.189822 0.914500 0.760936
O O10 0.244498 0.771859 0.129674
O O11 0.338975 0.840486 0.051426
O O12 0.470028 0.713572 0.254093
O O13 0.253252 0.647938 0.180644
O O14 0.491304 0.740229 0.991163
#
# Coordination Sequence:
#
# PCOD8248870 Si02
#       7
#     8   8   8   8   8   8   8
#     4  12  26  42  66 104 138 181 219 282 356 399
#     4  12  23  42  73  99 130 183 238 270 325 416
#     4  10  19  38  62  88 125 170 219 272 319 397
#     4  12  26  44  66 101 147 173 219 290 351 404
#     4  10  20  36  62  94 125 161 223 284 312 378
#     4  12  23  45  70 102 132 181 231 279 336 399
#     4  12  23  43  71 100 129 181 231 279 331 397
#
# _framework density 21.187425999999999
#
# number of rings (size 3 to 8) (size 9 to 14) (size 15 to 20)
#    0.000    0.571    2.857    7.714    0.000    1.143 
#    0.000    4.286    0.000    0.000    0.000    0.000 
#    0.000    0.000    0.000    0.000    0.000    0.000 
#
# Total GULP energy -694551.448797 kJ/mol
# GULP energy per Si atom -12402.704443 kJ/mol
# Density = 2.113920 g / cm^3
# Si number density = 21.187426 Si / 1000 Ang^3
#
#
#
# Elastic Constant Matrix: (Units=GPa)
#
#
# Indices 1 2 3 4 5 6 
#
# 1 125.9926 6.0416 1.5882 0.0000 0.0000 0.0000
# 2 6.0416 90.9598 2.1234 0.0000 0.0000 0.0000
# 3 1.5882 2.1234 125.2038 0.0000 0.0000 0.0000
# 4 0.0000 0.0000 0.0000 34.6635 0.0000 0.0000
# 5 0.0000 0.0000 0.0000 0.0000 39.4997 0.0000
# 6 0.0000 0.0000 0.0000 0.0000 0.0000 30.7161
#
#
#
# Elastic Compliance Matrix: (Units=1/GPa)
#
#
# Indices 1 2 3 4 5 6 
#
# 1 0.007963 -0.000527 -0.000092 0.000000 0.000000 0.000000
# 2 -0.000527 0.011033 -0.000180 0.000000 0.000000 0.000000
# 3 -0.000092 -0.000180 0.007991 0.000000 0.000000 0.000000
# 4 0.000000 0.000000 0.000000 0.028849 0.000000 0.000000
# 5 0.000000 0.000000 0.000000 0.000000 0.025317 0.000000
# 6 0.000000 0.000000 0.000000 0.000000 0.000000 0.032556
#
#
# Mechanical properties :
#
#
# Convention : Reuss Voigt Hill
#
# Bulk Modulus (GPa) = 39.38702 40.18473 39.78588
# Shear Modulus (GPa) = 40.39723 43.13608 41.76665
#
# Velocity S-wave (km/s) = 4.37127 4.51702 4.44474
# Velocity P-wave (km/s) = 6.64135 6.79795 6.72010
#
# Compressibility (1/GPa) = 0.02538907
#
# Stress axis : x y z
#
# Youngs Moduli (GPa) = 125.57455 90.63662 125.13759
#
# Poissons Ratio (x) = 0.04775 0.01152
# Poissons Ratio (y) = 0.06615 0.02258
# Poissons Ratio (z) = 0.01156 0.01635
#
# Static dielectric constant tensor:
#      x y z
#    x 5.602240 0.000000 0.000000 
#    y 0.000000 3.635420 0.000000 
#    z 0.000000 0.000000 3.971350 
# 
# 
# High freq. dielectric constant tensor:
#      x y z
#    x 1.867000 0.000000 0.000000 
#    y 0.000000 1.803790 0.000000 
#    z 0.000000 0.000000 1.841800 
# 
# From -- ./inp_files/11591.got.cif
#   From: 2010.03.12/outbox.cif.g09.slc.cpg/sg61_6_cif.got.tgz:11591.got - 2010.04.10 19:05:03.
