data_PCOD8248856
_publ_section_title
;
Structure prediction by ZEFSAII (Michael W. Deem and Ramdas Pophale) SiO2 
 PCOD8248856
Probable space group: P B C A
;
_chemical_formula_sum "Si O2"
_cell_formula_units_Z 40
_cell_length_a 12.921763
_cell_length_b 13.280236
_cell_length_c 9.268941
_cell_angle_alpha 90.000000
_cell_angle_beta 90.000000
_cell_angle_gamma 90.000000
_cell_volume 1590.587928
_symmetry_space_group_name_H-M "P B C A"
_symmetry_group_IT_number 61
_symmetry_cell_setting 'orthorhombic'
loop_
_space_group_symop_operation_xyz
x,y,z
1/2-x,-y,1/2+z
1/2+x,1/2-y,-z
-x,1/2+y,1/2-z
-x,-y,-z
1/2+x,y,1/2-z
1/2-x,1/2+y,z
x,1/2-y,1/2+z
loop_
_atom_site_type_symbol
_atom_site_label
_atom_site_fract_x
_atom_site_fract_y
_atom_site_fract_z
Si Si1 0.738406 0.130153 0.273271
Si Si2 0.487397 0.127244 0.593534
Si Si3 0.567512 0.234066 0.858060
Si Si4 0.727012 0.657339 0.820787
Si Si5 0.802019 0.529222 0.560729
O O1 0.619736 0.171705 0.270170
O O2 0.813959 0.227082 0.297609
O O3 0.749440 0.047822 0.403036
O O4 0.770157 0.079102 0.123457
O O5 0.495839 0.165877 0.757747
O O6 0.502056 0.222771 0.489828
O O7 0.364272 0.093468 0.593156
O O8 0.571055 0.039478 0.560748
O O9 0.665617 0.165213 0.913319
O O10 0.754655 0.615293 0.663216
#
# Coordination Sequence:
#
# PCOD8248856 Si02
#       5
#     8   8   8   8   8
#     4   9  21  39  60  88 127 161 199 254 309 355
#     4  10  19  37  61  86 116 154 209 243 301 359
#     4   8  20  35  56  86 115 157 193 248 297 355
#     4   9  21  38  63  85 123 161 200 253 305 356
#     4  10  21  41  59  93 122 164 204 251 308 367
#
# _framework density 25.147932999999998
#
# number of rings (size 3 to 8) (size 9 to 14) (size 15 to 20)
#    1.200    1.600    0.000    0.000    2.800    4.800 
#    3.600    3.000    0.000    0.000    0.000    0.000 
#    0.000    0.000    0.000    0.000    0.000    0.000 
#
# Total GULP energy -495562.979073 kJ/mol
# GULP energy per Si atom -12389.074477 kJ/mol
# Density = 2.509070 g / cm^3
# Si number density = 25.147933 Si / 1000 Ang^3
#
#
#
# Elastic Constant Matrix: (Units=GPa)
#
#
# Indices 1 2 3 4 5 6 
#
# 1 125.1866 20.3306 46.5980 0.0000 0.0000 0.0000
# 2 20.3306 78.9554 23.9769 0.0000 0.0000 0.0000
# 3 46.5980 23.9769 73.5084 0.0000 0.0000 0.0000
# 4 0.0000 0.0000 0.0000 5.7584 0.0000 0.0000
# 5 0.0000 0.0000 0.0000 0.0000 29.4755 0.0000
# 6 0.0000 0.0000 0.0000 0.0000 0.0000 23.1537
#
#
#
# Elastic Compliance Matrix: (Units=1/GPa)
#
#
# Indices 1 2 3 4 5 6 
#
# 1 0.010496 -0.000757 -0.006406 0.000000 0.000000 0.000000
# 2 -0.000757 0.014112 -0.004123 0.000000 0.000000 0.000000
# 3 -0.006406 -0.004123 0.019010 0.000000 0.000000 0.000000
# 4 0.000000 0.000000 0.000000 0.173659 0.000000 0.000000
# 5 0.000000 0.000000 0.000000 0.000000 0.033927 0.000000
# 6 0.000000 0.000000 0.000000 0.000000 0.000000 0.043190
#
#
# Mechanical properties :
#
#
# Convention : Reuss Voigt Hill
#
# Bulk Modulus (GPa) = 47.51830 51.05128 49.28479
# Shear Modulus (GPa) = 15.43300 24.12718 19.78009
#
# Velocity S-wave (km/s) = 2.47996 3.10080 2.80759
# Velocity P-wave (km/s) = 5.20930 5.75885 5.49095
#
# Compressibility (1/GPa) = 0.02104452
#
# Stress axis : x y z
#
# Youngs Moduli (GPa) = 95.27736 70.85940 52.60419
#
# Poissons Ratio (x) = 0.05365 0.33700
# Poissons Ratio (y) = 0.07214 0.21690
# Poissons Ratio (z) = 0.61038 0.29217
#
# Static dielectric constant tensor:
#      x y z
#    x 4.394080 0.000000 0.000000 
#    y 0.000000 4.524610 0.000000 
#    z 0.000000 0.000000 4.226220 
# 
# 
# High freq. dielectric constant tensor:
#      x y z
#    x 1.990550 0.000000 0.000000 
#    y 0.000000 2.016750 0.000000 
#    z 0.000000 0.000000 2.000860 
# 
# From -- ./inp_files/2670.got.cif
#   From: 2010.03.12/outbox.cif.g09.slc.cpg/sg61_2_cif.got.tgz:2670.got - 2010.04.10 19:05:03.
