data_PCOD8248696
_publ_section_title
;
Structure prediction by ZEFSAII (Michael W. Deem and Ramdas Pophale) SiO2 
 PCOD8248696
Probable space group: P B C A
;
_chemical_formula_sum "Si O2"
_cell_formula_units_Z 56
_cell_length_a 17.889470
_cell_length_b 5.235057
_cell_length_c 32.592684
_cell_angle_alpha 90.000000
_cell_angle_beta 90.000000
_cell_angle_gamma 90.000000
_cell_volume 3052.382921
_symmetry_space_group_name_H-M "P B C A"
_symmetry_group_IT_number 61
_symmetry_cell_setting 'orthorhombic'
loop_
_space_group_symop_operation_xyz
x,y,z
1/2-x,-y,1/2+z
1/2+x,1/2-y,-z
-x,1/2+y,1/2-z
-x,-y,-z
1/2+x,y,1/2-z
1/2-x,1/2+y,z
x,1/2-y,1/2+z
loop_
_atom_site_type_symbol
_atom_site_label
_atom_site_fract_x
_atom_site_fract_y
_atom_site_fract_z
Si Si1 0.701010 0.228012 0.402779
Si Si2 0.086272 0.748459 0.973843
Si Si3 0.703548 0.215907 0.812116
Si Si4 0.671833 0.779200 0.690384
Si Si5 0.296330 0.270347 0.905175
Si Si6 0.338444 0.779518 0.774773
Si Si7 0.088108 0.252187 0.524617
O O1 0.760124 0.454976 0.409962
O O2 0.666154 0.244319 0.356760
O O3 0.632113 0.257413 0.433052
O O4 0.127421 0.751762 0.930423
O O5 0.998815 0.752293 0.964030
O O6 0.109949 0.494698 0.998138
O O7 0.110784 0.994106 0.000049
O O8 0.769571 0.423939 0.808175
O O9 0.647087 0.264027 0.774208
O O10 0.683849 0.757350 0.642332
O O11 0.624517 0.536012 0.706696
O O12 0.750163 0.793829 0.714623
O O13 0.625871 0.035092 0.702025
O O14 0.256320 0.533910 0.916877
#
# Coordination Sequence:
#
# PCOD8248696 Si02
#       7
#     8   8   8   8   8   8   8
#     4  10  21  32  53  80 105 125 163 220 259 285
#     4  10  23  37  58  71  96 142 171 203 246 313
#     4  10  16  25  41  69  98 124 162 192 241 289
#     4  10  16  25  41  64  99 130 153 198 240 284
#     4  12  21  32  48  81 109 123 168 212 257 286
#     4  10  14  25  41  61  98 134 153 186 244 289
#     4  10  21  42  54  72  99 134 178 199 249 314
#
# _framework density 18.346321
#
# number of rings (size 3 to 8) (size 9 to 14) (size 15 to 20)
#    0.000    1.714    5.714    1.714    0.000    3.429 
#    0.000    0.000    0.000    0.000    0.000    2.000 
#    0.000    0.000    0.000    0.000    0.000    0.000 
#
# Total GULP energy -694126.621754 kJ/mol
# GULP energy per Si atom -12395.118246 kJ/mol
# Density = 1.830456 g / cm^3
# Si number density = 18.346321 Si / 1000 Ang^3
#
#
#
# Elastic Constant Matrix: (Units=GPa)
#
#
# Indices 1 2 3 4 5 6 
#
# 1 28.3470 9.2888 44.8813 0.0000 0.0000 0.0000
# 2 9.2888 129.9840 25.8398 0.0000 0.0000 0.0000
# 3 44.8813 25.8398 122.2066 0.0000 0.0000 0.0000
# 4 0.0000 0.0000 0.0000 24.2482 0.0000 0.0000
# 5 0.0000 0.0000 0.0000 0.0000 3.5018 0.0000
# 6 0.0000 0.0000 0.0000 0.0000 0.0000 5.1593
#
#
#
# Elastic Compliance Matrix: (Units=1/GPa)
#
#
# Indices 1 2 3 4 5 6 
#
# 1 0.084291 0.000136 -0.030985 0.000000 0.000000 0.000000
# 2 0.000136 0.008031 -0.001748 0.000000 0.000000 0.000000
# 3 -0.030985 -0.001748 0.019932 0.000000 0.000000 0.000000
# 4 0.000000 0.000000 0.000000 0.041240 0.000000 0.000000
# 5 0.000000 0.000000 0.000000 0.000000 0.285571 0.000000
# 6 0.000000 0.000000 0.000000 0.000000 0.000000 0.193826
#
#
# Mechanical properties :
#
#
# Convention : Reuss Voigt Hill
#
# Bulk Modulus (GPa) = 21.24970 48.95083 35.10027
# Shear Modulus (GPa) = 7.00503 19.95035 13.47769
#
# Velocity S-wave (km/s) = 1.95615 3.30120 2.71334
# Velocity P-wave (km/s) = 4.08775 6.42418 5.38422
#
# Compressibility (1/GPa) = 0.04705949
#
# Stress axis : x y z
#
# Youngs Moduli (GPa) = 11.86367 124.51692 50.17036
#
# Poissons Ratio (x) = -0.01695 1.55454
# Poissons Ratio (y) = -0.00161 0.08770
# Poissons Ratio (z) = 0.36760 0.21767
#
# Static dielectric constant tensor:
#      x y z
#    x 2.719890 0.000000 0.000000 
#    y 0.000000 5.397540 0.000000 
#    z 0.000000 0.000000 3.546840 
# 
# 
# High freq. dielectric constant tensor:
#      x y z
#    x 1.629840 0.000000 0.000000 
#    y 0.000000 1.750620 0.000000 
#    z 0.000000 0.000000 1.728590 
# 
# From -- ./inp_files/11536.got.cif
#   From: 2010.03.12/outbox.cif.g09.slc.cpg/sg61_6_cif.got.tgz:11536.got - 2010.04.10 19:05:03.
