data_PCOD8248788
_publ_section_title
;
Structure prediction by ZEFSAII (Michael W. Deem and Ramdas Pophale) SiO2 
 PCOD8248788
Probable space group: P B C A
;
_chemical_formula_sum "Si O2"
_cell_formula_units_Z 56
_cell_length_a 21.151771
_cell_length_b 5.559994
_cell_length_c 24.227993
_cell_angle_alpha 90.000000
_cell_angle_beta 90.000000
_cell_angle_gamma 90.000000
_cell_volume 2849.302101
_symmetry_space_group_name_H-M "P B C A"
_symmetry_group_IT_number 61
_symmetry_cell_setting 'orthorhombic'
loop_
_space_group_symop_operation_xyz
x,y,z
1/2-x,-y,1/2+z
1/2+x,1/2-y,-z
-x,1/2+y,1/2-z
-x,-y,-z
1/2+x,y,1/2-z
1/2-x,1/2+y,z
x,1/2-y,1/2+z
loop_
_atom_site_type_symbol
_atom_site_label
_atom_site_fract_x
_atom_site_fract_y
_atom_site_fract_z
Si Si1 0.282326 0.572772 0.693027
Si Si2 0.590487 0.597490 0.464753
Si Si3 0.970974 0.539262 0.183169
Si Si4 0.029627 0.805721 0.427107
Si Si5 0.718245 0.411799 0.437724
Si Si6 0.912160 0.750226 0.782069
Si Si7 0.553050 0.923597 0.376174
O O1 0.250186 0.323653 0.714252
O O2 0.283973 0.578664 0.627637
O O3 0.353529 0.566307 0.717772
O O4 0.583622 0.712566 0.525981
O O5 0.524416 0.485968 0.446799
O O6 0.647586 0.408331 0.463395
O O7 0.603636 0.795409 0.416779
O O8 0.940632 0.406500 0.129960
O O9 0.913279 0.603829 0.224274
O O10 0.018978 0.367625 0.215668
O O11 0.012501 0.764344 0.165039
O O12 0.997841 0.549787 0.416317
O O13 0.750572 0.662282 0.459240
O O14 0.903450 0.907666 0.837836
#
# Coordination Sequence:
#
# PCOD8248788 Si02
#       7
#     8   8   8   8   8   8   8
#     4  10  23  37  56  83 118 154 194 239 290 350
#     4  10  20  35  56  81 114 147 187 236 292 351
#     4  10  20  34  54  84 110 147 186 241 298 351
#     4   9  20  35  54  84 112 144 187 232 297 351
#     4  10  22  37  56  83 115 153 193 237 288 344
#     4  11  21  34  56  82 116 148 195 240 299 361
#     4  10  19  32  54  84 110 145 178 237 293 356
#
# _framework density 19.653936000000002
#
# number of rings (size 3 to 8) (size 9 to 14) (size 15 to 20)
#    0.000    2.000    1.429    3.000   10.000    0.000 
#    0.000    0.000    0.000    1.714    0.000    0.000 
#    0.000    0.000    0.000    0.000    0.000    0.000 
#
# Total GULP energy -694060.511239 kJ/mol
# GULP energy per Si atom -12393.937701 kJ/mol
# Density = 1.960920 g / cm^3
# Si number density = 19.653936 Si / 1000 Ang^3
#
#
#
# Elastic Constant Matrix: (Units=GPa)
#
#
# Indices 1 2 3 4 5 6 
#
# 1 48.5672 17.1570 34.3075 0.0000 0.0000 0.0000
# 2 17.1570 92.3168 28.4388 0.0000 0.0000 0.0000
# 3 34.3075 28.4388 86.7267 0.0000 0.0000 0.0000
# 4 0.0000 0.0000 0.0000 16.4306 0.0000 0.0000
# 5 0.0000 0.0000 0.0000 0.0000 22.4140 0.0000
# 6 0.0000 0.0000 0.0000 0.0000 0.0000 11.2860
#
#
#
# Elastic Compliance Matrix: (Units=1/GPa)
#
#
# Indices 1 2 3 4 5 6 
#
# 1 0.028922 -0.002059 -0.010766 0.000000 0.000000 0.000000
# 2 -0.002059 0.012196 -0.003185 0.000000 0.000000 0.000000
# 3 -0.010766 -0.003185 0.016834 0.000000 0.000000 0.000000
# 4 0.000000 0.000000 0.000000 0.060862 0.000000 0.000000
# 5 0.000000 0.000000 0.000000 0.000000 0.044615 0.000000
# 6 0.000000 0.000000 0.000000 0.000000 0.000000 0.088606
#
#
# Mechanical properties :
#
#
# Convention : Reuss Voigt Hill
#
# Bulk Modulus (GPa) = 38.56117 43.04640 40.80378
# Shear Modulus (GPa) = 17.08246 19.87328 18.47787
#
# Velocity S-wave (km/s) = 2.95135 3.18332 3.06953
# Velocity P-wave (km/s) = 5.59255 5.95493 5.77658
#
# Compressibility (1/GPa) = 0.02593283
#
# Stress axis : x y z
#
# Youngs Moduli (GPa) = 34.57534 81.99422 59.40459
#
# Poissons Ratio (x) = 0.16880 0.63956
# Poissons Ratio (y) = 0.07118 0.18920
# Poissons Ratio (z) = 0.37224 0.26114
#
# Static dielectric constant tensor:
#      x y z
#    x 3.266210 0.000000 0.000000 
#    y 0.000000 3.928300 0.000000 
#    z 0.000000 0.000000 3.685010 
# 
# 
# High freq. dielectric constant tensor:
#      x y z
#    x 1.730990 0.000000 0.000000 
#    y 0.000000 1.776970 0.000000 
#    z 0.000000 0.000000 1.747280 
# 
# From -- ./inp_files/1212.got.cif
#   From: 2010.03.12/outbox.cif.g09.slc.cpg/sg61_1_cif.got.tgz:1212.got - 2010.04.10 19:05:03.
