data_PCOD8248606
_publ_section_title
;
Structure prediction by ZEFSAII (Michael W. Deem and Ramdas Pophale) SiO2 
 PCOD8248606
Probable space group: P B C N
;
_chemical_formula_sum "Si O2"
_cell_formula_units_Z 48
_cell_length_a 18.137039
_cell_length_b 14.162210
_cell_length_c 8.495767
_cell_angle_alpha 90.000000
_cell_angle_beta 90.000000
_cell_angle_gamma 90.000000
_cell_volume 2182.227428
_symmetry_space_group_name_H-M "P B C N"
_symmetry_group_IT_number 60
_symmetry_cell_setting 'orthorhombic'
loop_
_space_group_symop_operation_xyz
x,y,z
1/2-x,1/2-y,1/2+z
1/2+x,1/2-y,-z
-x,y,1/2-z
-x,-y,-z
1/2+x,1/2+y,1/2-z
1/2-x,1/2+y,z
x,-y,1/2+z
loop_
_atom_site_type_symbol
_atom_site_label
_atom_site_fract_x
_atom_site_fract_y
_atom_site_fract_z
Si Si1 0.780705 0.065024 0.837766
Si Si2 0.690375 0.372137 0.993223
Si Si3 0.921663 0.759744 0.808142
Si Si4 0.831107 0.756556 0.494713
Si Si5 0.416760 0.113801 0.211412
Si Si6 0.881763 0.425402 0.445142
O O1 0.812287 0.082982 0.664896
O O2 0.825947 0.132708 0.954829
O O3 0.694671 0.088536 0.853638
O O4 0.790698 0.954901 0.871878
O O5 0.611856 0.327735 0.943095
O O6 0.750596 0.289686 0.988079
O O7 0.864005 0.749218 0.667364
O O8 0.936381 0.656586 0.883675
O O9 0.000000 0.800888 0.750000
O O10 0.881641 0.706058 0.365336
O O11 0.500000 0.140419 0.250000
O O12 0.371040 0.083923 0.366932
O O13 0.416451 0.027595 0.087962
#
# Coordination Sequence:
#
# PCOD8248606 Si02
#       6
#     8   8   8   8   8   8
#     4  12  25  42  72 102 131 177 239 288 335 408
#     4  12  24  45  68 100 135 179 232 287 339 413
#     4  12  26  46  70 103 142 183 230 290 354 413
#     4  12  24  43  69  99 133 183 229 281 342 408
#     4  12  25  40  63 101 144 182 223 279 349 418
#     4  12  22  40  67  97 142 179 229 285 342 413
#
# _framework density 21.995875000000002
#
# number of rings (size 3 to 8) (size 9 to 14) (size 15 to 20)
#    0.000    0.000    5.000    6.000    2.333    0.000 
#    0.000    4.167    0.000    0.000    0.000    0.000 
#    0.000    0.000    0.000    0.000    0.000    0.000 
#
# Total GULP energy -595528.267171 kJ/mol
# GULP energy per Si atom -12406.838899 kJ/mol
# Density = 2.194581 g / cm^3
# Si number density = 21.995875 Si / 1000 Ang^3
#
#
#
# Elastic Constant Matrix: (Units=GPa)
#
#
# Indices 1 2 3 4 5 6 
#
# 1 76.0923 28.6269 12.0251 0.0000 0.0000 0.0000
# 2 28.6269 65.2894 18.5223 0.0000 0.0000 0.0000
# 3 12.0251 18.5223 92.4999 0.0000 0.0000 0.0000
# 4 0.0000 0.0000 0.0000 37.7470 0.0000 0.0000
# 5 0.0000 0.0000 0.0000 0.0000 31.7651 0.0000
# 6 0.0000 0.0000 0.0000 0.0000 0.0000 26.7952
#
#
#
# Elastic Compliance Matrix: (Units=1/GPa)
#
#
# Indices 1 2 3 4 5 6 
#
# 1 0.015781 -0.006719 -0.000706 0.000000 0.000000 0.000000
# 2 -0.006719 0.019100 -0.002951 0.000000 0.000000 0.000000
# 3 -0.000706 -0.002951 0.011494 0.000000 0.000000 0.000000
# 4 0.000000 0.000000 0.000000 0.026492 0.000000 0.000000
# 5 0.000000 0.000000 0.000000 0.000000 0.031481 0.000000
# 6 0.000000 0.000000 0.000000 0.000000 0.000000 0.037320
#
#
# Mechanical properties :
#
#
# Convention : Reuss Voigt Hill
#
# Bulk Modulus (GPa) = 39.02916 39.13670 39.08293
# Shear Modulus (GPa) = 29.24637 30.90861 30.07749
#
# Velocity S-wave (km/s) = 3.65036 3.75267 3.70187
# Velocity P-wave (km/s) = 5.96232 6.05046 6.00655
#
# Compressibility (1/GPa) = 0.02562187
#
# Stress axis : x y z
#
# Youngs Moduli (GPa) = 63.36581 52.35677 87.00536
#
# Poissons Ratio (x) = 0.35180 0.06144
# Poissons Ratio (y) = 0.42577 0.25676
# Poissons Ratio (z) = 0.04475 0.15451
#
# Static dielectric constant tensor:
#      x y z
#    x 3.801770 0.000000 0.000000 
#    y 0.000000 4.102120 0.000000 
#    z 0.000000 0.000000 4.176660 
# 
# 
# High freq. dielectric constant tensor:
#      x y z
#    x 1.848380 0.000000 0.000000 
#    y 0.000000 1.870310 0.000000 
#    z 0.000000 0.000000 1.883500 
# 
# From -- ./inp_files/6710.got.cif
#   From: 2010.03.12/outbox.cif.g09.slc.cpg/sg60_4_cif.got.tgz:6710.got - 2010.04.10 18:46:24.
