data_PCOD8248086
_publ_section_title
;
Structure prediction by ZEFSAII (Michael W. Deem and Ramdas Pophale) SiO2 
 PCOD8248086
Probable space group: P B C N
;
_chemical_formula_sum "Si O2"
_cell_formula_units_Z 64
_cell_length_a 14.258508
_cell_length_b 26.261576
_cell_length_c 9.927608
_cell_angle_alpha 90.000000
_cell_angle_beta 90.000000
_cell_angle_gamma 90.000000
_cell_volume 3717.401666
_symmetry_space_group_name_H-M "P B C N"
_symmetry_group_IT_number 60
_symmetry_cell_setting 'orthorhombic'
loop_
_space_group_symop_operation_xyz
x,y,z
1/2-x,1/2-y,1/2+z
1/2+x,1/2-y,-z
-x,y,1/2-z
-x,-y,-z
1/2+x,1/2+y,1/2-z
1/2-x,1/2+y,z
x,-y,1/2+z
loop_
_atom_site_type_symbol
_atom_site_label
_atom_site_fract_x
_atom_site_fract_y
_atom_site_fract_z
Si Si1 0.889507 0.923017 0.744806
Si Si2 0.494151 0.682387 0.897292
Si Si3 0.002593 0.268363 0.099445
Si Si4 0.326619 0.383322 0.475548
Si Si5 0.803201 0.701061 0.586013
Si Si6 0.337720 0.384289 0.039934
Si Si7 0.611502 0.541951 0.745015
Si Si8 0.714417 0.788569 0.397377
O O1 0.839625 0.896083 0.869173
O O2 0.842348 0.897519 0.616084
O O3 0.000000 0.911971 0.750000
O O4 0.867800 0.982461 0.743235
O O5 0.500000 0.707806 0.750000
O O6 0.563700 0.635163 0.903374
O O7 0.527040 0.722174 0.006057
O O8 0.390768 0.663425 0.927572
O O9 0.104067 0.291442 0.062917
O O10 0.000000 0.246264 0.250000
O O11 0.915998 0.307008 0.080548
O O12 0.226542 0.356909 0.449861
O O13 0.345964 0.434164 0.391050
O O14 0.764497 0.742564 0.477988
O O15 0.772191 0.719227 0.736522
O O16 0.328673 0.435472 0.129509
O O17 0.255837 0.343443 0.062079
O O18 0.500000 0.552178 0.750000
#
# Coordination Sequence:
#
# PCOD8248086 Si02
#       8
#     8   8   8   8   8   8   8   8
#     4  11  24  34  55  83 115 145 183 228 271 327
#     4  12  20  32  51  80 113 146 179 217 267 320
#     4  10  24  38  54  79 110 145 190 228 260 313
#     4  12  21  36  55  79 113 153 181 217 274 326
#     4  11  23  37  56  80 110 146 186 223 267 325
#     4  12  21  36  55  79 113 153 181 217 274 326
#     4  11  20  38  55  81 111 145 185 228 273 327
#     4  11  23  37  56  80 110 146 186 223 267 325
#
# _framework density 17.216327
#
# number of rings (size 3 to 8) (size 9 to 14) (size 15 to 20)
#    0.000    0.750    7.500    0.750    3.500    2.000 
#    0.000    0.000    0.000    0.000    0.000    5.250 
#    0.000    0.000    0.000    0.000    0.000    0.000 
#
# Total GULP energy -793374.983359 kJ/mol
# GULP energy per Si atom -12396.484115 kJ/mol
# Density = 1.717714 g / cm^3
# Si number density = 17.216327 Si / 1000 Ang^3
#
#
#
# Elastic Constant Matrix: (Units=GPa)
#
#
# Indices 1 2 3 4 5 6 
#
# 1 81.5952 39.4733 38.6718 0.0000 0.0000 0.0000
# 2 39.4733 76.6037 40.0941 0.0000 0.0000 0.0000
# 3 38.6718 40.0941 130.1471 0.0000 0.0000 0.0000
# 4 0.0000 0.0000 0.0000 26.8642 0.0000 0.0000
# 5 0.0000 0.0000 0.0000 0.0000 19.5446 0.0000
# 6 0.0000 0.0000 0.0000 0.0000 0.0000 13.3694
#
#
#
# Elastic Compliance Matrix: (Units=1/GPa)
#
#
# Indices 1 2 3 4 5 6 
#
# 1 0.017158 -0.007359 -0.002831 0.000000 0.000000 0.000000
# 2 -0.007359 0.018720 -0.003580 0.000000 0.000000 0.000000
# 3 -0.002831 -0.003580 0.009628 0.000000 0.000000 0.000000
# 4 0.000000 0.000000 0.000000 0.037224 0.000000 0.000000
# 5 0.000000 0.000000 0.000000 0.000000 0.051165 0.000000
# 6 0.000000 0.000000 0.000000 0.000000 0.000000 0.074798
#
#
# Mechanical properties :
#
#
# Convention : Reuss Voigt Hill
#
# Bulk Modulus (GPa) = 55.66622 58.31382 56.99002
# Shear Modulus (GPa) = 20.64216 23.29609 21.96912
#
# Velocity S-wave (km/s) = 3.46640 3.68249 3.57608
# Velocity P-wave (km/s) = 6.95879 7.21289 7.08698
#
# Compressibility (1/GPa) = 0.01796422
#
# Stress axis : x y z
#
# Youngs Moduli (GPa) = 58.28297 53.41751 103.86574
#
# Poissons Ratio (x) = 0.39313 0.29404
# Poissons Ratio (y) = 0.42893 0.37188
# Poissons Ratio (z) = 0.16500 0.19126
#
# Static dielectric constant tensor:
#      x y z
#    x 1.682810 0.000000 0.000000 
#    y 0.000000 3.115310 0.000000 
#    z 0.000000 0.000000 3.364100 
# 
# 
# High freq. dielectric constant tensor:
#      x y z
#    x 1.643460 0.000000 0.000000 
#    y 0.000000 1.650660 0.000000 
#    z 0.000000 0.000000 1.687290 
# 
# From -- ./inp_files/6329.got.cif
#   From: 2010.03.12/outbox.cif.g09.slc.cpg/sg60_4_cif.got.tgz:6329.got - 2010.04.10 18:46:24.
