data_PCOD8248363
_publ_section_title
;
Structure prediction by ZEFSAII (Michael W. Deem and Ramdas Pophale) SiO2 
 PCOD8248363
Probable space group: P B C N
;
_chemical_formula_sum "Si O2"
_cell_formula_units_Z 40
_cell_length_a 9.224758
_cell_length_b 20.916722
_cell_length_c 9.404834
_cell_angle_alpha 90.000000
_cell_angle_beta 90.000000
_cell_angle_gamma 90.000000
_cell_volume 1814.678695
_symmetry_space_group_name_H-M "P B C N"
_symmetry_group_IT_number 60
_symmetry_cell_setting 'orthorhombic'
loop_
_space_group_symop_operation_xyz
x,y,z
1/2-x,1/2-y,1/2+z
1/2+x,1/2-y,-z
-x,y,1/2-z
-x,-y,-z
1/2+x,1/2+y,1/2-z
1/2-x,1/2+y,z
x,-y,1/2+z
loop_
_atom_site_type_symbol
_atom_site_label
_atom_site_fract_x
_atom_site_fract_y
_atom_site_fract_z
Si Si1 0.279778 0.786471 0.673744
Si Si2 0.770451 0.503148 0.509152
Si Si3 0.340626 0.578918 0.227540
Si Si4 0.579446 0.220642 0.037439
Si Si5 0.008655 0.592981 0.594772
O O1 0.267021 0.863373 0.684530
O O2 0.309757 0.761957 0.834376
O O3 0.133767 0.757116 0.604498
O O4 0.414161 0.761375 0.577555
O O5 0.646168 0.527937 0.401712
O O6 0.711825 0.457383 0.631404
O O7 0.884162 0.467111 0.407440
O O8 0.847039 0.567660 0.564752
O O9 0.500000 0.607962 0.250000
O O10 0.572936 0.144587 0.014232
O O11 0.000000 0.624762 0.750000
#
# Coordination Sequence:
#
# PCOD8248363 Si02
#       5
#     8   8   8   8   8
#     4  11  27  46  72 104 141 192 242 300 358 433
#     4  11  23  42  68 109 139 182 229 300 361 429
#     4  12  25  44  70 103 149 187 233 299 371 429
#     4  11  26  46  70 103 142 188 248 295 359 431
#     4  11  22  38  74  99 138 182 238 293 355 426
#
# _framework density 22.042468
#
# number of rings (size 3 to 8) (size 9 to 14) (size 15 to 20)
#    0.000    0.800    6.000    0.600    5.600    0.000 
#    0.000    0.000    0.000    0.000    0.000    0.000 
#    0.000    0.000    0.000    0.000    0.000    0.000 
#
# Total GULP energy -495764.065871 kJ/mol
# GULP energy per Si atom -12394.101647 kJ/mol
# Density = 2.199230 g / cm^3
# Si number density = 22.042468 Si / 1000 Ang^3
#
#
#
# Elastic Constant Matrix: (Units=GPa)
#
#
# Indices 1 2 3 4 5 6 
#
# 1 87.6528 23.6983 51.5095 0.0000 0.0000 0.0000
# 2 23.6983 64.7934 32.8597 0.0000 0.0000 0.0000
# 3 51.5095 32.8597 107.9846 0.0000 0.0000 0.0000
# 4 0.0000 0.0000 0.0000 43.0020 0.0000 0.0000
# 5 0.0000 0.0000 0.0000 0.0000 37.6593 0.0000
# 6 0.0000 0.0000 0.0000 0.0000 0.0000 34.7899
#
#
#
# Elastic Compliance Matrix: (Units=1/GPa)
#
#
# Indices 1 2 3 4 5 6 
#
# 1 0.016153 -0.002365 -0.006985 0.000000 0.000000 0.000000
# 2 -0.002365 0.018597 -0.004531 0.000000 0.000000 0.000000
# 3 -0.006985 -0.004531 0.013971 0.000000 0.000000 0.000000
# 4 0.000000 0.000000 0.000000 0.023255 0.000000 0.000000
# 5 0.000000 0.000000 0.000000 0.000000 0.026554 0.000000
# 6 0.000000 0.000000 0.000000 0.000000 0.000000 0.028744
#
#
# Mechanical properties :
#
#
# Convention : Reuss Voigt Hill
#
# Bulk Modulus (GPa) = 47.71409 52.95178 50.33293
# Shear Modulus (GPa) = 30.85993 33.24779 32.05386
#
# Velocity S-wave (km/s) = 3.74575 3.88796 3.81752
# Velocity P-wave (km/s) = 6.35617 6.65055 6.50502
#
# Compressibility (1/GPa) = 0.02095817
#
# Stress axis : x y z
#
# Youngs Moduli (GPa) = 61.90742 53.77354 71.57526
#
# Poissons Ratio (x) = 0.12720 0.49998
# Poissons Ratio (y) = 0.14644 0.32428
# Poissons Ratio (z) = 0.43245 0.24363
#
# Static dielectric constant tensor:
#      x y z
#    x 3.775250 0.000000 0.000000 
#    y 0.000000 3.625410 0.000000 
#    z 0.000000 0.000000 4.013800 
# 
# 
# High freq. dielectric constant tensor:
#      x y z
#    x 1.857830 0.000000 0.000000 
#    y 0.000000 1.851730 0.000000 
#    z 0.000000 0.000000 1.881890 
# 
# From -- ./inp_files/3790.got.cif
#   From: 2010.03.12/outbox.cif.g09.slc.cpg/sg60_2_cif.got.tgz:3790.got - 2010.04.10 18:46:24.
