data_PCOD8248768
_publ_section_title
;
Structure prediction by ZEFSAII (Michael W. Deem and Ramdas Pophale) SiO2 
 PCOD8248768
Probable space group: P B C A
;
_chemical_formula_sum "Si O2"
_cell_formula_units_Z 48
_cell_length_a 20.586476
_cell_length_b 15.136368
_cell_length_c 7.515970
_cell_angle_alpha 90.000000
_cell_angle_beta 90.000000
_cell_angle_gamma 90.000000
_cell_volume 2342.009898
_symmetry_space_group_name_H-M "P B C A"
_symmetry_group_IT_number 61
_symmetry_cell_setting 'orthorhombic'
loop_
_space_group_symop_operation_xyz
x,y,z
1/2-x,-y,1/2+z
1/2+x,1/2-y,-z
-x,1/2+y,1/2-z
-x,-y,-z
1/2+x,y,1/2-z
1/2-x,1/2+y,z
x,1/2-y,1/2+z
loop_
_atom_site_type_symbol
_atom_site_label
_atom_site_fract_x
_atom_site_fract_y
_atom_site_fract_z
Si Si1 0.894350 0.677550 0.073465
Si Si2 0.818624 0.268021 0.368730
Si Si3 0.379979 0.564514 0.777981
Si Si4 0.391502 0.363945 0.834542
Si Si5 0.778486 0.809571 0.095618
Si Si6 0.961111 0.845596 0.935239
O O1 0.829603 0.729667 0.134227
O O2 0.923756 0.631386 0.250362
O O3 0.881727 0.604901 0.920782
O O4 0.946628 0.745188 0.991035
O O5 0.880844 0.206574 0.324307
O O6 0.838470 0.339889 0.515106
O O7 0.752924 0.209383 0.404412
O O8 0.790159 0.319360 0.200590
O O9 0.376475 0.460023 0.757143
O O10 0.316182 0.598511 0.883404
O O11 0.441069 0.589707 0.902919
O O12 0.462906 0.357581 0.911566
#
# Coordination Sequence:
#
# PCOD8248768 Si02
#       6
#     8   8   8   8   8   8
#     4  11  20  38  72  92 121 168 209 269 306 372
#     4  10  22  40  63  81 131 170 194 259 320 385
#     4  11  23  40  67  96 121 161 220 270 301 376
#     4  11  25  42  58  95 128 167 207 256 330 383
#     4  10  18  40  63  91 116 160 217 246 314 368
#     4  11  21  40  63  95 127 164 207 258 323 381
#
# _framework density 20.495215999999999
#
# number of rings (size 3 to 8) (size 9 to 14) (size 15 to 20)
#    0.000    1.333    5.000    2.500    0.000    2.000 
#    6.000    0.000    0.000    0.000    0.000    0.000 
#    0.000    0.000    0.000    0.000    0.000    0.000 
#
# Total GULP energy -594723.361620 kJ/mol
# GULP energy per Si atom -12390.070034 kJ/mol
# Density = 2.044857 g / cm^3
# Si number density = 20.495216 Si / 1000 Ang^3
#
#
#
# Elastic Constant Matrix: (Units=GPa)
#
#
# Indices 1 2 3 4 5 6 
#
# 1 81.0376 3.2326 18.2192 0.0000 0.0000 0.0000
# 2 3.2326 77.5870 22.3296 0.0000 0.0000 0.0000
# 3 18.2192 22.3296 75.7730 0.0000 0.0000 0.0000
# 4 0.0000 0.0000 0.0000 24.1417 0.0000 0.0000
# 5 0.0000 0.0000 0.0000 0.0000 28.6190 0.0000
# 6 0.0000 0.0000 0.0000 0.0000 0.0000 16.0161
#
#
#
# Elastic Compliance Matrix: (Units=1/GPa)
#
#
# Indices 1 2 3 4 5 6 
#
# 1 0.013056 0.000393 -0.003255 0.000000 0.000000 0.000000
# 2 0.000393 0.014095 -0.004248 0.000000 0.000000 0.000000
# 3 -0.003255 -0.004248 0.015232 0.000000 0.000000 0.000000
# 4 0.000000 0.000000 0.000000 0.041422 0.000000 0.000000
# 5 0.000000 0.000000 0.000000 0.000000 0.034942 0.000000
# 6 0.000000 0.000000 0.000000 0.000000 0.000000 0.062437
#
#
# Mechanical properties :
#
#
# Convention : Reuss Voigt Hill
#
# Bulk Modulus (GPa) = 35.50848 35.77340 35.64094
# Shear Modulus (GPa) = 24.41502 26.46311 25.43906
#
# Velocity S-wave (km/s) = 3.45520 3.59720 3.52692
# Velocity P-wave (km/s) = 5.76895 5.89454 5.83208
#
# Compressibility (1/GPa) = 0.02816228
#
# Stress axis : x y z
#
# Youngs Moduli (GPa) = 76.59265 70.94709 65.65188
#
# Poissons Ratio (x) = -0.02787 0.21370
# Poissons Ratio (y) = -0.03009 0.27890
# Poissons Ratio (z) = 0.24931 0.30139
#
# Static dielectric constant tensor:
#      x y z
#    x 3.743400 0.000000 0.000000 
#    y 0.000000 3.453630 0.000000 
#    z 0.000000 0.000000 4.117060 
# 
# 
# High freq. dielectric constant tensor:
#      x y z
#    x 1.809330 0.000000 0.000000 
#    y 0.000000 1.765320 0.000000 
#    z 0.000000 0.000000 1.815530 
# 
# From -- ./inp_files/3856.got.cif
#   From: 2010.03.12/outbox.cif.g09.slc.cpg/sg61_2_cif.got.tgz:3856.got - 2010.04.10 19:05:03.
