data_PCOD8248929
_publ_section_title
;
Structure prediction by ZEFSAII (Michael W. Deem and Ramdas Pophale) SiO2 
 PCOD8248929
Probable space group: P B C A
;
_chemical_formula_sum "Si O2"
_cell_formula_units_Z 48
_cell_length_a 18.979508
_cell_length_b 9.175462
_cell_length_c 14.763509
_cell_angle_alpha 90.000000
_cell_angle_beta 90.000000
_cell_angle_gamma 90.000000
_cell_volume 2571.002413
_symmetry_space_group_name_H-M "P B C A"
_symmetry_group_IT_number 61
_symmetry_cell_setting 'orthorhombic'
loop_
_space_group_symop_operation_xyz
x,y,z
1/2-x,-y,1/2+z
1/2+x,1/2-y,-z
-x,1/2+y,1/2-z
-x,-y,-z
1/2+x,y,1/2-z
1/2-x,1/2+y,z
x,1/2-y,1/2+z
loop_
_atom_site_type_symbol
_atom_site_label
_atom_site_fract_x
_atom_site_fract_y
_atom_site_fract_z
Si Si1 0.575394 0.173275 0.494240
Si Si2 0.675904 0.332235 0.361521
Si Si3 0.818763 0.175290 0.354116
Si Si4 0.413808 0.336023 0.010499
Si Si5 0.172918 0.178544 0.844433
Si Si6 0.190690 0.845304 0.852106
O O1 0.612765 0.280846 0.424675
O O2 0.493473 0.211931 0.492090
O O3 0.603239 0.202267 0.595923
O O4 0.590346 0.006872 0.465203
O O5 0.747735 0.251539 0.390265
O O6 0.686839 0.504119 0.373487
O O7 0.654262 0.287311 0.259572
O O8 0.885170 0.244212 0.405114
O O9 0.830049 0.209980 0.248057
O O10 0.370079 0.295597 0.920664
O O11 0.234573 0.280710 0.882785
O O12 0.202298 0.016666 0.853414
#
# Coordination Sequence:
#
# PCOD8248929 Si02
#       6
#     8   8   8   8   8   8
#     4  10  21  36  53  76 108 142 173 210 259 310
#     4  10  20  35  55  78 103 133 173 217 259 306
#     4  10  20  35  55  78 103 133 173 217 259 306
#     4  10  21  36  53  76 108 142 173 210 259 310
#     4   9  19  35  54  76 102 134 172 214 259 307
#     4   9  19  35  54  76 102 134 172 214 259 307
#
# _framework density 18.669761000000001
#
# number of rings (size 3 to 8) (size 9 to 14) (size 15 to 20)
#    0.000    2.333    0.000    2.000    0.000    7.333 
#    0.000    0.000    0.000    0.000    0.000    0.000 
#    0.000    0.000    0.000    0.000    0.000    0.000 
#
# Total GULP energy -595396.806954 kJ/mol
# GULP energy per Si atom -12404.100145 kJ/mol
# Density = 1.862727 g / cm^3
# Si number density = 18.669761 Si / 1000 Ang^3
#
#
#
# Elastic Constant Matrix: (Units=GPa)
#
#
# Indices 1 2 3 4 5 6 
#
# 1 54.6619 22.4817 16.4168 0.0000 0.0000 0.0000
# 2 22.4817 58.0698 25.9620 0.0000 0.0000 0.0000
# 3 16.4168 25.9620 60.6656 0.0000 0.0000 0.0000
# 4 0.0000 0.0000 0.0000 22.1523 0.0000 0.0000
# 5 0.0000 0.0000 0.0000 0.0000 23.5676 0.0000
# 6 0.0000 0.0000 0.0000 0.0000 0.0000 30.5693
#
#
#
# Elastic Compliance Matrix: (Units=1/GPa)
#
#
# Indices 1 2 3 4 5 6 
#
# 1 0.022157 -0.007293 -0.002875 0.000000 0.000000 0.000000
# 2 -0.007293 0.023695 -0.008167 0.000000 0.000000 0.000000
# 3 -0.002875 -0.008167 0.020757 0.000000 0.000000 0.000000
# 4 0.000000 0.000000 0.000000 0.045142 0.000000 0.000000
# 5 0.000000 0.000000 0.000000 0.000000 0.042431 0.000000
# 6 0.000000 0.000000 0.000000 0.000000 0.000000 0.032713
#
#
# Mechanical properties :
#
#
# Convention : Reuss Voigt Hill
#
# Bulk Modulus (GPa) = 33.40029 33.67983 33.54006
# Shear Modulus (GPa) = 21.40919 22.49364 21.95142
#
# Velocity S-wave (km/s) = 3.39002 3.47481 3.43268
# Velocity P-wave (km/s) = 5.76644 5.84620 5.80646
#
# Compressibility (1/GPa) = 0.02993986
#
# Stress axis : x y z
#
# Youngs Moduli (GPa) = 45.13217 42.20236 48.17675
#
# Poissons Ratio (x) = 0.30777 0.13851
# Poissons Ratio (y) = 0.32914 0.39346
# Poissons Ratio (z) = 0.12976 0.34467
#
# Static dielectric constant tensor:
#      x y z
#    x 3.371110 0.000000 0.000000 
#    y 0.000000 3.411110 0.000000 
#    z 0.000000 0.000000 3.586470 
# 
# 
# High freq. dielectric constant tensor:
#      x y z
#    x 1.716870 0.000000 0.000000 
#    y 0.000000 1.725170 0.000000 
#    z 0.000000 0.000000 1.733830 
# 
# From -- ./inp_files/2827.got.cif
#   From: 2010.03.12/outbox.cif.g09.slc.cpg/sg61_2_cif.got.tgz:2827.got - 2010.04.10 19:05:03.
