data_PCOD8248927
_publ_section_title
;
Structure prediction by ZEFSAII (Michael W. Deem and Ramdas Pophale) SiO2 
 PCOD8248927
Probable space group: P B C A
;
_chemical_formula_sum "Si O2"
_cell_formula_units_Z 48
_cell_length_a 8.655584
_cell_length_b 14.239860
_cell_length_c 17.379906
_cell_angle_alpha 90.000000
_cell_angle_beta 90.000000
_cell_angle_gamma 90.000000
_cell_volume 2142.148224
_symmetry_space_group_name_H-M "P B C A"
_symmetry_group_IT_number 61
_symmetry_cell_setting 'orthorhombic'
loop_
_space_group_symop_operation_xyz
x,y,z
1/2-x,-y,1/2+z
1/2+x,1/2-y,-z
-x,1/2+y,1/2-z
-x,-y,-z
1/2+x,y,1/2-z
1/2-x,1/2+y,z
x,1/2-y,1/2+z
loop_
_atom_site_type_symbol
_atom_site_label
_atom_site_fract_x
_atom_site_fract_y
_atom_site_fract_z
Si Si1 0.355239 0.409139 0.220142
Si Si2 0.335619 0.702765 0.482487
Si Si3 0.796928 0.005154 0.548267
Si Si4 0.346299 0.850823 0.352150
Si Si5 0.342042 0.159789 0.066378
Si Si6 0.936030 0.489171 0.837909
O O1 0.472196 0.344456 0.170488
O O2 0.267499 0.340596 0.279292
O O3 0.457348 0.490032 0.263775
O O4 0.226039 0.455950 0.166092
O O5 0.253231 0.602801 0.468924
O O6 0.295943 0.769589 0.410235
O O7 0.278668 0.753472 0.562054
O O8 0.518555 0.693237 0.488504
O O9 0.972093 0.016259 0.583103
O O10 0.678234 0.045237 0.611833
O O11 0.771796 0.065225 0.471287
O O12 0.397048 0.124024 0.151677
#
# Coordination Sequence:
#
# PCOD8248927 Si02
#       6
#     8   8   8   8   8   8
#     4   9  18  34  55  77 108 146 181 218 259 314
#     4  10  20  35  54  82 109 134 177 223 268 321
#     4   9  19  37  58  79 108 140 174 225 272 317
#     4   9  19  35  55  79 108 141 178 219 264 312
#     4  10  21  36  57  82 108 140 176 223 276 321
#     4   9  17  33  55  77 105 145 178 212 268 317
#
# _framework density 22.407412999999998
#
# number of rings (size 3 to 8) (size 9 to 14) (size 15 to 20)
#    0.000    2.667    0.000    2.000    0.000    4.000 
#    0.000   18.333    0.000    0.000    0.000    0.000 
#    0.000    0.000    0.000    0.000    0.000    0.000 
#
# Total GULP energy -594682.151498 kJ/mol
# GULP energy per Si atom -12389.211490 kJ/mol
# Density = 2.235641 g / cm^3
# Si number density = 22.407413 Si / 1000 Ang^3
#
#
#
# Elastic Constant Matrix: (Units=GPa)
#
#
# Indices 1 2 3 4 5 6 
#
# 1 83.0793 22.4461 7.3266 0.0000 0.0000 0.0000
# 2 22.4461 118.7060 13.9161 0.0000 0.0000 0.0000
# 3 7.3266 13.9161 30.9954 0.0000 0.0000 0.0000
# 4 0.0000 0.0000 0.0000 29.4894 0.0000 0.0000
# 5 0.0000 0.0000 0.0000 0.0000 26.9567 0.0000
# 6 0.0000 0.0000 0.0000 0.0000 0.0000 27.3063
#
#
#
# Elastic Compliance Matrix: (Units=1/GPa)
#
#
# Indices 1 2 3 4 5 6 
#
# 1 0.012807 -0.002182 -0.002048 0.000000 0.000000 0.000000
# 2 -0.002182 0.009264 -0.003644 0.000000 0.000000 0.000000
# 3 -0.002048 -0.003644 0.034383 0.000000 0.000000 0.000000
# 4 0.000000 0.000000 0.000000 0.033911 0.000000 0.000000
# 5 0.000000 0.000000 0.000000 0.000000 0.037097 0.000000
# 6 0.000000 0.000000 0.000000 0.000000 0.000000 0.036622
#
#
# Mechanical properties :
#
#
# Convention : Reuss Voigt Hill
#
# Bulk Modulus (GPa) = 24.56543 35.57314 30.06928
# Shear Modulus (GPa) = 25.85358 29.35660 27.60509
#
# Velocity S-wave (km/s) = 3.40044 3.62350 3.51374
# Velocity P-wave (km/s) = 5.13850 5.78069 5.46903
#
# Compressibility (1/GPa) = 0.04070761
#
# Stress axis : x y z
#
# Youngs Moduli (GPa) = 78.08424 107.94679 29.08434
#
# Poissons Ratio (x) = 0.23549 0.05956
# Poissons Ratio (y) = 0.17035 0.10597
# Poissons Ratio (z) = 0.15990 0.39331
#
# Static dielectric constant tensor:
#      x y z
#    x 4.055270 0.000000 0.000000 
#    y 0.000000 4.076530 0.000000 
#    z 0.000000 0.000000 3.993940 
# 
# 
# High freq. dielectric constant tensor:
#      x y z
#    x 1.879470 0.000000 0.000000 
#    y 0.000000 1.870000 0.000000 
#    z 0.000000 0.000000 1.866970 
# 
# From -- ./inp_files/2912.got.cif
#   From: 2010.03.12/outbox.cif.g09.slc.cpg/sg61_2_cif.got.tgz:2912.got - 2010.04.10 19:05:03.
