data_PCOD8248371
_publ_section_title
;
Structure prediction by ZEFSAII (Michael W. Deem and Ramdas Pophale) SiO2 
 PCOD8248371
Probable space group: P B C N
;
_chemical_formula_sum "Si O2"
_cell_formula_units_Z 48
_cell_length_a 13.187293
_cell_length_b 8.839400
_cell_length_c 19.116954
_cell_angle_alpha 90.000000
_cell_angle_beta 90.000000
_cell_angle_gamma 90.000000
_cell_volume 2228.420463
_symmetry_space_group_name_H-M "P B C N"
_symmetry_group_IT_number 60
_symmetry_cell_setting 'orthorhombic'
loop_
_space_group_symop_operation_xyz
x,y,z
1/2-x,1/2-y,1/2+z
1/2+x,1/2-y,-z
-x,y,1/2-z
-x,-y,-z
1/2+x,1/2+y,1/2-z
1/2-x,1/2+y,z
x,-y,1/2+z
loop_
_atom_site_type_symbol
_atom_site_label
_atom_site_fract_x
_atom_site_fract_y
_atom_site_fract_z
Si Si1 0.965070 0.269070 0.450431
Si Si2 0.052892 0.919797 0.822437
Si Si3 0.468591 0.224356 0.327744
Si Si4 0.208222 0.899217 0.478016
Si Si5 0.254762 0.153347 0.379231
Si Si6 0.391216 0.909196 0.561447
O O1 0.904972 0.159015 0.504573
O O2 0.897513 0.410462 0.425455
O O3 0.999779 0.170204 0.384948
O O4 0.057116 0.349154 0.490381
O O5 0.171860 0.873223 0.818337
O O6 0.000000 0.875109 0.750000
O O7 0.049346 0.097727 0.837125
O O8 0.500000 0.180635 0.250000
O O9 0.369550 0.125365 0.350425
O O10 0.566214 0.180381 0.372864
O O11 0.248757 0.824539 0.406042
O O12 0.272656 0.873321 0.548977
O O13 0.220469 0.071269 0.452069
#
# Coordination Sequence:
#
# PCOD8248371 Si02
#       6
#     8   8   8   8   8   8
#     4  11  23  40  66  98 127 168 221 275 326 390
#     4  11  26  44  66  96 135 177 224 271 333 405
#     4  11  26  45  66  96 137 179 220 276 331 398
#     4  12  23  39  67 101 131 169 220 276 330 395
#     4  12  22  43  66  95 131 176 215 270 340 390
#     4  11  22  40  64  98 129 164 224 274 324 390
#
# _framework density 21.539919999999999
#
# number of rings (size 3 to 8) (size 9 to 14) (size 15 to 20)
#    0.000    0.667    6.667    1.000    2.333    3.333 
#    0.000    3.333    0.000    0.000    0.000    0.000 
#    0.000    0.000    0.000    0.000    0.000    0.000 
#
# Total GULP energy -594877.232131 kJ/mol
# GULP energy per Si atom -12393.275669 kJ/mol
# Density = 2.149089 g / cm^3
# Si number density = 21.539920 Si / 1000 Ang^3
#
#
#
# Elastic Constant Matrix: (Units=GPa)
#
#
# Indices 1 2 3 4 5 6 
#
# 1 93.5338 26.2325 37.2197 0.0000 0.0000 0.0000
# 2 26.2325 55.8900 39.1222 0.0000 0.0000 0.0000
# 3 37.2197 39.1222 117.1056 0.0000 0.0000 0.0000
# 4 0.0000 0.0000 0.0000 31.6020 0.0000 0.0000
# 5 0.0000 0.0000 0.0000 0.0000 40.1825 0.0000
# 6 0.0000 0.0000 0.0000 0.0000 0.0000 28.8399
#
#
#
# Elastic Compliance Matrix: (Units=1/GPa)
#
#
# Indices 1 2 3 4 5 6 
#
# 1 0.012944 -0.004171 -0.002720 0.000000 0.000000 0.000000
# 2 -0.004171 0.024698 -0.006925 0.000000 0.000000 0.000000
# 3 -0.002720 -0.006925 0.011717 0.000000 0.000000 0.000000
# 4 0.000000 0.000000 0.000000 0.031644 0.000000 0.000000
# 5 0.000000 0.000000 0.000000 0.000000 0.024886 0.000000
# 6 0.000000 0.000000 0.000000 0.000000 0.000000 0.034674
#
#
# Mechanical properties :
#
#
# Convention : Reuss Voigt Hill
#
# Bulk Modulus (GPa) = 46.02899 52.40868 49.21883
# Shear Modulus (GPa) = 28.50011 31.05522 29.77767
#
# Velocity S-wave (km/s) = 3.64143 3.80116 3.72215
# Velocity P-wave (km/s) = 6.25265 6.60673 6.43212
#
# Compressibility (1/GPa) = 0.02172544
#
# Stress axis : x y z
#
# Youngs Moduli (GPa) = 77.25796 40.48990 85.34247
#
# Poissons Ratio (x) = 0.16888 0.23217
# Poissons Ratio (y) = 0.32224 0.59101
# Poissons Ratio (z) = 0.21018 0.28040
#
# Static dielectric constant tensor:
#      x y z
#    x 4.032850 0.000000 0.000000 
#    y 0.000000 3.956270 0.000000 
#    z 0.000000 0.000000 3.682490 
# 
# 
# High freq. dielectric constant tensor:
#      x y z
#    x 1.849420 0.000000 0.000000 
#    y 0.000000 1.859260 0.000000 
#    z 0.000000 0.000000 1.824920 
# 
# From -- ./inp_files/20477.got.cif
#   From: 2010.03.12/outbox.cif.g09.slc.cpg/sg60_11_cif.got.tgz:20477.got - 2010.04.10 18:46:24.
