data_PCOD8248254
_publ_section_title
;
Structure prediction by ZEFSAII (Michael W. Deem and Ramdas Pophale) SiO2 
 PCOD8248254
Probable space group: P B C N
;
_chemical_formula_sum "Si O2"
_cell_formula_units_Z 32
_cell_length_a 18.229337
_cell_length_b 7.130469
_cell_length_c 8.927808
_cell_angle_alpha 90.000000
_cell_angle_beta 90.000000
_cell_angle_gamma 90.000000
_cell_volume 1160.469716
_symmetry_space_group_name_H-M "P B C N"
_symmetry_group_IT_number 60
_symmetry_cell_setting 'orthorhombic'
loop_
_space_group_symop_operation_xyz
x,y,z
1/2-x,1/2-y,1/2+z
1/2+x,1/2-y,-z
-x,y,1/2-z
-x,-y,-z
1/2+x,1/2+y,1/2-z
1/2-x,1/2+y,z
x,-y,1/2+z
loop_
_atom_site_type_symbol
_atom_site_label
_atom_site_fract_x
_atom_site_fract_y
_atom_site_fract_z
Si Si1 0.792635 0.612634 0.204899
Si Si2 0.013830 0.190879 0.081892
Si Si3 0.672304 0.612178 0.459276
Si Si4 0.633590 0.189031 0.498640
O O1 0.718156 0.593168 0.305255
O O2 0.718601 0.284679 0.089233
O O3 0.814792 0.433276 0.106168
O O4 0.857707 0.644494 0.323111
O O5 0.000000 0.139834 0.250000
O O6 0.953673 0.344412 0.028457
O O7 0.099853 0.244513 0.062492
O O8 0.000000 0.000000 0.000000
O O9 0.655561 0.407176 0.525504
#
# Coordination Sequence:
#
# PCOD8248254 Si02
#       4
#     8   8   8   8
#     4  12  32  50  88 127 166 225 288 358 424 519
#     4  10  26  50  84 119 163 223 275 343 428 512
#     4  11  31  54  87 123 175 221 285 349 441 512
#     4  11  31  53  85 123 169 221 288 353 430 514
#
# _framework density 27.575040999999999
#
# number of rings (size 3 to 8) (size 9 to 14) (size 15 to 20)
#    0.000    1.000    0.000    0.000   28.000    3.000 
#    0.000    0.000    0.000    0.000    0.000    0.000 
#    0.000    0.000    0.000    0.000    0.000    0.000 
#
# Total GULP energy -396528.208804 kJ/mol
# GULP energy per Si atom -12391.506525 kJ/mol
# Density = 2.751228 g / cm^3
# Si number density = 27.575041 Si / 1000 Ang^3
#
#
#
# Elastic Constant Matrix: (Units=GPa)
#
#
# Indices 1 2 3 4 5 6 
#
# 1 197.3717 54.7739 87.5870 0.0000 0.0000 0.0000
# 2 54.7739 110.6850 65.4448 0.0000 0.0000 0.0000
# 3 87.5870 65.4448 182.3858 0.0000 0.0000 0.0000
# 4 0.0000 0.0000 0.0000 37.4956 0.0000 0.0000
# 5 0.0000 0.0000 0.0000 0.0000 46.3385 0.0000
# 6 0.0000 0.0000 0.0000 0.0000 0.0000 23.8839
#
#
#
# Elastic Compliance Matrix: (Units=1/GPa)
#
#
# Indices 1 2 3 4 5 6 
#
# 1 0.006709 -0.001796 -0.002577 0.000000 0.000000 0.000000
# 2 -0.001796 0.011948 -0.003425 0.000000 0.000000 0.000000
# 3 -0.002577 -0.003425 0.007950 0.000000 0.000000 0.000000
# 4 0.000000 0.000000 0.000000 0.026670 0.000000 0.000000
# 5 0.000000 0.000000 0.000000 0.000000 0.021580 0.000000
# 6 0.000000 0.000000 0.000000 0.000000 0.000000 0.041869
#
#
# Mechanical properties :
#
#
# Convention : Reuss Voigt Hill
#
# Bulk Modulus (GPa) = 90.82417 100.67266 95.74842
# Shear Modulus (GPa) = 36.76673 40.38607 38.57640
#
# Velocity S-wave (km/s) = 3.65545 3.83115 3.74433
# Velocity P-wave (km/s) = 7.12916 7.49387 7.31379
#
# Compressibility (1/GPa) = 0.01101028
#
# Stress axis : x y z
#
# Youngs Moduli (GPa) = 149.05992 83.69258 125.79390
#
# Poissons Ratio (x) = 0.15031 0.32420
# Poissons Ratio (y) = 0.26772 0.43083
# Poissons Ratio (z) = 0.38417 0.28664
#
# Static dielectric constant tensor:
#      x y z
#    x 7.908960 0.000000 0.000000 
#    y 0.000000 4.985540 0.000000 
#    z 0.000000 0.000000 4.655010 
# 
# 
# High freq. dielectric constant tensor:
#      x y z
#    x 2.146130 0.000000 0.000000 
#    y 0.000000 2.108880 0.000000 
#    z 0.000000 0.000000 2.127760 
# 
# From -- ./inp_files/5483.got.cif
#   From: 2010.03.12/outbox.cif.g09.slc.cpg/sg60_3_cif.got.tgz:5483.got - 2010.04.10 18:46:24.
