data_PCOD8248164
_publ_section_title
;
Structure prediction by ZEFSAII (Michael W. Deem and Ramdas Pophale) SiO2 
 PCOD8248164
Probable space group: P B C N
;
_chemical_formula_sum "Si O2"
_cell_formula_units_Z 60
_cell_length_a 10.885498
_cell_length_b 9.776222
_cell_length_c 25.293244
_cell_angle_alpha 90.000000
_cell_angle_beta 90.000000
_cell_angle_gamma 90.000000
_cell_volume 2691.682872
_symmetry_space_group_name_H-M "P B C N"
_symmetry_group_IT_number 60
_symmetry_cell_setting 'orthorhombic'
loop_
_space_group_symop_operation_xyz
x,y,z
1/2-x,1/2-y,1/2+z
1/2+x,1/2-y,-z
-x,y,1/2-z
-x,-y,-z
1/2+x,1/2+y,1/2-z
1/2-x,1/2+y,z
x,-y,1/2+z
loop_
_atom_site_type_symbol
_atom_site_label
_atom_site_fract_x
_atom_site_fract_y
_atom_site_fract_z
Si Si1 0.615191 0.020547 0.838508
Si Si2 0.409254 0.140971 0.555624
Si Si3 0.450983 0.796212 0.890339
Si Si4 0.728573 0.595016 0.251086
Si Si5 0.500000 0.201178 0.750000
Si Si6 0.834557 0.484901 0.045822
Si Si7 0.886416 0.834027 0.212932
Si Si8 0.919091 0.875456 0.017018
O O1 0.653092 0.121354 0.886660
O O2 0.520227 0.101232 0.800081
O O3 0.555659 0.887554 0.864572
O O4 0.737688 0.966270 0.808891
O O5 0.556505 0.119855 0.560508
O O6 0.383253 0.294471 0.536269
O O7 0.351019 0.034436 0.514473
O O8 0.414544 0.679326 0.848782
O O9 0.500045 0.719129 0.943214
O O10 0.338354 0.890876 0.911487
O O11 0.615453 0.698146 0.247296
O O12 0.843493 0.683407 0.231213
O O13 0.710714 0.458608 0.215873
O O14 0.702552 0.414611 0.049838
O O15 0.000000 0.878017 0.250000
O O16 0.000000 0.000000 0.000000
#
# Coordination Sequence:
#
# PCOD8248164 Si02
#       8
#     8   8   8   8   4   8   8   8
#     4  11  23  48  71 101 147 195 240 301 374 429
#     4   9  22  43  70  96 137 188 230 292 364 431
#     4  10  24  44  73  97 138 191 238 295 365 427
#     4  12  26  44  71 104 147 190 243 304 357 440
#     4  12  26  44  68 110 144 182 248 296 362 442
#     4   9  21  45  67  99 138 179 237 290 357 430
#     4  12  25  46  71 105 148 190 243 300 360 434
#     4  11  25  43  69 108 142 180 245 305 357 439
#
# _framework density 22.290884999999999
#
# number of rings (size 3 to 8) (size 9 to 14) (size 15 to 20)
#    0.000    1.333    3.333    1.600    5.600    3.200 
#    4.800    0.000    0.000    0.000    0.000    0.000 
#    0.000    0.000    0.000    0.000    0.000    0.000 
#
# Total GULP energy -743700.589484 kJ/mol
# GULP energy per Si atom -12395.009825 kJ/mol
# Density = 2.224015 g / cm^3
# Si number density = 22.290885 Si / 1000 Ang^3
#
#
#
# Elastic Constant Matrix: (Units=GPa)
#
#
# Indices 1 2 3 4 5 6 
#
# 1 60.7482 25.0128 13.7242 0.0000 0.0000 0.0000
# 2 25.0128 134.5098 43.3177 0.0000 0.0000 0.0000
# 3 13.7242 43.3177 115.9392 0.0000 0.0000 0.0000
# 4 0.0000 0.0000 0.0000 34.7658 0.0000 0.0000
# 5 0.0000 0.0000 0.0000 0.0000 28.5238 0.0000
# 6 0.0000 0.0000 0.0000 0.0000 0.0000 38.7257
#
#
#
# Elastic Compliance Matrix: (Units=1/GPa)
#
#
# Indices 1 2 3 4 5 6 
#
# 1 0.017927 -0.003013 -0.000996 0.000000 0.000000 0.000000
# 2 -0.003013 0.008958 -0.002990 0.000000 0.000000 0.000000
# 3 -0.000996 -0.002990 0.009860 0.000000 0.000000 0.000000
# 4 0.000000 0.000000 0.000000 0.028764 0.000000 0.000000
# 5 0.000000 0.000000 0.000000 0.000000 0.035058 0.000000
# 6 0.000000 0.000000 0.000000 0.000000 0.000000 0.025823
#
#
# Mechanical properties :
#
#
# Convention : Reuss Voigt Hill
#
# Bulk Modulus (GPa) = 43.96324 52.81186 48.38755
# Shear Modulus (GPa) = 33.79050 35.67925 34.73487
#
# Velocity S-wave (km/s) = 3.89767 4.00512 3.95176
# Velocity P-wave (km/s) = 6.32622 6.71800 6.52505
#
# Compressibility (1/GPa) = 0.02274628
#
# Stress axis : x y z
#
# Youngs Moduli (GPa) = 55.78184 111.63729 101.41623
#
# Poissons Ratio (x) = 0.33633 0.10106
# Poissons Ratio (y) = 0.16805 0.30325
# Poissons Ratio (z) = 0.05558 0.33381
#
# Static dielectric constant tensor:
#      x y z
#    x 3.815770 0.000000 0.000000 
#    y 0.000000 4.826020 0.000000 
#    z 0.000000 0.000000 3.324720 
# 
# 
# High freq. dielectric constant tensor:
#      x y z
#    x 1.851390 0.000000 0.000000 
#    y 0.000000 1.892250 0.000000 
#    z 0.000000 0.000000 1.883860 
# 
# From -- ./inp_files/25356.got.cif
#   From: 2010.03.12/outbox.cif.g09.slc.cpg/sg60_13_cif.got.tgz:25356.got - 2010.04.10 18:46:24.
