data_PCOD8248038
_publ_section_title
;
Structure prediction by ZEFSAII (Michael W. Deem and Ramdas Pophale) SiO2 
 PCOD8248038
Probable space group: P B C N
;
_chemical_formula_sum "Si O2"
_cell_formula_units_Z 64
_cell_length_a 8.630401
_cell_length_b 16.860702
_cell_length_c 20.190694
_cell_angle_alpha 90.000000
_cell_angle_beta 90.000000
_cell_angle_gamma 90.000000
_cell_volume 2938.041153
_symmetry_space_group_name_H-M "P B C N"
_symmetry_group_IT_number 60
_symmetry_cell_setting 'orthorhombic'
loop_
_space_group_symop_operation_xyz
x,y,z
1/2-x,1/2-y,1/2+z
1/2+x,1/2-y,-z
-x,y,1/2-z
-x,-y,-z
1/2+x,1/2+y,1/2-z
1/2-x,1/2+y,z
x,-y,1/2+z
loop_
_atom_site_type_symbol
_atom_site_label
_atom_site_fract_x
_atom_site_fract_y
_atom_site_fract_z
Si Si1 0.831661 0.972012 0.981222
Si Si2 0.340681 0.968380 0.132188
Si Si3 0.614801 0.792024 0.336830
Si Si4 0.629090 0.790703 0.576630
Si Si5 0.267955 0.798295 0.544316
Si Si6 0.289935 0.269573 0.793287
Si Si7 0.155064 0.532629 0.400909
Si Si8 0.818212 0.436830 0.742115
O O1 0.812446 0.884506 0.950158
O O2 0.786308 0.037228 0.925646
O O3 0.728393 0.971636 0.047557
O O4 0.000000 0.000000 0.000000
O O5 0.416892 0.884417 0.149669
O O6 0.470032 0.024651 0.099072
O O7 0.264381 0.008767 0.196908
O O8 0.701583 0.756726 0.398970
O O9 0.721475 0.788477 0.270340
O O10 0.455467 0.744329 0.327963
O O11 0.452071 0.797117 0.554196
O O12 0.728756 0.737406 0.527233
O O13 0.653940 0.756411 0.651859
O O14 0.701656 0.878678 0.577150
O O15 0.281438 0.356889 0.760674
O O16 0.212300 0.514788 0.325991
O O17 0.000000 0.415438 0.750000
#
# Coordination Sequence:
#
# PCOD8248038 Si02
#       8
#     8   8   8   8   8   8   8   8
#     4  12  28  43  68 100 140 180 234 296 350 419
#     4  11  23  46  72  98 137 184 236 279 350 426
#     4  11  26  41  71 105 142 181 231 295 347 423
#     4  11  25  44  71 100 133 186 229 292 349 428
#     4  12  27  44  70  99 141 182 235 285 360 421
#     4  10  24  43  69 102 140 177 231 290 349 413
#     4  10  23  44  70  96 129 179 233 279 344 422
#     4   9  21  41  74  96 131 181 231 277 344 424
#
# _framework density 21.783221000000001
#
# number of rings (size 3 to 8) (size 9 to 14) (size 15 to 20)
#    0.000    1.250    1.250    2.625   19.250    0.000 
#    0.000    0.000    2.750    0.000    0.000    0.000 
#    0.000    0.000    0.000    0.000    0.000    0.000 
#
# Total GULP energy -793443.088041 kJ/mol
# GULP energy per Si atom -12397.548251 kJ/mol
# Density = 2.173364 g / cm^3
# Si number density = 21.783221 Si / 1000 Ang^3
#
#
#
# Elastic Constant Matrix: (Units=GPa)
#
#
# Indices 1 2 3 4 5 6 
#
# 1 74.8582 37.7273 46.5834 0.0000 0.0000 0.0000
# 2 37.7273 81.4227 47.6673 0.0000 0.0000 0.0000
# 3 46.5834 47.6673 147.8518 0.0000 0.0000 0.0000
# 4 0.0000 0.0000 0.0000 45.9971 0.0000 0.0000
# 5 0.0000 0.0000 0.0000 0.0000 29.1559 0.0000
# 6 0.0000 0.0000 0.0000 0.0000 0.0000 28.4220
#
#
#
# Elastic Compliance Matrix: (Units=1/GPa)
#
#
# Indices 1 2 3 4 5 6 
#
# 1 0.019093 -0.006564 -0.003899 0.000000 0.000000 0.000000
# 2 -0.006564 0.017396 -0.003540 0.000000 0.000000 0.000000
# 3 -0.003899 -0.003540 0.009133 0.000000 0.000000 0.000000
# 4 0.000000 0.000000 0.000000 0.021741 0.000000 0.000000
# 5 0.000000 0.000000 0.000000 0.000000 0.034298 0.000000
# 6 0.000000 0.000000 0.000000 0.000000 0.000000 0.035184
#
#
# Mechanical properties :
#
#
# Convention : Reuss Voigt Hill
#
# Bulk Modulus (GPa) = 56.76984 63.12097 59.94541
# Shear Modulus (GPa) = 29.28698 32.19199 30.73948
#
# Velocity S-wave (km/s) = 3.67069 3.84843 3.76061
# Velocity P-wave (km/s) = 6.63951 6.98477 6.81433
#
# Compressibility (1/GPa) = 0.01761499
#
# Stress axis : x y z
#
# Youngs Moduli (GPa) = 52.37425 57.48586 109.48724
#
# Poissons Ratio (x) = 0.37734 0.42694
# Poissons Ratio (y) = 0.34379 0.38761
# Poissons Ratio (z) = 0.20423 0.20351
#
# Static dielectric constant tensor:
#      x y z
#    x 3.734280 0.000000 0.000000 
#    y 0.000000 3.833810 0.000000 
#    z 0.000000 0.000000 4.406570 
# 
# 
# High freq. dielectric constant tensor:
#      x y z
#    x 1.835140 0.000000 0.000000 
#    y 0.000000 1.848640 0.000000 
#    z 0.000000 0.000000 1.886140 
# 
# From -- ./inp_files/22369.got.cif
#   From: 2010.03.12/outbox.cif.g09.slc.cpg/sg60_12_cif.got.tgz:22369.got - 2010.04.10 18:46:24.
