data_PCOD8248993
_publ_section_title
;
Structure prediction by ZEFSAII (Michael W. Deem and Ramdas Pophale) SiO2 
 PCOD8248993
Probable space group: P B C A
;
_chemical_formula_sum "Si O2"
_cell_formula_units_Z 48
_cell_length_a 7.603985
_cell_length_b 13.511261
_cell_length_c 22.171828
_cell_angle_alpha 90.000000
_cell_angle_beta 90.000000
_cell_angle_gamma 90.000000
_cell_volume 2277.920882
_symmetry_space_group_name_H-M "P B C A"
_symmetry_group_IT_number 61
_symmetry_cell_setting 'orthorhombic'
loop_
_space_group_symop_operation_xyz
x,y,z
1/2-x,-y,1/2+z
1/2+x,1/2-y,-z
-x,1/2+y,1/2-z
-x,-y,-z
1/2+x,y,1/2-z
1/2-x,1/2+y,z
x,1/2-y,1/2+z
loop_
_atom_site_type_symbol
_atom_site_label
_atom_site_fract_x
_atom_site_fract_y
_atom_site_fract_z
Si Si1 0.115644 0.686908 0.478489
Si Si2 0.302516 0.749864 0.681496
Si Si3 0.595194 0.429383 0.587172
Si Si4 0.409433 0.763893 0.812208
Si Si5 0.111800 0.650947 0.874993
Si Si6 0.748816 0.341412 0.938737
O O1 0.260527 0.606507 0.460899
O O2 0.107855 0.779178 0.433016
O O3 0.164316 0.734503 0.543197
O O4 0.921246 0.635878 0.481002
O O5 0.365573 0.798074 0.744220
O O6 0.430151 0.659266 0.662765
O O7 0.318322 0.835010 0.630311
O O8 0.101487 0.713594 0.685695
O O9 0.600332 0.360961 0.646366
O O10 0.641773 0.539778 0.604486
O O11 0.401011 0.424557 0.556058
O O12 0.273163 0.680132 0.832165
#
# Coordination Sequence:
#
# PCOD8248993 Si02
#       6
#     8   8   8   8   8   8
#     4  10  20  39  62  83 123 158 194 247 299 347
#     4  10  20  38  60  82 115 158 194 241 298 350
#     4  10  22  39  61  89 115 158 202 242 295 356
#     4  10  20  40  61  81 121 155 193 245 302 349
#     4  10  22  39  59  88 119 156 198 249 293 353
#     4  10  20  37  61  85 116 158 200 241 299 353
#
# _framework density 21.071847000000002
#
# number of rings (size 3 to 8) (size 9 to 14) (size 15 to 20)
#    0.000    2.000    3.333    0.000    0.000    2.000 
#    6.000    0.833    0.000    0.000    0.000    0.000 
#    0.000    0.000    0.000    0.000    0.000    0.000 
#
# Total GULP energy -595096.233955 kJ/mol
# GULP energy per Si atom -12397.838207 kJ/mol
# Density = 2.102389 g / cm^3
# Si number density = 21.071847 Si / 1000 Ang^3
#
#
#
# Elastic Constant Matrix: (Units=GPa)
#
#
# Indices 1 2 3 4 5 6 
#
# 1 146.5721 26.7609 11.6592 0.0000 0.0000 0.0000
# 2 26.7609 80.4553 -4.5565 0.0000 0.0000 0.0000
# 3 11.6592 -4.5565 44.7348 0.0000 0.0000 0.0000
# 4 0.0000 0.0000 0.0000 10.7692 0.0000 0.0000
# 5 0.0000 0.0000 0.0000 0.0000 33.7475 0.0000
# 6 0.0000 0.0000 0.0000 0.0000 0.0000 19.4774
#
#
#
# Elastic Compliance Matrix: (Units=1/GPa)
#
#
# Indices 1 2 3 4 5 6 
#
# 1 0.007476 -0.002612 -0.002214 0.000000 0.000000 0.000000
# 2 -0.002612 0.013414 0.002047 0.000000 0.000000 0.000000
# 3 -0.002214 0.002047 0.023140 0.000000 0.000000 0.000000
# 4 0.000000 0.000000 0.000000 0.092857 0.000000 0.000000
# 5 0.000000 0.000000 0.000000 0.000000 0.029632 0.000000
# 6 0.000000 0.000000 0.000000 0.000000 0.000000 0.051342
#
#
# Mechanical properties :
#
#
# Convention : Reuss Voigt Hill
#
# Bulk Modulus (GPa) = 25.99391 37.72107 31.85749
# Shear Modulus (GPa) = 21.16475 28.65872 24.91174
#
# Velocity S-wave (km/s) = 3.17268 3.69188 3.44209
# Velocity P-wave (km/s) = 5.07778 6.00944 5.56315
#
# Compressibility (1/GPa) = 0.03847056
#
# Stress axis : x y z
#
# Youngs Moduli (GPa) = 133.76837 74.54915 43.21594
#
# Poissons Ratio (x) = 0.19472 0.09570
# Poissons Ratio (y) = 0.34939 -0.08846
# Poissons Ratio (z) = 0.29622 -0.15260
#
# Static dielectric constant tensor:
#      x y z
#    x 4.373400 0.000000 0.000000 
#    y 0.000000 3.178390 0.000000 
#    z 0.000000 0.000000 4.015950 
# 
# 
# High freq. dielectric constant tensor:
#      x y z
#    x 1.856080 0.000000 0.000000 
#    y 0.000000 1.767360 0.000000 
#    z 0.000000 0.000000 1.835760 
# 
# From -- ./inp_files/2269.got.cif
#   From: 2010.03.12/outbox.cif.g09.slc.cpg/sg61_2_cif.got.tgz:2269.got - 2010.04.10 19:05:03.
