data_PCOD8248714
_publ_section_title
;
Structure prediction by ZEFSAII (Michael W. Deem and Ramdas Pophale) SiO2 
 PCOD8248714
Probable space group: P B C A
;
_chemical_formula_sum "Si O2"
_cell_formula_units_Z 48
_cell_length_a 18.492819
_cell_length_b 17.007816
_cell_length_c 8.984015
_cell_angle_alpha 90.000000
_cell_angle_beta 90.000000
_cell_angle_gamma 90.000000
_cell_volume 2825.674524
_symmetry_space_group_name_H-M "P B C A"
_symmetry_group_IT_number 61
_symmetry_cell_setting 'orthorhombic'
loop_
_space_group_symop_operation_xyz
x,y,z
1/2-x,-y,1/2+z
1/2+x,1/2-y,-z
-x,1/2+y,1/2-z
-x,-y,-z
1/2+x,y,1/2-z
1/2-x,1/2+y,z
x,1/2-y,1/2+z
loop_
_atom_site_type_symbol
_atom_site_label
_atom_site_fract_x
_atom_site_fract_y
_atom_site_fract_z
Si Si1 0.386445 0.309679 0.595762
Si Si2 0.945655 0.442253 0.081697
Si Si3 0.014477 0.073614 0.899349
Si Si4 0.337276 0.506184 0.866791
Si Si5 0.799864 0.047467 0.448079
Si Si6 0.408904 0.160981 0.425370
O O1 0.447051 0.356458 0.498345
O O2 0.311913 0.360419 0.595399
O O3 0.367735 0.224571 0.528265
O O4 0.418313 0.302350 0.762041
O O5 0.965522 0.432862 0.252699
O O6 0.864295 0.478090 0.062324
O O7 0.000000 0.500000 0.000000
O O8 0.099673 0.072672 0.862465
O O9 0.987694 0.148446 0.996428
O O10 0.000000 0.000000 0.000000
O O11 0.304622 0.503729 0.701851
O O12 0.365386 0.420894 0.920246
O O13 0.277817 0.535905 0.981332
#
# Coordination Sequence:
#
# PCOD8248714 Si02
#       6
#     8   8   8   8   8   8
#     4   9  20  34  56  78 107 140 187 216 281 327
#     4  10  17  35  54  76 107 139 181 228 261 322
#     4  10  19  31  54  82 106 139 183 227 264 321
#     4  10  20  35  53  84 110 140 187 224 278 324
#     4   9  21  33  54  80 110 145 180 227 275 330
#     4  10  19  35  55  82 104 144 183 226 270 334
#
# _framework density 16.987093000000002
#
# number of rings (size 3 to 8) (size 9 to 14) (size 15 to 20)
#    1.000    1.333    1.667    2.000    4.667    0.000 
#    0.000    0.000    3.667    2.000    0.000    0.000 
#    0.000    0.000    0.000    0.000    0.000    0.000 
#
# Total GULP energy -594637.647978 kJ/mol
# GULP energy per Si atom -12388.284333 kJ/mol
# Density = 1.694843 g / cm^3
# Si number density = 16.987093 Si / 1000 Ang^3
#
#
#
# Elastic Constant Matrix: (Units=GPa)
#
#
# Indices 1 2 3 4 5 6 
#
# 1 88.7861 25.2620 52.3971 0.0000 0.0000 0.0000
# 2 25.2620 58.3216 37.3672 0.0000 0.0000 0.0000
# 3 52.3971 37.3672 148.1898 0.0000 0.0000 0.0000
# 4 0.0000 0.0000 0.0000 29.9528 0.0000 0.0000
# 5 0.0000 0.0000 0.0000 0.0000 37.2008 0.0000
# 6 0.0000 0.0000 0.0000 0.0000 0.0000 15.9736
#
#
#
# Elastic Compliance Matrix: (Units=1/GPa)
#
#
# Indices 1 2 3 4 5 6 
#
# 1 0.014861 -0.003662 -0.004331 0.000000 0.000000 0.000000
# 2 -0.003662 0.021353 -0.004089 0.000000 0.000000 0.000000
# 3 -0.004331 -0.004089 0.009311 0.000000 0.000000 0.000000
# 4 0.000000 0.000000 0.000000 0.033386 0.000000 0.000000
# 5 0.000000 0.000000 0.000000 0.000000 0.026881 0.000000
# 6 0.000000 0.000000 0.000000 0.000000 0.000000 0.062603
#
#
# Mechanical properties :
#
#
# Convention : Reuss Voigt Hill
#
# Bulk Modulus (GPa) = 46.81839 58.37226 52.59532
# Shear Modulus (GPa) = 25.04013 28.64354 26.84184
#
# Velocity S-wave (km/s) = 3.84352 4.11078 3.97940
# Velocity P-wave (km/s) = 6.87880 7.54776 7.22103
#
# Compressibility (1/GPa) = 0.02135913
#
# Stress axis : x y z
#
# Youngs Moduli (GPa) = 67.29025 46.83263 107.40333
#
# Poissons Ratio (x) = 0.17150 0.46518
# Poissons Ratio (y) = 0.24642 0.43922
# Poissons Ratio (z) = 0.29144 0.19152
#
# Static dielectric constant tensor:
#      x y z
#    x 3.215160 0.000000 0.000000 
#    y 0.000000 3.150530 0.000000 
#    z 0.000000 0.000000 3.398780 
# 
# 
# High freq. dielectric constant tensor:
#      x y z
#    x 1.630110 0.000000 0.000000 
#    y 0.000000 1.634050 0.000000 
#    z 0.000000 0.000000 1.677350 
# 
# From -- ./inp_files/4008.got.cif
#   From: 2010.03.12/outbox.cif.g09.slc.cpg/sg61_3_cif.got.tgz:4008.got - 2010.04.10 19:05:03.
