data_PCOD8248256
_publ_section_title
;
Structure prediction by ZEFSAII (Michael W. Deem and Ramdas Pophale) SiO2 
 PCOD8248256
Probable space group: P B C N
;
_chemical_formula_sum "Si O2"
_cell_formula_units_Z 36
_cell_length_a 7.806294
_cell_length_b 21.597284
_cell_length_c 9.198734
_cell_angle_alpha 90.000000
_cell_angle_beta 90.000000
_cell_angle_gamma 90.000000
_cell_volume 1550.858245
_symmetry_space_group_name_H-M "P B C N"
_symmetry_group_IT_number 60
_symmetry_cell_setting 'orthorhombic'
loop_
_space_group_symop_operation_xyz
x,y,z
1/2-x,1/2-y,1/2+z
1/2+x,1/2-y,-z
-x,y,1/2-z
-x,-y,-z
1/2+x,1/2+y,1/2-z
1/2-x,1/2+y,z
x,-y,1/2+z
loop_
_atom_site_type_symbol
_atom_site_label
_atom_site_fract_x
_atom_site_fract_y
_atom_site_fract_z
Si Si1 0.500000 0.219319 0.250000
Si Si2 0.804866 0.038803 0.263103
Si Si3 0.672465 0.066988 0.574157
Si Si4 0.799757 0.684544 0.758169
Si Si5 0.860980 0.373884 0.543918
O O1 0.325150 0.257826 0.262989
O O2 0.501573 0.175149 0.108782
O O3 0.780376 0.049011 0.433424
O O4 0.762432 0.100769 0.170860
O O5 0.000000 0.019016 0.250000
O O6 0.688385 0.983681 0.200912
O O7 0.737669 0.132794 0.636660
O O8 0.472050 0.071009 0.529647
O O9 0.000000 0.705049 0.750000
O O10 0.750692 0.657784 0.917229
#
# Coordination Sequence:
#
# PCOD8248256 Si02
#       5
#     4   8   8   8   8
#     4  12  26  46  76 100 146 192 244 304 356 438
#     4  12  25  41  75 105 148 184 242 302 370 436
#     4  11  24  48  68 108 142 193 235 302 370 437
#     4  10  27  46  74 104 145 188 249 296 365 433
#     4  11  25  47  66 105 139 193 237 299 366 437
#
# _framework density 23.212952000000001
#
# number of rings (size 3 to 8) (size 9 to 14) (size 15 to 20)
#    0.000    0.889    2.222    2.667   10.889    4.444 
#    0.000    0.000    0.000    0.000    0.000    0.000 
#    0.000    0.000    0.000    0.000    0.000    0.000 
#
# Total GULP energy -446446.982016 kJ/mol
# GULP energy per Si atom -12401.305056 kJ/mol
# Density = 2.316012 g / cm^3
# Si number density = 23.212952 Si / 1000 Ang^3
#
#
#
# Elastic Constant Matrix: (Units=GPa)
#
#
# Indices 1 2 3 4 5 6 
#
# 1 94.2914 48.4169 34.9721 0.0000 0.0000 0.0000
# 2 48.4169 96.1573 48.7764 0.0000 0.0000 0.0000
# 3 34.9721 48.7764 145.5614 0.0000 0.0000 0.0000
# 4 0.0000 0.0000 0.0000 32.0443 0.0000 0.0000
# 5 0.0000 0.0000 0.0000 0.0000 25.5959 0.0000
# 6 0.0000 0.0000 0.0000 0.0000 0.0000 32.3997
#
#
#
# Elastic Compliance Matrix: (Units=1/GPa)
#
#
# Indices 1 2 3 4 5 6 
#
# 1 0.014490 -0.006662 -0.001249 0.000000 0.000000 0.000000
# 2 -0.006662 0.015593 -0.003624 0.000000 0.000000 0.000000
# 3 -0.001249 -0.003624 0.008384 0.000000 0.000000 0.000000
# 4 0.000000 0.000000 0.000000 0.031207 0.000000 0.000000
# 5 0.000000 0.000000 0.000000 0.000000 0.039069 0.000000
# 6 0.000000 0.000000 0.000000 0.000000 0.000000 0.030864
#
#
# Mechanical properties :
#
#
# Convention : Reuss Voigt Hill
#
# Bulk Modulus (GPa) = 64.95208 66.70453 65.82831
# Shear Modulus (GPa) = 29.79569 31.59761 30.69665
#
# Velocity S-wave (km/s) = 3.58660 3.69346 3.64042
# Velocity P-wave (km/s) = 6.72259 6.85471 6.78898
#
# Compressibility (1/GPa) = 0.01539597
#
# Stress axis : x y z
#
# Youngs Moduli (GPa) = 69.01525 64.13263 119.26856
#
# Poissons Ratio (x) = 0.42727 0.14893
# Poissons Ratio (y) = 0.45980 0.43227
# Poissons Ratio (z) = 0.08618 0.23244
#
# Static dielectric constant tensor:
#      x y z
#    x 3.804280 0.000000 0.000000 
#    y 0.000000 4.206940 0.000000 
#    z 0.000000 0.000000 4.663330 
# 
# 
# High freq. dielectric constant tensor:
#      x y z
#    x 1.896210 0.000000 0.000000 
#    y 0.000000 1.919450 0.000000 
#    z 0.000000 0.000000 1.945090 
# 
# From -- ./inp_files/3711.got.cif
#   From: 2010.03.12/outbox.cif.g09.slc.cpg/sg60_2_cif.got.tgz:3711.got - 2010.04.10 18:46:24.
