data_PCOD8248161
_publ_section_title
;
Structure prediction by ZEFSAII (Michael W. Deem and Ramdas Pophale) SiO2 
 PCOD8248161
Probable space group: P B C N
;
_chemical_formula_sum "Si O2"
_cell_formula_units_Z 28
_cell_length_a 10.923200
_cell_length_b 10.939309
_cell_length_c 10.453529
_cell_angle_alpha 90.000000
_cell_angle_beta 90.000000
_cell_angle_gamma 90.000000
_cell_volume 1249.115806
_symmetry_space_group_name_H-M "P B C N"
_symmetry_group_IT_number 60
_symmetry_cell_setting 'orthorhombic'
loop_
_space_group_symop_operation_xyz
x,y,z
1/2-x,1/2-y,1/2+z
1/2+x,1/2-y,-z
-x,y,1/2-z
-x,-y,-z
1/2+x,1/2+y,1/2-z
1/2-x,1/2+y,z
x,-y,1/2+z
loop_
_atom_site_type_symbol
_atom_site_label
_atom_site_fract_x
_atom_site_fract_y
_atom_site_fract_z
Si Si1 0.290837 0.164894 0.855216
Si Si2 0.541184 0.437809 0.125084
Si Si3 0.638957 0.217104 0.367346
Si Si4 0.000000 0.498477 0.250000
O O1 0.186427 0.065079 0.878050
O O2 0.245385 0.251808 0.737716
O O3 0.415537 0.092807 0.830670
O O4 0.304921 0.235033 0.990600
O O5 0.500000 0.516577 0.250000
O O6 0.477673 0.305673 0.140288
O O7 0.500000 0.500000 0.000000
O O8 0.586040 0.080889 0.342277
#
# Coordination Sequence:
#
# PCOD8248161 Si02
#       4
#     8   8   8   4
#     4  11  27  43  77 100 146 191 238 301 366 436
#     4  10  24  44  69 104 140 183 235 299 358 435
#     4  11  26  49  69 109 145 182 247 299 361 442
#     4  12  26  48  72 108 148 196 244 300 370 438
#
# _framework density 22.415854
#
# number of rings (size 3 to 8) (size 9 to 14) (size 15 to 20)
#    0.000    1.143    4.286    0.857   16.000    0.000 
#    0.000    0.000    0.000    0.000    0.000    0.000 
#    0.000    0.000    0.000    0.000    0.000    0.000 
#
# Total GULP energy -346949.025377 kJ/mol
# GULP energy per Si atom -12391.036621 kJ/mol
# Density = 2.236483 g / cm^3
# Si number density = 22.415854 Si / 1000 Ang^3
#
#
#
# Elastic Constant Matrix: (Units=GPa)
#
#
# Indices 1 2 3 4 5 6 
#
# 1 128.5853 35.1754 75.9875 0.0000 0.0000 0.0000
# 2 35.1754 65.6471 58.0940 0.0000 0.0000 0.0000
# 3 75.9875 58.0940 227.1455 0.0000 0.0000 0.0000
# 4 0.0000 0.0000 0.0000 192.0045 0.0000 0.0000
# 5 0.0000 0.0000 0.0000 0.0000 44.4273 0.0000
# 6 0.0000 0.0000 0.0000 0.0000 0.0000 32.6583
#
#
#
# Elastic Compliance Matrix: (Units=1/GPa)
#
#
# Indices 1 2 3 4 5 6 
#
# 1 0.010174 -0.003153 -0.002597 0.000000 0.000000 0.000000
# 2 -0.003153 0.020667 -0.004231 0.000000 0.000000 0.000000
# 3 -0.002597 -0.004231 0.006353 0.000000 0.000000 0.000000
# 4 0.000000 0.000000 0.000000 0.005208 0.000000 0.000000
# 5 0.000000 0.000000 0.000000 0.000000 0.022509 0.000000
# 6 0.000000 0.000000 0.000000 0.000000 0.000000 0.030620
#
#
# Mechanical properties :
#
#
# Convention : Reuss Voigt Hill
#
# Bulk Modulus (GPa) = 58.03225 84.43242 71.23234
# Shear Modulus (GPa) = 41.24133 70.62607 55.93370
#
# Velocity S-wave (km/s) = 4.29398 5.61922 5.00069
# Velocity P-wave (km/s) = 7.10841 8.93582 8.07398
#
# Compressibility (1/GPa) = 0.01723180
#
# Stress axis : x y z
#
# Youngs Moduli (GPa) = 98.28640 48.38737 157.39770
#
# Poissons Ratio (x) = 0.15258 0.40879
# Poissons Ratio (y) = 0.30993 0.66591
# Poissons Ratio (z) = 0.25527 0.20471
#
# Static dielectric constant tensor:
#      x y z
#    x 4.117600 0.000000 0.000000 
#    y 0.000000 3.866220 0.000000 
#    z 0.000000 0.000000 4.921610 
# 
# 
# High freq. dielectric constant tensor:
#      x y z
#    x 1.896120 0.000000 0.000000 
#    y 0.000000 1.853930 0.000000 
#    z 0.000000 0.000000 1.912100 
# 
# From -- ./inp_files/10532.got.cif
#   From: 2010.03.12/outbox.cif.g09.slc.cpg/sg60_6_cif.got.tgz:10532.got - 2010.04.10 18:46:24.
