data_PCOD8248487
_publ_section_title
;
Structure prediction by ZEFSAII (Michael W. Deem and Ramdas Pophale) SiO2 
 PCOD8248487
Probable space group: P B C N
;
_chemical_formula_sum "Si O2"
_cell_formula_units_Z 48
_cell_length_a 12.035333
_cell_length_b 10.050234
_cell_length_c 17.871680
_cell_angle_alpha 90.000000
_cell_angle_beta 90.000000
_cell_angle_gamma 90.000000
_cell_volume 2161.721113
_symmetry_space_group_name_H-M "P B C N"
_symmetry_group_IT_number 60
_symmetry_cell_setting 'orthorhombic'
loop_
_space_group_symop_operation_xyz
x,y,z
1/2-x,1/2-y,1/2+z
1/2+x,1/2-y,-z
-x,y,1/2-z
-x,-y,-z
1/2+x,1/2+y,1/2-z
1/2-x,1/2+y,z
x,-y,1/2+z
loop_
_atom_site_type_symbol
_atom_site_label
_atom_site_fract_x
_atom_site_fract_y
_atom_site_fract_z
Si Si1 0.454062 0.652323 0.102999
Si Si2 0.500000 0.503831 0.250000
Si Si3 0.323043 0.293987 0.288309
Si Si4 0.000000 0.572826 0.250000
Si Si5 0.700182 0.272367 0.560259
Si Si6 0.842787 0.396798 0.338101
Si Si7 0.734211 0.472942 0.970757
O O1 0.445101 0.592350 0.186178
O O2 0.578149 0.685378 0.082238
O O3 0.381298 0.785289 0.103960
O O4 0.397531 0.560562 0.038592
O O5 0.407268 0.416662 0.291817
O O6 0.392987 0.160124 0.272828
O O7 0.268748 0.277484 0.368814
O O8 0.227952 0.327410 0.228100
O O9 0.045871 0.473806 0.186955
O O10 0.756622 0.402527 0.524628
O O11 0.695845 0.152065 0.501280
O O12 0.770098 0.500194 0.385336
#
# Coordination Sequence:
#
# PCOD8248487 Si02
#       7
#     8   4   8   4   8   8   8
#     4  12  25  46  74 105 143 198 249 298 378 445
#     4  11  23  46  80 106 141 195 254 306 366 444
#     4  11  26  46  73 110 145 191 253 310 372 445
#     4  11  27  42  76 106 143 191 256 314 368 446
#     4  12  28  45  76 109 151 194 248 305 373 449
#     4  12  25  48  74 104 148 194 249 307 375 437
#     4  12  27  49  72 106 152 195 237 314 375 448
#
# _framework density 22.204529999999998
#
# number of rings (size 3 to 8) (size 9 to 14) (size 15 to 20)
#    0.000    0.333    3.333    5.000    7.000    2.000 
#    0.000    0.000    0.000    0.000    0.000    0.000 
#    0.000    0.000    0.000    0.000    0.000    0.000 
#
# Total GULP energy -595221.684935 kJ/mol
# GULP energy per Si atom -12400.451769 kJ/mol
# Density = 2.215399 g / cm^3
# Si number density = 22.204530 Si / 1000 Ang^3
#
#
#
# Elastic Constant Matrix: (Units=GPa)
#
#
# Indices 1 2 3 4 5 6 
#
# 1 98.4727 42.2791 48.3808 0.0000 0.0000 0.0000
# 2 42.2791 128.0969 51.6189 0.0000 0.0000 0.0000
# 3 48.3808 51.6189 115.5647 0.0000 0.0000 0.0000
# 4 0.0000 0.0000 0.0000 26.4710 0.0000 0.0000
# 5 0.0000 0.0000 0.0000 0.0000 40.2614 0.0000
# 6 0.0000 0.0000 0.0000 0.0000 0.0000 27.3208
#
#
#
# Elastic Compliance Matrix: (Units=1/GPa)
#
#
# Indices 1 2 3 4 5 6 
#
# 1 0.013486 -0.002654 -0.004461 0.000000 0.000000 0.000000
# 2 -0.002654 0.010042 -0.003375 0.000000 0.000000 0.000000
# 3 -0.004461 -0.003375 0.012028 0.000000 0.000000 0.000000
# 4 0.000000 0.000000 0.000000 0.037777 0.000000 0.000000
# 5 0.000000 0.000000 0.000000 0.000000 0.024838 0.000000
# 6 0.000000 0.000000 0.000000 0.000000 0.000000 0.036602
#
#
# Mechanical properties :
#
#
# Convention : Reuss Voigt Hill
#
# Bulk Modulus (GPa) = 68.59420 69.63245 69.11332
# Shear Modulus (GPa) = 31.13123 32.13433 31.63278
#
# Velocity S-wave (km/s) = 3.74842 3.80833 3.77849
# Velocity P-wave (km/s) = 7.04934 7.12499 7.08727
#
# Compressibility (1/GPa) = 0.01457849
#
# Stress axis : x y z
#
# Youngs Moduli (GPa) = 74.15112 99.57871 83.14015
#
# Poissons Ratio (x) = 0.26425 0.37085
# Poissons Ratio (y) = 0.19677 0.28057
# Poissons Ratio (z) = 0.33076 0.33604
#
# Static dielectric constant tensor:
#      x y z
#    x 4.289410 0.000000 0.000000 
#    y 0.000000 4.351310 0.000000 
#    z 0.000000 0.000000 11.199870 
# 
# 
# High freq. dielectric constant tensor:
#      x y z
#    x 1.881750 0.000000 0.000000 
#    y 0.000000 1.896470 0.000000 
#    z 0.000000 0.000000 1.873880 
# 
# From -- ./inp_files/20040.got.cif
#   From: 2010.03.12/outbox.cif.g09.slc.cpg/sg60_11_cif.got.tgz:20040.got - 2010.04.10 18:46:24.
