data_PCOD8248151
_publ_section_title
;
Structure prediction by ZEFSAII (Michael W. Deem and Ramdas Pophale) SiO2 
 PCOD8248151
Probable space group: P B C N
;
_chemical_formula_sum "Si O2"
_cell_formula_units_Z 60
_cell_length_a 18.942547
_cell_length_b 8.510266
_cell_length_c 16.355707
_cell_angle_alpha 90.000000
_cell_angle_beta 90.000000
_cell_angle_gamma 90.000000
_cell_volume 2636.639962
_symmetry_space_group_name_H-M "P B C N"
_symmetry_group_IT_number 60
_symmetry_cell_setting 'orthorhombic'
loop_
_space_group_symop_operation_xyz
x,y,z
1/2-x,1/2-y,1/2+z
1/2+x,1/2-y,-z
-x,y,1/2-z
-x,-y,-z
1/2+x,1/2+y,1/2-z
1/2-x,1/2+y,z
x,-y,1/2+z
loop_
_atom_site_type_symbol
_atom_site_label
_atom_site_fract_x
_atom_site_fract_y
_atom_site_fract_z
Si Si1 0.806991 0.544582 0.536086
Si Si2 0.389241 0.189936 0.665986
Si Si3 0.546370 0.656570 0.626180
Si Si4 0.837301 0.811188 0.999105
Si Si5 0.222262 0.448095 0.282833
Si Si6 0.345972 0.259878 0.248543
Si Si7 0.500000 0.398651 0.750000
Si Si8 0.085416 0.640913 0.095030
O O1 0.732243 0.581340 0.493128
O O2 0.817235 0.358152 0.535191
O O3 0.804592 0.609256 0.628419
O O4 0.872831 0.627418 0.490445
O O5 0.369651 0.301650 0.590860
O O6 0.317957 0.141253 0.710981
O O7 0.435270 0.285367 0.730362
O O8 0.428400 0.031360 0.634128
O O9 0.603958 0.608807 0.557859
O O10 0.582714 0.756845 0.698814
O O11 0.514237 0.501666 0.668658
O O12 0.488410 0.768313 0.582563
O O13 0.306319 0.423182 0.268952
O O14 0.211518 0.632785 0.275416
O O15 0.366168 0.247046 0.154086
#
# Coordination Sequence:
#
# PCOD8248151 Si02
#       8
#     8   8   8   8   8   8   4   8
#     4  11  22  42  67 102 130 179 219 281 326 403
#     4  10  27  44  66 100 133 177 227 279 337 405
#     4  12  24  43  69  96 135 179 223 276 342 403
#     4  11  25  46  68 100 137 174 227 274 344 400
#     4  11  22  39  69  97 129 174 222 279 331 398
#     4  11  22  41  64  95 130 173 220 273 334 394
#     4  12  28  42  68  96 132 178 224 292 334 400
#     4  10  24  43  69  93 138 180 222 274 342 406
#
# _framework density 22.756236000000001
#
# number of rings (size 3 to 8) (size 9 to 14) (size 15 to 20)
#    0.000    1.067    4.000    0.800    5.600    5.867 
#    0.000    0.000    0.000    0.000    0.000    0.000 
#    0.000    0.000    0.000    0.000    0.000    0.000 
#
# Total GULP energy -744121.976791 kJ/mol
# GULP energy per Si atom -12402.032947 kJ/mol
# Density = 2.270444 g / cm^3
# Si number density = 22.756236 Si / 1000 Ang^3
#
#
#
# Elastic Constant Matrix: (Units=GPa)
#
#
# Indices 1 2 3 4 5 6 
#
# 1 99.3016 30.5224 -0.5195 0.0000 0.0000 0.0000
# 2 30.5224 44.9399 -1.2487 0.0000 0.0000 0.0000
# 3 -0.5195 -1.2487 69.7037 0.0000 0.0000 0.0000
# 4 0.0000 0.0000 0.0000 24.5665 0.0000 0.0000
# 5 0.0000 0.0000 0.0000 0.0000 39.2177 0.0000
# 6 0.0000 0.0000 0.0000 0.0000 0.0000 38.3816
#
#
#
# Elastic Compliance Matrix: (Units=1/GPa)
#
#
# Indices 1 2 3 4 5 6 
#
# 1 0.012728 -0.008646 -0.000060 0.000000 0.000000 0.000000
# 2 -0.008646 0.028136 0.000440 0.000000 0.000000 0.000000
# 3 -0.000060 0.000440 0.014354 0.000000 0.000000 0.000000
# 4 0.000000 0.000000 0.000000 0.040706 0.000000 0.000000
# 5 0.000000 0.000000 0.000000 0.000000 0.025499 0.000000
# 6 0.000000 0.000000 0.000000 0.000000 0.000000 0.026054
#
#
# Mechanical properties :
#
#
# Convention : Reuss Voigt Hill
#
# Bulk Modulus (GPa) = 25.84986 30.16152 28.00569
# Shear Modulus (GPa) = 28.26389 32.77925 30.52157
#
# Velocity S-wave (km/s) = 3.52807 3.79945 3.66627
# Velocity P-wave (km/s) = 5.28965 5.70357 5.50051
#
# Compressibility (1/GPa) = 0.03868493
#
# Stress axis : x y z
#
# Youngs Moduli (GPa) = 78.56975 35.54118 69.66768
#
# Poissons Ratio (x) = 0.30729 0.00418
# Poissons Ratio (y) = 0.67931 -0.03063
# Poissons Ratio (z) = 0.00472 -0.01562
#
# Static dielectric constant tensor:
#      x y z
#    x 4.097490 0.000000 0.000000 
#    y 0.000000 4.029470 0.000000 
#    z 0.000000 0.000000 4.154390 
# 
# 
# High freq. dielectric constant tensor:
#      x y z
#    x 1.901630 0.000000 0.000000 
#    y 0.000000 1.887010 0.000000 
#    z 0.000000 0.000000 1.905860 
# 
# From -- ./inp_files/20899.got.cif
#   From: 2010.03.12/outbox.cif.g09.slc.cpg/sg60_11_cif.got.tgz:20899.got - 2010.04.10 18:46:24.
