data_PCOD8248320
_publ_section_title
;
Structure prediction by ZEFSAII (Michael W. Deem and Ramdas Pophale) SiO2 
 PCOD8248320
Probable space group: P B C N
;
_chemical_formula_sum "Si O2"
_cell_formula_units_Z 40
_cell_length_a 22.375429
_cell_length_b 9.368780
_cell_length_c 8.806878
_cell_angle_alpha 90.000000
_cell_angle_beta 90.000000
_cell_angle_gamma 90.000000
_cell_volume 1846.189989
_symmetry_space_group_name_H-M "P B C N"
_symmetry_group_IT_number 60
_symmetry_cell_setting 'orthorhombic'
loop_
_space_group_symop_operation_xyz
x,y,z
1/2-x,1/2-y,1/2+z
1/2+x,1/2-y,-z
-x,y,1/2-z
-x,-y,-z
1/2+x,1/2+y,1/2-z
1/2-x,1/2+y,z
x,-y,1/2+z
loop_
_atom_site_type_symbol
_atom_site_label
_atom_site_fract_x
_atom_site_fract_y
_atom_site_fract_z
Si Si1 0.459139 0.085991 0.386450
Si Si2 0.351540 0.888664 0.386537
Si Si3 0.288933 0.121583 0.573889
Si Si4 0.647442 0.380395 0.426223
Si Si5 0.873506 0.828476 0.077616
O O1 0.500000 0.140739 0.250000
O O2 0.428821 0.224127 0.465287
O O3 0.500000 0.000000 0.500000
O O4 0.407027 0.981482 0.324920
O O5 0.308927 0.851099 0.246234
O O6 0.376268 0.745069 0.464568
O O7 0.314441 0.971779 0.515044
O O8 0.218420 0.113789 0.563691
O O9 0.311548 0.251934 0.469304
O O10 0.618258 0.526449 0.485035
O O11 0.625667 0.355752 0.256410
#
# Coordination Sequence:
#
# PCOD8248320 Si02
#       5
#     8   8   8   8   8
#     4  11  23  45  67  85 115 161 214 268 311 361
#     4  11  23  39  64  94 123 166 217 252 302 377
#     4  11  21  38  61  93 132 173 203 243 307 380
#     4  12  22  39  61  95 136 164 197 257 312 374
#     4  11  25  39  61  95 127 166 212 252 310 376
#
# _framework density 21.666243000000001
#
# number of rings (size 3 to 8) (size 9 to 14) (size 15 to 20)
#    0.000    0.800    0.000   10.800    0.000    0.000 
#    0.000    5.000    0.000    0.000    0.000    0.000 
#    0.000    0.000    0.000    0.000    0.000    0.000 
#
# Total GULP energy -496244.234881 kJ/mol
# GULP energy per Si atom -12406.105872 kJ/mol
# Density = 2.161693 g / cm^3
# Si number density = 21.666243 Si / 1000 Ang^3
#
#
#
# Elastic Constant Matrix: (Units=GPa)
#
#
# Indices 1 2 3 4 5 6 
#
# 1 73.1407 29.5675 14.4400 0.0000 0.0000 0.0000
# 2 29.5675 161.8093 51.1424 0.0000 0.0000 0.0000
# 3 14.4400 51.1424 126.1436 0.0000 0.0000 0.0000
# 4 0.0000 0.0000 0.0000 45.1164 0.0000 0.0000
# 5 0.0000 0.0000 0.0000 0.0000 37.2240 0.0000
# 6 0.0000 0.0000 0.0000 0.0000 0.0000 22.2274
#
#
#
# Elastic Compliance Matrix: (Units=1/GPa)
#
#
# Indices 1 2 3 4 5 6 
#
# 1 0.014814 -0.002490 -0.000686 0.000000 0.000000 0.000000
# 2 -0.002490 0.007507 -0.002759 0.000000 0.000000 0.000000
# 3 -0.000686 -0.002759 0.009124 0.000000 0.000000 0.000000
# 4 0.000000 0.000000 0.000000 0.022165 0.000000 0.000000
# 5 0.000000 0.000000 0.000000 0.000000 0.026864 0.000000
# 6 0.000000 0.000000 0.000000 0.000000 0.000000 0.044989
#
#
# Mechanical properties :
#
#
# Convention : Reuss Voigt Hill
#
# Bulk Modulus (GPa) = 51.08295 61.26593 56.17444
# Shear Modulus (GPa) = 34.75607 38.64315 36.69961
#
# Velocity S-wave (km/s) = 4.00954 4.22781 4.12012
# Velocity P-wave (km/s) = 6.71294 7.22295 6.97261
#
# Compressibility (1/GPa) = 0.01957600
#
# Stress axis : x y z
#
# Youngs Moduli (GPa) = 67.50176 133.20884 109.59608
#
# Poissons Ratio (x) = 0.33171 0.07521
# Poissons Ratio (y) = 0.16809 0.30232
# Poissons Ratio (z) = 0.04632 0.36746
#
# Static dielectric constant tensor:
#      x y z
#    x 3.872650 0.000000 0.000000 
#    y 0.000000 4.165470 0.000000 
#    z 0.000000 0.000000 3.638190 
# 
# 
# High freq. dielectric constant tensor:
#      x y z
#    x 1.840460 0.000000 0.000000 
#    y 0.000000 1.861870 0.000000 
#    z 0.000000 0.000000 1.858490 
# 
# From -- ./inp_files/7719.got.cif
#   From: 2010.03.12/outbox.cif.g09.slc.cpg/sg60_4_cif.got.tgz:7719.got - 2010.04.10 18:46:24.
