data_PCOD8248760
_publ_section_title
;
Structure prediction by ZEFSAII (Michael W. Deem and Ramdas Pophale) SiO2 
 PCOD8248760
Probable space group: P B C A
;
_chemical_formula_sum "Si O2"
_cell_formula_units_Z 56
_cell_length_a 9.027304
_cell_length_b 19.066768
_cell_length_c 15.640999
_cell_angle_alpha 90.000000
_cell_angle_beta 90.000000
_cell_angle_gamma 90.000000
_cell_volume 2692.152382
_symmetry_space_group_name_H-M "P B C A"
_symmetry_group_IT_number 61
_symmetry_cell_setting 'orthorhombic'
loop_
_space_group_symop_operation_xyz
x,y,z
1/2-x,-y,1/2+z
1/2+x,1/2-y,-z
-x,1/2+y,1/2-z
-x,-y,-z
1/2+x,y,1/2-z
1/2-x,1/2+y,z
x,1/2-y,1/2+z
loop_
_atom_site_type_symbol
_atom_site_label
_atom_site_fract_x
_atom_site_fract_y
_atom_site_fract_z
Si Si1 0.876577 0.903462 0.984076
Si Si2 0.084697 0.629804 0.766319
Si Si3 0.806300 0.117622 0.332759
Si Si4 0.668809 0.465810 0.282888
Si Si5 0.661989 0.531093 0.096433
Si Si6 0.354955 0.693489 0.860503
Si Si7 0.357063 0.849806 0.837788
O O1 0.762923 0.860606 0.923528
O O2 0.017586 0.923516 0.926492
O O3 0.916972 0.849116 0.058753
O O4 0.804268 0.974488 0.022765
O O5 0.192682 0.586158 0.703742
O O6 0.189434 0.669095 0.834104
O O7 0.979831 0.573468 0.815408
O O8 0.977470 0.682756 0.714382
O O9 0.718693 0.151786 0.254698
O O10 0.971657 0.141112 0.321585
O O11 0.795487 0.033551 0.337458
O O12 0.641117 0.487596 0.183885
O O13 0.795609 0.586905 0.104077
O O14 0.336798 0.775069 0.883801
#
# Coordination Sequence:
#
# PCOD8248760 Si02
#       7
#     8   8   8   8   8   8   8
#     4  11  23  40  65  98 127 164 213 279 330 365
#     4  10  19  36  60  89 119 165 210 256 308 385
#     4  11  23  38  69  91 126 162 217 263 319 380
#     4  10  18  36  63  93 116 161 211 264 310 384
#     4  10  21  41  65  91 129 165 212 268 330 375
#     4  11  24  41  64  90 131 170 217 259 325 393
#     4  11  24  44  62  92 128 178 212 253 322 409
#
# _framework density 20.801200999999999
#
# number of rings (size 3 to 8) (size 9 to 14) (size 15 to 20)
#    0.000    1.429    2.857    5.143    2.000    1.714 
#    0.000    0.000    0.000    0.000    0.000    0.000 
#    0.000    0.000    0.000    0.000    0.000    0.000 
#
# Total GULP energy -694245.424900 kJ/mol
# GULP energy per Si atom -12397.239730 kJ/mol
# Density = 2.075386 g / cm^3
# Si number density = 20.801201 Si / 1000 Ang^3
#
#
#
# Elastic Constant Matrix: (Units=GPa)
#
#
# Indices 1 2 3 4 5 6 
#
# 1 124.8820 29.2077 29.8071 0.0000 0.0000 0.0000
# 2 29.2077 101.1977 13.7427 0.0000 0.0000 0.0000
# 3 29.8071 13.7427 72.2685 0.0000 0.0000 0.0000
# 4 0.0000 0.0000 0.0000 19.0502 0.0000 0.0000
# 5 0.0000 0.0000 0.0000 0.0000 -33.3476 0.0000
# 6 0.0000 0.0000 0.0000 0.0000 0.0000 -217.9581
#
#
#
# Elastic Compliance Matrix: (Units=1/GPa)
#
#
# Indices 1 2 3 4 5 6 
#
# 1 0.009349 -0.002232 -0.003431 0.000000 0.000000 0.000000
# 2 -0.002232 0.010677 -0.001110 0.000000 0.000000 0.000000
# 3 -0.003431 -0.001110 0.015464 0.000000 0.000000 0.000000
# 4 0.000000 0.000000 0.000000 0.052493 0.000000 0.000000
# 5 0.000000 0.000000 0.000000 0.000000 -0.029987 0.000000
# 6 0.000000 0.000000 0.000000 0.000000 0.000000 -0.004588
#
#
# Mechanical properties :
#
#
# Convention : Reuss Voigt Hill
#
# Bulk Modulus (GPa) = 45.57381 49.31814 47.44598
# Shear Modulus (GPa) = 67.32480 -31.41172 17.95654
#
# Velocity S-wave (km/s) = 5.69527 -3.89021 2.94129
# Velocity P-wave (km/s) = 8.07496 1.89274 5.86461
#
# Compressibility (1/GPa) = 0.02194243
#
# Stress axis : x y z
#
# Youngs Moduli (GPa) = 106.96745 93.66278 64.66822
#
# Poissons Ratio (x) = 0.20908 0.22190
# Poissons Ratio (y) = 0.23878 0.07176
# Poissons Ratio (z) = 0.36704 0.10393
#
# Static dielectric constant tensor:
#      x y z
#    x 3.750150 0.000000 0.000000 
#    y 0.000000 3.701780 0.000000 
#    z 0.000000 0.000000 3.518370 
# 
# 
# High freq. dielectric constant tensor:
#      x y z
#    x 1.824740 0.000000 0.000000 
#    y 0.000000 1.817310 0.000000 
#    z 0.000000 0.000000 1.788110 
# 
# From -- ./inp_files/7155.got.cif
#   From: 2010.03.12/outbox.cif.g09.slc.cpg/sg61_4_cif.got.tgz:7155.got - 2010.04.10 19:05:03.
