data_PCOD8248652
_publ_section_title
;
Structure prediction by ZEFSAII (Michael W. Deem and Ramdas Pophale) SiO2 
 PCOD8248652
Probable space group: P B C N
;
_chemical_formula_sum "Si O2"
_cell_formula_units_Z 40
_cell_length_a 22.394469
_cell_length_b 8.250867
_cell_length_c 9.888946
_cell_angle_alpha 90.000000
_cell_angle_beta 90.000000
_cell_angle_gamma 90.000000
_cell_volume 1827.217985
_symmetry_space_group_name_H-M "P B C N"
_symmetry_group_IT_number 60
_symmetry_cell_setting 'orthorhombic'
loop_
_space_group_symop_operation_xyz
x,y,z
1/2-x,1/2-y,1/2+z
1/2+x,1/2-y,-z
-x,y,1/2-z
-x,-y,-z
1/2+x,1/2+y,1/2-z
1/2-x,1/2+y,z
x,-y,1/2+z
loop_
_atom_site_type_symbol
_atom_site_label
_atom_site_fract_x
_atom_site_fract_y
_atom_site_fract_z
Si Si1 0.120872 0.313694 0.485642
Si Si2 0.301207 0.683537 0.254896
Si Si3 0.671195 0.686975 0.747171
Si Si4 0.121792 0.311738 0.020520
Si Si5 0.000095 0.152954 0.403394
O O1 0.174680 0.233279 0.401834
O O2 0.126481 0.257036 0.640297
O O3 0.124420 0.505475 0.469424
O O4 0.057862 0.261004 0.426621
O O5 0.230459 0.704968 0.255058
O O6 0.314974 0.498374 0.219892
O O7 0.330797 0.794657 0.140764
O O8 0.638363 0.694477 0.603340
O O9 0.056506 0.267206 0.072995
O O10 0.000000 0.088115 0.250000
O O11 0.000000 0.000000 0.500000
#
# Coordination Sequence:
#
# PCOD8248652 Si02
#       5
#     8   8   8   8   8
#     4  12  26  46  71 103 140 182 232 287 346 409
#     4  12  24  47  68 105 140 184 232 282 346 412
#     4  12  26  43  74 101 142 184 230 286 344 414
#     4  12  26  46  71 103 140 182 232 287 346 409
#     4  12  27  48  74 104 140 181 232 286 348 415
#
# _framework density 21.891203000000001
#
# number of rings (size 3 to 8) (size 9 to 14) (size 15 to 20)
#    0.000    0.000    2.000    9.000    2.800    0.000 
#    0.000    0.000    0.000    0.000    0.000    0.000 
#    0.000    0.000    0.000    0.000    0.000    0.000 
#
# Total GULP energy -496475.481023 kJ/mol
# GULP energy per Si atom -12411.887026 kJ/mol
# Density = 2.184138 g / cm^3
# Si number density = 21.891203 Si / 1000 Ang^3
#
#
#
# Elastic Constant Matrix: (Units=GPa)
#
#
# Indices 1 2 3 4 5 6 
#
# 1 104.1668 22.8822 45.5629 0.0000 0.0000 0.0000
# 2 22.8822 113.5497 21.4561 0.0000 0.0000 0.0000
# 3 45.5629 21.4561 126.3845 0.0000 0.0000 0.0000
# 4 0.0000 0.0000 0.0000 36.5823 0.0000 0.0000
# 5 0.0000 0.0000 0.0000 0.0000 41.7831 0.0000
# 6 0.0000 0.0000 0.0000 0.0000 0.0000 -48.8740
#
#
#
# Elastic Compliance Matrix: (Units=1/GPa)
#
#
# Indices 1 2 3 4 5 6 
#
# 1 0.011675 -0.001609 -0.003936 0.000000 0.000000 0.000000
# 2 -0.001609 0.009320 -0.001002 0.000000 0.000000 0.000000
# 3 -0.003936 -0.001002 0.009501 0.000000 0.000000 0.000000
# 4 0.000000 0.000000 0.000000 0.027336 0.000000 0.000000
# 5 0.000000 0.000000 0.000000 0.000000 0.023933 0.000000
# 6 0.000000 0.000000 0.000000 0.000000 0.000000 -0.020461
#
#
# Mechanical properties :
#
#
# Convention : Reuss Voigt Hill
#
# Bulk Modulus (GPa) = 57.46252 58.21149 57.83700
# Shear Modulus (GPa) = 62.34439 22.84491 42.59465
#
# Velocity S-wave (km/s) = 5.34238 3.23393 4.41584
# Velocity P-wave (km/s) = 8.02252 6.37130 7.24411
#
# Compressibility (1/GPa) = 0.01740265
#
# Stress axis : x y z
#
# Youngs Moduli (GPa) = 85.65339 107.29224 105.24756
#
# Poissons Ratio (x) = 0.17263 0.41423
# Poissons Ratio (y) = 0.13782 0.10548
# Poissons Ratio (z) = 0.33711 0.10753
#
# Static dielectric constant tensor:
#      x y z
#    x 4.304880 0.000000 0.000000 
#    y 0.000000 3.934560 0.000000 
#    z 0.000000 0.000000 4.230000 
# 
# 
# High freq. dielectric constant tensor:
#      x y z
#    x 1.873430 0.000000 0.000000 
#    y 0.000000 1.871900 0.000000 
#    z 0.000000 0.000000 1.878910 
# 
# From -- ./inp_files/7742.got.cif
#   From: 2010.03.12/outbox.cif.g09.slc.cpg/sg60_4_cif.got.tgz:7742.got - 2010.04.10 18:46:24.
