data_PCOD8248136
_publ_section_title
;
Structure prediction by ZEFSAII (Michael W. Deem and Ramdas Pophale) SiO2 
 PCOD8248136
Probable space group: P B C N
;
_chemical_formula_sum "Si O2"
_cell_formula_units_Z 32
_cell_length_a 7.421794
_cell_length_b 21.885046
_cell_length_c 8.071019
_cell_angle_alpha 90.000000
_cell_angle_beta 90.000000
_cell_angle_gamma 90.000000
_cell_volume 1310.945778
_symmetry_space_group_name_H-M "P B C N"
_symmetry_group_IT_number 60
_symmetry_cell_setting 'orthorhombic'
loop_
_space_group_symop_operation_xyz
x,y,z
1/2-x,1/2-y,1/2+z
1/2+x,1/2-y,-z
-x,y,1/2-z
-x,-y,-z
1/2+x,1/2+y,1/2-z
1/2-x,1/2+y,z
x,-y,1/2+z
loop_
_atom_site_type_symbol
_atom_site_label
_atom_site_fract_x
_atom_site_fract_y
_atom_site_fract_z
Si Si1 0.560248 0.065490 0.937630
Si Si2 0.931716 0.124639 0.934792
Si Si3 0.823110 0.768819 0.643051
Si Si4 0.715817 0.844052 0.931336
O O1 0.500000 0.075330 0.750000
O O2 0.775011 0.074080 0.962512
O O3 0.461694 0.116046 0.048788
O O4 0.500000 0.000000 0.000000
O O5 0.000000 0.118992 0.750000
O O6 0.102109 0.113842 0.060836
O O7 0.854869 0.192245 0.974859
O O8 0.750871 0.703318 0.584515
O O9 0.000000 0.756902 0.750000
O O10 0.688798 0.808058 0.758715
#
# Coordination Sequence:
#
# PCOD8248136 Si02
#       4
#     8   8   8   8
#     4  12  29  50  73 104 145 199 256 311 377 457
#     4  11  24  46  71 103 142 192 238 309 373 441
#     4  10  24  42  73 113 150 193 242 306 387 457
#     4  11  24  47  72 109 150 190 250 303 383 453
#
# _framework density 24.409859000000001
#
# number of rings (size 3 to 8) (size 9 to 14) (size 15 to 20)
#    0.000    1.000    2.500    2.250   10.500    1.000 
#    0.000    0.000    0.000    0.000    0.000    0.000 
#    0.000    0.000    0.000    0.000    0.000    0.000 
#
# Total GULP energy -396719.891000 kJ/mol
# GULP energy per Si atom -12397.496594 kJ/mol
# Density = 2.435430 g / cm^3
# Si number density = 24.409859 Si / 1000 Ang^3
#
#
#
# Elastic Constant Matrix: (Units=GPa)
#
#
# Indices 1 2 3 4 5 6 
#
# 1 138.0573 59.2090 43.4932 0.0000 0.0000 0.0000
# 2 59.2090 117.1931 50.7489 0.0000 0.0000 0.0000
# 3 43.4932 50.7489 77.5956 0.0000 0.0000 0.0000
# 4 0.0000 0.0000 0.0000 32.3078 0.0000 0.0000
# 5 0.0000 0.0000 0.0000 0.0000 33.4583 0.0000
# 6 0.0000 0.0000 0.0000 0.0000 0.0000 34.5353
#
#
#
# Elastic Compliance Matrix: (Units=1/GPa)
#
#
# Indices 1 2 3 4 5 6 
#
# 1 0.009764 -0.003576 -0.003134 0.000000 0.000000 0.000000
# 2 -0.003576 0.013214 -0.006638 0.000000 0.000000 0.000000
# 3 -0.003134 -0.006638 0.018985 0.000000 0.000000 0.000000
# 4 0.000000 0.000000 0.000000 0.030952 0.000000 0.000000
# 5 0.000000 0.000000 0.000000 0.000000 0.029888 0.000000
# 6 0.000000 0.000000 0.000000 0.000000 0.000000 0.028956
#
#
# Mechanical properties :
#
#
# Convention : Reuss Voigt Hill
#
# Bulk Modulus (GPa) = 65.49816 71.08315 68.29065
# Shear Modulus (GPa) = 30.57253 32.01993 31.29623
#
# Velocity S-wave (km/s) = 3.54286 3.62575 3.58455
# Velocity P-wave (km/s) = 6.60505 6.83462 6.72082
#
# Compressibility (1/GPa) = 0.01526761
#
# Stress axis : x y z
#
# Youngs Moduli (GPa) = 102.41246 75.67717 52.67204
#
# Poissons Ratio (x) = 0.27062 0.16509
# Poissons Ratio (y) = 0.36622 0.34963
# Poissons Ratio (z) = 0.32099 0.50233
#
# Static dielectric constant tensor:
#      x y z
#    x 4.729580 0.000000 0.000000 
#    y 0.000000 4.189700 0.000000 
#    z 0.000000 0.000000 4.592750 
# 
# 
# High freq. dielectric constant tensor:
#      x y z
#    x 1.986810 0.000000 0.000000 
#    y 0.000000 1.937180 0.000000 
#    z 0.000000 0.000000 1.980290 
# 
# From -- ./inp_files/3608.got.cif
#   From: 2010.03.12/outbox.cif.g09.slc.cpg/sg60_2_cif.got.tgz:3608.got - 2010.04.10 18:46:24.
