data_PCOD8248805
_publ_section_title
;
Structure prediction by ZEFSAII (Michael W. Deem and Ramdas Pophale) SiO2 
 PCOD8248805
Probable space group: P B C A
;
_chemical_formula_sum "Si O2"
_cell_formula_units_Z 64
_cell_length_a 20.152856
_cell_length_b 5.395707
_cell_length_c 27.614404
_cell_angle_alpha 90.000000
_cell_angle_beta 90.000000
_cell_angle_gamma 90.000000
_cell_volume 3002.760086
_symmetry_space_group_name_H-M "P B C A"
_symmetry_group_IT_number 61
_symmetry_cell_setting 'orthorhombic'
loop_
_space_group_symop_operation_xyz
x,y,z
1/2-x,-y,1/2+z
1/2+x,1/2-y,-z
-x,1/2+y,1/2-z
-x,-y,-z
1/2+x,y,1/2-z
1/2-x,1/2+y,z
x,1/2-y,1/2+z
loop_
_atom_site_type_symbol
_atom_site_label
_atom_site_fract_x
_atom_site_fract_y
_atom_site_fract_z
Si Si1 0.970670 0.627466 0.366438
Si Si2 0.407865 0.071276 0.888427
Si Si3 0.084338 0.055104 0.708702
Si Si4 0.712274 0.817445 0.651815
Si Si5 0.920934 0.980240 0.505109
Si Si6 0.711878 0.814174 0.765585
Si Si7 0.434004 0.019422 0.532806
Si Si8 0.953001 0.742503 0.194441
O O1 0.910266 0.763510 0.338006
O O2 0.946195 0.448135 0.409450
O O3 0.017141 0.829844 0.392172
O O4 0.013386 0.488044 0.326055
O O5 0.357119 0.294150 0.876836
O O6 0.394606 0.946190 0.940201
O O7 0.402655 0.869212 0.845428
O O8 0.093297 0.204491 0.759131
O O9 0.141472 0.846048 0.706442
O O10 0.010210 0.948021 0.709469
O O11 0.755250 0.576851 0.635962
O O12 0.698085 0.815904 0.708690
O O13 0.894142 0.738251 0.476168
O O14 0.891988 0.237947 0.483001
O O15 0.000000 0.000000 0.500000
O O16 0.743033 0.551109 0.781216
O O17 0.500000 0.000000 0.500000
#
# Coordination Sequence:
#
# PCOD8248805 Si02
#       8
#     8   8   8   8   8   8   8   8
#     4  11  22  35  57  87 123 162 192 253 310 381
#     4  11  23  35  62  84 121 165 194 252 316 373
#     4  11  24  37  55  89 123 161 205 243 314 369
#     4  10  24  40  57  87 117 159 212 252 292 362
#     4  10  19  35  55  86 117 148 191 236 292 372
#     4  10  24  42  64  80 114 168 215 257 284 346
#     4  10  19  34  54  82 125 143 194 232 294 365
#     4  11  23  36  54  87 129 161 193 242 318 382
#
# _framework density 21.313723
#
# number of rings (size 3 to 8) (size 9 to 14) (size 15 to 20)
#    0.000    1.500    3.750    2.250   12.250    0.000 
#    0.000    0.000    0.000    0.000    0.000    5.250 
#    0.000    0.000    0.000    0.000    0.000    0.000 
#
# Total GULP energy -793409.545547 kJ/mol
# GULP energy per Si atom -12397.024149 kJ/mol
# Density = 2.126521 g / cm^3
# Si number density = 21.313723 Si / 1000 Ang^3
#
#
#
# Elastic Constant Matrix: (Units=GPa)
#
#
# Indices 1 2 3 4 5 6 
#
# 1 52.2356 18.5837 22.9255 0.0000 0.0000 0.0000
# 2 18.5837 131.7533 31.1794 0.0000 0.0000 0.0000
# 3 22.9255 31.1794 101.3901 0.0000 0.0000 0.0000
# 4 0.0000 0.0000 0.0000 31.1704 0.0000 0.0000
# 5 0.0000 0.0000 0.0000 0.0000 13.4510 0.0000
# 6 0.0000 0.0000 0.0000 0.0000 0.0000 25.1517
#
#
#
# Elastic Compliance Matrix: (Units=1/GPa)
#
#
# Indices 1 2 3 4 5 6 
#
# 1 0.021757 -0.002054 -0.004288 0.000000 0.000000 0.000000
# 2 -0.002054 0.008380 -0.002112 0.000000 0.000000 0.000000
# 3 -0.004288 -0.002112 0.011482 0.000000 0.000000 0.000000
# 4 0.000000 0.000000 0.000000 0.032082 0.000000 0.000000
# 5 0.000000 0.000000 0.000000 0.000000 0.074344 0.000000
# 6 0.000000 0.000000 0.000000 0.000000 0.000000 0.039759
#
#
# Mechanical properties :
#
#
# Convention : Reuss Voigt Hill
#
# Bulk Modulus (GPa) = 40.46988 47.86178 44.16583
# Shear Modulus (GPa) = 23.47993 28.13397 25.80695
#
# Velocity S-wave (km/s) = 3.32269 3.63711 3.48345
# Velocity P-wave (km/s) = 5.80941 6.33583 6.07832
#
# Compressibility (1/GPa) = 0.02470974
#
# Stress axis : x y z
#
# Youngs Moduli (GPa) = 45.96295 119.33779 87.09269
#
# Poissons Ratio (x) = 0.24513 0.37343
# Poissons Ratio (y) = 0.09441 0.18398
# Poissons Ratio (z) = 0.19708 0.25209
#
# Static dielectric constant tensor:
#      x y z
#    x 3.351280 0.000000 0.000000 
#    y 0.000000 8.860500 0.000000 
#    z 0.000000 0.000000 3.749530 
# 
# 
# High freq. dielectric constant tensor:
#      x y z
#    x 1.772550 0.000000 0.000000 
#    y 0.000000 1.857610 0.000000 
#    z 0.000000 0.000000 1.825030 
# 
# From -- ./inp_files/11845.got.cif
#   From: 2010.03.12/outbox.cif.g09.slc.cpg/sg61_6_cif.got.tgz:11845.got - 2010.04.10 19:05:03.
