data_PCOD8248822
_publ_section_title
;
Structure prediction by ZEFSAII (Michael W. Deem and Ramdas Pophale) SiO2 
 PCOD8248822
Probable space group: P B C A
;
_chemical_formula_sum "Si O2"
_cell_formula_units_Z 64
_cell_length_a 16.470316
_cell_length_b 20.583129
_cell_length_c 8.981816
_cell_angle_alpha 90.000000
_cell_angle_beta 90.000000
_cell_angle_gamma 90.000000
_cell_volume 3044.931181
_symmetry_space_group_name_H-M "P B C A"
_symmetry_group_IT_number 61
_symmetry_cell_setting 'orthorhombic'
loop_
_space_group_symop_operation_xyz
x,y,z
1/2-x,-y,1/2+z
1/2+x,1/2-y,-z
-x,1/2+y,1/2-z
-x,-y,-z
1/2+x,y,1/2-z
1/2-x,1/2+y,z
x,1/2-y,1/2+z
loop_
_atom_site_type_symbol
_atom_site_label
_atom_site_fract_x
_atom_site_fract_y
_atom_site_fract_z
Si Si1 0.164767 0.185908 0.207616
Si Si2 0.656644 0.077468 0.805825
Si Si3 0.599847 0.197596 0.615022
Si Si4 0.348515 0.311733 0.804516
Si Si5 0.343521 0.555440 0.362804
Si Si6 0.915124 0.301070 0.377986
Si Si7 0.349890 0.431396 0.193534
Si Si8 0.347987 0.047555 0.362498
O O1 0.108668 0.234679 0.299607
O O2 0.257001 0.200828 0.252768
O O3 0.136566 0.112909 0.247135
O O4 0.155906 0.195191 0.030944
O O5 0.624022 0.141814 0.729807
O O6 0.753483 0.077042 0.798938
O O7 0.618304 0.014908 0.723551
O O8 0.623777 0.074860 0.974710
O O9 0.506728 0.190199 0.565228
O O10 0.408532 0.265016 0.715313
O O11 0.374764 0.386668 0.775844
O O12 0.354483 0.298317 0.981342
O O13 0.381566 0.486954 0.307082
O O14 0.248261 0.544901 0.370101
O O15 0.890255 0.361538 0.270521
O O16 0.381042 0.453005 0.030448
#
# Coordination Sequence:
#
# PCOD8248822 Si02
#       8
#     8   8   8   8   8   8   8   8
#     4  11  22  39  61  85 112 152 197 237 283 343
#     4  10  19  35  59  88 116 149 193 238 282 339
#     4  12  24  38  57  86 120 153 188 239 295 343
#     4  10  21  39  61  84 112 152 198 238 281 344
#     4   9  18  33  58  86 112 145 195 243 278 329
#     4  11  23  39  57  86 120 153 190 239 294 344
#     4   9  18  36  58  82 114 153 192 235 283 339
#     4   8  17  33  56  85 112 143 192 241 282 331
#
# _framework density 21.018537999999999
#
# number of rings (size 3 to 8) (size 9 to 14) (size 15 to 20)
#    0.000    2.000    0.000    4.500    0.000    4.000 
#    0.000    7.500    0.000    0.000    0.000    0.000 
#    0.000    0.000    0.000    0.000    0.000    0.000 
#
# Total GULP energy -793625.144222 kJ/mol
# GULP energy per Si atom -12400.392878 kJ/mol
# Density = 2.097070 g / cm^3
# Si number density = 21.018538 Si / 1000 Ang^3
#
#
#
# Elastic Constant Matrix: (Units=GPa)
#
#
# Indices 1 2 3 4 5 6 
#
# 1 59.2206 38.2736 33.0835 0.0000 0.0000 0.0000
# 2 38.2736 93.9033 41.8808 0.0000 0.0000 0.0000
# 3 33.0835 41.8808 114.7616 0.0000 0.0000 0.0000
# 4 0.0000 0.0000 0.0000 40.9761 0.0000 0.0000
# 5 0.0000 0.0000 0.0000 0.0000 18.0537 0.0000
# 6 0.0000 0.0000 0.0000 0.0000 0.0000 5.4865
#
#
#
# Elastic Compliance Matrix: (Units=1/GPa)
#
#
# Indices 1 2 3 4 5 6 
#
# 1 0.024419 -0.008138 -0.004070 0.000000 0.000000 0.000000
# 2 -0.008138 0.015431 -0.003286 0.000000 0.000000 0.000000
# 3 -0.004070 -0.003286 0.011086 0.000000 0.000000 0.000000
# 4 0.000000 0.000000 0.000000 0.024404 0.000000 0.000000
# 5 0.000000 0.000000 0.000000 0.000000 0.055390 0.000000
# 6 0.000000 0.000000 0.000000 0.000000 0.000000 0.182267
#
#
# Mechanical properties :
#
#
# Convention : Reuss Voigt Hill
#
# Bulk Modulus (GPa) = 50.12457 54.92901 52.52679
# Shear Modulus (GPa) = 14.25990 23.21310 18.73650
#
# Velocity S-wave (km/s) = 2.60752 3.32687 2.98892
# Velocity P-wave (km/s) = 5.74153 6.39905 6.07918
#
# Compressibility (1/GPa) = 0.01995030
#
# Stress axis : x y z
#
# Youngs Moduli (GPa) = 40.95199 64.80287 90.20417
#
# Poissons Ratio (x) = 0.52734 0.36711
# Poissons Ratio (y) = 0.33325 0.29637
# Poissons Ratio (z) = 0.16666 0.21291
#
# Static dielectric constant tensor:
#      x y z
#    x 3.404060 0.000000 0.000000 
#    y 0.000000 4.109720 0.000000 
#    z 0.000000 0.000000 3.849560 
# 
# 
# High freq. dielectric constant tensor:
#      x y z
#    x 1.788260 0.000000 0.000000 
#    y 0.000000 1.842670 0.000000 
#    z 0.000000 0.000000 1.821990 
# 
# From -- ./inp_files/3730.got.cif
#   From: 2010.03.12/outbox.cif.g09.slc.cpg/sg61_2_cif.got.tgz:3730.got - 2010.04.10 19:05:03.
