data_PCOD8248082
_publ_section_title
;
Structure prediction by ZEFSAII (Michael W. Deem and Ramdas Pophale) SiO2 
 PCOD8248082
Probable space group: P B C N
;
_chemical_formula_sum "Si O2"
_cell_formula_units_Z 56
_cell_length_a 13.782283
_cell_length_b 12.430225
_cell_length_c 13.950738
_cell_angle_alpha 90.000000
_cell_angle_beta 90.000000
_cell_angle_gamma 90.000000
_cell_volume 2389.996890
_symmetry_space_group_name_H-M "P B C N"
_symmetry_group_IT_number 60
_symmetry_cell_setting 'orthorhombic'
loop_
_space_group_symop_operation_xyz
x,y,z
1/2-x,1/2-y,1/2+z
1/2+x,1/2-y,-z
-x,y,1/2-z
-x,-y,-z
1/2+x,1/2+y,1/2-z
1/2-x,1/2+y,z
x,-y,1/2+z
loop_
_atom_site_type_symbol
_atom_site_label
_atom_site_fract_x
_atom_site_fract_y
_atom_site_fract_z
Si Si1 0.456993 0.360455 0.442359
Si Si2 0.601101 0.824233 0.692820
Si Si3 0.688265 0.301169 0.751538
Si Si4 0.359931 0.754976 0.460587
Si Si5 0.897912 0.022636 0.376803
Si Si6 0.106277 0.500812 0.462996
Si Si7 0.268269 0.863550 0.101720
O O1 0.394745 0.279965 0.376672
O O2 0.540356 0.291183 0.495726
O O3 0.386553 0.415363 0.521076
O O4 0.499380 0.458539 0.377345
O O5 0.500000 0.823158 0.750000
O O6 0.694933 0.821921 0.762596
O O7 0.612568 0.934347 0.635407
O O8 0.656663 0.297763 0.642268
O O9 0.616896 0.392488 0.792382
O O10 0.670658 0.192210 0.812535
O O11 0.269619 0.727221 0.528491
O O12 0.357968 0.881318 0.444417
O O13 0.820500 0.930193 0.356675
O O14 0.165177 0.552687 0.548359
O O15 0.000000 0.500000 0.500000
#
# Coordination Sequence:
#
# PCOD8248082 Si02
#       7
#     8   8   8   8   8   8   8
#     4  10  23  52  73 102 148 195 232 311 371 443
#     4  12  26  47  71 108 147 188 241 307 377 438
#     4  12  27  44  74 113 142 190 256 309 362 451
#     4  11  25  47  73 106 144 191 244 298 372 437
#     4  10  24  46  77 102 140 192 246 294 375 438
#     4  12  26  45  77  99 146 196 237 297 376 438
#     4  11  25  48  72 104 147 190 242 306 363 452
#
# _framework density 23.430993000000001
#
# number of rings (size 3 to 8) (size 9 to 14) (size 15 to 20)
#    0.000    0.857    2.857    3.429    6.000    0.571 
#   15.429    0.000    0.000    0.000    0.000    0.000 
#    0.000    0.000    0.000    0.000    0.000    0.000 
#
# Total GULP energy -694429.592589 kJ/mol
# GULP energy per Si atom -12400.528439 kJ/mol
# Density = 2.337766 g / cm^3
# Si number density = 23.430993 Si / 1000 Ang^3
#
#
#
# Elastic Constant Matrix: (Units=GPa)
#
#
# Indices 1 2 3 4 5 6 
#
# 1 52.8608 16.6401 8.6371 0.0000 0.0000 0.0000
# 2 16.6401 122.6888 15.1762 0.0000 0.0000 0.0000
# 3 8.6371 15.1762 72.5134 0.0000 0.0000 0.0000
# 4 0.0000 0.0000 0.0000 -7.7219 0.0000 0.0000
# 5 0.0000 0.0000 0.0000 0.0000 35.8417 0.0000
# 6 0.0000 0.0000 0.0000 0.0000 0.0000 52.9287
#
#
#
# Elastic Compliance Matrix: (Units=1/GPa)
#
#
# Indices 1 2 3 4 5 6 
#
# 1 0.020004 -0.002483 -0.001863 0.000000 0.000000 0.000000
# 2 -0.002483 0.008675 -0.001520 0.000000 0.000000 0.000000
# 3 -0.001863 -0.001520 0.014331 0.000000 0.000000 0.000000
# 4 0.000000 0.000000 0.000000 -0.129503 0.000000 0.000000
# 5 0.000000 0.000000 0.000000 0.000000 0.027900 0.000000
# 6 0.000000 0.000000 0.000000 0.000000 0.000000 0.018893
#
#
# Mechanical properties :
#
#
# Convention : Reuss Voigt Hill
#
# Bulk Modulus (GPa) = 31.97103 36.55218 34.26161
# Shear Modulus (GPa) = -285.03105 30.05036 -127.49035
#
# Velocity S-wave (km/s) = -11.04134 3.58509 -7.38438
# Velocity P-wave (km/s) = 12.20138 5.72459 7.61915
#
# Compressibility (1/GPa) = 0.03127832
#
# Stress axis : x y z
#
# Youngs Moduli (GPa) = 49.99117 115.26806 69.78083
#
# Poissons Ratio (x) = 0.28616 0.13001
# Poissons Ratio (y) = 0.12411 0.10606
# Poissons Ratio (z) = 0.09314 0.17520
#
# Static dielectric constant tensor:
#      x y z
#    x 4.202870 0.000000 0.000000 
#    y 0.000000 4.360510 0.000000 
#    z 0.000000 0.000000 4.140180 
# 
# 
# High freq. dielectric constant tensor:
#      x y z
#    x 1.924580 0.000000 0.000000 
#    y 0.000000 1.945680 0.000000 
#    z 0.000000 0.000000 1.926570 
# 
# From -- ./inp_files/16857.got.cif
#   From: 2010.03.12/outbox.cif.g09.slc.cpg/sg60_9_cif.got.tgz:16857.got - 2010.04.10 18:46:24.
