data_PCOD8248755
_publ_section_title
;
Structure prediction by ZEFSAII (Michael W. Deem and Ramdas Pophale) SiO2 
 PCOD8248755
Probable space group: P B C A
;
_chemical_formula_sum "Si O2"
_cell_formula_units_Z 56
_cell_length_a 17.610280
_cell_length_b 18.565297
_cell_length_c 8.946507
_cell_angle_alpha 90.000000
_cell_angle_beta 90.000000
_cell_angle_gamma 90.000000
_cell_volume 2924.971700
_symmetry_space_group_name_H-M "P B C A"
_symmetry_group_IT_number 61
_symmetry_cell_setting 'orthorhombic'
loop_
_space_group_symop_operation_xyz
x,y,z
1/2-x,-y,1/2+z
1/2+x,1/2-y,-z
-x,1/2+y,1/2-z
-x,-y,-z
1/2+x,y,1/2-z
1/2-x,1/2+y,z
x,1/2-y,1/2+z
loop_
_atom_site_type_symbol
_atom_site_label
_atom_site_fract_x
_atom_site_fract_y
_atom_site_fract_z
Si Si1 0.076008 0.570811 0.360103
Si Si2 0.210423 0.488285 0.420458
Si Si3 0.488510 0.425573 0.158835
Si Si4 0.598303 0.242780 0.947420
Si Si5 0.040964 0.346917 0.794696
Si Si6 0.144968 0.017497 0.252634
Si Si7 0.135705 0.152089 0.803245
O O1 0.166451 0.558245 0.349823
O O2 0.049004 0.610919 0.511667
O O3 0.044634 0.490276 0.384142
O O4 0.041031 0.612933 0.218528
O O5 0.299197 0.502611 0.391978
O O6 0.190924 0.483347 0.596032
O O7 0.189291 0.415977 0.329417
O O8 0.420443 0.455811 0.263061
O O9 0.545652 0.366316 0.226678
O O10 0.545095 0.189429 0.043992
O O11 0.645926 0.295406 0.054551
O O12 0.545777 0.287483 0.834569
O O13 0.657958 0.195035 0.848488
O O14 0.108397 0.404247 0.771540
#
# Coordination Sequence:
#
# PCOD8248755 Si02
#       7
#     8   8   8   8   8   8   8
#     4   8  14  30  53  73  97 126 162 208 253 294
#     4  10  20  34  54  77 106 137 170 216 262 306
#     4   8  14  30  53  73  97 126 162 208 253 294
#     4  10  20  30  56  76 104 132 172 216 250 312
#     4  10  18  35  53  81  97 134 174 214 259 306
#     4  10  20  34  54  77 106 137 170 216 262 306
#     4  10  18  35  53  81  97 134 174 214 259 306
#
# _framework density 19.145484
#
# number of rings (size 3 to 8) (size 9 to 14) (size 15 to 20)
#    0.000    2.571    2.857    1.714    2.000    0.000 
#    2.571    2.143    0.000   10.286    0.000    0.000 
#    0.000    0.000    0.000    0.000    0.000    0.000 
#
# Total GULP energy -693742.465459 kJ/mol
# GULP energy per Si atom -12388.258312 kJ/mol
# Density = 1.910191 g / cm^3
# Si number density = 19.145484 Si / 1000 Ang^3
#
#
#
# Elastic Constant Matrix: (Units=GPa)
#
#
# Indices 1 2 3 4 5 6 
#
# 1 67.2844 14.7978 8.8469 0.0000 0.0000 0.0000
# 2 14.7978 71.8536 30.0962 0.0000 0.0000 0.0000
# 3 8.8469 30.0962 75.3111 0.0000 0.0000 0.0000
# 4 0.0000 0.0000 0.0000 18.2436 0.0000 0.0000
# 5 0.0000 0.0000 0.0000 0.0000 21.1705 0.0000
# 6 0.0000 0.0000 0.0000 0.0000 0.0000 11.7309
#
#
#
# Elastic Compliance Matrix: (Units=1/GPa)
#
#
# Indices 1 2 3 4 5 6 
#
# 1 0.015595 -0.002936 -0.000659 0.000000 0.000000 0.000000
# 2 -0.002936 0.017268 -0.006556 0.000000 0.000000 0.000000
# 3 -0.000659 -0.006556 0.015975 0.000000 0.000000 0.000000
# 4 0.000000 0.000000 0.000000 0.054814 0.000000 0.000000
# 5 0.000000 0.000000 0.000000 0.000000 0.047236 0.000000
# 6 0.000000 0.000000 0.000000 0.000000 0.000000 0.085245
#
#
# Mechanical properties :
#
#
# Convention : Reuss Voigt Hill
#
# Bulk Modulus (GPa) = 35.04176 35.77009 35.40592
# Shear Modulus (GPa) = 18.80092 20.94289 19.87191
#
# Velocity S-wave (km/s) = 3.13709 3.31098 3.22521
# Velocity P-wave (km/s) = 5.60932 5.77413 5.69232
#
# Compressibility (1/GPa) = 0.02853738
#
# Stress axis : x y z
#
# Youngs Moduli (GPa) = 64.12506 57.91170 62.59594
#
# Poissons Ratio (x) = 0.17001 0.04124
# Poissons Ratio (y) = 0.18825 0.41036
# Poissons Ratio (z) = 0.04224 0.37965
#
# Static dielectric constant tensor:
#      x y z
#    x 3.282320 0.000000 0.000000 
#    y 0.000000 3.594430 0.000000 
#    z 0.000000 0.000000 3.427170 
# 
# 
# High freq. dielectric constant tensor:
#      x y z
#    x 1.706040 0.000000 0.000000 
#    y 0.000000 1.740790 0.000000 
#    z 0.000000 0.000000 1.738590 
# 
# From -- ./inp_files/3666.got.cif
#   From: 2010.03.12/outbox.cif.g09.slc.cpg/sg61_2_cif.got.tgz:3666.got - 2010.04.10 19:05:03.
