data_PCOD8248941
_publ_section_title
;
Structure prediction by ZEFSAII (Michael W. Deem and Ramdas Pophale) SiO2 
 PCOD8248941
Probable space group: P B C A
;
_chemical_formula_sum "Si O2"
_cell_formula_units_Z 48
_cell_length_a 18.249615
_cell_length_b 13.834525
_cell_length_c 8.974225
_cell_angle_alpha 90.000000
_cell_angle_beta 90.000000
_cell_angle_gamma 90.000000
_cell_volume 2265.765258
_symmetry_space_group_name_H-M "P B C A"
_symmetry_group_IT_number 61
_symmetry_cell_setting 'orthorhombic'
loop_
_space_group_symop_operation_xyz
x,y,z
1/2-x,-y,1/2+z
1/2+x,1/2-y,-z
-x,1/2+y,1/2-z
-x,-y,-z
1/2+x,y,1/2-z
1/2-x,1/2+y,z
x,1/2-y,1/2+z
loop_
_atom_site_type_symbol
_atom_site_label
_atom_site_fract_x
_atom_site_fract_y
_atom_site_fract_z
Si Si1 0.993409 0.622690 0.702290
Si Si2 0.750676 0.626988 0.317675
Si Si3 0.044469 0.779465 0.908977
Si Si4 0.144205 0.536711 0.668179
Si Si5 0.118226 0.959255 0.825516
Si Si6 0.798293 0.300593 0.123838
O O1 0.992062 0.699160 0.836353
O O2 0.003237 0.686454 0.555522
O O3 0.059526 0.545445 0.717240
O O4 0.917938 0.563885 0.699617
O O5 0.826043 0.569153 0.288050
O O6 0.682664 0.552996 0.294478
O O7 0.750833 0.661049 0.488720
O O8 0.745930 0.713838 0.200948
O O9 0.058576 0.872885 0.802748
O O10 0.123929 0.733033 0.944357
O O11 0.151545 0.551987 0.491143
O O12 0.191660 0.618405 0.750145
#
# Coordination Sequence:
#
# PCOD8248941 Si02
#       6
#     8   8   8   8   8   8
#     4  10  20  37  60  84 111 150 191 234 282 334
#     4  11  21  37  59  85 114 150 192 235 280 338
#     4   9  17  34  58  81 110 151 191 224 280 352
#     4  10  20  37  60  85 113 150 193 234 279 334
#     4  10  20  38  60  83 114 151 189 234 279 334
#     4  10  20  35  59  84 111 154 195 227 281 350
#
# _framework density 21.184894
#
# number of rings (size 3 to 8) (size 9 to 14) (size 15 to 20)
#    0.000    2.000    0.000    8.000    0.000    0.000 
#    0.000   15.833    0.000    0.000    0.000    0.000 
#    0.000    0.000    0.000    0.000    0.000    0.000 
#
# Total GULP energy -595167.395812 kJ/mol
# GULP energy per Si atom -12399.320746 kJ/mol
# Density = 2.113668 g / cm^3
# Si number density = 21.184894 Si / 1000 Ang^3
#
#
#
# Elastic Constant Matrix: (Units=GPa)
#
#
# Indices 1 2 3 4 5 6 
#
# 1 50.8787 55.6691 51.9954 0.0000 0.0000 0.0000
# 2 55.6691 128.8997 63.8979 0.0000 0.0000 0.0000
# 3 51.9954 63.8979 88.8257 0.0000 0.0000 0.0000
# 4 0.0000 0.0000 0.0000 28.1547 0.0000 0.0000
# 5 0.0000 0.0000 0.0000 0.0000 14.3092 0.0000
# 6 0.0000 0.0000 0.0000 0.0000 0.0000 42.3173
#
#
#
# Elastic Compliance Matrix: (Units=1/GPa)
#
#
# Indices 1 2 3 4 5 6 
#
# 1 0.060903 -0.013413 -0.026001 0.000000 0.000000 0.000000
# 2 -0.013413 0.015012 -0.002947 0.000000 0.000000 0.000000
# 3 -0.026001 -0.002947 0.028598 0.000000 0.000000 0.000000
# 4 0.000000 0.000000 0.000000 0.035518 0.000000 0.000000
# 5 0.000000 0.000000 0.000000 0.000000 0.069885 0.000000
# 6 0.000000 0.000000 0.000000 0.000000 0.000000 0.023631
#
#
# Mechanical properties :
#
#
# Convention : Reuss Voigt Hill
#
# Bulk Modulus (GPa) = 50.53245 67.96988 59.25117
# Shear Modulus (GPa) = 15.39086 23.42568 19.40827
#
# Velocity S-wave (km/s) = 2.69829 3.32892 3.03006
# Velocity P-wave (km/s) = 5.79763 6.85051 6.34594
#
# Compressibility (1/GPa) = 0.01978926
#
# Stress axis : x y z
#
# Youngs Moduli (GPa) = 16.41958 66.61352 34.96692
#
# Poissons Ratio (x) = 0.89351 0.90919
# Poissons Ratio (y) = 0.22024 0.10306
# Poissons Ratio (z) = 0.42693 0.19633
#
# Static dielectric constant tensor:
#      x y z
#    x 3.507660 0.000000 0.000000 
#    y 0.000000 4.072130 0.000000 
#    z 0.000000 0.000000 3.675990 
# 
# 
# High freq. dielectric constant tensor:
#      x y z
#    x 1.796810 0.000000 0.000000 
#    y 0.000000 1.843740 0.000000 
#    z 0.000000 0.000000 1.820890 
# 
# From -- ./inp_files/3427.got.cif
#   From: 2010.03.12/outbox.cif.g09.slc.cpg/sg61_2_cif.got.tgz:3427.got - 2010.04.10 19:05:03.
