data_PCOD8248661
_publ_section_title
;
Structure prediction by ZEFSAII (Michael W. Deem and Ramdas Pophale) SiO2 
 PCOD8248661
Probable space group: P B C N
;
_chemical_formula_sum "Si O2"
_cell_formula_units_Z 40
_cell_length_a 11.522519
_cell_length_b 8.350300
_cell_length_c 17.170626
_cell_angle_alpha 90.000000
_cell_angle_beta 90.000000
_cell_angle_gamma 90.000000
_cell_volume 1652.097372
_symmetry_space_group_name_H-M "P B C N"
_symmetry_group_IT_number 60
_symmetry_cell_setting 'orthorhombic'
loop_
_space_group_symop_operation_xyz
x,y,z
1/2-x,1/2-y,1/2+z
1/2+x,1/2-y,-z
-x,y,1/2-z
-x,-y,-z
1/2+x,1/2+y,1/2-z
1/2-x,1/2+y,z
x,-y,1/2+z
loop_
_atom_site_type_symbol
_atom_site_label
_atom_site_fract_x
_atom_site_fract_y
_atom_site_fract_z
Si Si1 0.405047 0.373687 0.318223
Si Si2 0.022754 0.345486 0.446504
Si Si3 0.106295 0.817390 0.085908
Si Si4 0.831312 0.826694 0.866500
Si Si5 0.157507 0.228683 0.307694
O O1 0.500000 0.377579 0.250000
O O2 0.472624 0.288785 0.389171
O O3 0.293696 0.266465 0.300375
O O4 0.364772 0.552167 0.342530
O O5 0.103241 0.218257 0.493748
O O6 0.091348 0.359486 0.363011
O O7 0.000000 0.500000 0.500000
O O8 0.893542 0.282460 0.430609
O O9 0.193103 0.695128 0.128968
O O10 0.145276 0.991364 0.112417
O O11 0.885372 0.778420 0.782405
#
# Coordination Sequence:
#
# PCOD8248661 Si02
#       5
#     8   8   8   8   8
#     4  12  25  49  77 116 152 208 263 332 398 474
#     4  12  29  48  76 118 161 210 266 332 411 482
#     4  12  27  48  77 114 160 200 265 330 404 470
#     4  12  24  51  78 109 155 211 260 333 395 484
#     4  12  26  49  82 109 156 208 268 324 404 477
#
# _framework density 24.211648
#
# number of rings (size 3 to 8) (size 9 to 14) (size 15 to 20)
#    0.000    0.000    6.000    2.400    5.600    0.000 
#    0.000    1.000    0.000    0.000    0.000    0.000 
#    0.000    0.000    0.000    0.000    0.000    0.000 
#
# Total GULP energy -495661.485817 kJ/mol
# GULP energy per Si atom -12391.537145 kJ/mol
# Density = 2.415654 g / cm^3
# Si number density = 24.211648 Si / 1000 Ang^3
#
#
#
# Elastic Constant Matrix: (Units=GPa)
#
#
# Indices 1 2 3 4 5 6 
#
# 1 123.0965 61.4266 43.7671 0.0000 0.0000 0.0000
# 2 61.4266 88.7530 73.7888 0.0000 0.0000 0.0000
# 3 43.7671 73.7888 149.7541 0.0000 0.0000 0.0000
# 4 0.0000 0.0000 0.0000 35.8325 0.0000 0.0000
# 5 0.0000 0.0000 0.0000 0.0000 41.3570 0.0000
# 6 0.0000 0.0000 0.0000 0.0000 0.0000 44.8973
#
#
#
# Elastic Compliance Matrix: (Units=1/GPa)
#
#
# Indices 1 2 3 4 5 6 
#
# 1 0.012503 -0.009512 0.001033 0.000000 0.000000 0.000000
# 2 -0.009512 0.026323 -0.010190 0.000000 0.000000 0.000000
# 3 0.001033 -0.010190 0.011397 0.000000 0.000000 0.000000
# 4 0.000000 0.000000 0.000000 0.027908 0.000000 0.000000
# 5 0.000000 0.000000 0.000000 0.000000 0.024180 0.000000
# 6 0.000000 0.000000 0.000000 0.000000 0.000000 0.022273
#
#
# Mechanical properties :
#
#
# Convention : Reuss Voigt Hill
#
# Bulk Modulus (GPa) = 77.61734 79.95204 78.78469
# Shear Modulus (GPa) = 30.08129 36.59208 33.33668
#
# Velocity S-wave (km/s) = 3.52864 3.89182 3.71467
# Velocity P-wave (km/s) = 6.98063 7.29992 7.14206
#
# Compressibility (1/GPa) = 0.01288372
#
# Stress axis : x y z
#
# Youngs Moduli (GPa) = 79.97949 37.99017 87.74470
#
# Poissons Ratio (x) = 0.36137 -0.09062
# Poissons Ratio (y) = 0.76078 0.89412
# Poissons Ratio (z) = -0.08260 0.38712
#
# Static dielectric constant tensor:
#      x y z
#    x 4.955650 0.000000 0.000000 
#    y 0.000000 4.167750 0.000000 
#    z 0.000000 0.000000 9.265150 
# 
# 
# High freq. dielectric constant tensor:
#      x y z
#    x 1.979510 0.000000 0.000000 
#    y 0.000000 1.945230 0.000000 
#    z 0.000000 0.000000 1.974590 
# 
# From -- ./inp_files/19836.got.cif
#   From: 2010.03.12/outbox.cif.g09.slc.cpg/sg60_10_cif.got.tgz:19836.got - 2010.04.10 18:46:24.
