data_PCOD8248672
_publ_section_title
;
Structure prediction by ZEFSAII (Michael W. Deem and Ramdas Pophale) SiO2 
 PCOD8248672
Probable space group: P B C N
;
_chemical_formula_sum "Si O2"
_cell_formula_units_Z 24
_cell_length_a 4.604382
_cell_length_b 8.749604
_cell_length_c 21.969856
_cell_angle_alpha 90.000000
_cell_angle_beta 90.000000
_cell_angle_gamma 90.000000
_cell_volume 885.089025
_symmetry_space_group_name_H-M "P B C N"
_symmetry_group_IT_number 60
_symmetry_cell_setting 'orthorhombic'
loop_
_space_group_symop_operation_xyz
x,y,z
1/2-x,1/2-y,1/2+z
1/2+x,1/2-y,-z
-x,y,1/2-z
-x,-y,-z
1/2+x,1/2+y,1/2-z
1/2-x,1/2+y,z
x,-y,1/2+z
loop_
_atom_site_type_symbol
_atom_site_label
_atom_site_fract_x
_atom_site_fract_y
_atom_site_fract_z
Si Si1 0.953397 0.467760 0.181010
Si Si2 0.373046 0.162541 0.481132
Si Si3 0.460236 0.639815 0.132854
O O1 0.128838 0.576273 0.131723
O O2 0.000000 0.520018 0.250000
O O3 0.617594 0.499811 0.167597
O O4 0.029152 0.291848 0.172800
O O5 0.656595 0.268278 0.464924
O O6 0.124657 0.165043 0.430380
O O7 0.500000 0.000000 0.500000
#
# Coordination Sequence:
#
# PCOD8248672 Si02
#       3
#     8   8   8
#     4  12  25  47  74 108 147 192 245 309 376 449
#     4  12  27  50  76 109 150 199 255 314 376 450
#     4  12  27  47  74 109 148 195 248 307 377 449
#
# _framework density 27.115917
#
# number of rings (size 3 to 8) (size 9 to 14) (size 15 to 20)
#    0.000    0.000    0.000   10.000    0.000    5.333 
#    0.000    0.000    0.000    0.000    0.000    0.000 
#    0.000    0.000    0.000    0.000    0.000    0.000 
#
# Total GULP energy -297495.368145 kJ/mol
# GULP energy per Si atom -12395.640339 kJ/mol
# Density = 2.705420 g / cm^3
# Si number density = 27.115917 Si / 1000 Ang^3
#
#
#
# Elastic Constant Matrix: (Units=GPa)
#
#
# Indices 1 2 3 4 5 6 
#
# 1 151.7005 49.5923 37.2721 0.0000 0.0000 0.0000
# 2 49.5923 140.4354 27.0053 0.0000 0.0000 0.0000
# 3 37.2721 27.0053 40.7822 0.0000 0.0000 0.0000
# 4 0.0000 0.0000 0.0000 18.4575 0.0000 0.0000
# 5 0.0000 0.0000 0.0000 0.0000 36.1651 0.0000
# 6 0.0000 0.0000 0.0000 0.0000 0.0000 48.6532
#
#
#
# Elastic Compliance Matrix: (Units=1/GPa)
#
#
# Indices 1 2 3 4 5 6 
#
# 1 0.008883 -0.001806 -0.006923 0.000000 0.000000 0.000000
# 2 -0.001806 0.008527 -0.003996 0.000000 0.000000 0.000000
# 3 -0.006923 -0.003996 0.033494 0.000000 0.000000 0.000000
# 4 0.000000 0.000000 0.000000 0.054178 0.000000 0.000000
# 5 0.000000 0.000000 0.000000 0.000000 0.027651 0.000000
# 6 0.000000 0.000000 0.000000 0.000000 0.000000 0.020554
#
#
# Mechanical properties :
#
#
# Convention : Reuss Voigt Hill
#
# Bulk Modulus (GPa) = 39.28599 62.29528 50.79063
# Shear Modulus (GPa) = 26.70646 35.25838 30.98242
#
# Velocity S-wave (km/s) = 3.14172 3.60986 3.38389
# Velocity P-wave (km/s) = 5.26119 6.35597 5.83431
#
# Compressibility (1/GPa) = 0.02545437
#
# Stress axis : x y z
#
# Youngs Moduli (GPa) = 112.57261 117.27760 29.85642
#
# Poissons Ratio (x) = 0.21177 0.20669
# Poissons Ratio (y) = 0.20327 0.11931
# Poissons Ratio (z) = 0.77933 0.46864
#
# Static dielectric constant tensor:
#      x y z
#    x 69.464550 0.000000 0.000000 
#    y 0.000000 4.856460 0.000000 
#    z 0.000000 0.000000 4.953140 
# 
# 
# High freq. dielectric constant tensor:
#      x y z
#    x 2.135620 0.000000 0.000000 
#    y 0.000000 2.092080 0.000000 
#    z 0.000000 0.000000 2.092390 
# 
# From -- ./inp_files/23386.got.cif
#   From: 2010.03.12/outbox.cif.g09.slc.cpg/sg60_12_cif.got.tgz:23386.got - 2010.04.10 18:46:24.
