data_PCOD8248514
_publ_section_title
;
Structure prediction by ZEFSAII (Michael W. Deem and Ramdas Pophale) SiO2 
 PCOD8248514
Probable space group: P B C N
;
_chemical_formula_sum "Si O2"
_cell_formula_units_Z 40
_cell_length_a 5.212471
_cell_length_b 13.050013
_cell_length_c 25.404084
_cell_angle_alpha 90.000000
_cell_angle_beta 90.000000
_cell_angle_gamma 90.000000
_cell_volume 1728.057289
_symmetry_space_group_name_H-M "P B C N"
_symmetry_group_IT_number 60
_symmetry_cell_setting 'orthorhombic'
loop_
_space_group_symop_operation_xyz
x,y,z
1/2-x,1/2-y,1/2+z
1/2+x,1/2-y,-z
-x,y,1/2-z
-x,-y,-z
1/2+x,1/2+y,1/2-z
1/2-x,1/2+y,z
x,-y,1/2+z
loop_
_atom_site_type_symbol
_atom_site_label
_atom_site_fract_x
_atom_site_fract_y
_atom_site_fract_z
Si Si1 0.985457 0.120222 0.387636
Si Si2 0.869987 0.474891 0.444958
Si Si3 0.485051 0.153388 0.647599
Si Si4 0.374717 0.685019 0.494132
Si Si5 0.966416 0.943762 0.190127
O O1 0.184772 0.137080 0.435972
O O2 0.928031 0.226946 0.359129
O O3 0.102861 0.043596 0.344540
O O4 0.724257 0.074460 0.413253
O O5 0.048295 0.403211 0.407950
O O6 0.625186 0.403659 0.461522
O O7 0.000000 0.500000 0.500000
O O8 0.731033 0.136417 0.685211
O O9 0.229800 0.106059 0.671822
O O10 0.656145 0.733045 0.492693
O O11 0.000000 0.979118 0.250000
#
# Coordination Sequence:
#
# PCOD8248514 Si02
#       5
#     8   8   8   8   8
#     4  11  26  44  74 105 145 190 244 286 363 429
#     4  11  24  44  68 108 150 193 239 286 342 432
#     4  11  26  45  72 103 140 181 236 297 360 425
#     4  12  25  41  69 103 151 193 228 280 354 424
#     4  11  27  50  72 101 136 180 244 310 363 425
#
# _framework density 23.147382
#
# number of rings (size 3 to 8) (size 9 to 14) (size 15 to 20)
#    0.000    0.800    2.000    3.600    5.600    6.400 
#    0.000    0.000    0.000    0.000    0.000    0.000 
#    0.000    0.000    0.000    0.000    0.000    0.000 
#
# Total GULP energy -495969.922869 kJ/mol
# GULP energy per Si atom -12399.248072 kJ/mol
# Density = 2.309470 g / cm^3
# Si number density = 23.147382 Si / 1000 Ang^3
#
#
#
# Elastic Constant Matrix: (Units=GPa)
#
#
# Indices 1 2 3 4 5 6 
#
# 1 97.8310 31.9032 26.1405 0.0000 0.0000 0.0000
# 2 31.9032 125.6249 64.0738 0.0000 0.0000 0.0000
# 3 26.1405 64.0738 132.1745 0.0000 0.0000 0.0000
# 4 0.0000 0.0000 0.0000 30.4158 0.0000 0.0000
# 5 0.0000 0.0000 0.0000 0.0000 26.3407 0.0000
# 6 0.0000 0.0000 0.0000 0.0000 0.0000 16.4963
#
#
#
# Elastic Compliance Matrix: (Units=1/GPa)
#
#
# Indices 1 2 3 4 5 6 
#
# 1 0.011268 -0.002291 -0.001118 0.000000 0.000000 0.000000
# 2 -0.002291 0.011041 -0.004899 0.000000 0.000000 0.000000
# 3 -0.001118 -0.004899 0.010162 0.000000 0.000000 0.000000
# 4 0.000000 0.000000 0.000000 0.032878 0.000000 0.000000
# 5 0.000000 0.000000 0.000000 0.000000 0.037964 0.000000
# 6 0.000000 0.000000 0.000000 0.000000 0.000000 0.060620
#
#
# Mechanical properties :
#
#
# Convention : Reuss Voigt Hill
#
# Bulk Modulus (GPa) = 63.07590 66.65171 64.86380
# Shear Modulus (GPa) = 26.90596 30.21808 28.56202
#
# Velocity S-wave (km/s) = 3.41306 3.61704 3.51653
# Velocity P-wave (km/s) = 6.54529 6.80448 6.67614
#
# Compressibility (1/GPa) = 0.01585392
#
# Stress axis : x y z
#
# Youngs Moduli (GPa) = 88.75013 90.57280 98.40885
#
# Poissons Ratio (x) = 0.20754 0.10998
# Poissons Ratio (y) = 0.20337 0.48211
# Poissons Ratio (z) = 0.09919 0.44372
#
# Static dielectric constant tensor:
#      x y z
#    x 3.919570 0.000000 0.000000 
#    y 0.000000 4.535080 0.000000 
#    z 0.000000 0.000000 4.453780 
# 
# 
# High freq. dielectric constant tensor:
#      x y z
#    x 1.904700 0.000000 0.000000 
#    y 0.000000 1.928590 0.000000 
#    z 0.000000 0.000000 1.914080 
# 
# From -- ./inp_files/24750.got.cif
#   From: 2010.03.12/outbox.cif.g09.slc.cpg/sg60_13_cif.got.tgz:24750.got - 2010.04.10 18:46:24.
