data_PCOD8248312
_publ_section_title
;
Structure prediction by ZEFSAII (Michael W. Deem and Ramdas Pophale) SiO2 
 PCOD8248312
Probable space group: P B C N
;
_chemical_formula_sum "Si O2"
_cell_formula_units_Z 64
_cell_length_a 15.107300
_cell_length_b 11.851892
_cell_length_c 17.013373
_cell_angle_alpha 90.000000
_cell_angle_beta 90.000000
_cell_angle_gamma 90.000000
_cell_volume 3046.245933
_symmetry_space_group_name_H-M "P B C N"
_symmetry_group_IT_number 60
_symmetry_cell_setting 'orthorhombic'
loop_
_space_group_symop_operation_xyz
x,y,z
1/2-x,1/2-y,1/2+z
1/2+x,1/2-y,-z
-x,y,1/2-z
-x,-y,-z
1/2+x,1/2+y,1/2-z
1/2-x,1/2+y,z
x,-y,1/2+z
loop_
_atom_site_type_symbol
_atom_site_label
_atom_site_fract_x
_atom_site_fract_y
_atom_site_fract_z
Si Si1 0.454076 0.453647 0.831387
Si Si2 0.604504 0.914888 0.229940
Si Si3 0.773383 0.270737 0.340295
Si Si4 0.165915 0.771734 0.877490
Si Si5 0.950801 0.185396 0.602892
Si Si6 0.860495 0.136174 0.954605
Si Si7 0.391475 0.382701 0.557801
Si Si8 0.662466 0.168536 0.202495
O O1 0.500000 0.479659 0.750000
O O2 0.376073 0.364338 0.818084
O O3 0.412045 0.569249 0.862088
O O4 0.517601 0.396745 0.895457
O O5 0.500000 0.920985 0.250000
O O6 0.651932 0.847080 0.299850
O O7 0.627199 0.849763 0.148694
O O8 0.647893 0.037331 0.219560
O O9 0.727869 0.348609 0.404880
O O10 0.817235 0.164397 0.383975
O O11 0.697436 0.227145 0.281538
O O12 0.269948 0.793983 0.866661
O O13 0.141317 0.787865 0.967769
O O14 0.908594 0.201253 0.515757
O O15 0.929170 0.283752 0.665725
O O16 0.056711 0.176164 0.597768
O O17 0.864452 0.004568 0.976775
#
# Coordination Sequence:
#
# PCOD8248312 Si02
#       8
#     8   8   8   8   8   8   8   8
#     4  11  21  36  71  96 125 167 221 281 336 399
#     4  11  26  46  67  96 140 184 226 280 345 420
#     4  11  25  41  70  97 134 180 233 281 340 410
#     4  11  22  43  67  96 130 176 227 276 341 411
#     4  11  24  41  66  98 137 171 222 283 347 400
#     4  11  23  40  70  98 133 173 225 286 343 406
#     4  11  21  44  63 102 132 172 223 288 344 402
#     4  11  27  42  65  97 136 179 229 283 337 409
#
# _framework density 21.009466
#
# number of rings (size 3 to 8) (size 9 to 14) (size 15 to 20)
#    0.000    1.000    2.500    4.875    8.750    1.000 
#    0.000    1.875    0.000    0.000    0.000    0.000 
#    0.000    0.000    0.000    0.000    0.000    0.000 
#
# Total GULP energy -793532.867369 kJ/mol
# GULP energy per Si atom -12398.951053 kJ/mol
# Density = 2.096165 g / cm^3
# Si number density = 21.009466 Si / 1000 Ang^3
#
#
#
# Elastic Constant Matrix: (Units=GPa)
#
#
# Indices 1 2 3 4 5 6 
#
# 1 69.9110 39.0572 23.3982 0.0000 0.0000 0.0000
# 2 39.0572 88.2537 36.0748 0.0000 0.0000 0.0000
# 3 23.3982 36.0748 104.5415 0.0000 0.0000 0.0000
# 4 0.0000 0.0000 0.0000 27.5412 0.0000 0.0000
# 5 0.0000 0.0000 0.0000 0.0000 36.2624 0.0000
# 6 0.0000 0.0000 0.0000 0.0000 0.0000 31.8510
#
#
#
# Elastic Compliance Matrix: (Units=1/GPa)
#
#
# Indices 1 2 3 4 5 6 
#
# 1 0.019227 -0.007858 -0.001592 0.000000 0.000000 0.000000
# 2 -0.007858 0.016404 -0.003902 0.000000 0.000000 0.000000
# 3 -0.001592 -0.003902 0.011268 0.000000 0.000000 0.000000
# 4 0.000000 0.000000 0.000000 0.036309 0.000000 0.000000
# 5 0.000000 0.000000 0.000000 0.000000 0.027577 0.000000
# 6 0.000000 0.000000 0.000000 0.000000 0.000000 0.031396
#
#
# Mechanical properties :
#
#
# Convention : Reuss Voigt Hill
#
# Bulk Modulus (GPa) = 49.51620 51.08517 50.30069
# Shear Modulus (GPa) = 28.47127 30.07601 29.27364
#
# Velocity S-wave (km/s) = 3.68525 3.78768 3.73682
# Velocity P-wave (km/s) = 6.45970 6.59521 6.52781
#
# Compressibility (1/GPa) = 0.02019541
#
# Stress axis : x y z
#
# Youngs Moduli (GPa) = 52.01070 60.96230 88.74565
#
# Poissons Ratio (x) = 0.47906 0.14124
# Poissons Ratio (y) = 0.40872 0.34625
# Poissons Ratio (z) = 0.08278 0.23785
#
# Static dielectric constant tensor:
#      x y z
#    x 3.981580 0.000000 0.000000 
#    y 0.000000 3.764290 0.000000 
#    z 0.000000 0.000000 5.826460 
# 
# 
# High freq. dielectric constant tensor:
#      x y z
#    x 1.828240 0.000000 0.000000 
#    y 0.000000 1.813120 0.000000 
#    z 0.000000 0.000000 1.835280 
# 
# From -- ./inp_files/20646.got.cif
#   From: 2010.03.12/outbox.cif.g09.slc.cpg/sg60_11_cif.got.tgz:20646.got - 2010.04.10 18:46:24.
