data_PCOD8248836
_publ_section_title
;
Structure prediction by ZEFSAII (Michael W. Deem and Ramdas Pophale) SiO2 
 PCOD8248836
Probable space group: P B C A
;
_chemical_formula_sum "Si O2"
_cell_formula_units_Z 48
_cell_length_a 8.741432
_cell_length_b 12.191192
_cell_length_c 24.859756
_cell_angle_alpha 90.000000
_cell_angle_beta 90.000000
_cell_angle_gamma 90.000000
_cell_volume 2649.266307
_symmetry_space_group_name_H-M "P B C A"
_symmetry_group_IT_number 61
_symmetry_cell_setting 'orthorhombic'
loop_
_space_group_symop_operation_xyz
x,y,z
1/2-x,-y,1/2+z
1/2+x,1/2-y,-z
-x,1/2+y,1/2-z
-x,-y,-z
1/2+x,y,1/2-z
1/2-x,1/2+y,z
x,1/2-y,1/2+z
loop_
_atom_site_type_symbol
_atom_site_label
_atom_site_fract_x
_atom_site_fract_y
_atom_site_fract_z
Si Si1 0.043733 0.985013 0.573978
Si Si2 0.941333 0.754879 0.565155
Si Si3 0.781122 0.097577 0.740273
Si Si4 0.989688 0.720441 0.685541
Si Si5 0.853814 0.348563 0.014279
Si Si6 0.050557 0.970269 0.692657
O O1 0.173139 0.946678 0.530137
O O2 0.914041 0.886453 0.574498
O O3 0.117330 0.992405 0.632960
O O4 0.971008 0.101715 0.558395
O O5 0.997486 0.701781 0.621156
O O6 0.794109 0.690529 0.545114
O O7 0.070180 0.745248 0.517857
O O8 0.673466 0.180473 0.707730
O O9 0.867051 0.157625 0.789060
O O10 0.902325 0.047242 0.698970
O O11 0.681024 0.999393 0.764801
O O12 0.003036 0.846125 0.702590
#
# Coordination Sequence:
#
# PCOD8248836 Si02
#       6
#     8   8   8   8   8   8
#     4   8  18  33  54  70 103 139 167 203 270 299
#     4   9  18  32  55  73 104 132 174 210 255 307
#     4  10  21  33  57  78 104 140 176 213 268 309
#     4  10  20  36  53  82 103 139 176 217 261 316
#     4   9  17  34  52  73  99 140 165 211 255 309
#     4  10  19  36  54  75 109 137 170 224 256 316
#
# _framework density 18.118223
#
# number of rings (size 3 to 8) (size 9 to 14) (size 15 to 20)
#    1.000    1.667    0.000    2.000    0.000    1.333 
#    0.000    0.833   14.667    0.000    0.000    0.000 
#    0.000    0.000    0.000    0.000    0.000    0.000 
#
# Total GULP energy -594638.922307 kJ/mol
# GULP energy per Si atom -12388.310881 kJ/mol
# Density = 1.807698 g / cm^3
# Si number density = 18.118223 Si / 1000 Ang^3
#
#
#
# Elastic Constant Matrix: (Units=GPa)
#
#
# Indices 1 2 3 4 5 6 
#
# 1 55.4002 25.0799 21.5890 0.0000 0.0000 0.0000
# 2 25.0799 66.0798 32.4771 0.0000 0.0000 0.0000
# 3 21.5890 32.4771 83.2844 0.0000 0.0000 0.0000
# 4 0.0000 0.0000 0.0000 24.1742 0.0000 0.0000
# 5 0.0000 0.0000 0.0000 0.0000 23.3310 0.0000
# 6 0.0000 0.0000 0.0000 0.0000 0.0000 23.5490
#
#
#
# Elastic Compliance Matrix: (Units=1/GPa)
#
#
# Indices 1 2 3 4 5 6 
#
# 1 0.022418 -0.006993 -0.003084 0.000000 0.000000 0.000000
# 2 -0.006993 0.020902 -0.006338 0.000000 0.000000 0.000000
# 3 -0.003084 -0.006338 0.015278 0.000000 0.000000 0.000000
# 4 0.000000 0.000000 0.000000 0.041366 0.000000 0.000000
# 5 0.000000 0.000000 0.000000 0.000000 0.042861 0.000000
# 6 0.000000 0.000000 0.000000 0.000000 0.000000 0.042465
#
#
# Mechanical properties :
#
#
# Convention : Reuss Voigt Hill
#
# Bulk Modulus (GPa) = 38.80789 40.33959 39.57374
# Shear Modulus (GPa) = 22.05449 22.58540 22.31995
#
# Velocity S-wave (km/s) = 3.49270 3.53449 3.51366
# Velocity P-wave (km/s) = 6.14256 6.24258 6.19277
#
# Compressibility (1/GPa) = 0.02576796
#
# Stress axis : x y z
#
# Youngs Moduli (GPa) = 44.60700 47.84140 65.45242
#
# Poissons Ratio (x) = 0.33453 0.20188
# Poissons Ratio (y) = 0.31192 0.41486
# Poissons Ratio (z) = 0.13759 0.30324
#
# Static dielectric constant tensor:
#      x y z
#    x 3.007630 0.000000 0.000000 
#    y 0.000000 3.234340 0.000000 
#    z 0.000000 0.000000 3.481450 
# 
# 
# High freq. dielectric constant tensor:
#      x y z
#    x 1.669060 0.000000 0.000000 
#    y 0.000000 1.693320 0.000000 
#    z 0.000000 0.000000 1.719570 
# 
# From -- ./inp_files/2318.got.cif
#   From: 2010.03.12/outbox.cif.g09.slc.cpg/sg61_2_cif.got.tgz:2318.got - 2010.04.10 19:05:03.
