data_PCOD8248317
_publ_section_title
;
Structure prediction by ZEFSAII (Michael W. Deem and Ramdas Pophale) SiO2 
 PCOD8248317
Probable space group: P B C N
;
_chemical_formula_sum "Si O2"
_cell_formula_units_Z 40
_cell_length_a 4.878902
_cell_length_b 24.877256
_cell_length_c 15.160324
_cell_angle_alpha 90.000000
_cell_angle_beta 90.000000
_cell_angle_gamma 90.000000
_cell_volume 1840.064527
_symmetry_space_group_name_H-M "P B C N"
_symmetry_group_IT_number 60
_symmetry_cell_setting 'orthorhombic'
loop_
_space_group_symop_operation_xyz
x,y,z
1/2-x,1/2-y,1/2+z
1/2+x,1/2-y,-z
-x,y,1/2-z
-x,-y,-z
1/2+x,1/2+y,1/2-z
1/2-x,1/2+y,z
x,-y,1/2+z
loop_
_atom_site_type_symbol
_atom_site_label
_atom_site_fract_x
_atom_site_fract_y
_atom_site_fract_z
Si Si1 0.917193 0.068359 0.081012
Si Si2 0.752873 0.964939 0.189885
Si Si3 0.511674 0.217935 0.024564
Si Si4 0.255842 0.669811 0.307961
Si Si5 0.423902 0.097637 0.972842
O O1 0.878287 0.116964 0.147854
O O2 0.866968 0.013252 0.131091
O O3 0.721868 0.074034 0.995752
O O4 0.224544 0.070049 0.044374
O O5 0.500000 0.984678 0.250000
O O6 0.653552 0.916569 0.127120
O O7 0.000000 0.942872 0.250000
O O8 0.651333 0.212395 0.120275
O O9 0.237730 0.253230 0.036888
O O10 0.421226 0.161838 0.981545
O O11 0.500000 0.696210 0.250000
O O12 0.000000 0.651265 0.250000
#
# Coordination Sequence:
#
# PCOD8248317 Si02
#       5
#     8   8   8   8   8
#     4  11  21  39  64  92 125 161 199 248 309 372
#     4  12  24  39  61  94 130 165 199 244 301 371
#     4  11  23  42  65  88 121 167 211 254 308 366
#     4  11  21  37  62  95 122 149 198 265 312 348
#     4  11  23  41  64  89 122 166 210 251 301 371
#
# _framework density 21.738368999999999
#
# number of rings (size 3 to 8) (size 9 to 14) (size 15 to 20)
#    0.000    0.800    0.000   10.800    0.000    0.000 
#    0.000    4.000    0.000    0.000    0.000    0.000 
#    0.000    0.000    0.000    0.000    0.000    0.000 
#
# Total GULP energy -496228.301366 kJ/mol
# GULP energy per Si atom -12405.707534 kJ/mol
# Density = 2.168889 g / cm^3
# Si number density = 21.738369 Si / 1000 Ang^3
#
#
#
# Elastic Constant Matrix: (Units=GPa)
#
#
# Indices 1 2 3 4 5 6 
#
# 1 99.9664 39.1678 22.9435 0.0000 0.0000 0.0000
# 2 39.1678 99.5344 57.6184 0.0000 0.0000 0.0000
# 3 22.9435 57.6184 96.1916 0.0000 0.0000 0.0000
# 4 0.0000 0.0000 0.0000 10.4498 0.0000 0.0000
# 5 0.0000 0.0000 0.0000 0.0000 50.8417 0.0000
# 6 0.0000 0.0000 0.0000 0.0000 0.0000 31.3357
#
#
#
# Elastic Compliance Matrix: (Units=1/GPa)
#
#
# Indices 1 2 3 4 5 6 
#
# 1 0.011827 -0.004625 -0.000051 0.000000 0.000000 0.000000
# 2 -0.004625 0.017188 -0.009192 0.000000 0.000000 0.000000
# 3 -0.000051 -0.009192 0.015914 0.000000 0.000000 0.000000
# 4 0.000000 0.000000 0.000000 0.095695 0.000000 0.000000
# 5 0.000000 0.000000 0.000000 0.000000 0.019669 0.000000
# 6 0.000000 0.000000 0.000000 0.000000 0.000000 0.031912
#
#
# Mechanical properties :
#
#
# Convention : Reuss Voigt Hill
#
# Bulk Modulus (GPa) = 58.16180 59.46132 58.81156
# Shear Modulus (GPa) = 22.15597 30.25631 26.20614
#
# Velocity S-wave (km/s) = 3.19597 3.73478 3.47583
# Velocity P-wave (km/s) = 6.35865 6.78312 6.57431
#
# Compressibility (1/GPa) = 0.01719342
#
# Stress axis : x y z
#
# Youngs Moduli (GPa) = 84.55230 58.18042 62.83674
#
# Poissons Ratio (x) = 0.26906 0.00319
# Poissons Ratio (y) = 0.39102 0.57762
# Poissons Ratio (z) = 0.00430 0.53482
#
# Static dielectric constant tensor:
#      x y z
#    x 4.293610 0.000000 0.000000 
#    y 0.000000 3.712460 0.000000 
#    z 0.000000 0.000000 4.097250 
# 
# 
# High freq. dielectric constant tensor:
#      x y z
#    x 1.882800 0.000000 0.000000 
#    y 0.000000 1.834420 0.000000 
#    z 0.000000 0.000000 1.856670 
# 
# From -- ./inp_files/9045.got.cif
#   From: 2010.03.12/outbox.cif.g09.slc.cpg/sg60_5_cif.got.tgz:9045.got - 2010.04.10 18:46:24.
