data_PCOD8248298
_publ_section_title
;
Structure prediction by ZEFSAII (Michael W. Deem and Ramdas Pophale) SiO2 
 PCOD8248298
Probable space group: P B C N
;
_chemical_formula_sum "Si O2"
_cell_formula_units_Z 56
_cell_length_a 12.484416
_cell_length_b 8.803006
_cell_length_c 20.762001
_cell_angle_alpha 90.000000
_cell_angle_beta 90.000000
_cell_angle_gamma 90.000000
_cell_volume 2281.751985
_symmetry_space_group_name_H-M "P B C N"
_symmetry_group_IT_number 60
_symmetry_cell_setting 'orthorhombic'
loop_
_space_group_symop_operation_xyz
x,y,z
1/2-x,1/2-y,1/2+z
1/2+x,1/2-y,-z
-x,y,1/2-z
-x,-y,-z
1/2+x,1/2+y,1/2-z
1/2-x,1/2+y,z
x,-y,1/2+z
loop_
_atom_site_type_symbol
_atom_site_label
_atom_site_fract_x
_atom_site_fract_y
_atom_site_fract_z
Si Si1 0.816763 0.598355 0.403762
Si Si2 0.617382 0.424804 0.362121
Si Si3 0.706777 0.694748 0.741055
Si Si4 0.073067 0.617884 0.694045
Si Si5 0.903978 0.578996 0.534495
Si Si6 0.723103 0.952139 0.651803
Si Si7 0.945110 0.151822 0.113219
O O1 0.700815 0.562706 0.374228
O O2 0.844774 0.775731 0.399548
O O3 0.905887 0.500560 0.364464
O O4 0.810463 0.570112 0.480711
O O5 0.613720 0.377390 0.286184
O O6 0.503044 0.486289 0.388921
O O7 0.816320 0.691336 0.781784
O O8 0.676700 0.865573 0.716282
O O9 0.719672 0.604834 0.674939
O O10 0.000192 0.757871 0.671243
O O11 0.000000 0.539918 0.750000
O O12 0.868255 0.491984 0.599881
O O13 0.000000 0.500000 0.500000
O O14 0.949802 0.748482 0.548129
O O15 0.817716 0.853766 0.622031
#
# Coordination Sequence:
#
# PCOD8248298 Si02
#       7
#     8   8   8   8   8   8   8
#     4  11  26  47  74 110 152 208 252 317 382 470
#     4  11  26  47  77 113 150 197 258 319 399 461
#     4  11  23  43  76 112 154 190 245 322 385 466
#     4  11  20  44  76 109 154 198 250 311 395 450
#     4  12  28  50  75 105 152 208 264 314 382 464
#     4  12  25  47  73 112 151 198 252 316 384 454
#     4  12  26  48  75 109 149 201 254 326 383 458
#
# _framework density 24.542545
#
# number of rings (size 3 to 8) (size 9 to 14) (size 15 to 20)
#    0.000    0.571    4.286    4.286    2.000    1.714 
#    2.571    0.000    0.000    0.000    0.000    0.000 
#    0.000    0.000    0.000    0.000    0.000    0.000 
#
# Total GULP energy -694027.303053 kJ/mol
# GULP energy per Si atom -12393.344697 kJ/mol
# Density = 2.448668 g / cm^3
# Si number density = 24.542545 Si / 1000 Ang^3
#
#
#
# Elastic Constant Matrix: (Units=GPa)
#
#
# Indices 1 2 3 4 5 6 
#
# 1 69.2340 27.3474 23.3596 0.0000 0.0000 0.0000
# 2 27.3474 108.1787 36.0939 0.0000 0.0000 0.0000
# 3 23.3596 36.0939 144.3690 0.0000 0.0000 0.0000
# 4 0.0000 0.0000 0.0000 42.7665 0.0000 0.0000
# 5 0.0000 0.0000 0.0000 0.0000 26.2707 0.0000
# 6 0.0000 0.0000 0.0000 0.0000 0.0000 42.2388
#
#
#
# Elastic Compliance Matrix: (Units=1/GPa)
#
#
# Indices 1 2 3 4 5 6 
#
# 1 0.016450 -0.003568 -0.001770 0.000000 0.000000 0.000000
# 2 -0.003568 0.010859 -0.002138 0.000000 0.000000 0.000000
# 3 -0.001770 -0.002138 0.007747 0.000000 0.000000 0.000000
# 4 0.000000 0.000000 0.000000 0.023383 0.000000 0.000000
# 5 0.000000 0.000000 0.000000 0.000000 0.038065 0.000000
# 6 0.000000 0.000000 0.000000 0.000000 0.000000 0.023675
#
#
# Mechanical properties :
#
#
# Convention : Reuss Voigt Hill
#
# Bulk Modulus (GPa) = 49.73601 55.04258 52.38930
# Shear Modulus (GPa) = 35.25280 37.92058 36.58669
#
# Velocity S-wave (km/s) = 3.79409 3.93503 3.86521
# Velocity P-wave (km/s) = 6.28512 6.56674 6.42747
#
# Compressibility (1/GPa) = 0.02010616
#
# Stress axis : x y z
#
# Youngs Moduli (GPa) = 60.78925 92.08786 129.07467
#
# Poissons Ratio (x) = 0.32858 0.22842
# Poissons Ratio (y) = 0.21691 0.27591
# Poissons Ratio (z) = 0.10758 0.19685
#
# Static dielectric constant tensor:
#      x y z
#    x 4.701130 0.000000 0.000000 
#    y 0.000000 4.507780 0.000000 
#    z 0.000000 0.000000 21.599430 
# 
# 
# High freq. dielectric constant tensor:
#      x y z
#    x 1.966230 0.000000 0.000000 
#    y 0.000000 1.981780 0.000000 
#    z 0.000000 0.000000 1.975860 
# 
# From -- ./inp_files/22917.got.cif
#   From: 2010.03.12/outbox.cif.g09.slc.cpg/sg60_12_cif.got.tgz:22917.got - 2010.04.10 18:46:24.
