data_PCOD8248046
_publ_section_title
;
Structure prediction by ZEFSAII (Michael W. Deem and Ramdas Pophale) SiO2 
 PCOD8248046
Probable space group: P B C N
;
_chemical_formula_sum "Si O2"
_cell_formula_units_Z 40
_cell_length_a 8.445555
_cell_length_b 9.005696
_cell_length_c 21.599848
_cell_angle_alpha 90.000000
_cell_angle_beta 90.000000
_cell_angle_gamma 90.000000
_cell_volume 1642.843418
_symmetry_space_group_name_H-M "P B C N"
_symmetry_group_IT_number 60
_symmetry_cell_setting 'orthorhombic'
loop_
_space_group_symop_operation_xyz
x,y,z
1/2-x,1/2-y,1/2+z
1/2+x,1/2-y,-z
-x,y,1/2-z
-x,-y,-z
1/2+x,1/2+y,1/2-z
1/2-x,1/2+y,z
x,-y,1/2+z
loop_
_atom_site_type_symbol
_atom_site_label
_atom_site_fract_x
_atom_site_fract_y
_atom_site_fract_z
Si Si1 0.206690 0.498501 0.171362
Si Si2 0.750422 0.252145 0.744808
Si Si3 0.106591 0.108109 0.461135
Si Si4 0.415624 0.496471 0.331736
Si Si5 0.096118 0.608382 0.542367
O O1 0.147218 0.363278 0.214527
O O2 0.148833 0.650951 0.204455
O O3 0.396358 0.493498 0.165298
O O4 0.134538 0.485477 0.103517
O O5 0.859254 0.160526 0.696782
O O6 0.636054 0.366083 0.710411
O O7 0.250884 0.162319 0.503931
O O8 0.005405 0.249045 0.438824
O O9 0.161843 0.019239 0.399641
O O10 0.000000 0.000000 0.500000
O O11 0.000000 0.500000 0.500000
#
# Coordination Sequence:
#
# PCOD8248046 Si02
#       5
#     8   8   8   8   8
#     4  11  24  49  75 109 156 197 255 321 390 464
#     4  10  23  44  74 113 147 203 253 315 393 455
#     4  12  27  50  78 112 159 202 266 322 388 471
#     4  11  25  47  74 109 157 199 257 326 385 466
#     4  12  29  49  80 115 151 214 258 324 399 463
#
# _framework density 24.348030000000001
#
# number of rings (size 3 to 8) (size 9 to 14) (size 15 to 20)
#    0.000    0.800    2.000    4.800    8.400    0.000 
#    3.600    8.000    0.000    0.000    0.000    0.000 
#    0.000    0.000    0.000    0.000    0.000    0.000 
#
# Total GULP energy -496002.298014 kJ/mol
# GULP energy per Si atom -12400.057450 kJ/mol
# Density = 2.429261 g / cm^3
# Si number density = 24.348030 Si / 1000 Ang^3
#
#
#
# Elastic Constant Matrix: (Units=GPa)
#
#
# Indices 1 2 3 4 5 6 
#
# 1 88.3188 43.0593 40.7851 0.0000 0.0000 0.0000
# 2 43.0593 166.8519 76.7986 0.0000 0.0000 0.0000
# 3 40.7851 76.7986 204.7500 0.0000 0.0000 0.0000
# 4 0.0000 0.0000 0.0000 43.2610 0.0000 0.0000
# 5 0.0000 0.0000 0.0000 0.0000 45.2495 0.0000
# 6 0.0000 0.0000 0.0000 0.0000 0.0000 30.4256
#
#
#
# Elastic Compliance Matrix: (Units=1/GPa)
#
#
# Indices 1 2 3 4 5 6 
#
# 1 0.013403 -0.002695 -0.001659 0.000000 0.000000 0.000000
# 2 -0.002695 0.007786 -0.002384 0.000000 0.000000 0.000000
# 3 -0.001659 -0.002384 0.006108 0.000000 0.000000 0.000000
# 4 0.000000 0.000000 0.000000 0.023116 0.000000 0.000000
# 5 0.000000 0.000000 0.000000 0.000000 0.022100 0.000000
# 6 0.000000 0.000000 0.000000 0.000000 0.000000 0.032867
#
#
# Mechanical properties :
#
#
# Convention : Reuss Voigt Hill
#
# Bulk Modulus (GPa) = 72.34877 86.80073 79.57475
# Shear Modulus (GPa) = 40.49830 43.73906 42.11868
#
# Velocity S-wave (km/s) = 4.08279 4.24301 4.16367
# Velocity P-wave (km/s) = 7.21142 7.72862 7.47449
#
# Compressibility (1/GPa) = 0.01382194
#
# Stress axis : x y z
#
# Youngs Moduli (GPa) = 74.61169 128.43555 163.70778
#
# Poissons Ratio (x) = 0.34618 0.27155
# Poissons Ratio (y) = 0.20110 0.39020
# Poissons Ratio (z) = 0.12376 0.30613
#
# Static dielectric constant tensor:
#      x y z
#    x 2.869880 0.000000 0.000000 
#    y 0.000000 3.010330 0.000000 
#    z 0.000000 0.000000 5.786500 
# 
# 
# High freq. dielectric constant tensor:
#      x y z
#    x 1.953360 0.000000 0.000000 
#    y 0.000000 1.984650 0.000000 
#    z 0.000000 0.000000 1.991660 
# 
# From -- ./inp_files/23850.got.cif
#   From: 2010.03.12/outbox.cif.g09.slc.cpg/sg60_12_cif.got.tgz:23850.got - 2010.04.10 18:46:24.
