data_PCOD8248102
_publ_section_title
;
Structure prediction by ZEFSAII (Michael W. Deem and Ramdas Pophale) SiO2 
 PCOD8248102
Probable space group: P B C N
;
_chemical_formula_sum "Si O2"
_cell_formula_units_Z 36
_cell_length_a 18.562792
_cell_length_b 10.186354
_cell_length_c 8.706391
_cell_angle_alpha 90.000000
_cell_angle_beta 90.000000
_cell_angle_gamma 90.000000
_cell_volume 1646.266840
_symmetry_space_group_name_H-M "P B C N"
_symmetry_group_IT_number 60
_symmetry_cell_setting 'orthorhombic'
loop_
_space_group_symop_operation_xyz
x,y,z
1/2-x,1/2-y,1/2+z
1/2+x,1/2-y,-z
-x,y,1/2-z
-x,-y,-z
1/2+x,1/2+y,1/2-z
1/2-x,1/2+y,z
x,-y,1/2+z
loop_
_atom_site_type_symbol
_atom_site_label
_atom_site_fract_x
_atom_site_fract_y
_atom_site_fract_z
Si Si1 0.206857 0.676781 0.515974
Si Si2 0.500000 0.496010 0.750000
Si Si3 0.536160 0.117614 0.586259
Si Si4 0.796241 0.596337 0.634006
Si Si5 0.558558 0.326460 0.005041
O O1 0.257444 0.799666 0.476746
O O2 0.220967 0.629089 0.689712
O O3 0.226365 0.553784 0.405162
O O4 0.125081 0.725897 0.494013
O O5 0.556456 0.412164 0.850000
O O6 0.557242 0.579995 0.651943
O O7 0.500000 0.133626 0.750000
O O8 0.620358 0.104145 0.596505
O O9 0.516618 0.246440 0.488014
O O10 0.500000 0.000000 0.500000
#
# Coordination Sequence:
#
# PCOD8248102 Si02
#       5
#     8   4   8   8   8
#     4  12  27  47  73 104 151 189 247 298 379 433
#     4  10  24  40  68 102 142 182 236 294 370 424
#     4  12  23  44  75 102 140 182 250 295 351 425
#     4  12  26  47  72 110 145 198 242 310 362 448
#     4  11  23  44  68 102 139 188 234 300 356 441
#
# _framework density 21.867657999999999
#
# number of rings (size 3 to 8) (size 9 to 14) (size 15 to 20)
#    0.000    0.444    5.556    1.333    1.556   10.667 
#    0.000    0.000    0.000    0.000    0.000    0.000 
#    0.000    0.000    0.000    0.000    0.000    0.000 
#
# Total GULP energy -446364.124605 kJ/mol
# GULP energy per Si atom -12399.003461 kJ/mol
# Density = 2.181789 g / cm^3
# Si number density = 21.867658 Si / 1000 Ang^3
#
#
#
# Elastic Constant Matrix: (Units=GPa)
#
#
# Indices 1 2 3 4 5 6 
#
# 1 83.9763 37.3479 30.7964 0.0000 0.0000 0.0000
# 2 37.3479 162.7515 65.1349 0.0000 0.0000 0.0000
# 3 30.7964 65.1349 113.7625 0.0000 0.0000 0.0000
# 4 0.0000 0.0000 0.0000 27.7513 0.0000 0.0000
# 5 0.0000 0.0000 0.0000 0.0000 28.2422 0.0000
# 6 0.0000 0.0000 0.0000 0.0000 0.0000 50.6802
#
#
#
# Elastic Compliance Matrix: (Units=1/GPa)
#
#
# Indices 1 2 3 4 5 6 
#
# 1 0.013785 -0.002166 -0.002491 0.000000 0.000000 0.000000
# 2 -0.002166 0.008311 -0.004172 0.000000 0.000000 0.000000
# 3 -0.002491 -0.004172 0.011853 0.000000 0.000000 0.000000
# 4 0.000000 0.000000 0.000000 0.036034 0.000000 0.000000
# 5 0.000000 0.000000 0.000000 0.000000 0.035408 0.000000
# 6 0.000000 0.000000 0.000000 0.000000 0.000000 0.019732
#
#
# Mechanical properties :
#
#
# Convention : Reuss Voigt Hill
#
# Bulk Modulus (GPa) = 61.38700 69.67210 65.52955
# Shear Modulus (GPa) = 33.73506 36.48214 35.10860
#
# Velocity S-wave (km/s) = 3.93197 4.08893 4.01122
# Velocity P-wave (km/s) = 6.98190 7.36359 7.17528
#
# Compressibility (1/GPa) = 0.01629009
#
# Stress axis : x y z
#
# Youngs Moduli (GPa) = 72.54123 120.31954 84.36346
#
# Poissons Ratio (x) = 0.26065 0.21019
# Poissons Ratio (y) = 0.15715 0.35198
# Poissons Ratio (z) = 0.18073 0.50199
#
# Static dielectric constant tensor:
#      x y z
#    x 4.165510 0.000000 0.000000 
#    y 0.000000 4.424710 0.000000 
#    z 0.000000 0.000000 4.220300 
# 
# 
# High freq. dielectric constant tensor:
#      x y z
#    x 1.848570 0.000000 0.000000 
#    y 0.000000 1.890210 0.000000 
#    z 0.000000 0.000000 1.870520 
# 
# From -- ./inp_files/7189.got.cif
#   From: 2010.03.12/outbox.cif.g09.slc.cpg/sg60_4_cif.got.tgz:7189.got - 2010.04.10 18:46:24.
