data_PCOD8248907
_publ_section_title
;
Structure prediction by ZEFSAII (Michael W. Deem and Ramdas Pophale) SiO2 
 PCOD8248907
Probable space group: P B C A
;
_chemical_formula_sum "Si O2"
_cell_formula_units_Z 64
_cell_length_a 19.000132
_cell_length_b 8.849947
_cell_length_c 20.307917
_cell_angle_alpha 90.000000
_cell_angle_beta 90.000000
_cell_angle_gamma 90.000000
_cell_volume 3414.779517
_symmetry_space_group_name_H-M "P B C A"
_symmetry_group_IT_number 61
_symmetry_cell_setting 'orthorhombic'
loop_
_space_group_symop_operation_xyz
x,y,z
1/2-x,-y,1/2+z
1/2+x,1/2-y,-z
-x,1/2+y,1/2-z
-x,-y,-z
1/2+x,y,1/2-z
1/2-x,1/2+y,z
x,1/2-y,1/2+z
loop_
_atom_site_type_symbol
_atom_site_label
_atom_site_fract_x
_atom_site_fract_y
_atom_site_fract_z
Si Si1 0.037535 0.685963 0.936155
Si Si2 0.444523 0.837729 0.942597
Si Si3 0.453204 0.661541 0.693386
Si Si4 0.311111 0.688067 0.986908
Si Si5 0.668764 0.838157 0.511203
Si Si6 0.669201 0.658849 0.859575
Si Si7 0.815588 0.803326 0.861217
Si Si8 0.031787 0.692056 0.186654
O O1 0.065620 0.516859 0.945594
O O2 0.102595 0.799128 0.943331
O O3 0.003755 0.714393 0.865444
O O4 0.979938 0.725039 0.991101
O O5 0.491855 0.786567 0.881952
O O6 0.367721 0.763647 0.938373
O O7 0.374114 0.716512 0.680724
O O8 0.452356 0.481987 0.701579
O O9 0.481364 0.739283 0.758661
O O10 0.325574 0.739002 0.062102
O O11 0.312454 0.510584 0.978791
O O12 0.234460 0.740571 0.963925
O O13 0.651544 0.800903 0.435213
O O14 0.739659 0.745235 0.836888
O O15 0.679107 0.481254 0.848606
O O16 0.605017 0.716931 0.814878
#
# Coordination Sequence:
#
# PCOD8248907 Si02
#       8
#     8   8   8   8   8   8   8   8
#     4  10  20  36  58  83 113 147 186 232 283 334
#     4  10  20  36  58  83 113 147 186 232 283 334
#     4  11  23  39  59  84 117 154 191 236 285 341
#     4  10  20  33  55  85 117 149 187 236 285 338
#     4  10  20  33  55  85 117 149 187 236 285 338
#     4  10  20  35  57  85 115 149 190 234 283 339
#     4  10  20  35  57  85 115 149 190 234 283 339
#     4  11  23  39  59  84 117 154 191 236 285 341
#
# _framework density 18.742058
#
# number of rings (size 3 to 8) (size 9 to 14) (size 15 to 20)
#    0.000    1.750    2.500    2.250    0.000    4.500 
#    0.000    1.250    0.000    6.000    0.000    0.000 
#    0.000    0.000    0.000    0.000    0.000    0.000 
#
# Total GULP energy -793939.670042 kJ/mol
# GULP energy per Si atom -12405.307344 kJ/mol
# Density = 1.869940 g / cm^3
# Si number density = 18.742058 Si / 1000 Ang^3
#
#
#
# Elastic Constant Matrix: (Units=GPa)
#
#
# Indices 1 2 3 4 5 6 
#
# 1 63.4254 13.3808 -0.7191 0.0000 0.0000 0.0000
# 2 13.3808 53.2688 21.1243 0.0000 0.0000 0.0000
# 3 -0.7191 21.1243 29.3643 0.0000 0.0000 0.0000
# 4 0.0000 0.0000 0.0000 25.6562 0.0000 0.0000
# 5 0.0000 0.0000 0.0000 0.0000 28.6427 0.0000
# 6 0.0000 0.0000 0.0000 0.0000 0.0000 38.3616
#
#
#
# Elastic Compliance Matrix: (Units=1/GPa)
#
#
# Indices 1 2 3 4 5 6 
#
# 1 0.017143 -0.006258 0.004922 0.000000 0.000000 0.000000
# 2 -0.006258 0.028550 -0.020692 0.000000 0.000000 0.000000
# 3 0.004922 -0.020692 0.049061 0.000000 0.000000 0.000000
# 4 0.000000 0.000000 0.000000 0.038977 0.000000 0.000000
# 5 0.000000 0.000000 0.000000 0.000000 0.034913 0.000000
# 6 0.000000 0.000000 0.000000 0.000000 0.000000 0.026068
#
#
# Mechanical properties :
#
#
# Convention : Reuss Voigt Hill
#
# Bulk Modulus (GPa) = 19.72484 23.73671 21.73078
# Shear Modulus (GPa) = 19.55672 26.01693 22.78683
#
# Velocity S-wave (km/s) = 3.23378 3.72984 3.49063
# Velocity P-wave (km/s) = 4.94877 5.58940 5.27881
#
# Compressibility (1/GPa) = 0.05069750
#
# Stress axis : x y z
#
# Youngs Moduli (GPa) = 58.33437 35.02605 20.38281
#
# Poissons Ratio (x) = 0.21919 -0.10032
# Poissons Ratio (y) = 0.36504 0.42176
# Poissons Ratio (z) = -0.28710 0.72475
#
# Static dielectric constant tensor:
#      x y z
#    x 3.488100 0.000000 0.000000 
#    y 0.000000 3.438590 0.000000 
#    z 0.000000 0.000000 3.214410 
# 
# 
# High freq. dielectric constant tensor:
#      x y z
#    x 1.741730 0.000000 0.000000 
#    y 0.000000 1.738460 0.000000 
#    z 0.000000 0.000000 1.697520 
# 
# From -- ./inp_files/9035.got.cif
#   From: 2010.03.12/outbox.cif.g09.slc.cpg/sg61_5_cif.got.tgz:9035.got - 2010.04.10 19:05:03.
