data_PCOD8248632
_publ_section_title
;
Structure prediction by ZEFSAII (Michael W. Deem and Ramdas Pophale) SiO2 
 PCOD8248632
Probable space group: P B C N
;
_chemical_formula_sum "Si O2"
_cell_formula_units_Z 40
_cell_length_a 11.957372
_cell_length_b 8.006655
_cell_length_c 16.228615
_cell_angle_alpha 90.000000
_cell_angle_beta 90.000000
_cell_angle_gamma 90.000000
_cell_volume 1553.704106
_symmetry_space_group_name_H-M "P B C N"
_symmetry_group_IT_number 60
_symmetry_cell_setting 'orthorhombic'
loop_
_space_group_symop_operation_xyz
x,y,z
1/2-x,1/2-y,1/2+z
1/2+x,1/2-y,-z
-x,y,1/2-z
-x,-y,-z
1/2+x,1/2+y,1/2-z
1/2-x,1/2+y,z
x,-y,1/2+z
loop_
_atom_site_type_symbol
_atom_site_label
_atom_site_fract_x
_atom_site_fract_y
_atom_site_fract_z
Si Si1 0.821933 0.842643 0.993672
Si Si2 0.318322 0.354385 0.901944
Si Si3 0.869808 0.961651 0.258172
Si Si4 0.010128 0.611612 0.580672
Si Si5 0.322942 0.127313 0.151900
O O1 0.923282 0.779190 0.939714
O O2 0.702758 0.822215 0.943282
O O3 0.803233 0.723195 0.074607
O O4 0.853886 0.029959 0.020437
O O5 0.308518 0.480202 0.825121
O O6 0.394724 0.189401 0.885190
O O7 0.858671 0.766682 0.281656
O O8 0.000000 0.013265 0.250000
O O9 0.800721 0.055249 0.328626
O O10 0.076538 0.508454 0.651683
O O11 0.000000 0.500000 0.500000
#
# Coordination Sequence:
#
# PCOD8248632 Si02
#       5
#     8   8   8   8   8
#     4  12  23  47  78 112 158 200 269 330 388 477
#     4  12  25  46  76 119 157 208 268 326 401 483
#     4  12  29  50  76 113 162 218 265 329 412 481
#     4  12  25  44  82 117 156 205 268 332 401 476
#     4  12  25  52  76 113 163 209 267 335 398 482
#
# _framework density 25.744928000000002
#
# number of rings (size 3 to 8) (size 9 to 14) (size 15 to 20)
#    0.000    0.000    6.000    3.000    2.800    0.000 
#    7.200    0.000    0.000    0.000    0.000    0.000 
#    0.000    0.000    0.000    0.000    0.000    0.000 
#
# Total GULP energy -495589.203777 kJ/mol
# GULP energy per Si atom -12389.730094 kJ/mol
# Density = 2.568633 g / cm^3
# Si number density = 25.744928 Si / 1000 Ang^3
#
#
#
# Elastic Constant Matrix: (Units=GPa)
#
#
# Indices 1 2 3 4 5 6 
#
# 1 69.1184 19.4756 23.8111 0.0000 0.0000 0.0000
# 2 19.4756 129.2243 45.6207 0.0000 0.0000 0.0000
# 3 23.8111 45.6207 77.4341 0.0000 0.0000 0.0000
# 4 0.0000 0.0000 0.0000 50.6653 0.0000 0.0000
# 5 0.0000 0.0000 0.0000 0.0000 39.5811 0.0000
# 6 0.0000 0.0000 0.0000 0.0000 0.0000 43.7747
#
#
#
# Elastic Compliance Matrix: (Units=1/GPa)
#
#
# Indices 1 2 3 4 5 6 
#
# 1 0.016258 -0.000865 -0.004490 0.000000 0.000000 0.000000
# 2 -0.000865 0.009817 -0.005518 0.000000 0.000000 0.000000
# 3 -0.004490 -0.005518 0.017545 0.000000 0.000000 0.000000
# 4 0.000000 0.000000 0.000000 0.019737 0.000000 0.000000
# 5 0.000000 0.000000 0.000000 0.000000 0.025265 0.000000
# 6 0.000000 0.000000 0.000000 0.000000 0.000000 0.022844
#
#
# Mechanical properties :
#
#
# Convention : Reuss Voigt Hill
#
# Bulk Modulus (GPa) = 45.71297 50.39907 48.05602
# Shear Modulus (GPa) = 35.58622 39.26218 37.42420
#
# Velocity S-wave (km/s) = 3.72191 3.90942 3.81682
# Velocity P-wave (km/s) = 6.02203 6.32431 6.17502
#
# Compressibility (1/GPa) = 0.02187563
#
# Stress axis : x y z
#
# Youngs Moduli (GPa) = 61.50650 101.86650 56.99474
#
# Poissons Ratio (x) = 0.08815 0.25589
# Poissons Ratio (y) = 0.05322 0.31447
# Poissons Ratio (z) = 0.27615 0.56205
#
# Static dielectric constant tensor:
#      x y z
#    x 4.584710 0.000000 0.000000 
#    y 0.000000 4.727210 0.000000 
#    z 0.000000 0.000000 4.556720 
# 
# 
# High freq. dielectric constant tensor:
#      x y z
#    x 2.018420 0.000000 0.000000 
#    y 0.000000 2.044560 0.000000 
#    z 0.000000 0.000000 2.020750 
# 
# From -- ./inp_files/19851.got.cif
#   From: 2010.03.12/outbox.cif.g09.slc.cpg/sg60_10_cif.got.tgz:19851.got - 2010.04.10 18:46:24.
