data_PCOD8248739
_publ_section_title
;
Structure prediction by ZEFSAII (Michael W. Deem and Ramdas Pophale) SiO2 
 PCOD8248739
Probable space group: P B C A
;
_chemical_formula_sum "Si O2"
_cell_formula_units_Z 48
_cell_length_a 29.037973
_cell_length_b 16.007059
_cell_length_c 5.198014
_cell_angle_alpha 90.000000
_cell_angle_beta 90.000000
_cell_angle_gamma 90.000000
_cell_volume 2416.102127
_symmetry_space_group_name_H-M "P B C A"
_symmetry_group_IT_number 61
_symmetry_cell_setting 'orthorhombic'
loop_
_space_group_symop_operation_xyz
x,y,z
1/2-x,-y,1/2+z
1/2+x,1/2-y,-z
-x,1/2+y,1/2-z
-x,-y,-z
1/2+x,y,1/2-z
1/2-x,1/2+y,z
x,1/2-y,1/2+z
loop_
_atom_site_type_symbol
_atom_site_label
_atom_site_fract_x
_atom_site_fract_y
_atom_site_fract_z
Si Si1 0.937690 0.154065 0.963401
Si Si2 0.748634 0.448691 0.435799
Si Si3 0.415553 0.699014 0.486882
Si Si4 0.650081 0.046557 0.030256
Si Si5 0.477384 0.336710 0.536169
Si Si6 0.346856 0.436460 0.970066
O O1 0.957578 0.110294 0.704051
O O2 0.947503 0.252121 0.928771
O O3 0.966944 0.113732 0.199790
O O4 0.883491 0.137619 0.994508
O O5 0.748837 0.472548 0.134094
O O6 0.699622 0.404848 0.500707
O O7 0.795388 0.396220 0.495961
O O8 0.400686 0.758126 0.721443
O O9 0.390774 0.610906 0.513261
O O10 0.469741 0.683947 0.503018
O O11 0.645523 0.007595 0.314143
O O12 0.646977 0.974876 0.813624
#
# Coordination Sequence:
#
# PCOD8248739 Si02
#       6
#     8   8   8   8   8   8
#     4  10  18  33  56  75 103 137 184 209 257 318
#     4   8  16  32  54  75 106 137 163 200 266 327
#     4  12  21  38  59  73 102 150 185 215 261 318
#     4  10  21  35  55  84 106 136 181 219 267 322
#     4  10  19  35  53  73  99 150 183 204 256 325
#     4  10  19  35  56  84 109 137 169 225 273 313
#
# _framework density 19.866709
#
# number of rings (size 3 to 8) (size 9 to 14) (size 15 to 20)
#    0.000    2.000    3.333    2.000    0.000    0.000 
#    0.000    5.000    7.333    0.000    0.000    0.000 
#    0.000    0.000    0.000    0.000    0.000    0.000 
#
# Total GULP energy -594652.145627 kJ/mol
# GULP energy per Si atom -12388.586367 kJ/mol
# Density = 1.982149 g / cm^3
# Si number density = 19.866709 Si / 1000 Ang^3
#
#
#
# Elastic Constant Matrix: (Units=GPa)
#
#
# Indices 1 2 3 4 5 6 
#
# 1 109.7858 43.4260 11.3005 0.0000 0.0000 0.0000
# 2 43.4260 23.1941 -8.4271 0.0000 0.0000 0.0000
# 3 11.3005 -8.4271 131.3867 0.0000 0.0000 0.0000
# 4 0.0000 0.0000 0.0000 20.2018 0.0000 0.0000
# 5 0.0000 0.0000 0.0000 0.0000 25.4332 0.0000
# 6 0.0000 0.0000 0.0000 0.0000 0.0000 30.4880
#
#
#
# Elastic Compliance Matrix: (Units=1/GPa)
#
#
# Indices 1 2 3 4 5 6 
#
# 1 0.043925 -0.085608 -0.009269 0.000000 0.000000 0.000000
# 2 -0.085608 0.210990 0.020896 0.000000 0.000000 0.000000
# 3 -0.009269 0.020896 0.009749 0.000000 0.000000 0.000000
# 4 0.000000 0.000000 0.000000 0.049501 0.000000 0.000000
# 5 0.000000 0.000000 0.000000 0.000000 0.039319 0.000000
# 6 0.000000 0.000000 0.000000 0.000000 0.000000 0.032800
#
#
# Mechanical properties :
#
#
# Convention : Reuss Voigt Hill
#
# Bulk Modulus (GPa) = 8.56890 39.66281 24.11586
# Shear Modulus (GPa) = 8.72380 29.76242 19.24311
#
# Velocity S-wave (km/s) = 2.09778 3.87474 3.11563
# Velocity P-wave (km/s) = 3.19220 6.32660 5.01079
#
# Compressibility (1/GPa) = 0.11670105
#
# Stress axis : x y z
#
# Youngs Moduli (GPa) = 22.76599 4.73957 102.57905
#
# Poissons Ratio (x) = 0.40575 0.95079
# Poissons Ratio (y) = 1.94895 -2.14348
# Poissons Ratio (z) = 0.21101 -0.09904
#
# Static dielectric constant tensor:
#      x y z
#    x 3.958770 0.000000 0.000000 
#    y 0.000000 2.864650 0.000000 
#    z 0.000000 0.000000 4.905790 
# 
# 
# High freq. dielectric constant tensor:
#      x y z
#    x 1.793830 0.000000 0.000000 
#    y 0.000000 1.688930 0.000000 
#    z 0.000000 0.000000 1.818040 
# 
# From -- ./inp_files/1181.got.cif
#   From: 2010.03.12/outbox.cif.g09.slc.cpg/sg61_1_cif.got.tgz:1181.got - 2010.04.10 19:05:03.
