data_PCOD8248399
_publ_section_title
;
Structure prediction by ZEFSAII (Michael W. Deem and Ramdas Pophale) SiO2 
 PCOD8248399
Probable space group: P B C N
;
_chemical_formula_sum "Si O2"
_cell_formula_units_Z 40
_cell_length_a 6.804059
_cell_length_b 23.655005
_cell_length_c 10.740402
_cell_angle_alpha 90.000000
_cell_angle_beta 90.000000
_cell_angle_gamma 90.000000
_cell_volume 1728.668235
_symmetry_space_group_name_H-M "P B C N"
_symmetry_group_IT_number 60
_symmetry_cell_setting 'orthorhombic'
loop_
_space_group_symop_operation_xyz
x,y,z
1/2-x,1/2-y,1/2+z
1/2+x,1/2-y,-z
-x,y,1/2-z
-x,-y,-z
1/2+x,1/2+y,1/2-z
1/2-x,1/2+y,z
x,-y,1/2+z
loop_
_atom_site_type_symbol
_atom_site_label
_atom_site_fract_x
_atom_site_fract_y
_atom_site_fract_z
Si Si1 0.871926 0.464602 0.361521
Si Si2 0.133710 0.692856 0.133084
Si Si3 0.092580 0.709106 0.618842
Si Si4 0.574827 0.373557 0.373409
Si Si5 0.296686 0.918536 0.522975
O O1 0.686328 0.428728 0.318803
O O2 0.777162 0.516458 0.436647
O O3 0.000000 0.490766 0.250000
O O4 0.011388 0.419754 0.434557
O O5 0.336678 0.726959 0.146761
O O6 0.164548 0.624862 0.136461
O O7 0.000000 0.710358 0.250000
O O8 0.058664 0.709643 0.994952
O O9 0.275363 0.671194 0.566782
O O10 0.000000 0.685617 0.750000
O O11 0.500000 0.341596 0.250000
O O12 0.402623 0.394563 0.463020
#
# Coordination Sequence:
#
# PCOD8248399 Si02
#       5
#     8   8   8   8   8
#     4  11  22  43  66  98 139 181 242 290 358 422
#     4  12  25  45  68 103 142 185 230 293 364 413
#     4  12  25  46  72 103 143 188 239 298 350 436
#     4  12  22  41  69 102 131 186 242 292 354 420
#     4  11  24  41  67  97 141 184 227 301 354 425
#
# _framework density 23.139199000000001
#
# number of rings (size 3 to 8) (size 9 to 14) (size 15 to 20)
#    0.000    0.400    4.000    6.000    0.000    0.000 
#    0.000    1.000    0.000    0.000    0.000    0.000 
#    0.000    0.000    0.000    0.000    0.000    0.000 
#
# Total GULP energy -495667.747742 kJ/mol
# GULP energy per Si atom -12391.693694 kJ/mol
# Density = 2.308653 g / cm^3
# Si number density = 23.139199 Si / 1000 Ang^3
#
#
#
# Elastic Constant Matrix: (Units=GPa)
#
#
# Indices 1 2 3 4 5 6 
#
# 1 76.2646 48.6753 16.4483 0.0000 0.0000 0.0000
# 2 48.6753 91.5180 9.8959 0.0000 0.0000 0.0000
# 3 16.4483 9.8959 98.9373 0.0000 0.0000 0.0000
# 4 0.0000 0.0000 0.0000 25.3741 0.0000 0.0000
# 5 0.0000 0.0000 0.0000 0.0000 35.5742 0.0000
# 6 0.0000 0.0000 0.0000 0.0000 0.0000 39.8774
#
#
#
# Elastic Compliance Matrix: (Units=1/GPa)
#
#
# Indices 1 2 3 4 5 6 
#
# 1 0.020368 -0.010581 -0.002328 0.000000 0.000000 0.000000
# 2 -0.010581 0.016543 0.000104 0.000000 0.000000 0.000000
# 3 -0.002328 0.000104 0.010484 0.000000 0.000000 0.000000
# 4 0.000000 0.000000 0.000000 0.039410 0.000000 0.000000
# 5 0.000000 0.000000 0.000000 0.000000 0.028110 0.000000
# 6 0.000000 0.000000 0.000000 0.000000 0.000000 0.025077
#
#
# Mechanical properties :
#
#
# Convention : Reuss Voigt Hill
#
# Bulk Modulus (GPa) = 45.90129 46.30654 46.10391
# Shear Modulus (GPa) = 28.92463 32.94517 30.93490
#
# Velocity S-wave (km/s) = 3.53941 3.77740 3.66034
# Velocity P-wave (km/s) = 6.04841 6.25145 6.15077
#
# Compressibility (1/GPa) = 0.02178588
#
# Stress axis : x y z
#
# Youngs Moduli (GPa) = 49.09763 60.44758 95.38386
#
# Poissons Ratio (x) = 0.63960 0.22203
# Poissons Ratio (y) = 0.51951 -0.00996
# Poissons Ratio (z) = 0.11429 -0.00631
#
# Static dielectric constant tensor:
#      x y z
#    x 4.265440 0.000000 0.000000 
#    y 0.000000 4.192560 0.000000 
#    z 0.000000 0.000000 3.953960 
# 
# 
# High freq. dielectric constant tensor:
#      x y z
#    x 1.921360 0.000000 0.000000 
#    y 0.000000 1.930170 0.000000 
#    z 0.000000 0.000000 1.899800 
# 
# From -- ./inp_files/9057.got.cif
#   From: 2010.03.12/outbox.cif.g09.slc.cpg/sg60_5_cif.got.tgz:9057.got - 2010.04.10 18:46:24.
