data_PCOD8248018
_publ_section_title
;
Structure prediction by ZEFSAII (Michael W. Deem and Ramdas Pophale) SiO2 
 PCOD8248018
Probable space group: P B C N
;
_chemical_formula_sum "Si O2"
_cell_formula_units_Z 60
_cell_length_a 12.640463
_cell_length_b 8.467800
_cell_length_c 22.484543
_cell_angle_alpha 90.000000
_cell_angle_beta 90.000000
_cell_angle_gamma 90.000000
_cell_volume 2406.676064
_symmetry_space_group_name_H-M "P B C N"
_symmetry_group_IT_number 60
_symmetry_cell_setting 'orthorhombic'
loop_
_space_group_symop_operation_xyz
x,y,z
1/2-x,1/2-y,1/2+z
1/2+x,1/2-y,-z
-x,y,1/2-z
-x,-y,-z
1/2+x,1/2+y,1/2-z
1/2-x,1/2+y,z
x,-y,1/2+z
loop_
_atom_site_type_symbol
_atom_site_label
_atom_site_fract_x
_atom_site_fract_y
_atom_site_fract_z
Si Si1 0.822025 0.914526 0.768542
Si Si2 0.221601 0.108539 0.357865
Si Si3 0.939596 0.699026 0.579912
Si Si4 0.162272 0.232015 0.663470
Si Si5 0.703317 0.407208 0.513442
Si Si6 0.832025 0.204272 0.438606
Si Si7 0.500000 0.839866 0.250000
Si Si8 0.546543 0.086791 0.146448
O O1 0.815361 0.986132 0.701373
O O2 0.706673 0.841120 0.783472
O O3 0.905178 0.772027 0.772909
O O4 0.848191 0.050332 0.816136
O O5 0.139387 0.253942 0.365069
O O6 0.217530 0.009759 0.420963
O O7 0.340497 0.173607 0.347083
O O8 0.886896 0.767707 0.519076
O O9 0.952457 0.509387 0.583139
O O10 0.054217 0.775350 0.590575
O O11 0.240250 0.256148 0.608177
O O12 0.044159 0.282663 0.646381
O O13 0.812573 0.322231 0.494131
O O14 0.669632 0.525944 0.462152
O O15 0.530779 0.953139 0.196034
#
# Coordination Sequence:
#
# PCOD8248018 Si02
#       8
#     8   8   8   8   8   8   4   8
#     4  12  25  47  70 114 143 202 256 307 390 465
#     4  10  25  44  74 103 143 196 255 312 379 452
#     4  10  23  43  73 104 142 201 245 317 382 444
#     4  12  28  43  76 109 156 204 250 316 393 463
#     4  10  24  42  75 107 141 202 250 312 386 452
#     4  12  23  47  68 108 152 191 256 311 383 472
#     4  12  24  44  78  98 152 198 240 326 382 452
#     4  12  23  48  68 108 149 189 252 315 379 459
#
# _framework density 24.930651000000001
#
# number of rings (size 3 to 8) (size 9 to 14) (size 15 to 20)
#    0.800    0.000    1.333    6.800    0.000    2.667 
#    0.000    5.333    0.000    0.000    0.000    0.000 
#    0.000    0.000    0.000    0.000    0.000    0.000 
#
# Total GULP energy -743391.811996 kJ/mol
# GULP energy per Si atom -12389.863533 kJ/mol
# Density = 2.487391 g / cm^3
# Si number density = 24.930651 Si / 1000 Ang^3
#
#
#
# Elastic Constant Matrix: (Units=GPa)
#
#
# Indices 1 2 3 4 5 6 
#
# 1 147.6619 11.1877 28.7102 0.0000 0.0000 0.0000
# 2 11.1877 56.1670 11.0718 0.0000 0.0000 0.0000
# 3 28.7102 11.0718 106.0441 0.0000 0.0000 0.0000
# 4 0.0000 0.0000 0.0000 25.7839 0.0000 0.0000
# 5 0.0000 0.0000 0.0000 0.0000 29.3787 0.0000
# 6 0.0000 0.0000 0.0000 0.0000 0.0000 38.9563
#
#
#
# Elastic Compliance Matrix: (Units=1/GPa)
#
#
# Indices 1 2 3 4 5 6 
#
# 1 0.007211 -0.001074 -0.001840 0.000000 0.000000 0.000000
# 2 -0.001074 0.018338 -0.001624 0.000000 0.000000 0.000000
# 3 -0.001840 -0.001624 0.010098 0.000000 0.000000 0.000000
# 4 0.000000 0.000000 0.000000 0.038784 0.000000 0.000000
# 5 0.000000 0.000000 0.000000 0.000000 0.034038 0.000000
# 6 0.000000 0.000000 0.000000 0.000000 0.000000 0.025670
#
#
# Mechanical properties :
#
#
# Convention : Reuss Voigt Hill
#
# Bulk Modulus (GPa) = 37.63436 45.75691 41.69564
# Shear Modulus (GPa) = 32.87916 36.08402 34.48159
#
# Velocity S-wave (km/s) = 3.63550 3.80857 3.72304
# Velocity P-wave (km/s) = 5.72284 6.14278 5.93652
#
# Compressibility (1/GPa) = 0.02657146
#
# Stress axis : x y z
#
# Youngs Moduli (GPa) = 138.66956 54.53148 99.03121
#
# Poissons Ratio (x) = 0.05855 0.18225
# Poissons Ratio (y) = 0.14888 0.16082
# Poissons Ratio (z) = 0.25519 0.08856
#
# Static dielectric constant tensor:
#      x y z
#    x 4.610100 0.000000 0.000000 
#    y 0.000000 4.197610 0.000000 
#    z 0.000000 0.000000 4.741020 
# 
# 
# High freq. dielectric constant tensor:
#      x y z
#    x 2.000770 0.000000 0.000000 
#    y 0.000000 1.974140 0.000000 
#    z 0.000000 0.000000 2.003700 
# 
# From -- ./inp_files/25343.got.cif
#   From: 2010.03.12/outbox.cif.g09.slc.cpg/sg60_13_cif.got.tgz:25343.got - 2010.04.10 18:46:24.
