data_PCOD8248474
_publ_section_title
;
Structure prediction by ZEFSAII (Michael W. Deem and Ramdas Pophale) SiO2 
 PCOD8248474
Probable space group: P B C N
;
_chemical_formula_sum "Si O2"
_cell_formula_units_Z 48
_cell_length_a 11.931955
_cell_length_b 15.901395
_cell_length_c 11.683205
_cell_angle_alpha 90.000000
_cell_angle_beta 90.000000
_cell_angle_gamma 90.000000
_cell_volume 2216.709741
_symmetry_space_group_name_H-M "P B C N"
_symmetry_group_IT_number 60
_symmetry_cell_setting 'orthorhombic'
loop_
_space_group_symop_operation_xyz
x,y,z
1/2-x,1/2-y,1/2+z
1/2+x,1/2-y,-z
-x,y,1/2-z
-x,-y,-z
1/2+x,1/2+y,1/2-z
1/2-x,1/2+y,z
x,-y,1/2+z
loop_
_atom_site_type_symbol
_atom_site_label
_atom_site_fract_x
_atom_site_fract_y
_atom_site_fract_z
Si Si1 0.619685 0.345700 0.088069
Si Si2 0.877959 0.970087 0.692502
Si Si3 0.000000 0.275306 0.750000
Si Si4 0.140991 0.657456 0.921201
Si Si5 0.979588 0.181357 0.116173
Si Si6 0.161105 0.584110 0.164492
Si Si7 0.000000 0.451775 0.250000
O O1 0.630917 0.441246 0.131828
O O2 0.524916 0.288821 0.146592
O O3 0.739536 0.305036 0.119243
O O4 0.592453 0.346233 0.951573
O O5 0.776229 0.949009 0.778615
O O6 0.000000 0.963997 0.750000
O O7 0.885553 0.892431 0.602011
O O8 0.109072 0.333095 0.725758
O O9 0.085581 0.601987 0.823743
O O10 0.061573 0.735323 0.949104
O O11 0.174639 0.601847 0.030671
O O12 0.000000 0.203149 0.250000
O O13 0.072142 0.508869 0.165341
#
# Coordination Sequence:
#
# PCOD8248474 Si02
#       7
#     8   8   4   8   8   8   4
#     4  12  24  44  71 104 143 191 245 301 369 435
#     4  11  23  44  70 103 145 186 243 304 362 439
#     4  11  24  46  71 104 142 188 241 304 358 445
#     4  12  23  44  71 102 143 192 242 303 369 440
#     4  11  24  43  66 101 143 186 242 303 364 441
#     4  11  24  46  69 102 146 190 243 303 371 433
#     4  11  24  44  69 102 144 188 249 294 368 441
#
# _framework density 21.653714000000001
#
# number of rings (size 3 to 8) (size 9 to 14) (size 15 to 20)
#    0.000    0.667    5.000    4.000    0.000    0.000 
#    0.000    1.667    0.000    0.000    0.000    0.000 
#    0.000    0.000    0.000    0.000    0.000    0.000 
#
# Total GULP energy -594737.022410 kJ/mol
# GULP energy per Si atom -12390.354634 kJ/mol
# Density = 2.160443 g / cm^3
# Si number density = 21.653714 Si / 1000 Ang^3
#
#
#
# Elastic Constant Matrix: (Units=GPa)
#
#
# Indices 1 2 3 4 5 6 
#
# 1 135.1100 45.5850 57.9897 0.0000 0.0000 0.0000
# 2 45.5850 123.8482 52.1630 0.0000 0.0000 0.0000
# 3 57.9897 52.1630 112.6609 0.0000 0.0000 0.0000
# 4 0.0000 0.0000 0.0000 22.1254 0.0000 0.0000
# 5 0.0000 0.0000 0.0000 0.0000 40.7487 0.0000
# 6 0.0000 0.0000 0.0000 0.0000 0.0000 27.4846
#
#
#
# Elastic Compliance Matrix: (Units=1/GPa)
#
#
# Indices 1 2 3 4 5 6 
#
# 1 0.009829 -0.001847 -0.004204 0.000000 0.000000 0.000000
# 2 -0.001847 0.010378 -0.003854 0.000000 0.000000 0.000000
# 3 -0.004204 -0.003854 0.012825 0.000000 0.000000 0.000000
# 4 0.000000 0.000000 0.000000 0.045197 0.000000 0.000000
# 5 0.000000 0.000000 0.000000 0.000000 0.024541 0.000000
# 6 0.000000 0.000000 0.000000 0.000000 0.000000 0.036384
#
#
# Mechanical properties :
#
#
# Convention : Reuss Voigt Hill
#
# Bulk Modulus (GPa) = 75.63941 75.89939 75.76940
# Shear Modulus (GPa) = 30.60532 32.46381 31.53457
#
# Velocity S-wave (km/s) = 3.76360 3.87618 3.82031
# Velocity P-wave (km/s) = 7.34121 7.42702 7.38424
#
# Compressibility (1/GPa) = 0.01322062
#
# Stress axis : x y z
#
# Youngs Moduli (GPa) = 101.74028 96.36162 77.97493
#
# Poissons Ratio (x) = 0.17799 0.32781
# Poissons Ratio (y) = 0.18792 0.30053
# Poissons Ratio (z) = 0.42772 0.37139
#
# Static dielectric constant tensor:
#      x y z
#    x 4.072810 0.000000 0.000000 
#    y 0.000000 4.372150 0.000000 
#    z 0.000000 0.000000 3.746300 
# 
# 
# High freq. dielectric constant tensor:
#      x y z
#    x 1.861330 0.000000 0.000000 
#    y 0.000000 1.868800 0.000000 
#    z 0.000000 0.000000 1.842050 
# 
# From -- ./inp_files/11049.got.cif
#   From: 2010.03.12/outbox.cif.g09.slc.cpg/sg60_6_cif.got.tgz:11049.got - 2010.04.10 18:46:24.
