data_PCOD8248642
_publ_section_title
;
Structure prediction by ZEFSAII (Michael W. Deem and Ramdas Pophale) SiO2 
 PCOD8248642
Probable space group: P B C N
;
_chemical_formula_sum "Si O2"
_cell_formula_units_Z 40
_cell_length_a 21.628200
_cell_length_b 9.517130
_cell_length_c 8.345474
_cell_angle_alpha 90.000000
_cell_angle_beta 90.000000
_cell_angle_gamma 90.000000
_cell_volume 1717.818941
_symmetry_space_group_name_H-M "P B C N"
_symmetry_group_IT_number 60
_symmetry_cell_setting 'orthorhombic'
loop_
_space_group_symop_operation_xyz
x,y,z
1/2-x,1/2-y,1/2+z
1/2+x,1/2-y,-z
-x,y,1/2-z
-x,-y,-z
1/2+x,1/2+y,1/2-z
1/2-x,1/2+y,z
x,-y,1/2+z
loop_
_atom_site_type_symbol
_atom_site_label
_atom_site_fract_x
_atom_site_fract_y
_atom_site_fract_z
Si Si1 0.871582 0.300488 0.010789
Si Si2 0.674226 0.058922 0.831130
Si Si3 0.499401 0.658317 0.439501
Si Si4 0.316647 0.561348 0.664052
Si Si5 0.867025 0.194121 0.516256
O O1 0.859509 0.368255 0.182690
O O2 0.941225 0.244640 0.993720
O O3 0.859916 0.413451 0.870241
O O4 0.824515 0.169598 0.984663
O O5 0.745772 0.030174 0.793686
O O6 0.670192 0.161783 0.985352
O O7 0.500000 0.660984 0.250000
O O8 0.500000 0.500000 0.500000
O O9 0.560621 0.732268 0.508615
O O10 0.350235 0.415578 0.624720
O O11 0.350564 0.629983 0.813959
#
# Coordination Sequence:
#
# PCOD8248642 Si02
#       5
#     8   8   8   8   8
#     4  12  27  47  73 105 150 196 241 304 367 435
#     4  12  25  46  69 109 149 188 239 299 374 436
#     4  12  25  50  76 103 142 188 253 300 356 441
#     4  12  24  44  74 107 144 192 242 299 363 441
#     4  12  25  44  75 106 142 191 244 301 359 431
#
# _framework density 23.285340999999999
#
# number of rings (size 3 to 8) (size 9 to 14) (size 15 to 20)
#    0.000    0.000    4.000    7.200    0.000    0.800 
#    0.000    0.000    0.000    0.000    0.000    0.000 
#    0.000    0.000    0.000    0.000    0.000    0.000 
#
# Total GULP energy -496303.860496 kJ/mol
# GULP energy per Si atom -12407.596512 kJ/mol
# Density = 2.323234 g / cm^3
# Si number density = 23.285341 Si / 1000 Ang^3
#
#
#
# Elastic Constant Matrix: (Units=GPa)
#
#
# Indices 1 2 3 4 5 6 
#
# 1 188.8754 68.9298 44.3459 0.0000 0.0000 0.0000
# 2 68.9298 104.4709 7.1160 0.0000 0.0000 0.0000
# 3 44.3459 7.1160 65.8752 0.0000 0.0000 0.0000
# 4 0.0000 0.0000 0.0000 39.3587 0.0000 0.0000
# 5 0.0000 0.0000 0.0000 0.0000 38.2241 0.0000
# 6 0.0000 0.0000 0.0000 0.0000 0.0000 39.7124
#
#
#
# Elastic Compliance Matrix: (Units=1/GPa)
#
#
# Indices 1 2 3 4 5 6 
#
# 1 0.008379 -0.005182 -0.005080 0.000000 0.000000 0.000000
# 2 -0.005182 0.012848 0.002101 0.000000 0.000000 0.000000
# 3 -0.005080 0.002101 0.018373 0.000000 0.000000 0.000000
# 4 0.000000 0.000000 0.000000 0.025407 0.000000 0.000000
# 5 0.000000 0.000000 0.000000 0.000000 0.026162 0.000000
# 6 0.000000 0.000000 0.000000 0.000000 0.000000 0.025181
#
#
# Mechanical properties :
#
#
# Convention : Reuss Voigt Hill
#
# Bulk Modulus (GPa) = 42.96258 66.66720 54.81489
# Shear Modulus (GPa) = 35.60430 39.38105 37.49267
#
# Velocity S-wave (km/s) = 3.91454 4.11693 4.01701
# Velocity P-wave (km/s) = 6.23875 7.16181 6.71616
#
# Compressibility (1/GPa) = 0.02327607
#
# Stress axis : x y z
#
# Youngs Moduli (GPa) = 119.35270 77.83255 54.42659
#
# Poissons Ratio (x) = 0.40334 0.27651
# Poissons Ratio (y) = 0.61850 -0.11433
# Poissons Ratio (z) = 0.60637 -0.16350
#
# Static dielectric constant tensor:
#      x y z
#    x 4.490490 0.000000 0.000000 
#    y 0.000000 4.500210 0.000000 
#    z 0.000000 0.000000 4.237880 
# 
# 
# High freq. dielectric constant tensor:
#      x y z
#    x 1.926580 0.000000 0.000000 
#    y 0.000000 1.931700 0.000000 
#    z 0.000000 0.000000 1.932210 
# 
# From -- ./inp_files/7745.got.cif
#   From: 2010.03.12/outbox.cif.g09.slc.cpg/sg60_4_cif.got.tgz:7745.got - 2010.04.10 18:46:24.
