data_PCOD8248296
_publ_section_title
;
Structure prediction by ZEFSAII (Michael W. Deem and Ramdas Pophale) SiO2 
 PCOD8248296
Probable space group: P B C N
;
_chemical_formula_sum "Si O2"
_cell_formula_units_Z 48
_cell_length_a 8.891934
_cell_length_b 8.710397
_cell_length_c 30.800261
_cell_angle_alpha 90.000000
_cell_angle_beta 90.000000
_cell_angle_gamma 90.000000
_cell_volume 2385.550292
_symmetry_space_group_name_H-M "P B C N"
_symmetry_group_IT_number 60
_symmetry_cell_setting 'orthorhombic'
loop_
_space_group_symop_operation_xyz
x,y,z
1/2-x,1/2-y,1/2+z
1/2+x,1/2-y,-z
-x,y,1/2-z
-x,-y,-z
1/2+x,1/2+y,1/2-z
1/2-x,1/2+y,z
x,-y,1/2+z
loop_
_atom_site_type_symbol
_atom_site_label
_atom_site_fract_x
_atom_site_fract_y
_atom_site_fract_z
Si Si1 0.180737 0.325036 0.080764
Si Si2 0.791623 0.679619 0.330269
Si Si3 0.556043 0.550139 0.797342
Si Si4 0.453097 0.037425 0.378701
Si Si5 0.352165 0.623250 0.877927
Si Si6 0.550586 0.487213 0.951159
O O1 0.253224 0.274549 0.126389
O O2 0.317661 0.389517 0.053115
O O3 0.058659 0.462404 0.084362
O O4 0.107251 0.184412 0.056049
O O5 0.836640 0.801436 0.293200
O O6 0.643899 0.595585 0.315069
O O7 0.933724 0.565349 0.337989
O O8 0.500000 0.506044 0.750000
O O9 0.426015 0.586947 0.831613
O O10 0.376359 0.199167 0.391809
O O11 0.323238 0.912868 0.369530
O O12 0.417227 0.519436 0.916802
O O13 0.500000 0.500000 0.000000
#
# Coordination Sequence:
#
# PCOD8248296 Si02
#       6
#     8   8   8   8   8   8
#     4  12  20  46  70  92 132 192 225 275 350 415
#     4  11  20  44  70  91 133 188 225 270 347 409
#     4  11  24  41  68 100 134 176 234 279 340 412
#     4  11  22  39  74  90 133 184 225 277 348 403
#     4  11  23  42  62 103 134 175 230 289 337 402
#     4  12  25  42  69 101 136 179 238 283 340 413
#
# _framework density 20.121144000000001
#
# number of rings (size 3 to 8) (size 9 to 14) (size 15 to 20)
#    0.000    0.667    8.333    1.000    0.000    5.333 
#    0.000    3.333    0.000    0.000    0.000    0.000 
#    0.000    0.000    0.000    0.000    0.000    0.000 
#
# Total GULP energy -595097.503804 kJ/mol
# GULP energy per Si atom -12397.864663 kJ/mol
# Density = 2.007535 g / cm^3
# Si number density = 20.121144 Si / 1000 Ang^3
#
#
#
# Elastic Constant Matrix: (Units=GPa)
#
#
# Indices 1 2 3 4 5 6 
#
# 1 114.6059 48.1907 41.3124 0.0000 0.0000 0.0000
# 2 48.1907 106.4208 38.3513 0.0000 0.0000 0.0000
# 3 41.3124 38.3513 110.6833 0.0000 0.0000 0.0000
# 4 0.0000 0.0000 0.0000 26.5989 0.0000 0.0000
# 5 0.0000 0.0000 0.0000 0.0000 28.8895 0.0000
# 6 0.0000 0.0000 0.0000 0.0000 0.0000 41.8741
#
#
#
# Elastic Compliance Matrix: (Units=1/GPa)
#
#
# Indices 1 2 3 4 5 6 
#
# 1 0.011512 -0.004187 -0.002846 0.000000 0.000000 0.000000
# 2 -0.004187 0.012261 -0.002685 0.000000 0.000000 0.000000
# 3 -0.002846 -0.002685 0.011027 0.000000 0.000000 0.000000
# 4 0.000000 0.000000 0.000000 0.037596 0.000000 0.000000
# 5 0.000000 0.000000 0.000000 0.000000 0.034615 0.000000
# 6 0.000000 0.000000 0.000000 0.000000 0.000000 0.023881
#
#
# Mechanical properties :
#
#
# Convention : Reuss Voigt Hill
#
# Bulk Modulus (GPa) = 65.09215 65.26876 65.18045
# Shear Modulus (GPa) = 32.16468 33.06288 32.61378
#
# Velocity S-wave (km/s) = 4.00253 4.05803 4.03037
# Velocity P-wave (km/s) = 7.33353 7.38005 7.35682
#
# Compressibility (1/GPa) = 0.01536284
#
# Stress axis : x y z
#
# Youngs Moduli (GPa) = 86.86395 81.56211 90.68256
#
# Poissons Ratio (x) = 0.34154 0.25808
# Poissons Ratio (y) = 0.36374 0.24351
# Poissons Ratio (z) = 0.24721 0.21902
#
# Static dielectric constant tensor:
#      x y z
#    x 3.805580 0.000000 0.000000 
#    y 0.000000 4.198360 0.000000 
#    z 0.000000 0.000000 3.196550 
# 
# 
# High freq. dielectric constant tensor:
#      x y z
#    x 1.801040 0.000000 0.000000 
#    y 0.000000 1.806600 0.000000 
#    z 0.000000 0.000000 1.750530 
# 
# From -- ./inp_files/25901.got.cif
#   From: 2010.03.12/outbox.cif.g09.slc.cpg/sg60_13_cif.got.tgz:25901.got - 2010.04.10 18:46:24.
