data_PCOD8248725
_publ_section_title
;
Structure prediction by ZEFSAII (Michael W. Deem and Ramdas Pophale) SiO2 
 PCOD8248725
Probable space group: P B C A
;
_chemical_formula_sum "Si O2"
_cell_formula_units_Z 56
_cell_length_a 21.590323
_cell_length_b 4.963739
_cell_length_c 30.327175
_cell_angle_alpha 90.000000
_cell_angle_beta 90.000000
_cell_angle_gamma 90.000000
_cell_volume 3250.124778
_symmetry_space_group_name_H-M "P B C A"
_symmetry_group_IT_number 61
_symmetry_cell_setting 'orthorhombic'
loop_
_space_group_symop_operation_xyz
x,y,z
1/2-x,-y,1/2+z
1/2+x,1/2-y,-z
-x,1/2+y,1/2-z
-x,-y,-z
1/2+x,y,1/2-z
1/2-x,1/2+y,z
x,1/2-y,1/2+z
loop_
_atom_site_type_symbol
_atom_site_label
_atom_site_fract_x
_atom_site_fract_y
_atom_site_fract_z
Si Si1 0.789866 0.931103 0.474234
Si Si2 0.288584 0.560928 0.627835
Si Si3 0.509184 0.368549 0.850406
Si Si4 0.589250 0.869077 0.826839
Si Si5 0.918918 0.747194 0.011256
Si Si6 0.536287 0.803660 0.739263
Si Si7 0.471698 0.250921 0.446222
O O1 0.733435 0.729729 0.486070
O O2 0.848924 0.836730 0.501704
O O3 0.808585 0.941233 0.423042
O O4 0.270031 0.867626 0.638572
O O5 0.343259 0.447233 0.657356
O O6 0.563399 0.591128 0.847322
O O7 0.456116 0.398091 0.811883
O O8 0.474936 0.363622 0.896965
O O9 0.540993 0.084476 0.843928
O O10 0.593373 0.856931 0.772902
O O11 0.943691 0.549965 0.049871
O O12 0.925013 0.053367 0.027715
O O13 0.959565 0.731017 0.966766
O O14 0.520199 0.487110 0.741738
#
# Coordination Sequence:
#
# PCOD8248725 Si02
#       7
#     8   8   8   8   8   8   8
#     4  10  20  33  49  67  91 124 160 197 231 274
#     4  10  20  31  45  68  92 120 158 188 222 274
#     4  10  18  30  48  71  95 123 154 184 233 285
#     4  10  18  30  48  68  97 126 148 188 232 273
#     4  10  20  33  46  69  96 123 159 192 239 286
#     4   8  16  28  44  68  93 117 148 178 216 274
#     4  10  20  31  48  70  98 126 151 194 239 288
#
# _framework density 17.230108999999999
#
# number of rings (size 3 to 8) (size 9 to 14) (size 15 to 20)
#    0.000    2.286    0.000    3.429    0.000    4.571 
#    0.000    0.000    0.000    0.000    0.000    6.000 
#    0.000    0.000    0.000    0.000    0.000    0.000 
#
# Total GULP energy -693866.796411 kJ/mol
# GULP energy per Si atom -12390.478507 kJ/mol
# Density = 1.719089 g / cm^3
# Si number density = 17.230109 Si / 1000 Ang^3
#
#
#
# Elastic Constant Matrix: (Units=GPa)
#
#
# Indices 1 2 3 4 5 6 
#
# 1 59.3439 -0.0353 40.9823 0.0000 0.0000 0.0000
# 2 -0.0353 53.6252 12.0369 0.0000 0.0000 0.0000
# 3 40.9823 12.0369 88.5136 0.0000 0.0000 0.0000
# 4 0.0000 0.0000 0.0000 20.6816 0.0000 0.0000
# 5 0.0000 0.0000 0.0000 0.0000 17.1338 0.0000
# 6 0.0000 0.0000 0.0000 0.0000 0.0000 13.3243
#
#
#
# Elastic Compliance Matrix: (Units=1/GPa)
#
#
# Indices 1 2 3 4 5 6 
#
# 1 0.025148 0.002713 -0.012013 0.000000 0.000000 0.000000
# 2 0.002713 0.019528 -0.003912 0.000000 0.000000 0.000000
# 3 -0.012013 -0.003912 0.017392 0.000000 0.000000 0.000000
# 4 0.000000 0.000000 0.000000 0.048352 0.000000 0.000000
# 5 0.000000 0.000000 0.000000 0.000000 0.058364 0.000000
# 6 0.000000 0.000000 0.000000 0.000000 0.000000 0.075051
#
#
# Mechanical properties :
#
#
# Convention : Reuss Voigt Hill
#
# Bulk Modulus (GPa) = 28.05456 34.16117 31.10786
# Shear Modulus (GPa) = 17.72172 20.12786 18.92479
#
# Velocity S-wave (km/s) = 3.21055 3.42157 3.31774
# Velocity P-wave (km/s) = 5.48281 5.95643 5.72452
#
# Compressibility (1/GPa) = 0.03564484
#
# Stress axis : x y z
#
# Youngs Moduli (GPa) = 39.76386 51.20910 57.49885
#
# Poissons Ratio (x) = -0.13893 0.69072
# Poissons Ratio (y) = -0.10788 0.22492
# Poissons Ratio (z) = 0.47768 0.20031
#
# Static dielectric constant tensor:
#      x y z
#    x 2.847990 0.000000 0.000000 
#    y 0.000000 3.504360 0.000000 
#    z 0.000000 0.000000 3.302320 
# 
# 
# High freq. dielectric constant tensor:
#      x y z
#    x 1.622540 0.000000 0.000000 
#    y 0.000000 1.694880 0.000000 
#    z 0.000000 0.000000 1.651290 
# 
# From -- ./inp_files/11538.got.cif
#   From: 2010.03.12/outbox.cif.g09.slc.cpg/sg61_6_cif.got.tgz:11538.got - 2010.04.10 19:05:03.
