data_PCOD8248204
_publ_section_title
;
Structure prediction by ZEFSAII (Michael W. Deem and Ramdas Pophale) SiO2 
 PCOD8248204
Probable space group: P B C N
;
_chemical_formula_sum "Si O2"
_cell_formula_units_Z 56
_cell_length_a 20.486378
_cell_length_b 13.816930
_cell_length_c 9.114676
_cell_angle_alpha 90.000000
_cell_angle_beta 90.000000
_cell_angle_gamma 90.000000
_cell_volume 2579.989714
_symmetry_space_group_name_H-M "P B C N"
_symmetry_group_IT_number 60
_symmetry_cell_setting 'orthorhombic'
loop_
_space_group_symop_operation_xyz
x,y,z
1/2-x,1/2-y,1/2+z
1/2+x,1/2-y,-z
-x,y,1/2-z
-x,-y,-z
1/2+x,1/2+y,1/2-z
1/2-x,1/2+y,z
x,-y,1/2+z
loop_
_atom_site_type_symbol
_atom_site_label
_atom_site_fract_x
_atom_site_fract_y
_atom_site_fract_z
Si Si1 0.758988 0.808823 0.655902
Si Si2 0.738954 0.440368 0.911631
Si Si3 0.074328 0.220696 0.750263
Si Si4 0.875062 0.385821 0.571038
Si Si5 0.805448 0.890616 0.222932
Si Si6 0.422540 0.936599 0.248467
Si Si7 0.357560 0.180476 0.994519
O O1 0.791880 0.867057 0.790805
O O2 0.703889 0.876427 0.579393
O O3 0.725827 0.715375 0.728520
O O4 0.812747 0.775000 0.538405
O O5 0.732890 0.547427 0.844536
O O6 0.813931 0.408864 0.943463
O O7 0.699010 0.438453 0.062340
O O8 0.091458 0.281926 0.896815
O O9 0.117687 0.122856 0.742323
O O10 0.088348 0.290439 0.612006
O O11 0.000000 0.187038 0.750000
O O12 0.899085 0.460167 0.694139
O O13 0.896179 0.424351 0.414422
O O14 0.500000 0.931171 0.250000
O O15 0.393375 0.850698 0.346656
#
# Coordination Sequence:
#
# PCOD8248204 Si02
#       7
#     8   8   8   8   8   8   8
#     4  10  25  40  66  99 133 167 222 276 338 383
#     4  11  24  43  66 101 134 167 216 282 331 392
#     4  11  23  46  67  92 134 179 225 268 321 396
#     4  11  24  41  65  94 136 172 224 273 334 393
#     4  10  25  41  70  99 133 169 221 265 344 382
#     4  12  26  41  64  97 136 182 221 267 328 407
#     4  11  25  42  68  98 131 179 218 274 342 383
#
# _framework density 21.705511999999999
#
# number of rings (size 3 to 8) (size 9 to 14) (size 15 to 20)
#    0.000    1.143    2.857    2.571   12.000    0.000 
#    0.000    0.714    0.000    0.000    0.000    0.000 
#    0.000    0.000    0.000    0.000    0.000    0.000 
#
# Total GULP energy -694562.200664 kJ/mol
# GULP energy per Si atom -12402.896440 kJ/mol
# Density = 2.165611 g / cm^3
# Si number density = 21.705512 Si / 1000 Ang^3
#
#
#
# Elastic Constant Matrix: (Units=GPa)
#
#
# Indices 1 2 3 4 5 6 
#
# 1 130.1520 43.4503 44.1205 0.0000 0.0000 0.0000
# 2 43.4503 67.5810 44.2498 0.0000 0.0000 0.0000
# 3 44.1205 44.2498 124.3886 0.0000 0.0000 0.0000
# 4 0.0000 0.0000 0.0000 30.3551 0.0000 0.0000
# 5 0.0000 0.0000 0.0000 0.0000 26.9321 0.0000
# 6 0.0000 0.0000 0.0000 0.0000 0.0000 25.0778
#
#
#
# Elastic Compliance Matrix: (Units=1/GPa)
#
#
# Indices 1 2 3 4 5 6 
#
# 1 0.010036 -0.005373 -0.001648 0.000000 0.000000 0.000000
# 2 -0.005373 0.022167 -0.005980 0.000000 0.000000 0.000000
# 3 -0.001648 -0.005980 0.010751 0.000000 0.000000 0.000000
# 4 0.000000 0.000000 0.000000 0.032943 0.000000 0.000000
# 5 0.000000 0.000000 0.000000 0.000000 0.037130 0.000000
# 6 0.000000 0.000000 0.000000 0.000000 0.000000 0.039876
#
#
# Mechanical properties :
#
#
# Convention : Reuss Voigt Hill
#
# Bulk Modulus (GPa) = 58.99148 65.08476 62.03812
# Shear Modulus (GPa) = 27.09191 29.15973 28.12582
#
# Velocity S-wave (km/s) = 3.53676 3.66925 3.60362
# Velocity P-wave (km/s) = 6.62687 6.92832 6.77927
#
# Compressibility (1/GPa) = 0.01695160
#
# Stress axis : x y z
#
# Youngs Moduli (GPa) = 99.64250 45.11196 93.01284
#
# Poissons Ratio (x) = 0.24240 0.15331
# Poissons Ratio (y) = 0.53540 0.55620
# Poissons Ratio (z) = 0.16424 0.26976
#
# Static dielectric constant tensor:
#      x y z
#    x 3.933510 0.000000 0.000000 
#    y 0.000000 4.004320 0.000000 
#    z 0.000000 0.000000 4.133050 
# 
# 
# High freq. dielectric constant tensor:
#      x y z
#    x 1.828560 0.000000 0.000000 
#    y 0.000000 1.847600 0.000000 
#    z 0.000000 0.000000 1.875450 
# 
# From -- ./inp_files/7407.got.cif
#   From: 2010.03.12/outbox.cif.g09.slc.cpg/sg60_4_cif.got.tgz:7407.got - 2010.04.10 18:46:24.
