data_PCOD8248278
_publ_section_title
;
Structure prediction by ZEFSAII (Michael W. Deem and Ramdas Pophale) SiO2 
 PCOD8248278
Probable space group: P B C N
;
_chemical_formula_sum "Si O2"
_cell_formula_units_Z 36
_cell_length_a 23.406823
_cell_length_b 14.607860
_cell_length_c 4.912185
_cell_angle_alpha 90.000000
_cell_angle_beta 90.000000
_cell_angle_gamma 90.000000
_cell_volume 1679.591947
_symmetry_space_group_name_H-M "P B C N"
_symmetry_group_IT_number 60
_symmetry_cell_setting 'orthorhombic'
loop_
_space_group_symop_operation_xyz
x,y,z
1/2-x,1/2-y,1/2+z
1/2+x,1/2-y,-z
-x,y,1/2-z
-x,-y,-z
1/2+x,1/2+y,1/2-z
1/2-x,1/2+y,z
x,-y,1/2+z
loop_
_atom_site_type_symbol
_atom_site_label
_atom_site_fract_x
_atom_site_fract_y
_atom_site_fract_z
Si Si1 0.588840 0.723021 0.711404
Si Si2 0.500000 0.567072 0.750000
Si Si3 0.715779 0.234254 0.112565
Si Si4 0.937767 0.340169 0.228340
Si Si5 0.672532 0.057633 0.830267
O O1 0.557461 0.628335 0.782500
O O2 0.657207 0.711167 0.675209
O O3 0.561814 0.752120 0.424861
O O4 0.578106 0.803831 0.929060
O O5 0.500000 0.500000 0.500000
O O6 0.745132 0.207770 0.400850
O O7 0.709190 0.142398 0.934081
O O8 0.894148 0.415591 0.341453
O O9 0.000000 0.386209 0.250000
O O10 0.686062 0.029771 0.520620
#
# Coordination Sequence:
#
# PCOD8248278 Si02
#       5
#     8   4   8   8   8
#     4  11  22  41  63  92 128 164 222 262 316 400
#     4  12  24  40  64  96 132 166 212 284 340 368
#     4  11  23  43  68  89 119 176 223 255 317 399
#     4  11  20  37  64  90 125 174 199 239 314 396
#     4  11  23  39  60  94 129 156 201 265 316 358
#
# _framework density 21.433776000000002
#
# number of rings (size 3 to 8) (size 9 to 14) (size 15 to 20)
#    0.000    0.889    2.222    8.000    0.000    0.889 
#    0.000    6.667    0.000    0.000    0.000    0.000 
#    0.000    0.000    0.000    0.000    0.000    0.000 
#
# Total GULP energy -446297.173733 kJ/mol
# GULP energy per Si atom -12397.143715 kJ/mol
# Density = 2.138499 g / cm^3
# Si number density = 21.433776 Si / 1000 Ang^3
#
#
#
# Elastic Constant Matrix: (Units=GPa)
#
#
# Indices 1 2 3 4 5 6 
#
# 1 124.8933 18.3257 30.8678 0.0000 0.0000 0.0000
# 2 18.3257 66.7947 3.6367 0.0000 0.0000 0.0000
# 3 30.8678 3.6367 105.9004 0.0000 0.0000 0.0000
# 4 0.0000 0.0000 0.0000 42.5345 0.0000 0.0000
# 5 0.0000 0.0000 0.0000 0.0000 38.4776 0.0000
# 6 0.0000 0.0000 0.0000 0.0000 0.0000 18.8785
#
#
#
# Elastic Compliance Matrix: (Units=1/GPa)
#
#
# Indices 1 2 3 4 5 6 
#
# 1 0.008975 -0.002324 -0.002536 0.000000 0.000000 0.000000
# 2 -0.002324 0.015601 0.000142 0.000000 0.000000 0.000000
# 3 -0.002536 0.000142 0.010177 0.000000 0.000000 0.000000
# 4 0.000000 0.000000 0.000000 0.023510 0.000000 0.000000
# 5 0.000000 0.000000 0.000000 0.000000 0.025989 0.000000
# 6 0.000000 0.000000 0.000000 0.000000 0.000000 0.052970
#
#
# Mechanical properties :
#
#
# Convention : Reuss Voigt Hill
#
# Bulk Modulus (GPa) = 39.50098 44.80542 42.15320
# Shear Modulus (GPa) = 32.23750 36.29532 34.26641
#
# Velocity S-wave (km/s) = 3.88242 4.11952 4.00273
# Velocity P-wave (km/s) = 6.21022 6.60127 6.40873
#
# Compressibility (1/GPa) = 0.02531583
#
# Stress axis : x y z
#
# Youngs Moduli (GPa) = 111.42464 64.09761 98.25895
#
# Poissons Ratio (x) = 0.14898 0.24920
# Poissons Ratio (y) = 0.25897 -0.01392
# Poissons Ratio (z) = 0.28259 -0.00908
#
# Static dielectric constant tensor:
#      x y z
#    x 3.979900 0.000000 0.000000 
#    y 0.000000 2.332560 0.000000 
#    z 0.000000 0.000000 4.201710 
# 
# 
# High freq. dielectric constant tensor:
#      x y z
#    x 1.841550 0.000000 0.000000 
#    y 0.000000 1.816470 0.000000 
#    z 0.000000 0.000000 1.871300 
# 
# From -- ./inp_files/1970.got.cif
#   From: 2010.03.12/outbox.cif.g09.slc.cpg/sg60_1_cif.got.tgz:1970.got - 2010.04.10 18:46:24.
