data_PCOD8248719
_publ_section_title
;
Structure prediction by ZEFSAII (Michael W. Deem and Ramdas Pophale) SiO2 
 PCOD8248719
Probable space group: P B C A
;
_chemical_formula_sum "Si O2"
_cell_formula_units_Z 56
_cell_length_a 13.925367
_cell_length_b 19.452568
_cell_length_c 9.288737
_cell_angle_alpha 90.000000
_cell_angle_beta 90.000000
_cell_angle_gamma 90.000000
_cell_volume 2516.171613
_symmetry_space_group_name_H-M "P B C A"
_symmetry_group_IT_number 61
_symmetry_cell_setting 'orthorhombic'
loop_
_space_group_symop_operation_xyz
x,y,z
1/2-x,-y,1/2+z
1/2+x,1/2-y,-z
-x,1/2+y,1/2-z
-x,-y,-z
1/2+x,y,1/2-z
1/2-x,1/2+y,z
x,1/2-y,1/2+z
loop_
_atom_site_type_symbol
_atom_site_label
_atom_site_fract_x
_atom_site_fract_y
_atom_site_fract_z
Si Si1 0.872670 0.674428 0.365598
Si Si2 0.469241 0.608023 0.582083
Si Si3 0.603213 0.196135 0.686023
Si Si4 0.231411 0.940086 0.739439
Si Si5 0.360778 0.489572 0.444893
Si Si6 0.929667 0.232004 0.435416
Si Si7 0.100550 0.833515 0.839424
O O1 0.844861 0.742996 0.275988
O O2 0.843482 0.683623 0.533889
O O3 0.817239 0.610172 0.302738
O O4 0.986206 0.657446 0.351578
O O5 0.403400 0.625031 0.721861
O O6 0.409925 0.564242 0.465422
O O7 0.565050 0.565436 0.621629
O O8 0.496211 0.682229 0.517558
O O9 0.492358 0.215732 0.659180
O O10 0.157063 0.905045 0.853982
O O11 0.175383 0.965635 0.600194
O O12 0.275984 0.003859 0.828194
O O13 0.864325 0.276324 0.545170
O O14 0.865082 0.189950 0.322275
#
# Coordination Sequence:
#
# PCOD8248719 Si02
#       7
#     8   8   8   8   8   8   8
#     4  10  23  40  69 101 133 163 214 278 335 387
#     4  11  21  44  72  87 130 180 220 256 334 388
#     4  10  19  38  72 101 124 163 215 273 338 391
#     4  12  27  45  61  98 133 173 229 266 321 395
#     4  11  28  44  64  89 134 187 220 265 311 403
#     4  10  17  37  68 100 118 160 208 269 338 376
#     4  10  21  40  66  94 131 158 209 272 334 380
#
# _framework density 22.256035000000001
#
# number of rings (size 3 to 8) (size 9 to 14) (size 15 to 20)
#    0.000    1.429    5.714    1.714    4.000    3.429 
#    0.000    1.429    0.000    0.000    0.000    0.000 
#    0.000    0.000    0.000    0.000    0.000    0.000 
#
# Total GULP energy -694247.032990 kJ/mol
# GULP energy per Si atom -12397.268446 kJ/mol
# Density = 2.220538 g / cm^3
# Si number density = 22.256035 Si / 1000 Ang^3
#
#
#
# Elastic Constant Matrix: (Units=GPa)
#
#
# Indices 1 2 3 4 5 6 
#
# 1 39.7975 14.1840 3.9210 0.0000 0.0000 0.0000
# 2 14.1840 63.5056 20.2679 0.0000 0.0000 0.0000
# 3 3.9210 20.2679 103.4236 0.0000 0.0000 0.0000
# 4 0.0000 0.0000 0.0000 36.1324 0.0000 0.0000
# 5 0.0000 0.0000 0.0000 0.0000 20.5814 0.0000
# 6 0.0000 0.0000 0.0000 0.0000 0.0000 24.2495
#
#
#
# Elastic Compliance Matrix: (Units=1/GPa)
#
#
# Indices 1 2 3 4 5 6 
#
# 1 0.027303 -0.006153 0.000171 0.000000 0.000000 0.000000
# 2 -0.006153 0.018184 -0.003330 0.000000 0.000000 0.000000
# 3 0.000171 -0.003330 0.010315 0.000000 0.000000 0.000000
# 4 0.000000 0.000000 0.000000 0.027676 0.000000 0.000000
# 5 0.000000 0.000000 0.000000 0.000000 0.048587 0.000000
# 6 0.000000 0.000000 0.000000 0.000000 0.000000 0.041238
#
#
# Mechanical properties :
#
#
# Convention : Reuss Voigt Hill
#
# Bulk Modulus (GPa) = 26.89793 31.49694 29.19744
# Shear Modulus (GPa) = 24.47137 27.41626 25.94381
#
# Velocity S-wave (km/s) = 3.31953 3.51359 3.41794
# Velocity P-wave (km/s) = 5.17728 5.53563 5.35945
#
# Compressibility (1/GPa) = 0.03717758
#
# Stress axis : x y z
#
# Youngs Moduli (GPa) = 36.62573 54.99440 96.94504
#
# Poissons Ratio (x) = 0.33836 -0.01654
# Poissons Ratio (y) = 0.22534 0.32285
# Poissons Ratio (z) = -0.00625 0.18314
#
# Static dielectric constant tensor:
#      x y z
#    x 3.663000 0.000000 0.000000 
#    y 0.000000 4.002190 0.000000 
#    z 0.000000 0.000000 4.296940 
# 
# 
# High freq. dielectric constant tensor:
#      x y z
#    x 1.853840 0.000000 0.000000 
#    y 0.000000 1.871630 0.000000 
#    z 0.000000 0.000000 1.884890 
# 
# From -- ./inp_files/3046.got.cif
#   From: 2010.03.12/outbox.cif.g09.slc.cpg/sg61_2_cif.got.tgz:3046.got - 2010.04.10 19:05:03.
