data_PCOD8248634
_publ_section_title
;
Structure prediction by ZEFSAII (Michael W. Deem and Ramdas Pophale) SiO2 
 PCOD8248634
Probable space group: P B C N
;
_chemical_formula_sum "Si O2"
_cell_formula_units_Z 32
_cell_length_a 4.899921
_cell_length_b 14.234958
_cell_length_c 17.900767
_cell_angle_alpha 90.000000
_cell_angle_beta 90.000000
_cell_angle_gamma 90.000000
_cell_volume 1248.581535
_symmetry_space_group_name_H-M "P B C N"
_symmetry_group_IT_number 60
_symmetry_cell_setting 'orthorhombic'
loop_
_space_group_symop_operation_xyz
x,y,z
1/2-x,1/2-y,1/2+z
1/2+x,1/2-y,-z
-x,y,1/2-z
-x,-y,-z
1/2+x,1/2+y,1/2-z
1/2-x,1/2+y,z
x,-y,1/2+z
loop_
_atom_site_type_symbol
_atom_site_label
_atom_site_fract_x
_atom_site_fract_y
_atom_site_fract_z
Si Si1 0.500000 0.769148 0.250000
Si Si2 0.017711 0.843334 0.972921
Si Si3 0.000000 0.359253 0.750000
Si Si4 0.122702 0.650705 0.905091
Si Si5 0.018035 0.440838 0.593899
O O1 0.252525 0.704157 0.223322
O O2 0.382658 0.834069 0.316325
O O3 0.825285 0.909999 0.922772
O O4 0.963181 0.736152 0.945859
O O5 0.323642 0.878947 0.959706
O O6 0.932192 0.849391 0.060891
O O7 0.925825 0.424109 0.679485
O O8 0.993371 0.550596 0.925413
#
# Coordination Sequence:
#
# PCOD8248634 Si02
#       5
#     4   8   4   8   8
#     4  12  27  48  79 106 160 200 255 318 381 452
#     4  12  27  47  76 114 155 195 256 324 372 459
#     4  12  23  50  73 112 152 204 251 322 373 454
#     4  12  27  50  78 114 150 210 247 317 391 455
#     4  12  26  48  77 110 156 199 258 312 384 454
#
# _framework density 25.629083999999999
#
# number of rings (size 3 to 8) (size 9 to 14) (size 15 to 20)
#    0.000    0.000    5.000    3.750    0.000    8.000 
#    0.000    2.500    0.000    0.000    0.000    0.000 
#    0.000    0.000    0.000    0.000    0.000    0.000 
#
# Total GULP energy -396887.102635 kJ/mol
# GULP energy per Si atom -12402.721957 kJ/mol
# Density = 2.557075 g / cm^3
# Si number density = 25.629084 Si / 1000 Ang^3
#
#
#
# Elastic Constant Matrix: (Units=GPa)
#
#
# Indices 1 2 3 4 5 6 
#
# 1 73.8063 23.5187 10.3791 0.0000 0.0000 0.0000
# 2 23.5187 190.9829 35.1081 0.0000 0.0000 0.0000
# 3 10.3791 35.1081 176.5349 0.0000 0.0000 0.0000
# 4 0.0000 0.0000 0.0000 -31.8994 0.0000 0.0000
# 5 0.0000 0.0000 0.0000 0.0000 37.3435 0.0000
# 6 0.0000 0.0000 0.0000 0.0000 0.0000 -547.3538
#
#
#
# Elastic Compliance Matrix: (Units=1/GPa)
#
#
# Indices 1 2 3 4 5 6 
#
# 1 0.014145 -0.001649 -0.000504 0.000000 0.000000 0.000000
# 2 -0.001649 0.005627 -0.001022 0.000000 0.000000 0.000000
# 3 -0.000504 -0.001022 0.005897 0.000000 0.000000 0.000000
# 4 0.000000 0.000000 0.000000 -0.031349 0.000000 0.000000
# 5 0.000000 0.000000 0.000000 0.000000 0.026778 0.000000
# 6 0.000000 0.000000 0.000000 0.000000 0.000000 -0.001827
#
#
# Mechanical properties :
#
#
# Convention : Reuss Voigt Hill
#
# Bulk Modulus (GPa) = 51.76056 64.37065 58.06560
# Shear Modulus (GPa) = 155.94320 -83.56073 36.19123
#
# Velocity S-wave (km/s) = 7.80886 -5.71617 3.76189
# Velocity P-wave (km/s) = 10.07692 4.28899 6.44782
#
# Compressibility (1/GPa) = 0.01931973
#
# Stress axis : x y z
#
# Youngs Moduli (GPa) = 70.69450 177.71230 169.56391
#
# Poissons Ratio (x) = 0.29311 0.08540
# Poissons Ratio (y) = 0.11660 0.17331
# Poissons Ratio (z) = 0.03560 0.18164
#
# Static dielectric constant tensor:
#      x y z
#    x 4.448610 0.000000 0.000000 
#    y 0.000000 4.751500 0.000000 
#    z 0.000000 0.000000 4.580200 
# 
# 
# High freq. dielectric constant tensor:
#      x y z
#    x 2.019810 0.000000 0.000000 
#    y 0.000000 2.037800 0.000000 
#    z 0.000000 0.000000 2.041130 
# 
# From -- ./inp_files/18458.got.cif
#   From: 2010.03.12/outbox.cif.g09.slc.cpg/sg60_10_cif.got.tgz:18458.got - 2010.04.10 18:46:24.
