data_PCOD8248685
_publ_section_title
;
Structure prediction by ZEFSAII (Michael W. Deem and Ramdas Pophale) SiO2 
 PCOD8248685
Probable space group: P B C N
;
_chemical_formula_sum "Si O2"
_cell_formula_units_Z 32
_cell_length_a 24.073899
_cell_length_b 4.858203
_cell_length_c 9.930038
_cell_angle_alpha 90.000000
_cell_angle_beta 90.000000
_cell_angle_gamma 90.000000
_cell_volume 1161.376416
_symmetry_space_group_name_H-M "P B C N"
_symmetry_group_IT_number 60
_symmetry_cell_setting 'orthorhombic'
loop_
_space_group_symop_operation_xyz
x,y,z
1/2-x,1/2-y,1/2+z
1/2+x,1/2-y,-z
-x,y,1/2-z
-x,-y,-z
1/2+x,1/2+y,1/2-z
1/2-x,1/2+y,z
x,-y,1/2+z
loop_
_atom_site_type_symbol
_atom_site_label
_atom_site_fract_x
_atom_site_fract_y
_atom_site_fract_z
Si Si1 0.713056 0.130199 0.669002
Si Si2 0.439160 0.960149 0.774338
Si Si3 0.436855 0.462513 0.947517
Si Si4 0.143064 0.622130 0.566179
O O1 0.767807 0.943123 0.644228
O O2 0.665475 0.024342 0.568785
O O3 0.691858 0.130072 0.822986
O O4 0.500000 0.075180 0.750000
O O5 0.418260 0.157810 0.896796
O O6 0.407120 0.948611 0.632742
O O7 0.436432 0.644411 0.813274
O O8 0.500000 0.500000 0.000000
O O9 0.385607 0.579082 0.038942
#
# Coordination Sequence:
#
# PCOD8248685 Si02
#       4
#     8   8   8   8
#     4  12  30  55  83 118 159 212 292 359 420 490
#     4  12  27  47  77 124 170 222 275 335 411 524
#     4  12  27  47  78 121 172 222 274 332 418 523
#     4  12  28  53  87 119 166 220 274 351 435 484
#
# _framework density 27.553511
#
# number of rings (size 3 to 8) (size 9 to 14) (size 15 to 20)
#    0.000    0.000    5.000    3.000    3.500    4.000 
#    0.000    0.000    0.000    0.000    0.000    0.000 
#    0.000    0.000    0.000    0.000    0.000    0.000 
#
# Total GULP energy -396514.062511 kJ/mol
# GULP energy per Si atom -12391.064453 kJ/mol
# Density = 2.749080 g / cm^3
# Si number density = 27.553511 Si / 1000 Ang^3
#
#
#
# Elastic Constant Matrix: (Units=GPa)
#
#
# Indices 1 2 3 4 5 6 
#
# 1 148.3546 27.3402 39.3433 0.0000 0.0000 0.0000
# 2 27.3402 57.8883 26.8938 0.0000 0.0000 0.0000
# 3 39.3433 26.8938 146.9153 0.0000 0.0000 0.0000
# 4 0.0000 0.0000 0.0000 38.3198 0.0000 0.0000
# 5 0.0000 0.0000 0.0000 0.0000 58.6303 0.0000
# 6 0.0000 0.0000 0.0000 0.0000 0.0000 55.2357
#
#
#
# Elastic Compliance Matrix: (Units=1/GPa)
#
#
# Indices 1 2 3 4 5 6 
#
# 1 0.007683 -0.002921 -0.001523 0.000000 0.000000 0.000000
# 2 -0.002921 0.019991 -0.002877 0.000000 0.000000 0.000000
# 3 -0.001523 -0.002877 0.007741 0.000000 0.000000 0.000000
# 4 0.000000 0.000000 0.000000 0.026096 0.000000 0.000000
# 5 0.000000 0.000000 0.000000 0.000000 0.017056 0.000000
# 6 0.000000 0.000000 0.000000 0.000000 0.000000 0.018104
#
#
# Mechanical properties :
#
#
# Convention : Reuss Voigt Hill
#
# Bulk Modulus (GPa) = 48.13981 60.03474 54.08727
# Shear Modulus (GPa) = 42.28777 47.74255 45.01516
#
# Velocity S-wave (km/s) = 3.92184 4.16711 4.04633
# Velocity P-wave (km/s) = 6.16580 6.70737 6.44228
#
# Compressibility (1/GPa) = 0.02077283
#
# Stress axis : x y z
#
# Youngs Moduli (GPa) = 130.16176 50.02261 129.18054
#
# Poissons Ratio (x) = 0.14612 0.19670
# Poissons Ratio (y) = 0.38022 0.37168
# Poissons Ratio (z) = 0.19819 0.14393
#
# Static dielectric constant tensor:
#      x y z
#    x 5.337110 0.000000 0.000000 
#    y 0.000000 5.032220 0.000000 
#    z 0.000000 0.000000 5.051480 
# 
# 
# High freq. dielectric constant tensor:
#      x y z
#    x 2.139270 0.000000 0.000000 
#    y 0.000000 2.111290 0.000000 
#    z 0.000000 0.000000 2.132410 
# 
# From -- ./inp_files/12706.got.cif
#   From: 2010.03.12/outbox.cif.g09.slc.cpg/sg60_7_cif.got.tgz:12706.got - 2010.04.10 18:46:24.
