data_PCOD8248429
_publ_section_title
;
Structure prediction by ZEFSAII (Michael W. Deem and Ramdas Pophale) SiO2 
 PCOD8248429
Probable space group: P B C N
;
_chemical_formula_sum "Si O2"
_cell_formula_units_Z 60
_cell_length_a 10.985119
_cell_length_b 18.561569
_cell_length_c 13.525892
_cell_angle_alpha 90.000000
_cell_angle_beta 90.000000
_cell_angle_gamma 90.000000
_cell_volume 2757.943504
_symmetry_space_group_name_H-M "P B C N"
_symmetry_group_IT_number 60
_symmetry_cell_setting 'orthorhombic'
loop_
_space_group_symop_operation_xyz
x,y,z
1/2-x,1/2-y,1/2+z
1/2+x,1/2-y,-z
-x,y,1/2-z
-x,-y,-z
1/2+x,1/2+y,1/2-z
1/2-x,1/2+y,z
x,-y,1/2+z
loop_
_atom_site_type_symbol
_atom_site_label
_atom_site_fract_x
_atom_site_fract_y
_atom_site_fract_z
Si Si1 0.152378 0.765066 0.549760
Si Si2 0.500000 0.319968 0.250000
Si Si3 0.697919 0.627783 0.607059
Si Si4 0.191362 0.516099 0.475956
Si Si5 0.570341 0.774266 0.152524
Si Si6 0.657030 0.192471 0.301266
Si Si7 0.452848 0.954913 0.642865
Si Si8 0.765926 0.839639 0.599194
O O1 0.132813 0.838411 0.488522
O O2 0.210501 0.788643 0.654844
O O3 0.242838 0.715121 0.489476
O O4 0.028146 0.719941 0.564188
O O5 0.406635 0.371868 0.308825
O O6 0.578371 0.264900 0.317328
O O7 0.744980 0.548870 0.581622
O O8 0.814817 0.673645 0.641079
O O9 0.160466 0.500436 0.592596
O O10 0.281561 0.582831 0.452994
O O11 0.064584 0.540084 0.430041
O O12 0.500000 0.797074 0.250000
O O13 0.610878 0.689756 0.151233
O O14 0.592172 0.127300 0.357850
O O15 0.664187 0.166203 0.186393
O O16 0.500000 0.983777 0.750000
#
# Coordination Sequence:
#
# PCOD8248429 Si02
#       8
#     8   4   8   8   8   8   8   8
#     4  11  24  42  69 102 137 176 236 303 345 422
#     4  12  22  42  68 102 134 180 242 290 352 436
#     4  11  26  41  68 101 142 180 232 301 362 425
#     4  11  25  44  61 104 144 179 235 284 363 441
#     4  11  23  44  67 100 134 180 241 295 345 420
#     4  12  21  43  74 100 131 183 238 291 363 419
#     4  11  23  39  71  97 134 181 228 296 352 416
#     4  11  24  44  69 102 135 188 230 288 361 436
#
# _framework density 21.755341000000001
#
# number of rings (size 3 to 8) (size 9 to 14) (size 15 to 20)
#    0.000    0.800    7.333    0.000    7.467    0.533 
#    3.600    0.667    0.000    0.000    0.000    0.000 
#    0.000    0.000    0.000    0.000    0.000    0.000 
#
# Total GULP energy -743304.864494 kJ/mol
# GULP energy per Si atom -12388.414408 kJ/mol
# Density = 2.170582 g / cm^3
# Si number density = 21.755341 Si / 1000 Ang^3
#
#
#
# Elastic Constant Matrix: (Units=GPa)
#
#
# Indices 1 2 3 4 5 6 
#
# 1 87.1040 24.3213 40.8160 0.0000 0.0000 0.0000
# 2 24.3213 118.1995 46.3244 0.0000 0.0000 0.0000
# 3 40.8160 46.3244 107.4134 0.0000 0.0000 0.0000
# 4 0.0000 0.0000 0.0000 24.6119 0.0000 0.0000
# 5 0.0000 0.0000 0.0000 0.0000 39.1245 0.0000
# 6 0.0000 0.0000 0.0000 0.0000 0.0000 24.6114
#
#
#
# Elastic Compliance Matrix: (Units=1/GPa)
#
#
# Indices 1 2 3 4 5 6 
#
# 1 0.014058 -0.000962 -0.004927 0.000000 0.000000 0.000000
# 2 -0.000962 0.010247 -0.004054 0.000000 0.000000 0.000000
# 3 -0.004927 -0.004054 0.012930 0.000000 0.000000 0.000000
# 4 0.000000 0.000000 0.000000 0.040631 0.000000 0.000000
# 5 0.000000 0.000000 0.000000 0.000000 0.025559 0.000000
# 6 0.000000 0.000000 0.000000 0.000000 0.000000 0.040632
#
#
# Mechanical properties :
#
#
# Convention : Reuss Voigt Hill
#
# Bulk Modulus (GPa) = 57.63669 59.51559 58.57614
# Shear Modulus (GPa) = 29.45936 31.08657 30.27297
#
# Velocity S-wave (km/s) = 3.68383 3.78420 3.73435
# Velocity P-wave (km/s) = 6.68167 6.81980 6.75109
#
# Compressibility (1/GPa) = 0.01735006
#
# Stress axis : x y z
#
# Youngs Moduli (GPa) = 71.13482 97.59068 77.33734
#
# Poissons Ratio (x) = 0.09384 0.38105
# Poissons Ratio (y) = 0.06840 0.31351
# Poissons Ratio (z) = 0.35049 0.39561
#
# Static dielectric constant tensor:
#      x y z
#    x 4.055580 0.000000 0.000000 
#    y 0.000000 3.971830 0.000000 
#    z 0.000000 0.000000 4.167830 
# 
# 
# High freq. dielectric constant tensor:
#      x y z
#    x 1.852330 0.000000 0.000000 
#    y 0.000000 1.835650 0.000000 
#    z 0.000000 0.000000 1.862210 
# 
# From -- ./inp_files/16337.got.cif
#   From: 2010.03.12/outbox.cif.g09.slc.cpg/sg60_9_cif.got.tgz:16337.got - 2010.04.10 18:46:24.
