data_PCOD8248110
_publ_section_title
;
Structure prediction by ZEFSAII (Michael W. Deem and Ramdas Pophale) SiO2 
 PCOD8248110
Probable space group: P B C N
;
_chemical_formula_sum "Si O2"
_cell_formula_units_Z 32
_cell_length_a 27.901254
_cell_length_b 4.758730
_cell_length_c 8.913150
_cell_angle_alpha 90.000000
_cell_angle_beta 90.000000
_cell_angle_gamma 90.000000
_cell_volume 1183.439342
_symmetry_space_group_name_H-M "P B C N"
_symmetry_group_IT_number 60
_symmetry_cell_setting 'orthorhombic'
loop_
_space_group_symop_operation_xyz
x,y,z
1/2-x,1/2-y,1/2+z
1/2+x,1/2-y,-z
-x,y,1/2-z
-x,-y,-z
1/2+x,1/2+y,1/2-z
1/2-x,1/2+y,z
x,-y,1/2+z
loop_
_atom_site_type_symbol
_atom_site_label
_atom_site_fract_x
_atom_site_fract_y
_atom_site_fract_z
Si Si1 0.026939 0.232999 0.097142
Si Si2 0.216357 0.664436 0.559440
Si Si3 0.410615 0.757328 0.577698
Si Si4 0.151673 0.540056 0.820738
O O1 0.077045 0.063782 0.121480
O O2 0.000000 0.292467 0.250000
O O3 0.042510 0.541678 0.029074
O O4 0.000000 0.000000 0.000000
O O5 0.236018 0.347337 0.558084
O O6 0.185003 0.720793 0.708702
O O7 0.183434 0.691592 0.410885
O O8 0.389795 0.882360 0.730424
O O9 0.372543 0.753482 0.443059
#
# Coordination Sequence:
#
# PCOD8248110 Si02
#       4
#     8   8   8   8
#     4  12  24  41  64  90 122 160 202 250 300 357
#     4  11  24  41  64  91 122 160 202 247 300 357
#     4  11  24  41  62  91 122 160 202 247 302 357
#     4  10  24  41  64  90 124 160 200 250 300 357
#
# _framework density 27.039829000000001
#
# number of rings (size 3 to 8) (size 9 to 14) (size 15 to 20)
#    0.000    1.000    0.000    6.000    0.000   12.000 
#    0.000    0.000    0.000    0.000    0.000    0.000 
#    0.000    0.000    0.000    0.000    0.000    0.000 
#
# Total GULP energy -396813.166505 kJ/mol
# GULP energy per Si atom -12400.411453 kJ/mol
# Density = 2.697829 g / cm^3
# Si number density = 27.039829 Si / 1000 Ang^3
#
#
#
# Elastic Constant Matrix: (Units=GPa)
#
#
# Indices 1 2 3 4 5 6 
#
# 1 39.5101 -18.7736 -6.8829 0.0000 0.0000 0.0000
# 2 -18.7736 98.7005 -4.6201 0.0000 0.0000 0.0000
# 3 -6.8829 -4.6201 117.4930 0.0000 0.0000 0.0000
# 4 0.0000 0.0000 0.0000 13.0196 0.0000 0.0000
# 5 0.0000 0.0000 0.0000 0.0000 36.3458 0.0000
# 6 0.0000 0.0000 0.0000 0.0000 0.0000 13.1367
#
#
#
# Elastic Compliance Matrix: (Units=1/GPa)
#
#
# Indices 1 2 3 4 5 6 
#
# 1 0.028228 0.005457 0.001868 0.000000 0.000000 0.000000
# 2 0.005457 0.011205 0.000760 0.000000 0.000000 0.000000
# 3 0.001868 0.000760 0.008650 0.000000 0.000000 0.000000
# 4 0.000000 0.000000 0.000000 0.076807 0.000000 0.000000
# 5 0.000000 0.000000 0.000000 0.000000 0.027514 0.000000
# 6 0.000000 0.000000 0.000000 0.000000 0.000000 0.076123
#
#
# Mechanical properties :
#
#
# Convention : Reuss Voigt Hill
#
# Bulk Modulus (GPa) = 15.56318 21.68337 18.62328
# Shear Modulus (GPa) = 21.38805 31.56574 26.47690
#
# Velocity S-wave (km/s) = 2.81549 3.42040 3.13258
# Velocity P-wave (km/s) = 4.04197 4.86162 4.47061
#
# Compressibility (1/GPa) = 0.06425421
#
# Stress axis : x y z
#
# Youngs Moduli (GPa) = 35.42553 89.24464 115.60044
#
# Poissons Ratio (x) = -0.48698 -0.21597
# Poissons Ratio (y) = -0.19331 -0.08789
# Poissons Ratio (z) = -0.06618 -0.06785
#
# Static dielectric constant tensor:
#      x y z
#    x 5.355010 0.000000 0.000000 
#    y 0.000000 5.337550 0.000000 
#    z 0.000000 0.000000 4.833190 
# 
# 
# High freq. dielectric constant tensor:
#      x y z
#    x 2.120730 0.000000 0.000000 
#    y 0.000000 2.079470 0.000000 
#    z 0.000000 0.000000 2.090780 
# 
# From -- ./inp_files/8274.got.cif
#   From: 2010.03.12/outbox.cif.g09.slc.cpg/sg60_5_cif.got.tgz:8274.got - 2010.04.10 18:46:24.
