data_PCOD8248428
_publ_section_title
;
Structure prediction by ZEFSAII (Michael W. Deem and Ramdas Pophale) SiO2 
 PCOD8248428
Probable space group: P B C N
;
_chemical_formula_sum "Si O2"
_cell_formula_units_Z 48
_cell_length_a 13.216256
_cell_length_b 17.842353
_cell_length_c 8.704201
_cell_angle_alpha 90.000000
_cell_angle_beta 90.000000
_cell_angle_gamma 90.000000
_cell_volume 2052.529847
_symmetry_space_group_name_H-M "P B C N"
_symmetry_group_IT_number 60
_symmetry_cell_setting 'orthorhombic'
loop_
_space_group_symop_operation_xyz
x,y,z
1/2-x,1/2-y,1/2+z
1/2+x,1/2-y,-z
-x,y,1/2-z
-x,-y,-z
1/2+x,1/2+y,1/2-z
1/2-x,1/2+y,z
x,-y,1/2+z
loop_
_atom_site_type_symbol
_atom_site_label
_atom_site_fract_x
_atom_site_fract_y
_atom_site_fract_z
Si Si1 0.507390 0.298826 0.571567
Si Si2 0.315167 0.302163 0.380495
Si Si3 0.634916 0.194186 0.386959
Si Si4 0.610553 0.031647 0.462045
Si Si5 0.569940 0.451299 0.610076
Si Si6 0.253290 0.048216 0.767219
O O1 0.500000 0.272915 0.750000
O O2 0.399268 0.324631 0.505435
O O3 0.534912 0.230127 0.460309
O O4 0.587366 0.367740 0.541012
O O5 0.217628 0.288685 0.483673
O O6 0.337073 0.228954 0.278174
O O7 0.301815 0.371480 0.260529
O O8 0.610419 0.106219 0.355804
O O9 0.649651 0.056225 0.626480
O O10 0.500000 0.000000 0.500000
O O11 0.695865 0.974558 0.394727
O O12 0.500000 0.429568 0.750000
O O13 0.500000 0.500000 0.500000
O O14 0.673400 0.487927 0.667096
#
# Coordination Sequence:
#
# PCOD8248428 Si02
#       6
#     8   8   8   8   8   8
#     4  11  25  43  69 103 146 184 233 301 366 439
#     4  11  25  45  68 105 139 193 237 299 369 438
#     4  11  27  45  71 101 146 189 250 297 369 437
#     4  11  27  48  71 104 138 194 251 305 358 434
#     4  11  23  39  69 103 143 179 228 293 368 443
#     4  11  25  43  72 103 142 185 239 298 373 437
#
# _framework density 23.385774000000001
#
# number of rings (size 3 to 8) (size 9 to 14) (size 15 to 20)
#    0.000    1.000    1.667    3.000   14.000    6.667 
#    0.000    0.000    0.000    0.000    0.000    0.000 
#    0.000    0.000    0.000    0.000    0.000    0.000 
#
# Total GULP energy -594797.947548 kJ/mol
# GULP energy per Si atom -12391.623907 kJ/mol
# Density = 2.333255 g / cm^3
# Si number density = 23.385774 Si / 1000 Ang^3
#
#
#
# Elastic Constant Matrix: (Units=GPa)
#
#
# Indices 1 2 3 4 5 6 
#
# 1 110.7596 30.7199 29.5743 0.0000 0.0000 0.0000
# 2 30.7199 105.9057 26.4962 0.0000 0.0000 0.0000
# 3 29.5743 26.4962 97.8267 0.0000 0.0000 0.0000
# 4 0.0000 0.0000 0.0000 34.9849 0.0000 0.0000
# 5 0.0000 0.0000 0.0000 0.0000 50.7227 0.0000
# 6 0.0000 0.0000 0.0000 0.0000 0.0000 31.3580
#
#
#
# Elastic Compliance Matrix: (Units=1/GPa)
#
#
# Indices 1 2 3 4 5 6 
#
# 1 0.010352 -0.002381 -0.002485 0.000000 0.000000 0.000000
# 2 -0.002381 0.010676 -0.002172 0.000000 0.000000 0.000000
# 3 -0.002485 -0.002172 0.011562 0.000000 0.000000 0.000000
# 4 0.000000 0.000000 0.000000 0.028584 0.000000 0.000000
# 5 0.000000 0.000000 0.000000 0.000000 0.019715 0.000000
# 6 0.000000 0.000000 0.000000 0.000000 0.000000 0.031890
#
#
# Mechanical properties :
#
#
# Convention : Reuss Voigt Hill
#
# Bulk Modulus (GPa) = 54.01067 54.23031 54.12049
# Shear Modulus (GPa) = 37.58654 38.59323 38.08989
#
# Velocity S-wave (km/s) = 4.01339 4.06678 4.04017
# Velocity P-wave (km/s) = 6.67997 6.72989 6.70498
#
# Compressibility (1/GPa) = 0.01851486
#
# Stress axis : x y z
#
# Youngs Moduli (GPa) = 96.59520 93.66406 86.49362
#
# Poissons Ratio (x) = 0.22304 0.21491
# Poissons Ratio (y) = 0.23002 0.18785
# Poissons Ratio (z) = 0.24001 0.20342
#
# Static dielectric constant tensor:
#      x y z
#    x 4.151740 0.000000 0.000000 
#    y 0.000000 4.535350 0.000000 
#    z 0.000000 0.000000 4.178890 
# 
# 
# High freq. dielectric constant tensor:
#      x y z
#    x 1.931470 0.000000 0.000000 
#    y 0.000000 1.929000 0.000000 
#    z 0.000000 0.000000 1.930970 
# 
# From -- ./inp_files/5908.got.cif
#   From: 2010.03.12/outbox.cif.g09.slc.cpg/sg60_3_cif.got.tgz:5908.got - 2010.04.10 18:46:24.
