data_PCOD8248135
_publ_section_title
;
Structure prediction by ZEFSAII (Michael W. Deem and Ramdas Pophale) SiO2 
 PCOD8248135
Probable space group: P B C N
;
_chemical_formula_sum "Si O2"
_cell_formula_units_Z 40
_cell_length_a 10.024158
_cell_length_b 9.064280
_cell_length_c 18.510794
_cell_angle_alpha 90.000000
_cell_angle_beta 90.000000
_cell_angle_gamma 90.000000
_cell_volume 1681.923597
_symmetry_space_group_name_H-M "P B C N"
_symmetry_group_IT_number 60
_symmetry_cell_setting 'orthorhombic'
loop_
_space_group_symop_operation_xyz
x,y,z
1/2-x,1/2-y,1/2+z
1/2+x,1/2-y,-z
-x,y,1/2-z
-x,-y,-z
1/2+x,1/2+y,1/2-z
1/2-x,1/2+y,z
x,-y,1/2+z
loop_
_atom_site_type_symbol
_atom_site_label
_atom_site_fract_x
_atom_site_fract_y
_atom_site_fract_z
Si Si1 0.379125 0.820008 0.521796
Si Si2 0.175279 0.381442 0.946681
Si Si3 0.000000 0.117948 0.750000
Si Si4 0.500000 0.880372 0.250000
Si Si5 0.164126 0.627949 0.180249
Si Si6 0.658907 0.626868 0.193072
O O1 0.538068 0.790739 0.536652
O O2 0.304312 0.676016 0.490800
O O3 0.306614 0.864529 0.595660
O O4 0.354711 0.949292 0.464345
O O5 0.215111 0.372434 0.861598
O O6 0.103046 0.219224 0.707624
O O7 0.066107 0.017856 0.814446
O O8 0.582701 0.782733 0.191896
O O9 0.578728 0.982411 0.305434
O O10 0.300383 0.608679 0.222977
#
# Coordination Sequence:
#
# PCOD8248135 Si02
#       6
#     8   8   4   4   8   8
#     4  11  29  47  72 104 145 191 238 297 365 427
#     4  11  28  49  72 105 146 190 238 296 365 430
#     4  10  24  42  72 104 136 186 238 288 356 420
#     4  10  24  42  76 102 140 188 238 292 356 420
#     4  11  24  43  71  99 139 181 242 292 349 425
#     4  11  25  44  74 103 142 185 242 294 357 426
#
# _framework density 23.782294
#
# number of rings (size 3 to 8) (size 9 to 14) (size 15 to 20)
#    0.000    1.200    0.000    3.600   19.600    2.400 
#    0.000    0.000    0.000    0.000    0.000    0.000 
#    0.000    0.000    0.000    0.000    0.000    0.000 
#
# Total GULP energy -495821.625739 kJ/mol
# GULP energy per Si atom -12395.540643 kJ/mol
# Density = 2.372816 g / cm^3
# Si number density = 23.782294 Si / 1000 Ang^3
#
#
#
# Elastic Constant Matrix: (Units=GPa)
#
#
# Indices 1 2 3 4 5 6 
#
# 1 112.8043 36.7196 28.0928 0.0000 0.0000 0.0000
# 2 36.7196 119.4007 23.7042 0.0000 0.0000 0.0000
# 3 28.0928 23.7042 86.7050 0.0000 0.0000 0.0000
# 4 0.0000 0.0000 0.0000 24.2062 0.0000 0.0000
# 5 0.0000 0.0000 0.0000 0.0000 44.8169 0.0000
# 6 0.0000 0.0000 0.0000 0.0000 0.0000 29.1069
#
#
#
# Elastic Compliance Matrix: (Units=1/GPa)
#
#
# Indices 1 2 3 4 5 6 
#
# 1 0.010391 -0.002672 -0.002636 0.000000 0.000000 0.000000
# 2 -0.002672 0.009543 -0.001743 0.000000 0.000000 0.000000
# 3 -0.002636 -0.001743 0.012864 0.000000 0.000000 0.000000
# 4 0.000000 0.000000 0.000000 0.041312 0.000000 0.000000
# 5 0.000000 0.000000 0.000000 0.000000 0.022313 0.000000
# 6 0.000000 0.000000 0.000000 0.000000 0.000000 0.034356
#
#
# Mechanical properties :
#
#
# Convention : Reuss Voigt Hill
#
# Bulk Modulus (GPa) = 53.49004 55.10479 54.29742
# Shear Modulus (GPa) = 33.08752 34.98555 34.03653
#
# Velocity S-wave (km/s) = 3.73402 3.83962 3.78719
# Velocity P-wave (km/s) = 6.41333 6.54811 6.48107
#
# Compressibility (1/GPa) = 0.01869507
#
# Stress axis : x y z
#
# Youngs Moduli (GPa) = 96.23413 104.78845 77.73587
#
# Poissons Ratio (x) = 0.28003 0.20493
# Poissons Ratio (y) = 0.25717 0.13550
# Poissons Ratio (z) = 0.25370 0.18266
#
# Static dielectric constant tensor:
#      x y z
#    x 4.320030 0.000000 0.000000 
#    y 0.000000 4.376560 0.000000 
#    z 0.000000 0.000000 4.146650 
# 
# 
# High freq. dielectric constant tensor:
#      x y z
#    x 1.947040 0.000000 0.000000 
#    y 0.000000 1.953850 0.000000 
#    z 0.000000 0.000000 1.932010 
# 
# From -- ./inp_files/19898.got.cif
#   From: 2010.03.12/outbox.cif.g09.slc.cpg/sg60_10_cif.got.tgz:19898.got - 2010.04.10 18:46:24.
