data_PCOD8248311
_publ_section_title
;
Structure prediction by ZEFSAII (Michael W. Deem and Ramdas Pophale) SiO2 
 PCOD8248311
Probable space group: P B C N
;
_chemical_formula_sum "Si O2"
_cell_formula_units_Z 60
_cell_length_a 17.359832
_cell_length_b 8.705467
_cell_length_c 18.967248
_cell_angle_alpha 90.000000
_cell_angle_beta 90.000000
_cell_angle_gamma 90.000000
_cell_volume 2866.433787
_symmetry_space_group_name_H-M "P B C N"
_symmetry_group_IT_number 60
_symmetry_cell_setting 'orthorhombic'
loop_
_space_group_symop_operation_xyz
x,y,z
1/2-x,1/2-y,1/2+z
1/2+x,1/2-y,-z
-x,y,1/2-z
-x,-y,-z
1/2+x,1/2+y,1/2-z
1/2-x,1/2+y,z
x,-y,1/2+z
loop_
_atom_site_type_symbol
_atom_site_label
_atom_site_fract_x
_atom_site_fract_y
_atom_site_fract_z
Si Si1 0.025206 0.268395 0.988895
Si Si2 0.500000 0.906849 0.750000
Si Si3 0.167385 0.339377 0.177407
Si Si4 0.701187 0.845403 0.892930
Si Si5 0.557745 0.669750 0.858039
Si Si6 0.112588 0.357952 0.322355
Si Si7 0.524132 0.663111 0.362193
Si Si8 0.872937 0.455930 0.026058
O O1 0.105204 0.363961 0.981408
O O2 0.010162 0.180464 0.915998
O O3 0.032751 0.148542 0.053122
O O4 0.951620 0.373429 0.004657
O O5 0.442349 0.004798 0.797399
O O6 0.550230 0.796685 0.798633
O O7 0.181233 0.515505 0.158911
O O8 0.216582 0.220645 0.130714
O O9 0.177573 0.321596 0.262715
O O10 0.077605 0.303700 0.163737
O O11 0.642600 0.701550 0.889093
O O12 0.697212 0.910965 0.973209
O O13 0.552117 0.496883 0.827618
O O14 0.153526 0.411577 0.394898
O O15 0.061991 0.204625 0.336955
#
# Coordination Sequence:
#
# PCOD8248311 Si02
#       8
#     8   4   8   8   8   8   8   8
#     4   9  17  33  61  90 121 156 198 257 315 364
#     4  12  20  34  62  92 126 160 202 268 320 380
#     4  12  23  40  61  86 123 171 208 261 311 383
#     4  11  23  42  61  85 121 167 218 246 313 390
#     4  11  22  35  59  96 126 155 205 263 317 382
#     4  11  21  39  63  92 126 162 209 264 325 375
#     4  11  21  36  62  96 130 159 206 263 324 370
#     4   9  18  36  62  88 116 161 206 258 310 381
#
# _framework density 20.931933999999998
#
# number of rings (size 3 to 8) (size 9 to 14) (size 15 to 20)
#    0.000    1.333    5.333    1.200    1.867    0.000 
#    0.000    1.333    2.933    0.000    0.000    0.000 
#    0.000    0.000    0.000    0.000    0.000    0.000 
#
# Total GULP energy -743771.554853 kJ/mol
# GULP energy per Si atom -12396.192581 kJ/mol
# Density = 2.088429 g / cm^3
# Si number density = 20.931934 Si / 1000 Ang^3
#
#
#
# Elastic Constant Matrix: (Units=GPa)
#
#
# Indices 1 2 3 4 5 6 
#
# 1 50.2237 19.1031 40.2564 0.0000 0.0000 0.0000
# 2 19.1031 92.7356 21.7468 0.0000 0.0000 0.0000
# 3 40.2564 21.7468 142.5610 0.0000 0.0000 0.0000
# 4 0.0000 0.0000 0.0000 23.5190 0.0000 0.0000
# 5 0.0000 0.0000 0.0000 0.0000 32.5246 0.0000
# 6 0.0000 0.0000 0.0000 0.0000 0.0000 23.9513
#
#
#
# Elastic Compliance Matrix: (Units=1/GPa)
#
#
# Indices 1 2 3 4 5 6 
#
# 1 0.027044 -0.003920 -0.007039 0.000000 0.000000 0.000000
# 2 -0.003920 0.011752 -0.000686 0.000000 0.000000 0.000000
# 3 -0.007039 -0.000686 0.009107 0.000000 0.000000 0.000000
# 4 0.000000 0.000000 0.000000 0.042519 0.000000 0.000000
# 5 0.000000 0.000000 0.000000 0.000000 0.030746 0.000000
# 6 0.000000 0.000000 0.000000 0.000000 0.000000 0.041751
#
#
# Mechanical properties :
#
#
# Convention : Reuss Voigt Hill
#
# Bulk Modulus (GPa) = 40.62883 49.74810 45.18846
# Shear Modulus (GPa) = 25.71859 29.62657 27.67258
#
# Velocity S-wave (km/s) = 3.50905 3.76623 3.63991
# Velocity P-wave (km/s) = 5.98916 6.53688 6.26901
#
# Compressibility (1/GPa) = 0.02461306
#
# Stress axis : x y z
#
# Youngs Moduli (GPa) = 36.97706 85.09409 109.80934
#
# Poissons Ratio (x) = 0.33360 0.77290
# Poissons Ratio (y) = 0.14496 0.07529
# Poissons Ratio (z) = 0.26027 0.05834
#
# Static dielectric constant tensor:
#      x y z
#    x 3.390250 0.000000 0.000000 
#    y 0.000000 3.630070 0.000000 
#    z 0.000000 0.000000 4.140240 
# 
# 
# High freq. dielectric constant tensor:
#      x y z
#    x 1.772010 0.000000 0.000000 
#    y 0.000000 1.819250 0.000000 
#    z 0.000000 0.000000 1.831150 
# 
# From -- ./inp_files/20907.got.cif
#   From: 2010.03.12/outbox.cif.g09.slc.cpg/sg60_11_cif.got.tgz:20907.got - 2010.04.10 18:46:24.
