data_PCOD8248401
_publ_section_title
;
Structure prediction by ZEFSAII (Michael W. Deem and Ramdas Pophale) SiO2 
 PCOD8248401
Probable space group: P B C N
;
_chemical_formula_sum "Si O2"
_cell_formula_units_Z 40
_cell_length_a 17.767295
_cell_length_b 4.831010
_cell_length_c 17.317065
_cell_angle_alpha 90.000000
_cell_angle_beta 90.000000
_cell_angle_gamma 90.000000
_cell_volume 1486.392608
_symmetry_space_group_name_H-M "P B C N"
_symmetry_group_IT_number 60
_symmetry_cell_setting 'orthorhombic'
loop_
_space_group_symop_operation_xyz
x,y,z
1/2-x,1/2-y,1/2+z
1/2+x,1/2-y,-z
-x,y,1/2-z
-x,-y,-z
1/2+x,1/2+y,1/2-z
1/2-x,1/2+y,z
x,-y,1/2+z
loop_
_atom_site_type_symbol
_atom_site_label
_atom_site_fract_x
_atom_site_fract_y
_atom_site_fract_z
Si Si1 0.197251 0.765736 0.688669
Si Si2 0.799124 0.233586 0.635612
Si Si3 0.572956 0.415386 0.702012
Si Si4 0.633459 0.218038 0.980675
Si Si5 0.049657 0.242147 0.469939
O O1 0.267497 0.566125 0.704207
O O2 0.168873 0.742232 0.601961
O O3 0.125351 0.718678 0.744453
O O4 0.770487 0.535469 0.659194
O O5 0.877775 0.185597 0.680247
O O6 0.813020 0.154174 0.545945
O O7 0.500000 0.512082 0.750000
O O8 0.547181 0.266378 0.623074
O O9 0.555848 0.427433 0.985604
O O10 0.627686 0.891995 0.003679
O O11 0.000000 0.500000 0.500000
#
# Coordination Sequence:
#
# PCOD8248401 Si02
#       5
#     8   8   8   8   8
#     4  12  26  47  73 109 149 192 245 315 386 453
#     4  11  22  43  70 101 138 188 248 308 369 445
#     4  11  26  46  71 106 152 200 250 313 386 458
#     4  11  23  43  73 105 137 186 247 305 365 443
#     4  11  24  45  71 103 143 192 245 301 363 441
#
# _framework density 26.910789000000001
#
# number of rings (size 3 to 8) (size 9 to 14) (size 15 to 20)
#    0.000    0.800    0.000    7.800    0.000    3.200 
#    0.000   14.000    0.000    0.000    0.000    0.000 
#    0.000    0.000    0.000    0.000    0.000    0.000 
#
# Total GULP energy -495645.454650 kJ/mol
# GULP energy per Si atom -12391.136366 kJ/mol
# Density = 2.684954 g / cm^3
# Si number density = 26.910789 Si / 1000 Ang^3
#
#
#
# Elastic Constant Matrix: (Units=GPa)
#
#
# Indices 1 2 3 4 5 6 
#
# 1 135.6712 40.9374 84.4761 0.0000 0.0000 0.0000
# 2 40.9374 138.3407 33.6705 0.0000 0.0000 0.0000
# 3 84.4761 33.6705 234.1973 0.0000 0.0000 0.0000
# 4 0.0000 0.0000 0.0000 13.1987 0.0000 0.0000
# 5 0.0000 0.0000 0.0000 0.0000 61.3636 0.0000
# 6 0.0000 0.0000 0.0000 0.0000 0.0000 20.6640
#
#
#
# Elastic Compliance Matrix: (Units=1/GPa)
#
#
# Indices 1 2 3 4 5 6 
#
# 1 0.010102 -0.002179 -0.003331 0.000000 0.000000 0.000000
# 2 -0.002179 0.007961 -0.000359 0.000000 0.000000 0.000000
# 3 -0.003331 -0.000359 0.005523 0.000000 0.000000 0.000000
# 4 0.000000 0.000000 0.000000 0.075765 0.000000 0.000000
# 5 0.000000 0.000000 0.000000 0.000000 0.016296 0.000000
# 6 0.000000 0.000000 0.000000 0.000000 0.000000 0.048393
#
#
# Mechanical properties :
#
#
# Convention : Reuss Voigt Hill
#
# Bulk Modulus (GPa) = 84.39190 91.81969 88.10580
# Shear Modulus (GPa) = 27.82023 42.32029 35.07026
#
# Velocity S-wave (km/s) = 3.21876 3.96992 3.61391
# Velocity P-wave (km/s) = 6.72620 7.43020 7.08695
#
# Compressibility (1/GPa) = 0.01184948
#
# Stress axis : x y z
#
# Youngs Moduli (GPa) = 98.99057 125.61968 181.06685
#
# Poissons Ratio (x) = 0.27369 0.60306
# Poissons Ratio (y) = 0.21567 0.06493
# Poissons Ratio (z) = 0.32970 0.04505
#
# Static dielectric constant tensor:
#      x y z
#    x 5.018300 0.000000 0.000000 
#    y 0.000000 3.487770 0.000000 
#    z 0.000000 0.000000 5.086310 
# 
# 
# High freq. dielectric constant tensor:
#      x y z
#    x 2.114680 0.000000 0.000000 
#    y 0.000000 2.090200 0.000000 
#    z 0.000000 0.000000 2.102230 
# 
# From -- ./inp_files/20739.got.cif
#   From: 2010.03.12/outbox.cif.g09.slc.cpg/sg60_11_cif.got.tgz:20739.got - 2010.04.10 18:46:24.
