data_PCOD8248035
_publ_section_title
;
Structure prediction by ZEFSAII (Michael W. Deem and Ramdas Pophale) SiO2 
 PCOD8248035
Probable space group: P B C N
;
_chemical_formula_sum "Si O2"
_cell_formula_units_Z 36
_cell_length_a 7.665695
_cell_length_b 14.812339
_cell_length_c 14.220127
_cell_angle_alpha 90.000000
_cell_angle_beta 90.000000
_cell_angle_gamma 90.000000
_cell_volume 1614.650955
_symmetry_space_group_name_H-M "P B C N"
_symmetry_group_IT_number 60
_symmetry_cell_setting 'orthorhombic'
loop_
_space_group_symop_operation_xyz
x,y,z
1/2-x,1/2-y,1/2+z
1/2+x,1/2-y,-z
-x,y,1/2-z
-x,-y,-z
1/2+x,1/2+y,1/2-z
1/2-x,1/2+y,z
x,-y,1/2+z
loop_
_atom_site_type_symbol
_atom_site_label
_atom_site_fract_x
_atom_site_fract_y
_atom_site_fract_z
Si Si1 0.162991 0.982771 0.181586
Si Si2 0.318924 0.162934 0.207113
Si Si3 0.169439 0.259128 0.379770
Si Si4 0.000000 0.389077 0.250000
Si Si5 0.949323 0.182520 0.927656
O O1 0.326413 0.946675 0.240110
O O2 0.117746 0.919017 0.093087
O O3 0.000000 0.984299 0.250000
O O4 0.218902 0.083815 0.149107
O O5 0.500000 0.126369 0.250000
O O6 0.198927 0.190570 0.294325
O O7 0.347438 0.248040 0.139641
O O8 0.024579 0.330422 0.345325
O O9 0.345547 0.310537 0.408785
O O10 0.090052 0.202332 0.464602
#
# Coordination Sequence:
#
# PCOD8248035 Si02
#       5
#     8   8   8   4   8
#     4  12  23  42  68 100 135 177 230 275 341 407
#     4  10  23  44  68  99 139 180 227 283 341 405
#     4  11  24  44  73  98 140 182 225 284 344 402
#     4  12  22  44  70  94 134 182 216 280 346 386
#     4  11  23  46  66 105 137 177 235 280 334 415
#
# _framework density 22.295840999999999
#
# number of rings (size 3 to 8) (size 9 to 14) (size 15 to 20)
#    0.000    0.889    5.556    2.000    1.556    0.000 
#    4.000    5.556    0.000    0.000    0.000    0.000 
#    0.000    0.000    0.000    0.000    0.000    0.000 
#
# Total GULP energy -446430.162500 kJ/mol
# GULP energy per Si atom -12400.837847 kJ/mol
# Density = 2.224510 g / cm^3
# Si number density = 22.295841 Si / 1000 Ang^3
#
#
#
# Elastic Constant Matrix: (Units=GPa)
#
#
# Indices 1 2 3 4 5 6 
#
# 1 117.8235 38.5535 16.9125 0.0000 0.0000 0.0000
# 2 38.5535 94.9616 21.1390 0.0000 0.0000 0.0000
# 3 16.9125 21.1390 89.2714 0.0000 0.0000 0.0000
# 4 0.0000 0.0000 0.0000 8.2469 0.0000 0.0000
# 5 0.0000 0.0000 0.0000 0.0000 37.3941 0.0000
# 6 0.0000 0.0000 0.0000 0.0000 0.0000 25.6234
#
#
#
# Elastic Compliance Matrix: (Units=1/GPa)
#
#
# Indices 1 2 3 4 5 6 
#
# 1 0.009867 -0.003789 -0.000972 0.000000 0.000000 0.000000
# 2 -0.003789 0.012572 -0.002259 0.000000 0.000000 0.000000
# 3 -0.000972 -0.002259 0.011921 0.000000 0.000000 0.000000
# 4 0.000000 0.000000 0.000000 0.121257 0.000000 0.000000
# 5 0.000000 0.000000 0.000000 0.000000 0.026742 0.000000
# 6 0.000000 0.000000 0.000000 0.000000 0.000000 0.039027
#
#
# Mechanical properties :
#
#
# Convention : Reuss Voigt Hill
#
# Bulk Modulus (GPa) = 49.21587 50.58519 49.90053
# Shear Modulus (GPa) = 20.64416 29.28300 24.96358
#
# Velocity S-wave (km/s) = 3.04619 3.62800 3.34975
# Velocity P-wave (km/s) = 5.87319 6.34722 6.11480
#
# Compressibility (1/GPa) = 0.02031865
#
# Stress axis : x y z
#
# Youngs Moduli (GPa) = 101.35061 79.54229 83.88658
#
# Poissons Ratio (x) = 0.30142 0.08153
# Poissons Ratio (y) = 0.38406 0.18950
# Poissons Ratio (z) = 0.09851 0.17969
#
# Static dielectric constant tensor:
#      x y z
#    x 4.344050 0.000000 0.000000 
#    y 0.000000 4.109550 0.000000 
#    z 0.000000 0.000000 4.228370 
# 
# 
# High freq. dielectric constant tensor:
#      x y z
#    x 1.907310 0.000000 0.000000 
#    y 0.000000 1.876960 0.000000 
#    z 0.000000 0.000000 1.855890 
# 
# From -- ./inp_files/14558.got.cif
#   From: 2010.03.12/outbox.cif.g09.slc.cpg/sg60_8_cif.got.tgz:14558.got - 2010.04.10 18:46:24.
