data_PCOD8248812
_publ_section_title
;
Structure prediction by ZEFSAII (Michael W. Deem and Ramdas Pophale) SiO2 
 PCOD8248812
Probable space group: P B C A
;
_chemical_formula_sum "Si O2"
_cell_formula_units_Z 48
_cell_length_a 8.495628
_cell_length_b 27.546127
_cell_length_c 9.797126
_cell_angle_alpha 90.000000
_cell_angle_beta 90.000000
_cell_angle_gamma 90.000000
_cell_volume 2292.739571
_symmetry_space_group_name_H-M "P B C A"
_symmetry_group_IT_number 61
_symmetry_cell_setting 'orthorhombic'
loop_
_space_group_symop_operation_xyz
x,y,z
1/2-x,-y,1/2+z
1/2+x,1/2-y,-z
-x,1/2+y,1/2-z
-x,-y,-z
1/2+x,y,1/2-z
1/2-x,1/2+y,z
x,1/2-y,1/2+z
loop_
_atom_site_type_symbol
_atom_site_label
_atom_site_fract_x
_atom_site_fract_y
_atom_site_fract_z
Si Si1 0.170381 0.861390 0.296479
Si Si2 0.644272 0.050269 0.620803
Si Si3 0.421072 0.253897 0.340911
Si Si4 0.866355 0.881729 0.445002
Si Si5 0.782980 0.025731 0.905983
Si Si6 0.105088 0.212721 0.414001
O O1 0.297583 0.893650 0.381208
O O2 0.172111 0.804857 0.335557
O O3 0.210961 0.862681 0.135637
O O4 0.000563 0.884787 0.327611
O O5 0.705529 0.021858 0.755968
O O6 0.457349 0.047116 0.611579
O O7 0.719443 0.024845 0.486197
O O8 0.289840 0.215962 0.386269
O O9 0.563741 0.258276 0.447721
O O10 0.494522 0.234507 0.201765
O O11 0.822148 0.935712 0.495899
O O12 0.921485 0.845411 0.565365
#
# Coordination Sequence:
#
# PCOD8248812 Si02
#       6
#     8   8   8   8   8   8
#     4  10  19  34  59  84 111 153 200 236 291 362
#     4  10  21  37  61  87 117 156 200 250 297 357
#     4  11  22  39  59  87 117 155 200 247 300 360
#     4  10  20  35  58  85 115 154 197 246 297 358
#     4  10  21  38  58  87 118 152 199 246 300 357
#     4  11  23  39  61  86 120 156 198 248 303 362
#
# _framework density 20.935652000000001
#
# number of rings (size 3 to 8) (size 9 to 14) (size 15 to 20)
#    0.000    1.667    0.000    8.000    0.000    4.000 
#    0.000    8.333    0.000    0.000    0.000    0.000 
#    0.000    0.000    0.000    0.000    0.000    0.000 
#
# Total GULP energy -594763.514808 kJ/mol
# GULP energy per Si atom -12390.906559 kJ/mol
# Density = 2.088800 g / cm^3
# Si number density = 20.935652 Si / 1000 Ang^3
#
#
#
# Elastic Constant Matrix: (Units=GPa)
#
#
# Indices 1 2 3 4 5 6 
#
# 1 78.1971 36.9882 20.7441 0.0000 0.0000 0.0000
# 2 36.9882 86.3353 48.2593 0.0000 0.0000 0.0000
# 3 20.7441 48.2593 86.1724 0.0000 0.0000 0.0000
# 4 0.0000 0.0000 0.0000 36.0607 0.0000 0.0000
# 5 0.0000 0.0000 0.0000 0.0000 28.7824 0.0000
# 6 0.0000 0.0000 0.0000 0.0000 0.0000 32.9913
#
#
#
# Elastic Compliance Matrix: (Units=1/GPa)
#
#
# Indices 1 2 3 4 5 6 
#
# 1 0.016038 -0.006861 -0.000019 0.000000 0.000000 0.000000
# 2 -0.006861 0.019796 -0.009435 0.000000 0.000000 0.000000
# 3 -0.000019 -0.009435 0.016893 0.000000 0.000000 0.000000
# 4 0.000000 0.000000 0.000000 0.027731 0.000000 0.000000
# 5 0.000000 0.000000 0.000000 0.000000 0.034744 0.000000
# 6 0.000000 0.000000 0.000000 0.000000 0.000000 0.030311
#
#
# Mechanical properties :
#
#
# Convention : Reuss Voigt Hill
#
# Bulk Modulus (GPa) = 49.75419 51.40975 50.58197
# Shear Modulus (GPa) = 27.05033 29.21442 28.13237
#
# Velocity S-wave (km/s) = 3.59844 3.73961 3.66970
# Velocity P-wave (km/s) = 6.40952 6.57690 6.49375
#
# Compressibility (1/GPa) = 0.02009881
#
# Stress axis : x y z
#
# Youngs Moduli (GPa) = 62.35038 50.51555 59.19662
#
# Poissons Ratio (x) = 0.34658 0.00110
# Poissons Ratio (y) = 0.42778 0.55850
# Poissons Ratio (z) = 0.00116 0.47660
#
# Static dielectric constant tensor:
#      x y z
#    x 3.957240 0.000000 0.000000 
#    y 0.000000 3.861420 0.000000 
#    z 0.000000 0.000000 3.640450 
# 
# 
# High freq. dielectric constant tensor:
#      x y z
#    x 1.837930 0.000000 0.000000 
#    y 0.000000 1.816160 0.000000 
#    z 0.000000 0.000000 1.795590 
# 
# From -- ./inp_files/1887.got.cif
#   From: 2010.03.12/outbox.cif.g09.slc.cpg/sg61_1_cif.got.tgz:1887.got - 2010.04.10 19:05:03.
