data_PCOD8248253
_publ_section_title
;
Structure prediction by ZEFSAII (Michael W. Deem and Ramdas Pophale) SiO2 
 PCOD8248253
Probable space group: P B C N
;
_chemical_formula_sum "Si O2"
_cell_formula_units_Z 60
_cell_length_a 22.324972
_cell_length_b 8.689229
_cell_length_c 13.561627
_cell_angle_alpha 90.000000
_cell_angle_beta 90.000000
_cell_angle_gamma 90.000000
_cell_volume 2630.776545
_symmetry_space_group_name_H-M "P B C N"
_symmetry_group_IT_number 60
_symmetry_cell_setting 'orthorhombic'
loop_
_space_group_symop_operation_xyz
x,y,z
1/2-x,1/2-y,1/2+z
1/2+x,1/2-y,-z
-x,y,1/2-z
-x,-y,-z
1/2+x,1/2+y,1/2-z
1/2-x,1/2+y,z
x,-y,1/2+z
loop_
_atom_site_type_symbol
_atom_site_label
_atom_site_fract_x
_atom_site_fract_y
_atom_site_fract_z
Si Si1 0.342014 0.647556 0.293597
Si Si2 0.790129 0.732550 0.199880
Si Si3 0.851995 0.925712 0.044774
Si Si4 0.407180 0.253684 0.619616
Si Si5 0.500000 0.116123 0.750000
Si Si6 0.118529 0.512681 0.836448
Si Si7 0.667354 0.007103 0.950996
Si Si8 0.212884 0.836277 0.089995
O O1 0.270266 0.630814 0.304868
O O2 0.377307 0.528595 0.365115
O O3 0.367129 0.625655 0.183410
O O4 0.356463 0.818759 0.324631
O O5 0.800353 0.820559 0.095967
O O6 0.843830 0.614044 0.224487
O O7 0.788465 0.855816 0.290535
O O8 0.903861 0.821069 0.992597
O O9 0.828633 0.039510 0.961094
O O10 0.472885 0.231727 0.666081
O O11 0.378456 0.079920 0.629582
O O12 0.548856 0.007723 0.696384
O O13 0.128347 0.475693 0.950805
O O14 0.692315 0.837903 0.932178
O O15 0.720717 0.133836 0.951450
#
# Coordination Sequence:
#
# PCOD8248253 Si02
#       8
#     8   8   8   8   4   8   8   8
#     4  11  22  41  66  99 150 179 226 286 365 430
#     4  12  24  40  67 104 147 186 224 290 358 431
#     4  12  25  39  64 103 142 184 233 278 351 435
#     4  11  24  47  70 100 137 193 242 294 353 414
#     4  10  26  50  76  96 138 188 260 306 342 408
#     4  11  24  45  71 104 134 195 241 295 354 414
#     4  12  23  43  69 106 146 185 233 284 364 433
#     4  12  25  39  67 109 153 183 223 287 361 451
#
# _framework density 22.806953
#
# number of rings (size 3 to 8) (size 9 to 14) (size 15 to 20)
#    0.000    0.533    4.000    5.600    1.867    0.533 
#    0.000    2.667    0.000    6.400    0.000    0.000 
#    0.000    0.000    0.000    0.000    0.000    0.000 
#
# Total GULP energy -743384.587024 kJ/mol
# GULP energy per Si atom -12389.743117 kJ/mol
# Density = 2.275504 g / cm^3
# Si number density = 22.806953 Si / 1000 Ang^3
#
#
#
# Elastic Constant Matrix: (Units=GPa)
#
#
# Indices 1 2 3 4 5 6 
#
# 1 126.4588 47.6808 51.4232 0.0000 0.0000 0.0000
# 2 47.6808 116.3367 47.8433 0.0000 0.0000 0.0000
# 3 51.4232 47.8433 110.0542 0.0000 0.0000 0.0000
# 4 0.0000 0.0000 0.0000 42.9417 0.0000 0.0000
# 5 0.0000 0.0000 0.0000 0.0000 40.3257 0.0000
# 6 0.0000 0.0000 0.0000 0.0000 0.0000 25.7879
#
#
#
# Elastic Compliance Matrix: (Units=1/GPa)
#
#
# Indices 1 2 3 4 5 6 
#
# 1 0.010447 -0.002769 -0.003678 0.000000 0.000000 0.000000
# 2 -0.002769 0.011201 -0.003575 0.000000 0.000000 0.000000
# 3 -0.003678 -0.003575 0.012359 0.000000 0.000000 0.000000
# 4 0.000000 0.000000 0.000000 0.023287 0.000000 0.000000
# 5 0.000000 0.000000 0.000000 0.000000 0.024798 0.000000
# 6 0.000000 0.000000 0.000000 0.000000 0.000000 0.038778
#
#
# Mechanical properties :
#
#
# Convention : Reuss Voigt Hill
#
# Bulk Modulus (GPa) = 71.61915 71.86046 71.73981
# Shear Modulus (GPa) = 34.34768 35.53789 34.94278
#
# Velocity S-wave (km/s) = 3.88495 3.95169 3.91847
# Velocity P-wave (km/s) = 7.18292 7.23863 7.21083
#
# Compressibility (1/GPa) = 0.01396275
#
# Stress axis : x y z
#
# Youngs Moduli (GPa) = 95.71758 89.27627 80.91187
#
# Poissons Ratio (x) = 0.24725 0.29756
# Poissons Ratio (y) = 0.26509 0.28929
# Poissons Ratio (z) = 0.35201 0.31920
#
# Static dielectric constant tensor:
#      x y z
#    x 3.995010 0.000000 0.000000 
#    y 0.000000 4.281420 0.000000 
#    z 0.000000 0.000000 4.880430 
# 
# 
# High freq. dielectric constant tensor:
#      x y z
#    x 1.845870 0.000000 0.000000 
#    y 0.000000 1.914910 0.000000 
#    z 0.000000 0.000000 1.931920 
# 
# From -- ./inp_files/17907.got.cif
#   From: 2010.03.12/outbox.cif.g09.slc.cpg/sg60_9_cif.got.tgz:17907.got - 2010.04.10 18:46:24.
