data_PCOD8248520
_publ_section_title
;
Structure prediction by ZEFSAII (Michael W. Deem and Ramdas Pophale) SiO2 
 PCOD8248520
Probable space group: P B C N
;
_chemical_formula_sum "Si O2"
_cell_formula_units_Z 40
_cell_length_a 24.537444
_cell_length_b 4.969689
_cell_length_c 13.221029
_cell_angle_alpha 90.000000
_cell_angle_beta 90.000000
_cell_angle_gamma 90.000000
_cell_volume 1612.218094
_symmetry_space_group_name_H-M "P B C N"
_symmetry_group_IT_number 60
_symmetry_cell_setting 'orthorhombic'
loop_
_space_group_symop_operation_xyz
x,y,z
1/2-x,1/2-y,1/2+z
1/2+x,1/2-y,-z
-x,y,1/2-z
-x,-y,-z
1/2+x,1/2+y,1/2-z
1/2-x,1/2+y,z
x,-y,1/2+z
loop_
_atom_site_type_symbol
_atom_site_label
_atom_site_fract_x
_atom_site_fract_y
_atom_site_fract_z
Si Si1 0.857015 0.653304 0.860693
Si Si2 0.026343 0.000397 0.346024
Si Si3 0.714360 0.252979 0.045156
Si Si4 0.867440 0.829459 0.223296
Si Si5 0.949104 0.330710 0.974860
O O1 0.839965 0.402968 0.790767
O O2 0.902992 0.531145 0.935473
O O3 0.873241 0.894849 0.786979
O O4 0.809326 0.770282 0.931344
O O5 0.069624 0.768192 0.310259
O O6 0.000000 0.159781 0.250000
O O7 0.970286 0.888619 0.394831
O O8 0.064810 0.181534 0.419293
O O9 0.766322 0.446610 0.059337
O O10 0.669782 0.352244 0.124806
O O11 0.000000 0.500000 0.000000
#
# Coordination Sequence:
#
# PCOD8248520 Si02
#       5
#     8   8   8   8   8
#     4  12  28  49  79 114 155 206 259 331 391 477
#     4  11  24  44  72 113 155 214 260 319 385 481
#     4  12  29  52  81 111 151 201 261 335 400 469
#     4  12  28  48  80 115 156 204 264 319 404 472
#     4  11  25  42  71 107 160 208 259 317 391 459
#
# _framework density 24.810538999999999
#
# number of rings (size 3 to 8) (size 9 to 14) (size 15 to 20)
#    0.000    0.400    2.000    4.800   14.000    5.600 
#    0.000    0.000    0.000    0.000    0.000    0.000 
#    0.000    0.000    0.000    0.000    0.000    0.000 
#
# Total GULP energy -495541.943601 kJ/mol
# GULP energy per Si atom -12388.548590 kJ/mol
# Density = 2.475407 g / cm^3
# Si number density = 24.810539 Si / 1000 Ang^3
#
#
#
# Elastic Constant Matrix: (Units=GPa)
#
#
# Indices 1 2 3 4 5 6 
#
# 1 89.2380 17.5499 48.2737 0.0000 0.0000 0.0000
# 2 17.5499 117.3224 46.9317 0.0000 0.0000 0.0000
# 3 48.2737 46.9317 157.0497 0.0000 0.0000 0.0000
# 4 0.0000 0.0000 0.0000 34.5196 0.0000 0.0000
# 5 0.0000 0.0000 0.0000 0.0000 31.8391 0.0000
# 6 0.0000 0.0000 0.0000 0.0000 0.0000 38.4502
#
#
#
# Elastic Compliance Matrix: (Units=1/GPa)
#
#
# Indices 1 2 3 4 5 6 
#
# 1 0.013458 -0.000407 -0.004015 0.000000 0.000000 0.000000
# 2 -0.000407 0.009693 -0.002772 0.000000 0.000000 0.000000
# 3 -0.004015 -0.002772 0.008430 0.000000 0.000000 0.000000
# 4 0.000000 0.000000 0.000000 0.028969 0.000000 0.000000
# 5 0.000000 0.000000 0.000000 0.000000 0.031408 0.000000
# 6 0.000000 0.000000 0.000000 0.000000 0.000000 0.026008
#
#
# Mechanical properties :
#
#
# Convention : Reuss Voigt Hill
#
# Bulk Modulus (GPa) = 58.16096 65.45786 61.80941
# Shear Modulus (GPa) = 36.20989 37.68546 36.94768
#
# Velocity S-wave (km/s) = 3.82443 3.90157 3.86319
# Velocity P-wave (km/s) = 6.55703 6.83643 6.69818
#
# Compressibility (1/GPa) = 0.01719366
#
# Stress axis : x y z
#
# Youngs Moduli (GPa) = 74.30524 103.16645 118.62712
#
# Poissons Ratio (x) = 0.04199 0.47630
# Poissons Ratio (y) = 0.03024 0.32878
# Poissons Ratio (z) = 0.29834 0.28593
#
# Static dielectric constant tensor:
#      x y z
#    x 4.122500 0.000000 0.000000 
#    y 0.000000 4.252000 0.000000 
#    z 0.000000 0.000000 4.557410 
# 
# 
# High freq. dielectric constant tensor:
#      x y z
#    x 1.976500 0.000000 0.000000 
#    y 0.000000 1.981120 0.000000 
#    z 0.000000 0.000000 2.021180 
# 
# From -- ./inp_files/13209.got.cif
#   From: 2010.03.12/outbox.cif.g09.slc.cpg/sg60_7_cif.got.tgz:13209.got - 2010.04.10 18:46:24.
