data_PCOD8248287
_publ_section_title
;
Structure prediction by ZEFSAII (Michael W. Deem and Ramdas Pophale) SiO2 
 PCOD8248287
Probable space group: P B C N
;
_chemical_formula_sum "Si O2"
_cell_formula_units_Z 48
_cell_length_a 16.908043
_cell_length_b 15.149547
_cell_length_c 8.537083
_cell_angle_alpha 90.000000
_cell_angle_beta 90.000000
_cell_angle_gamma 90.000000
_cell_volume 2186.766913
_symmetry_space_group_name_H-M "P B C N"
_symmetry_group_IT_number 60
_symmetry_cell_setting 'orthorhombic'
loop_
_space_group_symop_operation_xyz
x,y,z
1/2-x,1/2-y,1/2+z
1/2+x,1/2-y,-z
-x,y,1/2-z
-x,-y,-z
1/2+x,1/2+y,1/2-z
1/2-x,1/2+y,z
x,-y,1/2+z
loop_
_atom_site_type_symbol
_atom_site_label
_atom_site_fract_x
_atom_site_fract_y
_atom_site_fract_z
Si Si1 0.082679 0.451680 0.173460
Si Si2 0.912780 0.915761 0.739983
Si Si3 0.329648 0.568167 0.579401
Si Si4 0.862902 0.739733 0.873866
Si Si5 0.727029 0.310638 0.154128
Si Si6 0.311776 0.027710 0.949373
O O1 0.083099 0.348039 0.129696
O O2 0.163560 0.473344 0.268312
O O3 0.000000 0.479085 0.250000
O O4 0.100792 0.517786 0.029089
O O5 0.890394 0.905229 0.556951
O O6 0.917395 0.823078 0.832578
O O7 0.000000 0.957827 0.750000
O O8 0.852685 0.979204 0.830284
O O9 0.326200 0.644253 0.710383
O O10 0.243745 0.554335 0.498005
O O11 0.795894 0.743189 0.739522
O O12 0.826779 0.746198 0.049299
O O13 0.764699 0.380427 0.029202
#
# Coordination Sequence:
#
# PCOD8248287 Si02
#       6
#     8   8   8   8   8   8
#     4  11  24  40  63  94 130 166 209 262 330 385
#     4  12  24  39  63  93 133 168 204 265 323 383
#     4  12  21  42  65  94 122 167 225 257 309 384
#     4  11  23  39  61  92 131 161 210 266 330 378
#     4  11  23  38  67  98 119 167 219 276 310 376
#     4  11  20  40  64  90 121 166 215 263 303 376
#
# _framework density 21.950213000000002
#
# number of rings (size 3 to 8) (size 9 to 14) (size 15 to 20)
#    0.000    0.667    6.667    2.500    0.000    0.000 
#    0.000    0.000    0.000    2.000    0.000    0.000 
#    0.000    0.000    0.000    0.000    0.000    0.000 
#
# Total GULP energy -595038.703515 kJ/mol
# GULP energy per Si atom -12396.639657 kJ/mol
# Density = 2.190025 g / cm^3
# Si number density = 21.950213 Si / 1000 Ang^3
#
#
#
# Elastic Constant Matrix: (Units=GPa)
#
#
# Indices 1 2 3 4 5 6 
#
# 1 78.9822 8.6868 21.8751 0.0000 0.0000 0.0000
# 2 8.6868 37.8296 24.2287 0.0000 0.0000 0.0000
# 3 21.8751 24.2287 77.3901 0.0000 0.0000 0.0000
# 4 0.0000 0.0000 0.0000 36.4902 0.0000 0.0000
# 5 0.0000 0.0000 0.0000 0.0000 41.6135 0.0000
# 6 0.0000 0.0000 0.0000 0.0000 0.0000 26.6528
#
#
#
# Elastic Compliance Matrix: (Units=1/GPa)
#
#
# Indices 1 2 3 4 5 6 
#
# 1 0.013758 -0.000836 -0.003627 0.000000 0.000000 0.000000
# 2 -0.000836 0.033115 -0.010131 0.000000 0.000000 0.000000
# 3 -0.003627 -0.010131 0.017118 0.000000 0.000000 0.000000
# 4 0.000000 0.000000 0.000000 0.027405 0.000000 0.000000
# 5 0.000000 0.000000 0.000000 0.000000 0.024031 0.000000
# 6 0.000000 0.000000 0.000000 0.000000 0.000000 0.037519
#
#
# Mechanical properties :
#
#
# Convention : Reuss Voigt Hill
#
# Bulk Modulus (GPa) = 28.73340 33.75368 31.24354
# Shear Modulus (GPa) = 25.80844 30.24539 28.02692
#
# Velocity S-wave (km/s) = 3.43267 3.71605 3.57717
# Velocity P-wave (km/s) = 5.36933 5.81573 5.59698
#
# Compressibility (1/GPa) = 0.03480270
#
# Stress axis : x y z
#
# Youngs Moduli (GPa) = 72.68721 30.19782 58.41635
#
# Poissons Ratio (x) = 0.02525 0.21187
# Poissons Ratio (y) = 0.06078 0.59182
# Poissons Ratio (z) = 0.26363 0.30593
#
# Static dielectric constant tensor:
#      x y z
#    x 3.749650 0.000000 0.000000 
#    y 0.000000 3.765400 0.000000 
#    z 0.000000 0.000000 4.104740 
# 
# 
# High freq. dielectric constant tensor:
#      x y z
#    x 1.855480 0.000000 0.000000 
#    y 0.000000 1.847760 0.000000 
#    z 0.000000 0.000000 1.877540 
# 
# From -- ./inp_files/6722.got.cif
#   From: 2010.03.12/outbox.cif.g09.slc.cpg/sg60_4_cif.got.tgz:6722.got - 2010.04.10 18:46:24.
