data_PCOD8248732
_publ_section_title
;
Structure prediction by ZEFSAII (Michael W. Deem and Ramdas Pophale) SiO2 
 PCOD8248732
Probable space group: P B C A
;
_chemical_formula_sum "Si O2"
_cell_formula_units_Z 56
_cell_length_a 17.607786
_cell_length_b 8.853679
_cell_length_c 18.752439
_cell_angle_alpha 90.000000
_cell_angle_beta 90.000000
_cell_angle_gamma 90.000000
_cell_volume 2923.386821
_symmetry_space_group_name_H-M "P B C A"
_symmetry_group_IT_number 61
_symmetry_cell_setting 'orthorhombic'
loop_
_space_group_symop_operation_xyz
x,y,z
1/2-x,-y,1/2+z
1/2+x,1/2-y,-z
-x,1/2+y,1/2-z
-x,-y,-z
1/2+x,y,1/2-z
1/2-x,1/2+y,z
x,1/2-y,1/2+z
loop_
_atom_site_type_symbol
_atom_site_label
_atom_site_fract_x
_atom_site_fract_y
_atom_site_fract_z
Si Si1 0.702693 0.632922 0.105074
Si Si2 0.194075 0.890557 0.208299
Si Si3 0.078069 0.814561 0.775712
Si Si4 0.693052 0.136602 0.911251
Si Si5 0.566313 0.368229 0.289572
Si Si6 0.251213 0.384357 0.493175
Si Si7 0.685257 0.198580 0.217355
O O1 0.636485 0.634646 0.163313
O O2 0.788029 0.635741 0.140740
O O3 0.694268 0.773415 0.051598
O O4 0.697345 0.479105 0.060187
O O5 0.116685 0.796132 0.217532
O O6 0.225754 0.869951 0.128997
O O7 0.254383 0.828888 0.265003
O O8 0.183638 0.067718 0.222988
O O9 0.009724 0.720582 0.811480
O O10 0.047648 0.961279 0.733942
O O11 0.622722 0.132501 0.857160
O O12 0.693338 0.290925 0.956498
O O13 0.691240 0.991957 0.963153
O O14 0.603422 0.279895 0.221559
#
# Coordination Sequence:
#
# PCOD8248732 Si02
#       7
#     8   8   8   8   8   8   8
#     4  10  19  35  54  81 108 137 179 218 255 316
#     4  10  18  32  56  81 107 137 172 223 272 310
#     4  11  22  36  55  81 109 139 175 225 281 322
#     4  10  19  35  54  81 108 137 179 218 255 316
#     4  11  22  36  55  81 109 139 175 225 281 322
#     4  10  20  32  56  78 104 144 180 212 254 306
#     4  10  18  32  56  81 107 137 172 223 272 310
#
# _framework density 19.155863
#
# number of rings (size 3 to 8) (size 9 to 14) (size 15 to 20)
#    0.000    1.714    0.000    9.429    0.000    0.000 
#    0.000    1.429    0.000    6.857    0.000    0.000 
#    0.000    0.000    0.000    0.000    0.000    0.000 
#
# Total GULP energy -694239.636810 kJ/mol
# GULP energy per Si atom -12397.136372 kJ/mol
# Density = 1.911226 g / cm^3
# Si number density = 19.155863 Si / 1000 Ang^3
#
#
#
# Elastic Constant Matrix: (Units=GPa)
#
#
# Indices 1 2 3 4 5 6 
#
# 1 66.5968 21.7418 18.5432 0.0000 0.0000 0.0000
# 2 21.7418 91.6503 17.4222 0.0000 0.0000 0.0000
# 3 18.5432 17.4222 80.1401 0.0000 0.0000 0.0000
# 4 0.0000 0.0000 0.0000 29.2814 0.0000 0.0000
# 5 0.0000 0.0000 0.0000 0.0000 17.5413 0.0000
# 6 0.0000 0.0000 0.0000 0.0000 0.0000 24.7291
#
#
#
# Elastic Compliance Matrix: (Units=1/GPa)
#
#
# Indices 1 2 3 4 5 6 
#
# 1 0.017025 -0.003432 -0.003193 0.000000 0.000000 0.000000
# 2 -0.003432 0.012073 -0.001831 0.000000 0.000000 0.000000
# 3 -0.003193 -0.001831 0.013615 0.000000 0.000000 0.000000
# 4 0.000000 0.000000 0.000000 0.034151 0.000000 0.000000
# 5 0.000000 0.000000 0.000000 0.000000 0.057008 0.000000
# 6 0.000000 0.000000 0.000000 0.000000 0.000000 0.040438
#
#
# Mechanical properties :
#
#
# Convention : Reuss Voigt Hill
#
# Bulk Modulus (GPa) = 38.75671 39.31126 39.03399
# Shear Modulus (GPa) = 25.02208 26.35568 25.68888
#
# Velocity S-wave (km/s) = 3.61811 3.71328 3.66600
# Velocity P-wave (km/s) = 6.14252 6.24107 6.19199
#
# Compressibility (1/GPa) = 0.02580198
#
# Stress axis : x y z
#
# Youngs Moduli (GPa) = 58.73626 82.82859 73.44841
#
# Poissons Ratio (x) = 0.28425 0.23454
# Poissons Ratio (y) = 0.20157 0.13445
# Poissons Ratio (z) = 0.18756 0.15163
#
# Static dielectric constant tensor:
#      x y z
#    x 3.319170 0.000000 0.000000 
#    y 0.000000 3.777650 0.000000 
#    z 0.000000 0.000000 3.585540 
# 
# 
# High freq. dielectric constant tensor:
#      x y z
#    x 1.702020 0.000000 0.000000 
#    y 0.000000 1.776470 0.000000 
#    z 0.000000 0.000000 1.737240 
# 
# From -- ./inp_files/9022.got.cif
#   From: 2010.03.12/outbox.cif.g09.slc.cpg/sg61_5_cif.got.tgz:9022.got - 2010.04.10 19:05:03.
