data_PCOD8248843
_publ_section_title
;
Structure prediction by ZEFSAII (Michael W. Deem and Ramdas Pophale) SiO2 
 PCOD8248843
Probable space group: P B C A
;
_chemical_formula_sum "Si O2"
_cell_formula_units_Z 48
_cell_length_a 8.122931
_cell_length_b 15.514060
_cell_length_c 13.643757
_cell_angle_alpha 90.000000
_cell_angle_beta 90.000000
_cell_angle_gamma 90.000000
_cell_volume 1719.381331
_symmetry_space_group_name_H-M "P B C A"
_symmetry_group_IT_number 61
_symmetry_cell_setting 'orthorhombic'
loop_
_space_group_symop_operation_xyz
x,y,z
1/2-x,-y,1/2+z
1/2+x,1/2-y,-z
-x,1/2+y,1/2-z
-x,-y,-z
1/2+x,y,1/2-z
1/2-x,1/2+y,z
x,1/2-y,1/2+z
loop_
_atom_site_type_symbol
_atom_site_label
_atom_site_fract_x
_atom_site_fract_y
_atom_site_fract_z
Si Si1 0.134019 0.886265 0.133330
Si Si2 0.790147 0.235472 0.124100
Si Si3 0.718487 0.446395 0.609339
Si Si4 0.926984 0.516974 0.781071
Si Si5 0.665170 0.277021 0.837508
Si Si6 0.160878 0.397249 0.493773
O O1 0.292111 0.947130 0.144085
O O2 0.193488 0.787674 0.123161
O O3 0.025759 0.901384 0.232984
O O4 0.030120 0.915941 0.036752
O O5 0.692852 0.210880 0.223181
O O6 0.707962 0.317852 0.076598
O O7 0.981802 0.256177 0.138588
O O8 0.751961 0.148158 0.060950
O O9 0.856984 0.461119 0.691713
O O10 0.539550 0.451917 0.657862
O O11 0.726555 0.520094 0.525944
O O12 0.685036 0.369283 0.893289
#
# Coordination Sequence:
#
# PCOD8248843 Si02
#       6
#     8   8   8   8   8   8
#     4  10  19  36  64  95 129 174 219 269 334 393
#     4  12  25  43  72 103 135 180 226 276 340 402
#     4  10  21  41  66 100 136 174 226 277 332 398
#     4   9  18  36  65  95 132 177 222 274 332 393
#     4  12  24  42  68  99 135 174 226 278 332 403
#     4  11  25  44  67  98 137 177 223 280 336 396
#
# _framework density 27.917017999999999
#
# number of rings (size 3 to 8) (size 9 to 14) (size 15 to 20)
#    0.000    1.333    0.000    8.000    0.000    0.667 
#    0.000    6.667    0.000   12.000    0.000    0.000 
#    0.000    0.000    0.000    0.000    0.000    0.000 
#
# Total GULP energy -595325.909416 kJ/mol
# GULP energy per Si atom -12402.623113 kJ/mol
# Density = 2.785348 g / cm^3
# Si number density = 27.917018 Si / 1000 Ang^3
#
#
#
# Elastic Constant Matrix: (Units=GPa)
#
#
# Indices 1 2 3 4 5 6 
#
# 1 110.6924 12.2733 3.4742 0.0000 0.0000 0.0000
# 2 12.2733 118.0440 19.0273 0.0000 0.0000 0.0000
# 3 3.4742 19.0273 82.8084 0.0000 0.0000 0.0000
# 4 0.0000 0.0000 0.0000 41.2092 0.0000 0.0000
# 5 0.0000 0.0000 0.0000 0.0000 32.3916 0.0000
# 6 0.0000 0.0000 0.0000 0.0000 0.0000 29.0720
#
#
#
# Elastic Compliance Matrix: (Units=1/GPa)
#
#
# Indices 1 2 3 4 5 6 
#
# 1 0.009142 -0.000923 -0.000171 0.000000 0.000000 0.000000
# 2 -0.000923 0.008890 -0.002004 0.000000 0.000000 0.000000
# 3 -0.000171 -0.002004 0.012544 0.000000 0.000000 0.000000
# 4 0.000000 0.000000 0.000000 0.024266 0.000000 0.000000
# 5 0.000000 0.000000 0.000000 0.000000 0.030872 0.000000
# 6 0.000000 0.000000 0.000000 0.000000 0.000000 0.034397
#
#
# Mechanical properties :
#
#
# Convention : Reuss Voigt Hill
#
# Bulk Modulus (GPa) = 41.01878 42.34382 41.68130
# Shear Modulus (GPa) = 37.19269 38.98590 38.08930
#
# Velocity S-wave (km/s) = 3.65397 3.74102 3.69775
# Velocity P-wave (km/s) = 5.70325 5.81902 5.76142
#
# Compressibility (1/GPa) = 0.02437908
#
# Stress axis : x y z
#
# Youngs Moduli (GPa) = 109.38822 112.48088 79.72094
#
# Poissons Ratio (x) = 0.10380 0.01367
# Poissons Ratio (y) = 0.10095 0.15977
# Poissons Ratio (z) = 0.01876 0.22542
#
# Static dielectric constant tensor:
#      x y z
#    x 5.339070 0.000000 0.000000 
#    y 0.000000 5.119770 0.000000 
#    z 0.000000 0.000000 5.074150 
# 
# 
# High freq. dielectric constant tensor:
#      x y z
#    x 2.137820 0.000000 0.000000 
#    y 0.000000 2.134320 0.000000 
#    z 0.000000 0.000000 2.130510 
# 
# From -- ./inp_files/7035.got.cif
#   From: 2010.03.12/outbox.cif.g09.slc.cpg/sg61_4_cif.got.tgz:7035.got - 2010.04.10 19:05:03.
