data_PCOD8248012
_publ_section_title
;
Structure prediction by ZEFSAII (Michael W. Deem and Ramdas Pophale) SiO2 
 PCOD8248012
Probable space group: P B C N
;
_chemical_formula_sum "Si O2"
_cell_formula_units_Z 40
_cell_length_a 9.244288
_cell_length_b 10.005006
_cell_length_c 19.819197
_cell_angle_alpha 90.000000
_cell_angle_beta 90.000000
_cell_angle_gamma 90.000000
_cell_volume 1833.060821
_symmetry_space_group_name_H-M "P B C N"
_symmetry_group_IT_number 60
_symmetry_cell_setting 'orthorhombic'
loop_
_space_group_symop_operation_xyz
x,y,z
1/2-x,1/2-y,1/2+z
1/2+x,1/2-y,-z
-x,y,1/2-z
-x,-y,-z
1/2+x,1/2+y,1/2-z
1/2-x,1/2+y,z
x,-y,1/2+z
loop_
_atom_site_type_symbol
_atom_site_label
_atom_site_fract_x
_atom_site_fract_y
_atom_site_fract_z
Si Si1 0.835370 0.019020 0.479786
Si Si2 0.080550 0.538647 0.932262
Si Si3 0.627514 0.903865 0.700170
Si Si4 0.326815 0.787669 0.097671
Si Si5 0.332399 0.808101 0.249334
O O1 0.747963 0.062668 0.547691
O O2 0.815668 0.135102 0.425063
O O3 0.772499 0.881759 0.449224
O O4 0.000000 0.000000 0.500000
O O5 0.069116 0.420998 0.876346
O O6 0.996870 0.668377 0.903322
O O7 0.000000 0.500000 0.000000
O O8 0.500000 0.859524 0.750000
O O9 0.750094 0.791765 0.700645
O O10 0.696604 0.043673 0.723673
O O11 0.268740 0.795848 0.173898
O O12 0.500000 0.769646 0.250000
#
# Coordination Sequence:
#
# PCOD8248012 Si02
#       5
#     8   8   8   8   8
#     4  11  25  41  70 100 136 177 229 278 340 406
#     4  10  23  43  69  96 136 178 219 278 341 403
#     4  11  24  46  68 100 132 178 223 276 340 402
#     4  11  22  45  67  98 138 176 223 280 341 401
#     4  11  24  43  72  95 138 176 225 280 336 401
#
# _framework density 21.821427
#
# number of rings (size 3 to 8) (size 9 to 14) (size 15 to 20)
#    0.000    1.200    4.000    2.400    5.600    4.000 
#    3.600    0.000    0.000    0.000    0.000    0.000 
#    0.000    0.000    0.000    0.000    0.000    0.000 
#
# Total GULP energy -496035.800535 kJ/mol
# GULP energy per Si atom -12400.895013 kJ/mol
# Density = 2.177176 g / cm^3
# Si number density = 21.821427 Si / 1000 Ang^3
#
#
#
# Elastic Constant Matrix: (Units=GPa)
#
#
# Indices 1 2 3 4 5 6 
#
# 1 116.1596 31.1412 21.7154 0.0000 0.0000 0.0000
# 2 31.1412 97.1521 7.3080 0.0000 0.0000 0.0000
# 3 21.7154 7.3080 117.0231 0.0000 0.0000 0.0000
# 4 0.0000 0.0000 0.0000 27.6398 0.0000 0.0000
# 5 0.0000 0.0000 0.0000 0.0000 33.9075 0.0000
# 6 0.0000 0.0000 0.0000 0.0000 0.0000 32.9346
#
#
#
# Elastic Compliance Matrix: (Units=1/GPa)
#
#
# Indices 1 2 3 4 5 6 
#
# 1 0.009713 -0.002992 -0.001616 0.000000 0.000000 0.000000
# 2 -0.002992 0.011263 -0.000148 0.000000 0.000000 0.000000
# 3 -0.001616 -0.000148 0.008854 0.000000 0.000000 0.000000
# 4 0.000000 0.000000 0.000000 0.036180 0.000000 0.000000
# 5 0.000000 0.000000 0.000000 0.000000 0.029492 0.000000
# 6 0.000000 0.000000 0.000000 0.000000 0.000000 0.030363
#
#
# Mechanical properties :
#
#
# Convention : Reuss Voigt Hill
#
# Bulk Modulus (GPa) = 49.21406 50.07377 49.64392
# Shear Modulus (GPa) = 35.17414 36.90773 36.04093
#
# Velocity S-wave (km/s) = 4.01921 4.11707 4.06843
# Velocity P-wave (km/s) = 6.64386 6.75257 6.69843
#
# Compressibility (1/GPa) = 0.02031939
#
# Stress axis : x y z
#
# Youngs Moduli (GPa) = 102.95535 88.78393 112.93867
#
# Poissons Ratio (x) = 0.26563 0.18246
# Poissons Ratio (y) = 0.30803 0.01674
# Poissons Ratio (z) = 0.16633 0.01316
#
# Static dielectric constant tensor:
#      x y z
#    x 4.219340 0.000000 0.000000 
#    y 0.000000 3.813270 0.000000 
#    z 0.000000 0.000000 5.211840 
# 
# 
# High freq. dielectric constant tensor:
#      x y z
#    x 1.855550 0.000000 0.000000 
#    y 0.000000 1.846390 0.000000 
#    z 0.000000 0.000000 1.875350 
# 
# From -- ./inp_files/21990.got.cif
#   From: 2010.03.12/outbox.cif.g09.slc.cpg/sg60_11_cif.got.tgz:21990.got - 2010.04.10 18:46:24.
