data_PCOD8248639
_publ_section_title
;
Structure prediction by ZEFSAII (Michael W. Deem and Ramdas Pophale) SiO2 
 PCOD8248639
Probable space group: P B C N
;
_chemical_formula_sum "Si O2"
_cell_formula_units_Z 48
_cell_length_a 8.389391
_cell_length_b 14.378661
_cell_length_c 17.984717
_cell_angle_alpha 90.000000
_cell_angle_beta 90.000000
_cell_angle_gamma 90.000000
_cell_volume 2169.464204
_symmetry_space_group_name_H-M "P B C N"
_symmetry_group_IT_number 60
_symmetry_cell_setting 'orthorhombic'
loop_
_space_group_symop_operation_xyz
x,y,z
1/2-x,1/2-y,1/2+z
1/2+x,1/2-y,-z
-x,y,1/2-z
-x,-y,-z
1/2+x,1/2+y,1/2-z
1/2-x,1/2+y,z
x,-y,1/2+z
loop_
_atom_site_type_symbol
_atom_site_label
_atom_site_fract_x
_atom_site_fract_y
_atom_site_fract_z
Si Si1 0.832594 0.020042 0.462337
Si Si2 0.256687 0.273499 0.552076
Si Si3 0.839664 0.394403 0.356997
Si Si4 0.161479 0.114916 0.789618
Si Si5 0.152897 0.508644 0.392686
Si Si6 0.106456 0.721216 0.399500
O O1 0.824823 0.124436 0.431742
O O2 0.686278 0.004135 0.519744
O O3 0.809120 0.948912 0.394484
O O4 0.000000 0.000000 0.500000
O O5 0.361335 0.204712 0.602835
O O6 0.272404 0.247088 0.465504
O O7 0.072610 0.263579 0.572968
O O8 0.804114 0.378189 0.270307
O O9 0.997620 0.453617 0.367588
O O10 0.197433 0.033414 0.848329
O O11 0.144112 0.214365 0.829256
O O12 0.000000 0.085922 0.750000
O O13 0.132498 0.616235 0.372447
#
# Coordination Sequence:
#
# PCOD8248639 Si02
#       6
#     8   8   8   8   8   8
#     4  12  24  43  73 112 144 193 248 308 366 450
#     4  12  24  44  78 108 147 195 249 308 369 444
#     4  12  25  46  73 108 150 191 246 312 376 446
#     4  12  27  49  71 107 151 194 245 320 384 446
#     4  12  26  47  75 106 147 196 249 306 380 450
#     4  12  26  47  77 109 149 198 251 309 378 451
#
# _framework density 22.125278000000002
#
# number of rings (size 3 to 8) (size 9 to 14) (size 15 to 20)
#    0.000    0.000    6.667    4.000    0.000    2.667 
#    0.000    1.667    0.000    0.000    0.000    0.000 
#    0.000    0.000    0.000    0.000    0.000    0.000 
#
# Total GULP energy -595617.002037 kJ/mol
# GULP energy per Si atom -12408.687542 kJ/mol
# Density = 2.207492 g / cm^3
# Si number density = 22.125278 Si / 1000 Ang^3
#
#
#
# Elastic Constant Matrix: (Units=GPa)
#
#
# Indices 1 2 3 4 5 6 
#
# 1 85.5631 44.4963 20.5143 0.0000 0.0000 0.0000
# 2 44.4963 172.3058 45.4053 0.0000 0.0000 0.0000
# 3 20.5143 45.4053 96.9494 0.0000 0.0000 0.0000
# 4 0.0000 0.0000 0.0000 36.5809 0.0000 0.0000
# 5 0.0000 0.0000 0.0000 0.0000 42.3608 0.0000
# 6 0.0000 0.0000 0.0000 0.0000 0.0000 35.1245
#
#
#
# Elastic Compliance Matrix: (Units=1/GPa)
#
#
# Indices 1 2 3 4 5 6 
#
# 1 0.013668 -0.003157 -0.001413 0.000000 0.000000 0.000000
# 2 -0.003157 0.007350 -0.002774 0.000000 0.000000 0.000000
# 3 -0.001413 -0.002774 0.011913 0.000000 0.000000 0.000000
# 4 0.000000 0.000000 0.000000 0.027337 0.000000 0.000000
# 5 0.000000 0.000000 0.000000 0.000000 0.023607 0.000000
# 6 0.000000 0.000000 0.000000 0.000000 0.000000 0.028470
#
#
# Mechanical properties :
#
#
# Convention : Reuss Voigt Hill
#
# Bulk Modulus (GPa) = 54.82079 63.96110 59.39095
# Shear Modulus (GPa) = 37.56156 39.10675 38.33415
#
# Velocity S-wave (km/s) = 4.12476 4.20874 4.16696
# Velocity P-wave (km/s) = 6.89319 7.25185 7.07479
#
# Compressibility (1/GPa) = 0.01824125
#
# Stress axis : x y z
#
# Youngs Moduli (GPa) = 73.16351 136.05447 83.94160
#
# Poissons Ratio (x) = 0.42954 0.11865
# Poissons Ratio (y) = 0.23099 0.23287
# Poissons Ratio (z) = 0.10342 0.37745
#
# Static dielectric constant tensor:
#      x y z
#    x 3.996900 0.000000 0.000000 
#    y 0.000000 4.235320 0.000000 
#    z 0.000000 0.000000 4.272940 
# 
# 
# High freq. dielectric constant tensor:
#      x y z
#    x 1.880230 0.000000 0.000000 
#    y 0.000000 1.884130 0.000000 
#    z 0.000000 0.000000 1.871350 
# 
# From -- ./inp_files/19325.got.cif
#   From: 2010.03.12/outbox.cif.g09.slc.cpg/sg60_10_cif.got.tgz:19325.got - 2010.04.10 18:46:24.
