data_PCOD8248182
_publ_section_title
;
Structure prediction by ZEFSAII (Michael W. Deem and Ramdas Pophale) SiO2 
 PCOD8248182
Probable space group: P B C N
;
_chemical_formula_sum "Si O2"
_cell_formula_units_Z 32
_cell_length_a 10.536805
_cell_length_b 14.913127
_cell_length_c 6.979359
_cell_angle_alpha 90.000000
_cell_angle_beta 90.000000
_cell_angle_gamma 90.000000
_cell_volume 1096.713519
_symmetry_space_group_name_H-M "P B C N"
_symmetry_group_IT_number 60
_symmetry_cell_setting 'orthorhombic'
loop_
_space_group_symop_operation_xyz
x,y,z
1/2-x,1/2-y,1/2+z
1/2+x,1/2-y,-z
-x,y,1/2-z
-x,-y,-z
1/2+x,1/2+y,1/2-z
1/2-x,1/2+y,z
x,-y,1/2+z
loop_
_atom_site_type_symbol
_atom_site_label
_atom_site_fract_x
_atom_site_fract_y
_atom_site_fract_z
Si Si1 0.563035 0.757090 0.025737
Si Si2 0.756288 0.968578 0.413956
Si Si3 0.000000 0.416217 0.250000
Si Si4 0.500000 0.620464 0.750000
Si Si5 0.730279 0.652080 0.290165
O O1 0.504690 0.854611 0.060389
O O2 0.613072 0.716691 0.230260
O O3 0.467391 0.684590 0.933351
O O4 0.330009 0.773727 0.637543
O O5 0.787847 0.074754 0.453855
O O6 0.628019 0.973265 0.280464
O O7 0.877321 0.939175 0.289082
O O8 0.737417 0.905082 0.596231
#
# Coordination Sequence:
#
# PCOD8248182 Si02
#       5
#     8   8   4   4   8
#     4  11  24  44  75 109 148 194 243 301 364 432
#     4  11  26  45  70 104 143 189 239 300 360 429
#     4  12  26  44  72 106 144 190 242 298 364 426
#     4  10  24  46  70 102 146 188 238 296 360 430
#     4  11  25  47  74 106 146 189 242 298 362 429
#
# _framework density 29.178086
#
# number of rings (size 3 to 8) (size 9 to 14) (size 15 to 20)
#    0.000    1.000    0.000    6.000    0.000   16.000 
#    0.000    0.000    0.000    0.000    0.000    0.000 
#    0.000    0.000    0.000    0.000    0.000    0.000 
#
# Total GULP energy -396432.061099 kJ/mol
# GULP energy per Si atom -12388.501909 kJ/mol
# Density = 2.911167 g / cm^3
# Si number density = 29.178086 Si / 1000 Ang^3
#
#
#
# Elastic Constant Matrix: (Units=GPa)
#
#
# Indices 1 2 3 4 5 6 
#
# 1 112.6216 14.6041 2.4522 0.0000 0.0000 0.0000
# 2 14.6041 108.7902 -0.8626 0.0000 0.0000 0.0000
# 3 2.4522 -0.8626 58.2422 0.0000 0.0000 0.0000
# 4 0.0000 0.0000 0.0000 36.7706 0.0000 0.0000
# 5 0.0000 0.0000 0.0000 0.0000 34.1306 0.0000
# 6 0.0000 0.0000 0.0000 0.0000 0.0000 36.9044
#
#
#
# Elastic Compliance Matrix: (Units=1/GPa)
#
#
# Indices 1 2 3 4 5 6 
#
# 1 0.009046 -0.001217 -0.000399 0.000000 0.000000 0.000000
# 2 -0.001217 0.009357 0.000190 0.000000 0.000000 0.000000
# 3 -0.000399 0.000190 0.017189 0.000000 0.000000 0.000000
# 4 0.000000 0.000000 0.000000 0.027196 0.000000 0.000000
# 5 0.000000 0.000000 0.000000 0.000000 0.029299 0.000000
# 6 0.000000 0.000000 0.000000 0.000000 0.000000 0.027097
#
#
# Mechanical properties :
#
#
# Convention : Reuss Voigt Hill
#
# Bulk Modulus (GPa) = 30.54459 34.67126 32.60792
# Shear Modulus (GPa) = 37.60812 39.12515 38.36663
#
# Velocity S-wave (km/s) = 3.59404 3.66581 3.63011
# Velocity P-wave (km/s) = 5.26440 5.46132 5.36377
#
# Compressibility (1/GPa) = 0.03273903
#
# Stress axis : x y z
#
# Youngs Moduli (GPa) = 110.54785 106.87251 58.17573
#
# Poissons Ratio (x) = 0.13012 0.02321
# Poissons Ratio (y) = 0.13459 -0.01104
# Poissons Ratio (z) = 0.04410 -0.02029
#
# Static dielectric constant tensor:
#      x y z
#    x 5.098310 0.000000 0.000000 
#    y 0.000000 5.560010 0.000000 
#    z 0.000000 0.000000 5.445410 
# 
# 
# High freq. dielectric constant tensor:
#      x y z
#    x 2.180520 0.000000 0.000000 
#    y 0.000000 2.208090 0.000000 
#    z 0.000000 0.000000 2.208430 
# 
# From -- ./inp_files/4574.got.cif
#   From: 2010.03.12/outbox.cif.g09.slc.cpg/sg60_3_cif.got.tgz:4574.got - 2010.04.10 18:46:24.
