data_PCOD8248802
_publ_section_title
;
Structure prediction by ZEFSAII (Michael W. Deem and Ramdas Pophale) SiO2 
 PCOD8248802
Probable space group: P B C A
;
_chemical_formula_sum "Si O2"
_cell_formula_units_Z 56
_cell_length_a 7.909855
_cell_length_b 16.374926
_cell_length_c 21.830472
_cell_angle_alpha 90.000000
_cell_angle_beta 90.000000
_cell_angle_gamma 90.000000
_cell_volume 2827.554562
_symmetry_space_group_name_H-M "P B C A"
_symmetry_group_IT_number 61
_symmetry_cell_setting 'orthorhombic'
loop_
_space_group_symop_operation_xyz
x,y,z
1/2-x,-y,1/2+z
1/2+x,1/2-y,-z
-x,1/2+y,1/2-z
-x,-y,-z
1/2+x,y,1/2-z
1/2-x,1/2+y,z
x,1/2-y,1/2+z
loop_
_atom_site_type_symbol
_atom_site_label
_atom_site_fract_x
_atom_site_fract_y
_atom_site_fract_z
Si Si1 0.837245 0.044989 0.071559
Si Si2 0.917522 0.587445 0.757805
Si Si3 0.169556 0.637985 0.187170
Si Si4 0.001775 0.495105 0.123443
Si Si5 0.630863 0.822407 0.326202
Si Si6 0.340174 0.070765 0.563595
Si Si7 0.041008 0.918648 0.806812
O O1 0.665348 0.992674 0.081084
O O2 0.862509 0.104617 0.129994
O O3 0.825330 0.095123 0.008166
O O4 0.005965 0.990978 0.072133
O O5 0.033674 0.561918 0.816630
O O6 0.742841 0.611835 0.789213
O O7 0.902038 0.509627 0.713114
O O8 0.964764 0.666950 0.716189
O O9 0.035612 0.588692 0.145640
O O10 0.197175 0.730748 0.166438
O O11 0.340745 0.586121 0.183998
O O12 0.101618 0.645691 0.256405
O O13 0.160574 0.466133 0.083420
O O14 0.613169 0.849971 0.396573
#
# Coordination Sequence:
#
# PCOD8248802 Si02
#       7
#     8   8   8   8   8   8   8
#     4  11  20  36  65  83 112 157 205 247 286 345
#     4  10  19  33  58  82 111 150 195 250 292 344
#     4  11  22  35  58  86 123 154 186 253 311 357
#     4  10  20  38  60  87 113 153 203 247 296 350
#     4  11  21  37  55  88 123 150 190 252 307 346
#     4  10  22  38  59  88 117 153 205 249 283 354
#     4  11  19  37  57  88 114 154 203 238 297 365
#
# _framework density 19.805099999999999
#
# number of rings (size 3 to 8) (size 9 to 14) (size 15 to 20)
#    0.000    1.429    2.857    5.571    0.000    0.000 
#    0.000    1.429    0.000    0.000    0.000    0.000 
#    0.000    0.000    0.000    0.000    0.000    0.000 
#
# Total GULP energy -693914.242902 kJ/mol
# GULP energy per Si atom -12391.325766 kJ/mol
# Density = 1.976002 g / cm^3
# Si number density = 19.805100 Si / 1000 Ang^3
#
#
#
# Elastic Constant Matrix: (Units=GPa)
#
#
# Indices 1 2 3 4 5 6 
#
# 1 68.7826 -21.1673 11.4174 0.0000 0.0000 0.0000
# 2 -21.1673 47.8374 -2.8331 0.0000 0.0000 0.0000
# 3 11.4174 -2.8331 112.0073 0.0000 0.0000 0.0000
# 4 0.0000 0.0000 0.0000 20.1097 0.0000 0.0000
# 5 0.0000 0.0000 0.0000 0.0000 24.2927 0.0000
# 6 0.0000 0.0000 0.0000 0.0000 0.0000 16.4674
#
#
#
# Elastic Compliance Matrix: (Units=1/GPa)
#
#
# Indices 1 2 3 4 5 6 
#
# 1 0.017096 0.007473 -0.001554 0.000000 0.000000 0.000000
# 2 0.007473 0.024202 -0.000150 0.000000 0.000000 0.000000
# 3 -0.001554 -0.000150 0.009083 0.000000 0.000000 0.000000
# 4 0.000000 0.000000 0.000000 0.049727 0.000000 0.000000
# 5 0.000000 0.000000 0.000000 0.000000 0.041165 0.000000
# 6 0.000000 0.000000 0.000000 0.000000 0.000000 0.060726
#
#
# Mechanical properties :
#
#
# Convention : Reuss Voigt Hill
#
# Bulk Modulus (GPa) = 16.14996 22.60680 19.37838
# Shear Modulus (GPa) = 23.68551 28.25464 25.97008
#
# Velocity S-wave (km/s) = 3.46197 3.78118 3.62509
# Velocity P-wave (km/s) = 4.91452 5.52291 5.22757
#
# Compressibility (1/GPa) = 0.06191966
#
# Stress axis : x y z
#
# Youngs Moduli (GPa) = 58.49272 41.31912 110.10086
#
# Poissons Ratio (x) = -0.30877 0.17106
# Poissons Ratio (y) = -0.43710 0.01647
# Poissons Ratio (z) = 0.09088 0.00618
#
# Static dielectric constant tensor:
#      x y z
#    x 3.702760 0.000000 0.000000 
#    y 0.000000 3.105850 0.000000 
#    z 0.000000 0.000000 4.104610 
# 
# 
# High freq. dielectric constant tensor:
#      x y z
#    x 1.784330 0.000000 0.000000 
#    y 0.000000 1.725650 0.000000 
#    z 0.000000 0.000000 1.782720 
# 
# From -- ./inp_files/3664.got.cif
#   From: 2010.03.12/outbox.cif.g09.slc.cpg/sg61_2_cif.got.tgz:3664.got - 2010.04.10 19:05:03.
