data_PCOD8248996
_publ_section_title
;
Structure prediction by ZEFSAII (Michael W. Deem and Ramdas Pophale) SiO2 
 PCOD8248996
Probable space group: P B C A
;
_chemical_formula_sum "Si O2"
_cell_formula_units_Z 56
_cell_length_a 20.371711
_cell_length_b 22.610648
_cell_length_c 5.365589
_cell_angle_alpha 90.000000
_cell_angle_beta 90.000000
_cell_angle_gamma 90.000000
_cell_volume 2471.484656
_symmetry_space_group_name_H-M "P B C A"
_symmetry_group_IT_number 61
_symmetry_cell_setting 'orthorhombic'
loop_
_space_group_symop_operation_xyz
x,y,z
1/2-x,-y,1/2+z
1/2+x,1/2-y,-z
-x,1/2+y,1/2-z
-x,-y,-z
1/2+x,y,1/2-z
1/2-x,1/2+y,z
x,1/2-y,1/2+z
loop_
_atom_site_type_symbol
_atom_site_label
_atom_site_fract_x
_atom_site_fract_y
_atom_site_fract_z
Si Si1 0.076739 0.603432 0.846943
Si Si2 0.901189 0.965077 0.127755
Si Si3 0.625758 0.771343 0.091410
Si Si4 0.273643 0.776892 0.941503
Si Si5 0.684187 0.522127 0.764515
Si Si6 0.511347 0.928726 0.672859
Si Si7 0.701320 0.411276 0.450491
O O1 0.123368 0.546740 0.899896
O O2 0.045220 0.600830 0.571451
O O3 0.125980 0.658991 0.858946
O O4 0.023430 0.607861 0.071555
O O5 0.933063 0.930602 0.887397
O O6 0.843134 0.009521 0.043221
O O7 0.870499 0.917725 0.321012
O O8 0.962071 0.004348 0.231438
O O9 0.588874 0.758649 0.828472
O O10 0.697373 0.741650 0.055071
O O11 0.306965 0.749624 0.191224
O O12 0.285844 0.846903 0.938325
O O13 0.709677 0.459638 0.666388
O O14 0.740519 0.572045 0.758272
#
# Coordination Sequence:
#
# PCOD8248996 Si02
#       7
#     8   8   8   8   8   8   8
#     4  11  22  40  65  93 127 164 218 268 329 383
#     4  10  23  39  60  94 133 170 210 259 327 399
#     4  10  20  37  61  89 121 160 210 266 317 373
#     4  10  24  41  61  88 126 175 214 254 310 385
#     4  11  23  36  62 100 134 170 200 270 335 394
#     4  10  23  40  64  93 128 169 214 264 323 395
#     4  12  23  39  63  97 140 168 214 265 335 401
#
# _framework density 22.658445
#
# number of rings (size 3 to 8) (size 9 to 14) (size 15 to 20)
#    0.000    1.429    2.857    2.571    4.000    7.429 
#    0.000    0.000    0.000    5.143    0.000    0.000 
#    0.000    0.000    0.000    0.000    0.000    0.000 
#
# Total GULP energy -693773.735108 kJ/mol
# GULP energy per Si atom -12388.816698 kJ/mol
# Density = 2.260687 g / cm^3
# Si number density = 22.658445 Si / 1000 Ang^3
#
#
#
# Elastic Constant Matrix: (Units=GPa)
#
#
# Indices 1 2 3 4 5 6 
#
# 1 51.4641 14.9613 3.8646 0.0000 0.0000 0.0000
# 2 14.9613 134.7300 31.7669 0.0000 0.0000 0.0000
# 3 3.8646 31.7669 141.6570 0.0000 0.0000 0.0000
# 4 0.0000 0.0000 0.0000 37.5610 0.0000 0.0000
# 5 0.0000 0.0000 0.0000 0.0000 22.0989 0.0000
# 6 0.0000 0.0000 0.0000 0.0000 0.0000 21.5496
#
#
#
# Elastic Compliance Matrix: (Units=1/GPa)
#
#
# Indices 1 2 3 4 5 6 
#
# 1 0.020080 -0.002218 -0.000050 0.000000 0.000000 0.000000
# 2 -0.002218 0.008082 -0.001752 0.000000 0.000000 0.000000
# 3 -0.000050 -0.001752 0.007454 0.000000 0.000000 0.000000
# 4 0.000000 0.000000 0.000000 0.026623 0.000000 0.000000
# 5 0.000000 0.000000 0.000000 0.000000 0.045251 0.000000
# 6 0.000000 0.000000 0.000000 0.000000 0.000000 0.046405
#
#
# Mechanical properties :
#
#
# Convention : Reuss Voigt Hill
#
# Bulk Modulus (GPa) = 36.26547 47.67074 41.96810
# Shear Modulus (GPa) = 29.21833 34.72578 31.97206
#
# Velocity S-wave (km/s) = 3.59487 3.91906 3.76046
# Velocity P-wave (km/s) = 5.76809 6.44695 6.11695
#
# Compressibility (1/GPa) = 0.02757444
#
# Stress axis : x y z
#
# Youngs Moduli (GPa) = 49.80189 123.73810 134.16464
#
# Poissons Ratio (x) = 0.27443 0.00677
# Poissons Ratio (y) = 0.11045 0.23503
# Poissons Ratio (z) = 0.00251 0.21677
#
# Static dielectric constant tensor:
#      x y z
#    x 4.053960 0.000000 0.000000 
#    y 0.000000 3.820070 0.000000 
#    z 0.000000 0.000000 4.735490 
# 
# 
# High freq. dielectric constant tensor:
#      x y z
#    x 1.862860 0.000000 0.000000 
#    y 0.000000 1.867930 0.000000 
#    z 0.000000 0.000000 1.911870 
# 
# From -- ./inp_files/1054.got.cif
#   From: 2010.03.12/outbox.cif.g09.slc.cpg/sg61_1_cif.got.tgz:1054.got - 2010.04.10 19:05:03.
