data_PCOD8248972
_publ_section_title
;
Structure prediction by ZEFSAII (Michael W. Deem and Ramdas Pophale) SiO2 
 PCOD8248972
Probable space group: P B C A
;
_chemical_formula_sum "Si O2"
_cell_formula_units_Z 40
_cell_length_a 17.025480
_cell_length_b 7.713506
_cell_length_c 13.618184
_cell_angle_alpha 90.000000
_cell_angle_beta 90.000000
_cell_angle_gamma 90.000000
_cell_volume 1788.423568
_symmetry_space_group_name_H-M "P B C A"
_symmetry_group_IT_number 61
_symmetry_cell_setting 'orthorhombic'
loop_
_space_group_symop_operation_xyz
x,y,z
1/2-x,-y,1/2+z
1/2+x,1/2-y,-z
-x,1/2+y,1/2-z
-x,-y,-z
1/2+x,y,1/2-z
1/2-x,1/2+y,z
x,1/2-y,1/2+z
loop_
_atom_site_type_symbol
_atom_site_label
_atom_site_fract_x
_atom_site_fract_y
_atom_site_fract_z
Si Si1 0.576028 0.638760 0.440322
Si Si2 0.659300 0.557716 0.022616
Si Si3 0.166492 0.166892 0.463157
Si Si4 0.057550 0.079064 0.294198
Si Si5 0.466671 0.270717 0.864062
O O1 0.629978 0.813838 0.434964
O O2 0.631468 0.474412 0.462590
O O3 0.529202 0.613446 0.340651
O O4 0.514071 0.667447 0.532781
O O5 0.743968 0.618866 0.059088
O O6 0.659166 0.357930 0.988849
O O7 0.598023 0.580746 0.114129
O O8 0.125320 0.172683 0.355799
O O9 0.046662 0.150722 0.182983
O O10 0.071960 0.872826 0.291669
#
# Coordination Sequence:
#
# PCOD8248972 Si02
#       5
#     8   8   8   8   8
#     4   9  22  38  61  85 122 152 204 242 297 359
#     4  10  20  36  62  82 118 158 196 238 308 354
#     4  11  18  36  63  83 114 163 190 246 303 347
#     4  11  20  39  61  89 124 155 203 254 288 369
#     4   9  20  36  58  87 118 156 196 246 301 345
#
# _framework density 22.366064999999999
#
# number of rings (size 3 to 8) (size 9 to 14) (size 15 to 20)
#    1.200    0.800    2.000    3.600    0.000    0.800 
#    3.600    0.000   22.000    0.000    0.000    0.000 
#    0.000    0.000    0.000    0.000    0.000    0.000 
#
# Total GULP energy -495559.062700 kJ/mol
# GULP energy per Si atom -12388.976567 kJ/mol
# Density = 2.231516 g / cm^3
# Si number density = 22.366065 Si / 1000 Ang^3
#
#
#
# Elastic Constant Matrix: (Units=GPa)
#
#
# Indices 1 2 3 4 5 6 
#
# 1 68.2595 -7.3643 5.4749 0.0000 0.0000 0.0000
# 2 -7.3643 137.0724 0.2587 0.0000 0.0000 0.0000
# 3 5.4749 0.2587 30.8623 0.0000 0.0000 0.0000
# 4 0.0000 0.0000 0.0000 14.1246 0.0000 0.0000
# 5 0.0000 0.0000 0.0000 0.0000 21.5336 0.0000
# 6 0.0000 0.0000 0.0000 0.0000 0.0000 33.0554
#
#
#
# Elastic Compliance Matrix: (Units=1/GPa)
#
#
# Indices 1 2 3 4 5 6 
#
# 1 0.014950 0.000808 -0.002659 0.000000 0.000000 0.000000
# 2 0.000808 0.007339 -0.000205 0.000000 0.000000 0.000000
# 3 -0.002659 -0.000205 0.032875 0.000000 0.000000 0.000000
# 4 0.000000 0.000000 0.000000 0.070799 0.000000 0.000000
# 5 0.000000 0.000000 0.000000 0.000000 0.046439 0.000000
# 6 0.000000 0.000000 0.000000 0.000000 0.000000 0.030252
#
#
# Mechanical properties :
#
#
# Convention : Reuss Voigt Hill
#
# Bulk Modulus (GPa) = 19.58717 25.88142 22.73430
# Shear Modulus (GPa) = 22.34296 29.59771 25.97033
#
# Velocity S-wave (km/s) = 3.16407 3.64171 3.41126
# Velocity P-wave (km/s) = 4.70372 5.41106 5.06974
#
# Compressibility (1/GPa) = 0.05105384
#
# Stress axis : x y z
#
# Youngs Moduli (GPa) = 66.88761 136.25422 30.41787
#
# Poissons Ratio (x) = -0.11013 0.08088
# Poissons Ratio (y) = -0.05406 0.00623
# Poissons Ratio (z) = 0.17785 0.02792
#
# Static dielectric constant tensor:
#      x y z
#    x 3.869190 0.000000 0.000000 
#    y 0.000000 4.305240 0.000000 
#    z 0.000000 0.000000 3.527500 
# 
# 
# High freq. dielectric constant tensor:
#      x y z
#    x 1.862000 0.000000 0.000000 
#    y 0.000000 1.909240 0.000000 
#    z 0.000000 0.000000 1.835750 
# 
# From -- ./inp_files/3488.got.cif
#   From: 2010.03.12/outbox.cif.g09.slc.cpg/sg61_2_cif.got.tgz:3488.got - 2010.04.10 19:05:03.
