data_PCOD8248172
_publ_section_title
;
Structure prediction by ZEFSAII (Michael W. Deem and Ramdas Pophale) SiO2 
 PCOD8248172
Probable space group: P B C N
;
_chemical_formula_sum "Si O2"
_cell_formula_units_Z 40
_cell_length_a 8.026672
_cell_length_b 23.613187
_cell_length_c 8.991577
_cell_angle_alpha 90.000000
_cell_angle_beta 90.000000
_cell_angle_gamma 90.000000
_cell_volume 1704.221306
_symmetry_space_group_name_H-M "P B C N"
_symmetry_group_IT_number 60
_symmetry_cell_setting 'orthorhombic'
loop_
_space_group_symop_operation_xyz
x,y,z
1/2-x,1/2-y,1/2+z
1/2+x,1/2-y,-z
-x,y,1/2-z
-x,-y,-z
1/2+x,1/2+y,1/2-z
1/2-x,1/2+y,z
x,-y,1/2+z
loop_
_atom_site_type_symbol
_atom_site_label
_atom_site_fract_x
_atom_site_fract_y
_atom_site_fract_z
Si Si1 0.167630 0.564071 0.050313
Si Si2 0.809951 0.016020 0.731617
Si Si3 0.622506 0.888920 0.383826
Si Si4 0.195059 0.187390 0.089910
Si Si5 0.691000 0.704830 0.070490
O O1 0.188827 0.534662 0.210774
O O2 0.241435 0.626352 0.047087
O O3 0.272865 0.523558 0.941442
O O4 0.976236 0.569275 0.997147
O O5 0.774562 0.074962 0.817133
O O6 0.000000 0.997043 0.750000
O O7 0.500000 0.869015 0.250000
O O8 0.692545 0.834570 0.468744
O O9 0.246679 0.201235 0.258685
O O10 0.999676 0.187115 0.057566
O O11 0.289046 0.230993 0.982755
#
# Coordination Sequence:
#
# PCOD8248172 Si02
#       5
#     8   8   8   8   8
#     4  11  25  44  68 105 141 186 238 288 355 427
#     4  11  24  42  70  98 143 187 238 290 353 419
#     4  10  24  45  71 103 143 186 237 292 356 425
#     4  11  27  46  73 108 141 185 239 291 363 425
#     4  11  26  47  76 104 144 182 238 298 357 429
#
# _framework density 23.471129999999999
#
# number of rings (size 3 to 8) (size 9 to 14) (size 15 to 20)
#    0.000    1.200    0.000    3.600   14.000    3.200 
#    0.000    0.000    0.000    0.000    0.000    0.000 
#    0.000    0.000    0.000    0.000    0.000    0.000 
#
# Total GULP energy -496234.093794 kJ/mol
# GULP energy per Si atom -12405.852345 kJ/mol
# Density = 2.341771 g / cm^3
# Si number density = 23.471130 Si / 1000 Ang^3
#
#
#
# Elastic Constant Matrix: (Units=GPa)
#
#
# Indices 1 2 3 4 5 6 
#
# 1 54.1870 -0.9932 31.6463 0.0000 0.0000 0.0000
# 2 -0.9932 83.8948 37.3670 0.0000 0.0000 0.0000
# 3 31.6463 37.3670 109.6722 0.0000 0.0000 0.0000
# 4 0.0000 0.0000 0.0000 48.0373 0.0000 0.0000
# 5 0.0000 0.0000 0.0000 0.0000 32.1260 0.0000
# 6 0.0000 0.0000 0.0000 0.0000 0.0000 28.2578
#
#
#
# Elastic Compliance Matrix: (Units=1/GPa)
#
#
# Indices 1 2 3 4 5 6 
#
# 1 0.023198 0.003839 -0.008002 0.000000 0.000000 0.000000
# 2 0.003839 0.014687 -0.006112 0.000000 0.000000 0.000000
# 3 -0.008002 -0.006112 0.013509 0.000000 0.000000 0.000000
# 4 0.000000 0.000000 0.000000 0.020817 0.000000 0.000000
# 5 0.000000 0.000000 0.000000 0.000000 0.031127 0.000000
# 6 0.000000 0.000000 0.000000 0.000000 0.000000 0.035388
#
#
# Mechanical properties :
#
#
# Convention : Reuss Voigt Hill
#
# Bulk Modulus (GPa) = 32.42019 42.64380 37.53199
# Shear Modulus (GPa) = 29.48813 33.66649 31.57731
#
# Velocity S-wave (km/s) = 3.54836 3.79143 3.67191
# Velocity P-wave (km/s) = 5.53449 6.11348 5.83118
#
# Compressibility (1/GPa) = 0.03084498
#
# Stress axis : x y z
#
# Youngs Moduli (GPa) = 43.10683 68.08563 74.02231
#
# Poissons Ratio (x) = -0.26136 0.59231
# Poissons Ratio (y) = -0.16547 0.45242
# Poissons Ratio (z) = 0.34493 0.41613
#
# Static dielectric constant tensor:
#      x y z
#    x 4.226190 0.000000 0.000000 
#    y 0.000000 4.132290 0.000000 
#    z 0.000000 0.000000 4.466990 
# 
# 
# High freq. dielectric constant tensor:
#      x y z
#    x 1.931380 0.000000 0.000000 
#    y 0.000000 1.936330 0.000000 
#    z 0.000000 0.000000 1.943290 
# 
# From -- ./inp_files/3798.got.cif
#   From: 2010.03.12/outbox.cif.g09.slc.cpg/sg60_2_cif.got.tgz:3798.got - 2010.04.10 18:46:24.
