data_PCOD8248951
_publ_section_title
;
Structure prediction by ZEFSAII (Michael W. Deem and Ramdas Pophale) SiO2 
 PCOD8248951
Probable space group: P B C A
;
_chemical_formula_sum "Si O2"
_cell_formula_units_Z 48
_cell_length_a 9.134644
_cell_length_b 8.306152
_cell_length_c 30.974063
_cell_angle_alpha 90.000000
_cell_angle_beta 90.000000
_cell_angle_gamma 90.000000
_cell_volume 2350.118050
_symmetry_space_group_name_H-M "P B C A"
_symmetry_group_IT_number 61
_symmetry_cell_setting 'orthorhombic'
loop_
_space_group_symop_operation_xyz
x,y,z
1/2-x,-y,1/2+z
1/2+x,1/2-y,-z
-x,1/2+y,1/2-z
-x,-y,-z
1/2+x,y,1/2-z
1/2-x,1/2+y,z
x,1/2-y,1/2+z
loop_
_atom_site_type_symbol
_atom_site_label
_atom_site_fract_x
_atom_site_fract_y
_atom_site_fract_z
Si Si1 0.126885 0.167823 0.039394
Si Si2 0.443097 0.284075 0.879609
Si Si3 0.125564 0.158912 0.877299
Si Si4 0.055115 0.704955 0.541467
Si Si5 0.862155 0.812561 0.712992
Si Si6 0.549696 0.818876 0.211531
O O1 0.300552 0.187792 0.038596
O O2 0.057389 0.248080 0.082070
O O3 0.098750 0.979688 0.038591
O O4 0.052855 0.251313 0.997812
O O5 0.295746 0.183588 0.888652
O O6 0.402080 0.470025 0.874990
O O7 0.518436 0.219039 0.835635
O O8 0.081260 0.238008 0.831866
O O9 0.027241 0.243020 0.913872
O O10 0.688090 0.798422 0.717470
O O11 0.931099 0.715028 0.752314
O O12 0.901072 0.998174 0.715006
#
# Coordination Sequence:
#
# PCOD8248951 Si02
#       6
#     8   8   8   8   8   8
#     4  10  22  38  57  83 113 146 185 228 274 328
#     4  10  20  36  57  82 112 146 187 231 278 331
#     4  10  20  36  57  82 112 146 187 231 278 331
#     4  10  22  38  57  83 113 146 185 228 274 328
#     4  11  22  38  59  84 114 149 189 232 282 335
#     4  11  22  38  59  84 114 149 189 232 282 335
#
# _framework density 20.424506000000001
#
# number of rings (size 3 to 8) (size 9 to 14) (size 15 to 20)
#    0.000    1.667    0.000    7.000    0.000    4.667 
#    0.000    3.333    0.000    0.000    0.000    0.000 
#    0.000    0.000    0.000    0.000    0.000    0.000 
#
# Total GULP energy -595395.963278 kJ/mol
# GULP energy per Si atom -12404.082568 kJ/mol
# Density = 2.037802 g / cm^3
# Si number density = 20.424506 Si / 1000 Ang^3
#
#
#
# Elastic Constant Matrix: (Units=GPa)
#
#
# Indices 1 2 3 4 5 6 
#
# 1 66.5969 -11.8642 57.5488 0.0000 0.0000 0.0000
# 2 -11.8642 40.1924 4.2162 0.0000 0.0000 0.0000
# 3 57.5488 4.2162 149.3883 0.0000 0.0000 0.0000
# 4 0.0000 0.0000 0.0000 30.2355 0.0000 0.0000
# 5 0.0000 0.0000 0.0000 0.0000 40.7991 0.0000
# 6 0.0000 0.0000 0.0000 0.0000 0.0000 25.6836
#
#
#
# Elastic Compliance Matrix: (Units=1/GPa)
#
#
# Indices 1 2 3 4 5 6 
#
# 1 0.025071 0.008439 -0.009896 0.000000 0.000000 0.000000
# 2 0.008439 0.027795 -0.004035 0.000000 0.000000 0.000000
# 3 -0.009896 -0.004035 0.010620 0.000000 0.000000 0.000000
# 4 0.000000 0.000000 0.000000 0.033074 0.000000 0.000000
# 5 0.000000 0.000000 0.000000 0.000000 0.024510 0.000000
# 6 0.000000 0.000000 0.000000 0.000000 0.000000 0.038935
#
#
# Mechanical properties :
#
#
# Convention : Reuss Voigt Hill
#
# Bulk Modulus (GPa) = 19.04772 39.55326 29.30049
# Shear Modulus (GPa) = 26.52657 33.09541 29.81099
#
# Velocity S-wave (km/s) = 3.60774 4.02976 3.82458
# Velocity P-wave (km/s) = 5.16726 6.40777 5.82066
#
# Compressibility (1/GPa) = 0.05249972
#
# Stress axis : x y z
#
# Youngs Moduli (GPa) = 39.88730 35.97830 94.16076
#
# Poissons Ratio (x) = -0.30361 0.93183
# Poissons Ratio (y) = -0.33659 0.37996
# Poissons Ratio (z) = 0.39473 0.14518
#
# Static dielectric constant tensor:
#      x y z
#    x 3.828360 0.000000 0.000000 
#    y 0.000000 3.603070 0.000000 
#    z 0.000000 0.000000 4.157880 
# 
# 
# High freq. dielectric constant tensor:
#      x y z
#    x 1.787560 0.000000 0.000000 
#    y 0.000000 1.802230 0.000000 
#    z 0.000000 0.000000 1.817740 
# 
# From -- ./inp_files/1876.got.cif
#   From: 2010.03.12/outbox.cif.g09.slc.cpg/sg61_1_cif.got.tgz:1876.got - 2010.04.10 19:05:03.
