data_PCOD8248092
_publ_section_title
;
Structure prediction by ZEFSAII (Michael W. Deem and Ramdas Pophale) SiO2 
 PCOD8248092
Probable space group: P B C N
;
_chemical_formula_sum "Si O2"
_cell_formula_units_Z 40
_cell_length_a 13.396005
_cell_length_b 11.733931
_cell_length_c 10.691126
_cell_angle_alpha 90.000000
_cell_angle_beta 90.000000
_cell_angle_gamma 90.000000
_cell_volume 1680.514558
_symmetry_space_group_name_H-M "P B C N"
_symmetry_group_IT_number 60
_symmetry_cell_setting 'orthorhombic'
loop_
_space_group_symop_operation_xyz
x,y,z
1/2-x,1/2-y,1/2+z
1/2+x,1/2-y,-z
-x,y,1/2-z
-x,-y,-z
1/2+x,1/2+y,1/2-z
1/2-x,1/2+y,z
x,-y,1/2+z
loop_
_atom_site_type_symbol
_atom_site_label
_atom_site_fract_x
_atom_site_fract_y
_atom_site_fract_z
Si Si1 0.605703 0.200318 0.515103
Si Si2 0.311903 0.245631 0.562952
Si Si3 0.070025 0.667001 0.346471
Si Si4 0.013042 0.908614 0.610197
Si Si5 0.387946 0.925754 0.253501
O O1 0.694985 0.227438 0.417695
O O2 0.510567 0.134428 0.455293
O O3 0.571378 0.315473 0.583273
O O4 0.658547 0.118820 0.616847
O O5 0.338286 0.229559 0.414154
O O6 0.377322 0.350865 0.611894
O O7 0.329669 0.125224 0.634714
O O8 0.110819 0.562859 0.261370
O O9 0.000000 0.742696 0.250000
O O10 0.000000 0.961570 0.750000
O O11 0.000000 0.000000 0.500000
O O12 0.500000 0.875598 0.250000
#
# Coordination Sequence:
#
# PCOD8248092 Si02
#       5
#     8   8   8   8   8
#     4  11  23  43  68 100 133 177 229 279 342 409
#     4  11  24  44  70 100 137 182 222 288 346 413
#     4  10  24  38  69 102 135 170 226 285 339 409
#     4  11  24  49  70  95 144 192 228 283 353 417
#     4  11  20  44  71  90 135 176 224 282 348 394
#
# _framework density 23.802233000000001
#
# number of rings (size 3 to 8) (size 9 to 14) (size 15 to 20)
#    0.000    1.200    6.000    0.600    5.600    4.800 
#    3.600    0.000    0.000    0.000    0.000    0.000 
#    0.000    0.000    0.000    0.000    0.000    0.000 
#
# Total GULP energy -495534.763266 kJ/mol
# GULP energy per Si atom -12388.369082 kJ/mol
# Density = 2.374806 g / cm^3
# Si number density = 23.802233 Si / 1000 Ang^3
#
#
#
# Elastic Constant Matrix: (Units=GPa)
#
#
# Indices 1 2 3 4 5 6 
#
# 1 93.1116 10.4157 -17.3415 0.0000 0.0000 0.0000
# 2 10.4157 68.4028 24.9181 0.0000 0.0000 0.0000
# 3 -17.3415 24.9181 92.2992 0.0000 0.0000 0.0000
# 4 0.0000 0.0000 0.0000 47.8899 0.0000 0.0000
# 5 0.0000 0.0000 0.0000 0.0000 29.7406 0.0000
# 6 0.0000 0.0000 0.0000 0.0000 0.0000 15.7563
#
#
#
# Elastic Compliance Matrix: (Units=1/GPa)
#
#
# Indices 1 2 3 4 5 6 
#
# 1 0.011607 -0.002841 0.002948 0.000000 0.000000 0.000000
# 2 -0.002841 0.016909 -0.005099 0.000000 0.000000 0.000000
# 3 0.002948 -0.005099 0.012765 0.000000 0.000000 0.000000
# 4 0.000000 0.000000 0.000000 0.020881 0.000000 0.000000
# 5 0.000000 0.000000 0.000000 0.000000 0.033624 0.000000
# 6 0.000000 0.000000 0.000000 0.000000 0.000000 0.063467
#
#
# Mechanical properties :
#
#
# Convention : Reuss Voigt Hill
#
# Bulk Modulus (GPa) = 31.95286 32.19981 32.07633
# Shear Modulus (GPa) = 27.82891 34.39877 31.11384
#
# Velocity S-wave (km/s) = 3.42303 3.80569 3.61942
# Velocity P-wave (km/s) = 5.39224 5.73310 5.56528
#
# Compressibility (1/GPa) = 0.03129611
#
# Stress axis : x y z
#
# Youngs Moduli (GPa) = 86.15780 59.13893 78.34105
#
# Poissons Ratio (x) = 0.16802 -0.23093
# Poissons Ratio (y) = 0.24479 0.39945
# Poissons Ratio (z) = -0.25397 0.30154
#
# Static dielectric constant tensor:
#      x y z
#    x 4.130050 0.000000 0.000000 
#    y 0.000000 3.929910 0.000000 
#    z 0.000000 0.000000 4.652480 
# 
# 
# High freq. dielectric constant tensor:
#      x y z
#    x 1.926430 0.000000 0.000000 
#    y 0.000000 1.907120 0.000000 
#    z 0.000000 0.000000 1.966340 
# 
# From -- ./inp_files/11701.got.cif
#   From: 2010.03.12/outbox.cif.g09.slc.cpg/sg60_6_cif.got.tgz:11701.got - 2010.04.10 18:46:24.
