data_PCOD8248524
_publ_section_title
;
Structure prediction by ZEFSAII (Michael W. Deem and Ramdas Pophale) SiO2 
 PCOD8248524
Probable space group: P B C N
;
_chemical_formula_sum "Si O2"
_cell_formula_units_Z 40
_cell_length_a 6.680266
_cell_length_b 23.924633
_cell_length_c 11.547854
_cell_angle_alpha 90.000000
_cell_angle_beta 90.000000
_cell_angle_gamma 90.000000
_cell_volume 1845.611658
_symmetry_space_group_name_H-M "P B C N"
_symmetry_group_IT_number 60
_symmetry_cell_setting 'orthorhombic'
loop_
_space_group_symop_operation_xyz
x,y,z
1/2-x,1/2-y,1/2+z
1/2+x,1/2-y,-z
-x,y,1/2-z
-x,-y,-z
1/2+x,1/2+y,1/2-z
1/2-x,1/2+y,z
x,-y,1/2+z
loop_
_atom_site_type_symbol
_atom_site_label
_atom_site_fract_x
_atom_site_fract_y
_atom_site_fract_z
Si Si1 0.591021 0.398227 0.873081
Si Si2 0.521554 0.285862 0.127326
Si Si3 0.885419 0.500687 0.873304
Si Si4 0.760962 0.885845 0.438853
Si Si5 0.621598 0.179860 0.496147
O O1 0.500000 0.386557 0.750000
O O2 0.715407 0.454586 0.881316
O O3 0.726577 0.343929 0.899578
O O4 0.403227 0.404587 0.957488
O O5 0.500000 0.255132 0.250000
O O6 0.361851 0.336124 0.132435
O O7 0.473711 0.239816 0.031467
O O8 0.744542 0.310420 0.110681
O O9 0.779925 0.560857 0.857499
O O10 0.000000 0.489949 0.750000
O O11 0.000000 0.500000 0.000000
O O12 0.547508 0.866071 0.487122
#
# Coordination Sequence:
#
# PCOD8248524 Si02
#       5
#     8   8   8   8   8
#     4  11  26  44  73 105 140 187 243 295 359 428
#     4  11  26  41  70 100 141 186 234 294 355 426
#     4  12  26  46  76 105 144 191 238 302 364 432
#     4  11  25  46  69 100 146 183 240 290 361 426
#     4  11  24  45  67 102 143 183 240 291 353 425
#
# _framework density 21.673033
#
# number of rings (size 3 to 8) (size 9 to 14) (size 15 to 20)
#    0.000    0.800    4.000    1.800    5.600    0.800 
#    0.000    0.000    0.000    0.000    0.000    0.000 
#    0.000    0.000    0.000    0.000    0.000    0.000 
#
# Total GULP energy -495808.654522 kJ/mol
# GULP energy per Si atom -12395.216363 kJ/mol
# Density = 2.162370 g / cm^3
# Si number density = 21.673033 Si / 1000 Ang^3
#
#
#
# Elastic Constant Matrix: (Units=GPa)
#
#
# Indices 1 2 3 4 5 6 
#
# 1 146.9997 43.7966 49.7545 0.0000 0.0000 0.0000
# 2 43.7966 114.9385 15.8115 0.0000 0.0000 0.0000
# 3 49.7545 15.8115 112.1876 0.0000 0.0000 0.0000
# 4 0.0000 0.0000 0.0000 23.3739 0.0000 0.0000
# 5 0.0000 0.0000 0.0000 0.0000 17.9543 0.0000
# 6 0.0000 0.0000 0.0000 0.0000 0.0000 60.4852
#
#
#
# Elastic Compliance Matrix: (Units=1/GPa)
#
#
# Indices 1 2 3 4 5 6 
#
# 1 0.008855 -0.002890 -0.003520 0.000000 0.000000 0.000000
# 2 -0.002890 0.009816 -0.000102 0.000000 0.000000 0.000000
# 3 -0.003520 -0.000102 0.010489 0.000000 0.000000 0.000000
# 4 0.000000 0.000000 0.000000 0.042783 0.000000 0.000000
# 5 0.000000 0.000000 0.000000 0.000000 0.055697 0.000000
# 6 0.000000 0.000000 0.000000 0.000000 0.000000 0.016533
#
#
# Mechanical properties :
#
#
# Convention : Reuss Voigt Hill
#
# Bulk Modulus (GPa) = 61.97115 65.87233 63.92174
# Shear Modulus (GPa) = 30.75520 38.01357 34.38438
#
# Velocity S-wave (km/s) = 3.77112 4.19257 3.98742
# Velocity P-wave (km/s) = 6.90055 7.34143 7.12440
#
# Compressibility (1/GPa) = 0.01613654
#
# Stress axis : x y z
#
# Youngs Moduli (GPa) = 112.92886 101.87960 95.33777
#
# Poissons Ratio (x) = 0.29443 0.33558
# Poissons Ratio (y) = 0.32636 0.00969
# Poissons Ratio (z) = 0.39750 0.01036
#
# Static dielectric constant tensor:
#      x y z
#    x 4.199250 0.000000 0.000000 
#    y 0.000000 4.008320 0.000000 
#    z 0.000000 0.000000 3.946320 
# 
# 
# High freq. dielectric constant tensor:
#      x y z
#    x 1.868600 0.000000 0.000000 
#    y 0.000000 1.869650 0.000000 
#    z 0.000000 0.000000 1.842540 
# 
# From -- ./inp_files/9076.got.cif
#   From: 2010.03.12/outbox.cif.g09.slc.cpg/sg60_5_cif.got.tgz:9076.got - 2010.04.10 18:46:24.
