data_PCOD8248815
_publ_section_title
;
Structure prediction by ZEFSAII (Michael W. Deem and Ramdas Pophale) SiO2 
 PCOD8248815
Probable space group: P B C A
;
_chemical_formula_sum "Si O2"
_cell_formula_units_Z 64
_cell_length_a 17.236798
_cell_length_b 20.361433
_cell_length_c 8.699695
_cell_angle_alpha 90.000000
_cell_angle_beta 90.000000
_cell_angle_gamma 90.000000
_cell_volume 3053.296352
_symmetry_space_group_name_H-M "P B C A"
_symmetry_group_IT_number 61
_symmetry_cell_setting 'orthorhombic'
loop_
_space_group_symop_operation_xyz
x,y,z
1/2-x,-y,1/2+z
1/2+x,1/2-y,-z
-x,1/2+y,1/2-z
-x,-y,-z
1/2+x,y,1/2-z
1/2-x,1/2+y,z
x,1/2-y,1/2+z
loop_
_atom_site_type_symbol
_atom_site_label
_atom_site_fract_x
_atom_site_fract_y
_atom_site_fract_z
Si Si1 0.172450 0.210595 0.144029
Si Si2 0.699613 0.075249 0.439509
Si Si3 0.591029 0.303086 0.560677
Si Si4 0.336244 0.189108 0.314079
Si Si5 0.346495 0.560507 0.403717
Si Si6 0.920262 0.203822 0.492476
Si Si7 0.355888 0.418999 0.369957
Si Si8 0.312316 0.067361 0.526645
O O1 0.156229 0.145420 0.037521
O O2 0.102695 0.218308 0.264249
O O3 0.253900 0.206152 0.235386
O O4 0.164354 0.274428 0.036318
O O5 0.703725 0.069288 0.253506
O O6 0.782513 0.086749 0.517359
O O7 0.657670 0.008697 0.504474
O O8 0.592650 0.382418 0.557784
O O9 0.509913 0.273713 0.499916
O O10 0.359389 0.243805 0.439888
O O11 0.401534 0.189402 0.184458
O O12 0.339604 0.117963 0.395970
O O13 0.392499 0.491538 0.395397
O O14 0.281043 0.560815 0.535764
O O15 0.917261 0.136222 0.586913
O O16 0.337015 0.406216 0.192112
#
# Coordination Sequence:
#
# PCOD8248815 Si02
#       8
#     8   8   8   8   8   8   8   8
#     4  11  22  41  63  89 122 164 209 256 305 371
#     4   9  18  36  59  93 123 153 205 265 302 358
#     4  11  24  40  61  88 126 167 205 257 314 369
#     4  12  23  41  63  91 123 165 210 259 305 368
#     4   9  19  37  59  86 124 163 203 255 312 364
#     4  12  25  39  60  90 128 164 208 261 312 367
#     4  10  20  34  60  92 122 157 205 259 310 370
#     4  10  19  34  63  93 122 155 207 262 306 359
#
# _framework density 20.960951999999999
#
# number of rings (size 3 to 8) (size 9 to 14) (size 15 to 20)
#    0.000    1.500    3.750    2.250    1.750    0.500 
#    0.000    0.000    0.000   13.500    0.000    0.000 
#    0.000    0.000    0.000    0.000    0.000    0.000 
#
# Total GULP energy -792861.643529 kJ/mol
# GULP energy per Si atom -12388.463180 kJ/mol
# Density = 2.091324 g / cm^3
# Si number density = 20.960952 Si / 1000 Ang^3
#
#
#
# Elastic Constant Matrix: (Units=GPa)
#
#
# Indices 1 2 3 4 5 6 
#
# 1 66.8724 35.1891 34.0222 0.0000 0.0000 0.0000
# 2 35.1891 141.1098 50.6563 0.0000 0.0000 0.0000
# 3 34.0222 50.6563 71.8289 0.0000 0.0000 0.0000
# 4 0.0000 0.0000 0.0000 37.9146 0.0000 0.0000
# 5 0.0000 0.0000 0.0000 0.0000 23.2806 0.0000
# 6 0.0000 0.0000 0.0000 0.0000 0.0000 18.7918
#
#
#
# Elastic Compliance Matrix: (Units=1/GPa)
#
#
# Indices 1 2 3 4 5 6 
#
# 1 0.020174 -0.002143 -0.008044 0.000000 0.000000 0.000000
# 2 -0.002143 0.009717 -0.005837 0.000000 0.000000 0.000000
# 3 -0.008044 -0.005837 0.021849 0.000000 0.000000 0.000000
# 4 0.000000 0.000000 0.000000 0.026375 0.000000 0.000000
# 5 0.000000 0.000000 0.000000 0.000000 0.042954 0.000000
# 6 0.000000 0.000000 0.000000 0.000000 0.000000 0.053215
#
#
# Mechanical properties :
#
#
# Convention : Reuss Voigt Hill
#
# Bulk Modulus (GPa) = 50.78665 57.72738 54.25701
# Shear Modulus (GPa) = 23.48554 26.66028 25.07291
#
# Velocity S-wave (km/s) = 3.35093 3.57024 3.46232
# Velocity P-wave (km/s) = 6.26526 6.67800 6.47492
#
# Compressibility (1/GPa) = 0.01969021
#
# Stress axis : x y z
#
# Youngs Moduli (GPa) = 49.56821 102.91589 45.76892
#
# Poissons Ratio (x) = 0.22057 0.36817
# Poissons Ratio (y) = 0.10623 0.26717
# Poissons Ratio (z) = 0.39874 0.60076
#
# Static dielectric constant tensor:
#      x y z
#    x 3.217960 0.000000 0.000000 
#    y 0.000000 4.283390 0.000000 
#    z 0.000000 0.000000 3.859900 
# 
# 
# High freq. dielectric constant tensor:
#      x y z
#    x 1.770570 0.000000 0.000000 
#    y 0.000000 1.844360 0.000000 
#    z 0.000000 0.000000 1.826860 
# 
# From -- ./inp_files/3729.got.cif
#   From: 2010.03.12/outbox.cif.g09.slc.cpg/sg61_2_cif.got.tgz:3729.got - 2010.04.10 19:05:03.
