data_PCOD8248911
_publ_section_title
;
Structure prediction by ZEFSAII (Michael W. Deem and Ramdas Pophale) SiO2 
 PCOD8248911
Probable space group: P B C A
;
_chemical_formula_sum "Si O2"
_cell_formula_units_Z 64
_cell_length_a 8.478871
_cell_length_b 33.519557
_cell_length_c 11.035583
_cell_angle_alpha 90.000000
_cell_angle_beta 90.000000
_cell_angle_gamma 90.000000
_cell_volume 3136.400971
_symmetry_space_group_name_H-M "P B C A"
_symmetry_group_IT_number 61
_symmetry_cell_setting 'orthorhombic'
loop_
_space_group_symop_operation_xyz
x,y,z
1/2-x,-y,1/2+z
1/2+x,1/2-y,-z
-x,1/2+y,1/2-z
-x,-y,-z
1/2+x,y,1/2-z
1/2-x,1/2+y,z
x,1/2-y,1/2+z
loop_
_atom_site_type_symbol
_atom_site_label
_atom_site_fract_x
_atom_site_fract_y
_atom_site_fract_z
Si Si1 0.431049 0.454753 0.621526
Si Si2 0.788649 0.594515 0.211505
Si Si3 0.479343 0.956916 0.140980
Si Si4 0.201762 0.593149 0.707153
Si Si5 0.008562 0.643504 0.364783
Si Si6 0.132319 0.231390 0.865029
Si Si7 0.919329 0.858967 0.121878
Si Si8 0.972454 0.234744 0.126680
O O1 0.606808 0.438139 0.644090
O O2 0.294319 0.427136 0.674759
O O3 0.410337 0.457728 0.477317
O O4 0.417839 0.499156 0.677102
O O5 0.899587 0.631298 0.251934
O O6 0.656133 0.613123 0.123959
O O7 0.585818 0.941886 0.250980
O O8 0.331939 0.926717 0.119498
O O9 0.289411 0.612656 0.821034
O O10 0.100361 0.627612 0.643720
O O11 0.892536 0.639178 0.478675
O O12 0.073079 0.688401 0.357196
O O13 0.099775 0.185755 0.830060
O O14 0.317844 0.238352 0.876249
O O15 0.072307 0.255579 0.747562
O O16 0.058309 0.242914 0.996835
#
# Coordination Sequence:
#
# PCOD8248911 Si02
#       8
#     8   8   8   8   8   8   8   8
#     4  10  20  34  53  78 107 140 178 220 268 321
#     4  10  20  35  55  78 107 141 179 222 270 321
#     4  10  20  34  53  78 107 140 178 220 268 321
#     4  10  20  35  55  78 107 141 179 222 270 321
#     4  10  21  37  56  80 109 142 182 225 273 328
#     4  11  23  40  61  87 118 153 194 240 291 346
#     4  10  21  37  56  80 109 142 182 225 273 328
#     4  11  23  40  61  87 118 153 194 240 291 346
#
# _framework density 20.405553999999999
#
# number of rings (size 3 to 8) (size 9 to 14) (size 15 to 20)
#    0.000    1.750    0.000    4.500    0.000    2.000 
#    0.000    6.250    0.000   12.000    0.000    0.000 
#    0.000    0.000    0.000    0.000    0.000    0.000 
#
# Total GULP energy -793417.223467 kJ/mol
# GULP energy per Si atom -12397.144117 kJ/mol
# Density = 2.035911 g / cm^3
# Si number density = 20.405554 Si / 1000 Ang^3
#
#
#
# Elastic Constant Matrix: (Units=GPa)
#
#
# Indices 1 2 3 4 5 6 
#
# 1 70.2073 12.3817 7.8183 0.0000 0.0000 0.0000
# 2 12.3817 95.5652 16.9534 0.0000 0.0000 0.0000
# 3 7.8183 16.9534 73.1620 0.0000 0.0000 0.0000
# 4 0.0000 0.0000 0.0000 23.3280 0.0000 0.0000
# 5 0.0000 0.0000 0.0000 0.0000 27.3073 0.0000
# 6 0.0000 0.0000 0.0000 0.0000 0.0000 27.1278
#
#
#
# Elastic Compliance Matrix: (Units=1/GPa)
#
#
# Indices 1 2 3 4 5 6 
#
# 1 0.014673 -0.001692 -0.001176 0.000000 0.000000 0.000000
# 2 -0.001692 0.011108 -0.002393 0.000000 0.000000 0.000000
# 3 -0.001176 -0.002393 0.014348 0.000000 0.000000 0.000000
# 4 0.000000 0.000000 0.000000 0.042867 0.000000 0.000000
# 5 0.000000 0.000000 0.000000 0.000000 0.036620 0.000000
# 6 0.000000 0.000000 0.000000 0.000000 0.000000 0.036863
#
#
# Mechanical properties :
#
#
# Convention : Reuss Voigt Hill
#
# Bulk Modulus (GPa) = 33.77629 34.80457 34.29043
# Shear Modulus (GPa) = 28.26922 29.00468 28.63695
#
# Velocity S-wave (km/s) = 3.72609 3.77425 3.75025
# Velocity P-wave (km/s) = 5.92454 6.00722 5.96602
#
# Compressibility (1/GPa) = 0.02960657
#
# Stress axis : x y z
#
# Youngs Moduli (GPa) = 68.15256 90.02618 69.69374
#
# Poissons Ratio (x) = 0.15237 0.08195
# Poissons Ratio (y) = 0.11535 0.16678
# Poissons Ratio (z) = 0.08013 0.21544
#
# Static dielectric constant tensor:
#      x y z
#    x 3.633450 0.000000 0.000000 
#    y 0.000000 3.773120 0.000000 
#    z 0.000000 0.000000 3.624620 
# 
# 
# High freq. dielectric constant tensor:
#      x y z
#    x 1.798770 0.000000 0.000000 
#    y 0.000000 1.806580 0.000000 
#    z 0.000000 0.000000 1.793970 
# 
# From -- ./inp_files/4958.got.cif
#   From: 2010.03.12/outbox.cif.g09.slc.cpg/sg61_3_cif.got.tgz:4958.got - 2010.04.10 19:05:03.
