data_PCOD8248808
_publ_section_title
;
Structure prediction by ZEFSAII (Michael W. Deem and Ramdas Pophale) SiO2 
 PCOD8248808
Probable space group: P B C A
;
_chemical_formula_sum "Si O2"
_cell_formula_units_Z 64
_cell_length_a 8.126291
_cell_length_b 23.244941
_cell_length_c 16.534646
_cell_angle_alpha 90.000000
_cell_angle_beta 90.000000
_cell_angle_gamma 90.000000
_cell_volume 3123.314516
_symmetry_space_group_name_H-M "P B C A"
_symmetry_group_IT_number 61
_symmetry_cell_setting 'orthorhombic'
loop_
_space_group_symop_operation_xyz
x,y,z
1/2-x,-y,1/2+z
1/2+x,1/2-y,-z
-x,1/2+y,1/2-z
-x,-y,-z
1/2+x,y,1/2-z
1/2-x,1/2+y,z
x,1/2-y,1/2+z
loop_
_atom_site_type_symbol
_atom_site_label
_atom_site_fract_x
_atom_site_fract_y
_atom_site_fract_z
Si Si1 0.293395 0.174838 0.368239
Si Si2 0.493906 0.586048 0.048569
Si Si3 0.510529 0.670835 0.708432
Si Si4 0.970117 0.289883 0.785677
Si Si5 0.749493 0.316343 0.925955
Si Si6 0.998683 0.462585 0.373261
Si Si7 0.759845 0.915283 0.245387
Si Si8 0.469011 0.232163 0.949866
O O1 0.340672 0.118310 0.419730
O O2 0.438471 0.181922 0.301543
O O3 0.306632 0.231403 0.424302
O O4 0.113108 0.173267 0.329134
O O5 0.323882 0.619534 0.069326
O O6 0.479274 0.527168 0.096962
O O7 0.510307 0.578786 0.951748
O O8 0.485061 0.722032 0.774941
O O9 0.426321 0.608358 0.715421
O O10 0.696480 0.647647 0.715178
O O11 0.464318 0.691808 0.620310
O O12 0.798056 0.297340 0.834888
O O13 0.614260 0.276394 0.969304
O O14 0.920924 0.308551 0.975150
O O15 0.849715 0.448857 0.311213
O O16 0.177281 0.455668 0.328940
#
# Coordination Sequence:
#
# PCOD8248808 Si02
#       8
#     8   8   8   8   8   8   8   8
#     4  10  21  36  57  85 120 164 202 246 308 372
#     4  10  23  43  62  85 123 161 201 261 314 358
#     4  10  19  34  55  82 117 148 188 248 298 353
#     4  11  21  36  56  89 127 161 203 245 304 385
#     4  11  22  35  57  85 121 163 199 245 307 375
#     4  10  23  43  63  87 116 155 212 264 307 353
#     4  10  21  36  63  87 108 153 201 245 299 351
#     4  10  20  33  51  82 116 152 196 238 303 378
#
# _framework density 20.491052
#
# number of rings (size 3 to 8) (size 9 to 14) (size 15 to 20)
#    0.000    1.750    0.000    6.000    0.000   10.000 
#    0.000    1.250    0.000    8.250    0.000    0.000 
#    0.000    0.000    0.000    0.000    0.000    0.000 
#
# Total GULP energy -792948.109818 kJ/mol
# GULP energy per Si atom -12389.814216 kJ/mol
# Density = 2.044441 g / cm^3
# Si number density = 20.491052 Si / 1000 Ang^3
#
#
#
# Elastic Constant Matrix: (Units=GPa)
#
#
# Indices 1 2 3 4 5 6 
#
# 1 55.2198 39.0918 31.6010 0.0000 0.0000 0.0000
# 2 39.0918 97.5474 57.6246 0.0000 0.0000 0.0000
# 3 31.6010 57.6246 109.1211 0.0000 0.0000 0.0000
# 4 0.0000 0.0000 0.0000 30.9135 0.0000 0.0000
# 5 0.0000 0.0000 0.0000 0.0000 38.4432 0.0000
# 6 0.0000 0.0000 0.0000 0.0000 0.0000 29.1880
#
#
#
# Elastic Compliance Matrix: (Units=1/GPa)
#
#
# Indices 1 2 3 4 5 6 
#
# 1 0.025914 -0.008650 -0.002937 0.000000 0.000000 0.000000
# 2 -0.008650 0.017787 -0.006888 0.000000 0.000000 0.000000
# 3 -0.002937 -0.006888 0.013652 0.000000 0.000000 0.000000
# 4 0.000000 0.000000 0.000000 0.032348 0.000000 0.000000
# 5 0.000000 0.000000 0.000000 0.000000 0.026012 0.000000
# 6 0.000000 0.000000 0.000000 0.000000 0.000000 0.034261
#
#
# Mechanical properties :
#
#
# Convention : Reuss Voigt Hill
#
# Bulk Modulus (GPa) = 49.01150 57.61370 53.31260
# Shear Modulus (GPa) = 25.80997 28.61367 27.21182
#
# Velocity S-wave (km/s) = 3.55290 3.74090 3.64811
# Velocity P-wave (km/s) = 6.38758 6.84373 6.61958
#
# Compressibility (1/GPa) = 0.02040337
#
# Stress axis : x y z
#
# Youngs Moduli (GPa) = 38.58978 56.22148 73.25006
#
# Poissons Ratio (x) = 0.48632 0.21510
# Poissons Ratio (y) = 0.33380 0.50453
# Poissons Ratio (z) = 0.11332 0.38724
#
# Static dielectric constant tensor:
#      x y z
#    x 3.758150 0.000000 0.000000 
#    y 0.000000 3.536620 0.000000 
#    z 0.000000 0.000000 3.884990 
# 
# 
# High freq. dielectric constant tensor:
#      x y z
#    x 1.806220 0.000000 0.000000 
#    y 0.000000 1.780610 0.000000 
#    z 0.000000 0.000000 1.809450 
# 
# From -- ./inp_files/9062.got.cif
#   From: 2010.03.12/outbox.cif.g09.slc.cpg/sg61_5_cif.got.tgz:9062.got - 2010.04.10 19:05:03.
