data_PCOD8248947
_publ_section_title
;
Structure prediction by ZEFSAII (Michael W. Deem and Ramdas Pophale) SiO2 
 PCOD8248947
Probable space group: P B C A
;
_chemical_formula_sum "Si O2"
_cell_formula_units_Z 56
_cell_length_a 5.013449
_cell_length_b 23.320623
_cell_length_c 23.662290
_cell_angle_alpha 90.000000
_cell_angle_beta 90.000000
_cell_angle_gamma 90.000000
_cell_volume 2766.518140
_symmetry_space_group_name_H-M "P B C A"
_symmetry_group_IT_number 61
_symmetry_cell_setting 'orthorhombic'
loop_
_space_group_symop_operation_xyz
x,y,z
1/2-x,-y,1/2+z
1/2+x,1/2-y,-z
-x,1/2+y,1/2-z
-x,-y,-z
1/2+x,y,1/2-z
1/2-x,1/2+y,z
x,1/2-y,1/2+z
loop_
_atom_site_type_symbol
_atom_site_label
_atom_site_fract_x
_atom_site_fract_y
_atom_site_fract_z
Si Si1 0.324181 0.656299 0.598747
Si Si2 0.499031 0.509692 0.285228
Si Si3 0.029704 0.874648 0.285168
Si Si4 0.014255 0.018490 0.410239
Si Si5 0.359475 0.385673 0.511920
Si Si6 0.486330 0.444054 0.066624
Si Si7 0.719134 0.263455 0.965776
O O1 0.498712 0.657050 0.655068
O O2 0.487707 0.633164 0.544603
O O3 0.228513 0.721644 0.587785
O O4 0.073188 0.612302 0.605743
O O5 0.720587 0.530147 0.240728
O O6 0.504121 0.441933 0.295459
O O7 0.559049 0.537544 0.346453
O O8 0.810821 0.854940 0.239606
O O9 0.045999 0.075218 0.448283
O O10 0.788609 0.979250 0.440142
O O11 0.290431 0.983646 0.404487
O O12 0.094061 0.421636 0.494127
O O13 0.276510 0.329875 0.548481
O O14 0.411371 0.258200 0.984024
#
# Coordination Sequence:
#
# PCOD8248947 Si02
#       7
#     8   8   8   8   8   8   8
#     4  11  23  39  60  85 121 148 195 242 291 342
#     4  10  20  36  53  78 111 151 190 235 283 341
#     4  10  22  34  56  81 112 148 189 236 290 338
#     4  12  25  35  58  87 121 152 192 235 296 353
#     4  11  24  39  59  87 121 156 192 230 295 352
#     4  12  22  36  55  89 116 152 178 236 297 340
#     4  10  22  38  59  82 109 151 187 228 275 340
#
# _framework density 20.242051
#
# number of rings (size 3 to 8) (size 9 to 14) (size 15 to 20)
#    0.000    1.143    4.286    1.714    8.000    0.000 
#    0.000    0.000    0.000    1.714    0.000    0.000 
#    0.000    0.000    0.000    0.000    0.000    0.000 
#
# Total GULP energy -694295.434119 kJ/mol
# GULP energy per Si atom -12398.132752 kJ/mol
# Density = 2.019598 g / cm^3
# Si number density = 20.242051 Si / 1000 Ang^3
#
#
#
# Elastic Constant Matrix: (Units=GPa)
#
#
# Indices 1 2 3 4 5 6 
#
# 1 60.1242 9.6368 -1.7904 0.0000 0.0000 0.0000
# 2 9.6368 68.5345 47.0168 0.0000 0.0000 0.0000
# 3 -1.7904 47.0168 91.3813 0.0000 0.0000 0.0000
# 4 0.0000 0.0000 0.0000 19.3001 0.0000 0.0000
# 5 0.0000 0.0000 0.0000 0.0000 24.9371 0.0000
# 6 0.0000 0.0000 0.0000 0.0000 0.0000 15.3741
#
#
#
# Elastic Compliance Matrix: (Units=1/GPa)
#
#
# Indices 1 2 3 4 5 6 
#
# 1 0.017369 -0.004135 0.002468 0.000000 0.000000 0.000000
# 2 -0.004135 0.023536 -0.012190 0.000000 0.000000 0.000000
# 3 0.002468 -0.012190 0.017264 0.000000 0.000000 0.000000
# 4 0.000000 0.000000 0.000000 0.051813 0.000000 0.000000
# 5 0.000000 0.000000 0.000000 0.000000 0.040101 0.000000
# 6 0.000000 0.000000 0.000000 0.000000 0.000000 0.065044
#
#
# Mechanical properties :
#
#
# Convention : Reuss Voigt Hill
#
# Bulk Modulus (GPa) = 32.83825 36.64072 34.73949
# Shear Modulus (GPa) = 19.76341 22.93405 21.34873
#
# Velocity S-wave (km/s) = 3.12806 3.36964 3.25109
# Velocity P-wave (km/s) = 5.41335 5.76887 5.59394
#
# Compressibility (1/GPa) = 0.03045229
#
# Stress axis : x y z
#
# Youngs Moduli (GPa) = 57.57530 42.48870 57.92523
#
# Poissons Ratio (x) = 0.17571 -0.14296
# Poissons Ratio (y) = 0.23809 0.70613
# Poissons Ratio (z) = -0.14210 0.51795
#
# Static dielectric constant tensor:
#      x y z
#    x 3.860810 0.000000 0.000000 
#    y 0.000000 3.735070 0.000000 
#    z 0.000000 0.000000 3.478210 
# 
# 
# High freq. dielectric constant tensor:
#      x y z
#    x 1.805640 0.000000 0.000000 
#    y 0.000000 1.756030 0.000000 
#    z 0.000000 0.000000 1.769630 
# 
# From -- ./inp_files/10766.got.cif
#   From: 2010.03.12/outbox.cif.g09.slc.cpg/sg61_6_cif.got.tgz:10766.got - 2010.04.10 19:05:03.
