data_PCOD8248566
_publ_section_title
;
Structure prediction by ZEFSAII (Michael W. Deem and Ramdas Pophale) SiO2 
 PCOD8248566
Probable space group: P B C N
;
_chemical_formula_sum "Si O2"
_cell_formula_units_Z 40
_cell_length_a 11.626130
_cell_length_b 18.026409
_cell_length_c 8.592133
_cell_angle_alpha 90.000000
_cell_angle_beta 90.000000
_cell_angle_gamma 90.000000
_cell_volume 1800.716675
_symmetry_space_group_name_H-M "P B C N"
_symmetry_group_IT_number 60
_symmetry_cell_setting 'orthorhombic'
loop_
_space_group_symop_operation_xyz
x,y,z
1/2-x,1/2-y,1/2+z
1/2+x,1/2-y,-z
-x,y,1/2-z
-x,-y,-z
1/2+x,1/2+y,1/2-z
1/2-x,1/2+y,z
x,-y,1/2+z
loop_
_atom_site_type_symbol
_atom_site_label
_atom_site_fract_x
_atom_site_fract_y
_atom_site_fract_z
Si Si1 0.037536 0.424464 0.422835
Si Si2 0.975257 0.135327 0.568490
Si Si3 0.773519 0.044582 0.447725
Si Si4 0.292833 0.603133 0.397476
Si Si5 0.919947 0.298234 0.599051
O O1 0.171221 0.410900 0.465991
O O2 0.000000 0.439538 0.250000
O O3 0.000000 0.500000 0.500000
O O4 0.971854 0.350712 0.469335
O O5 0.892515 0.067737 0.527383
O O6 0.913600 0.214214 0.537588
O O7 0.000000 0.126542 0.750000
O O8 0.084308 0.133672 0.452937
O O9 0.788402 0.059582 0.265375
O O10 0.752465 0.956319 0.472032
O O11 0.210109 0.673902 0.375138
O O12 0.000000 0.304612 0.750000
#
# Coordination Sequence:
#
# PCOD8248566 Si02
#       5
#     8   8   8   8   8
#     4  12  24  41  69 105 140 180 236 291 355 414
#     4  11  28  46  69 102 145 190 237 292 359 430
#     4  12  25  45  73 105 139 187 240 294 358 422
#     4  12  25  45  75 100 145 185 239 298 353 434
#     4  11  25  47  69 105 142 184 233 293 358 429
#
# _framework density 22.213380000000001
#
# number of rings (size 3 to 8) (size 9 to 14) (size 15 to 20)
#    0.000    0.400    4.000    4.200    5.600    1.600 
#    0.000    0.000    0.000    0.000    0.000    0.000 
#    0.000    0.000    0.000    0.000    0.000    0.000 
#
# Total GULP energy -495898.647729 kJ/mol
# GULP energy per Si atom -12397.466193 kJ/mol
# Density = 2.216282 g / cm^3
# Si number density = 22.213380 Si / 1000 Ang^3
#
#
#
# Elastic Constant Matrix: (Units=GPa)
#
#
# Indices 1 2 3 4 5 6 
#
# 1 130.8094 13.6016 41.0877 0.0000 0.0000 0.0000
# 2 13.6016 76.7144 27.5811 0.0000 0.0000 0.0000
# 3 41.0877 27.5811 139.2451 0.0000 0.0000 0.0000
# 4 0.0000 0.0000 0.0000 10.2154 0.0000 0.0000
# 5 0.0000 0.0000 0.0000 0.0000 41.4518 0.0000
# 6 0.0000 0.0000 0.0000 0.0000 0.0000 15.7985
#
#
#
# Elastic Compliance Matrix: (Units=1/GPa)
#
#
# Indices 1 2 3 4 5 6 
#
# 1 0.008455 -0.000648 -0.002367 0.000000 0.000000 0.000000
# 2 -0.000648 0.014085 -0.002599 0.000000 0.000000 0.000000
# 3 -0.002367 -0.002599 0.008395 0.000000 0.000000 0.000000
# 4 0.000000 0.000000 0.000000 0.097892 0.000000 0.000000
# 5 0.000000 0.000000 0.000000 0.000000 0.024124 0.000000
# 6 0.000000 0.000000 0.000000 0.000000 0.000000 0.063297
#
#
# Mechanical properties :
#
#
# Convention : Reuss Voigt Hill
#
# Bulk Modulus (GPa) = 50.74126 56.81217 53.77672
# Shear Modulus (GPa) = 21.36351 31.12637 26.24494
#
# Velocity S-wave (km/s) = 3.10456 3.74738 3.44101
# Velocity P-wave (km/s) = 5.97857 6.65995 6.32844
#
# Compressibility (1/GPa) = 0.01970783
#
# Stress axis : x y z
#
# Youngs Moduli (GPa) = 118.26655 70.99975 119.12416
#
# Poissons Ratio (x) = 0.04603 0.28192
# Poissons Ratio (y) = 0.07667 0.30954
# Poissons Ratio (z) = 0.27989 0.18449
#
# Static dielectric constant tensor:
#      x y z
#    x 4.249110 0.000000 0.000000 
#    y 0.000000 3.881420 0.000000 
#    z 0.000000 0.000000 3.349290 
# 
# 
# High freq. dielectric constant tensor:
#      x y z
#    x 1.887410 0.000000 0.000000 
#    y 0.000000 1.880710 0.000000 
#    z 0.000000 0.000000 1.880390 
# 
# From -- ./inp_files/4719.got.cif
#   From: 2010.03.12/outbox.cif.g09.slc.cpg/sg60_3_cif.got.tgz:4719.got - 2010.04.10 18:46:24.
