data_PCOD8248029
_publ_section_title
;
Structure prediction by ZEFSAII (Michael W. Deem and Ramdas Pophale) SiO2 
 PCOD8248029
Probable space group: P B C N
;
_chemical_formula_sum "Si O2"
_cell_formula_units_Z 32
_cell_length_a 9.111930
_cell_length_b 11.705053
_cell_length_c 13.602567
_cell_angle_alpha 90.000000
_cell_angle_beta 90.000000
_cell_angle_gamma 90.000000
_cell_volume 1450.790266
_symmetry_space_group_name_H-M "P B C N"
_symmetry_group_IT_number 60
_symmetry_cell_setting 'orthorhombic'
loop_
_space_group_symop_operation_xyz
x,y,z
1/2-x,1/2-y,1/2+z
1/2+x,1/2-y,-z
-x,y,1/2-z
-x,-y,-z
1/2+x,1/2+y,1/2-z
1/2-x,1/2+y,z
x,-y,1/2+z
loop_
_atom_site_type_symbol
_atom_site_label
_atom_site_fract_x
_atom_site_fract_y
_atom_site_fract_z
Si Si1 0.603926 0.406697 0.051281
Si Si2 0.880534 0.347428 0.565697
Si Si3 0.665527 0.021612 0.411038
Si Si4 0.156878 0.933619 0.782872
O O1 0.545277 0.277135 0.055282
O O2 0.627096 0.447180 0.162210
O O3 0.500000 0.500000 0.000000
O O4 0.756626 0.397995 0.992167
O O5 0.831419 0.393138 0.457545
O O6 0.744767 0.347832 0.643779
O O7 0.001352 0.434932 0.607729
O O8 0.751228 0.026716 0.310115
O O9 0.000000 0.877762 0.750000
#
# Coordination Sequence:
#
# PCOD8248029 Si02
#       4
#     8   8   8   8
#     4  11  24  42  69  98 135 179 227 277 348 405
#     4  10  25  43  70  99 135 185 222 283 342 407
#     4  10  23  44  67  98 138 173 230 282 337 403
#     4  11  23  42  66 103 136 173 228 279 339 416
#
# _framework density 22.056944999999999
#
# number of rings (size 3 to 8) (size 9 to 14) (size 15 to 20)
#    0.000    1.500    2.500    0.750    7.000    4.000 
#    0.000    0.000    0.000    0.000    0.000    0.000 
#    0.000    0.000    0.000    0.000    0.000    0.000 
#
# Total GULP energy -396619.585446 kJ/mol
# GULP energy per Si atom -12394.362045 kJ/mol
# Density = 2.200674 g / cm^3
# Si number density = 22.056945 Si / 1000 Ang^3
#
#
#
# Elastic Constant Matrix: (Units=GPa)
#
#
# Indices 1 2 3 4 5 6 
#
# 1 120.0745 42.5417 51.9850 0.0000 0.0000 0.0000
# 2 42.5417 142.9695 49.7719 0.0000 0.0000 0.0000
# 3 51.9850 49.7719 131.8108 0.0000 0.0000 0.0000
# 4 0.0000 0.0000 0.0000 14.9986 0.0000 0.0000
# 5 0.0000 0.0000 0.0000 0.0000 52.8199 0.0000
# 6 0.0000 0.0000 0.0000 0.0000 0.0000 24.5338
#
#
#
# Elastic Compliance Matrix: (Units=1/GPa)
#
#
# Indices 1 2 3 4 5 6 
#
# 1 0.010488 -0.001935 -0.003406 0.000000 0.000000 0.000000
# 2 -0.001935 0.008410 -0.002412 0.000000 0.000000 0.000000
# 3 -0.003406 -0.002412 0.009841 0.000000 0.000000 0.000000
# 4 0.000000 0.000000 0.000000 0.066673 0.000000 0.000000
# 5 0.000000 0.000000 0.000000 0.000000 0.018932 0.000000
# 6 0.000000 0.000000 0.000000 0.000000 0.000000 0.040760
#
#
# Mechanical properties :
#
#
# Convention : Reuss Voigt Hill
#
# Bulk Modulus (GPa) = 75.57216 75.93910 75.75563
# Shear Modulus (GPa) = 28.56781 35.17420 31.87101
#
# Velocity S-wave (km/s) = 3.60277 3.99770 3.80536
# Velocity P-wave (km/s) = 7.18633 7.47076 7.32992
#
# Compressibility (1/GPa) = 0.01323239
#
# Stress axis : x y z
#
# Youngs Moduli (GPa) = 95.34449 118.90338 101.61803
#
# Poissons Ratio (x) = 0.23011 0.34608
# Poissons Ratio (y) = 0.18451 0.24515
# Poissons Ratio (z) = 0.32472 0.28685
#
# Static dielectric constant tensor:
#      x y z
#    x 4.312550 0.000000 0.000000 
#    y 0.000000 3.582970 0.000000 
#    z 0.000000 0.000000 4.127350 
# 
# 
# High freq. dielectric constant tensor:
#      x y z
#    x 1.884080 0.000000 0.000000 
#    y 0.000000 1.836610 0.000000 
#    z 0.000000 0.000000 1.877230 
# 
# From -- ./inp_files/14298.got.cif
#   From: 2010.03.12/outbox.cif.g09.slc.cpg/sg60_8_cif.got.tgz:14298.got - 2010.04.10 18:46:24.
