data_PCOD8248021
_publ_section_title
;
Structure prediction by ZEFSAII (Michael W. Deem and Ramdas Pophale) SiO2 
 PCOD8248021
Probable space group: P B C N
;
_chemical_formula_sum "Si O2"
_cell_formula_units_Z 28
_cell_length_a 5.094803
_cell_length_b 12.812084
_cell_length_c 16.614526
_cell_angle_alpha 90.000000
_cell_angle_beta 90.000000
_cell_angle_gamma 90.000000
_cell_volume 1084.513916
_symmetry_space_group_name_H-M "P B C N"
_symmetry_group_IT_number 60
_symmetry_cell_setting 'orthorhombic'
loop_
_space_group_symop_operation_xyz
x,y,z
1/2-x,1/2-y,1/2+z
1/2+x,1/2-y,-z
-x,y,1/2-z
-x,-y,-z
1/2+x,1/2+y,1/2-z
1/2-x,1/2+y,z
x,-y,1/2+z
loop_
_atom_site_type_symbol
_atom_site_label
_atom_site_fract_x
_atom_site_fract_y
_atom_site_fract_z
Si Si1 0.758788 0.623138 0.961657
Si Si2 0.500000 0.292609 0.750000
Si Si3 0.274524 0.654409 0.869623
Si Si4 0.010361 0.942356 0.885796
O O1 0.540199 0.692694 0.914115
O O2 0.720477 0.499159 0.937568
O O3 0.040507 0.665089 0.935193
O O4 0.699593 0.629256 0.057165
O O5 0.725498 0.219188 0.712072
O O6 0.381541 0.366708 0.680465
O O7 0.309895 0.532545 0.844169
#
# Coordination Sequence:
#
# PCOD8248021 Si02
#       4
#     8   4   8   8
#     4   9  21  47  72  88 140 181 229 283 330 409
#     4  12  26  42  70 110 136 190 216 298 370 394
#     4  10  23  44  65 102 133 175 233 283 328 426
#     4   9  23  44  71  98 135 183 226 284 343 407
#
# _framework density 25.818017999999999
#
# number of rings (size 3 to 8) (size 9 to 14) (size 15 to 20)
#    1.714    0.571    0.000    0.857    4.000    3.429 
#   10.286    0.000    0.000    0.000    0.000    0.000 
#    0.000    0.000    0.000    0.000    0.000    0.000 
#
# Total GULP energy -346920.622244 kJ/mol
# GULP energy per Si atom -12390.022223 kJ/mol
# Density = 2.575926 g / cm^3
# Si number density = 25.818018 Si / 1000 Ang^3
#
#
#
# Elastic Constant Matrix: (Units=GPa)
#
#
# Indices 1 2 3 4 5 6 
#
# 1 78.1479 0.7926 0.4780 0.0000 0.0000 0.0000
# 2 0.7926 69.1435 59.6501 0.0000 0.0000 0.0000
# 3 0.4780 59.6501 139.5333 0.0000 0.0000 0.0000
# 4 0.0000 0.0000 0.0000 38.0819 0.0000 0.0000
# 5 0.0000 0.0000 0.0000 0.0000 26.1377 0.0000
# 6 0.0000 0.0000 0.0000 0.0000 0.0000 21.5257
#
#
#
# Elastic Compliance Matrix: (Units=1/GPa)
#
#
# Indices 1 2 3 4 5 6 
#
# 1 0.012798 -0.000172 0.000030 0.000000 0.000000 0.000000
# 2 -0.000172 0.022915 -0.009796 0.000000 0.000000 0.000000
# 3 0.000030 -0.009796 0.011354 0.000000 0.000000 0.000000
# 4 0.000000 0.000000 0.000000 0.026259 0.000000 0.000000
# 5 0.000000 0.000000 0.000000 0.000000 0.038259 0.000000
# 6 0.000000 0.000000 0.000000 0.000000 0.000000 0.046456
#
#
# Mechanical properties :
#
#
# Convention : Reuss Voigt Hill
#
# Bulk Modulus (GPa) = 36.77695 45.40733 41.09214
# Shear Modulus (GPa) = 26.74056 32.20932 29.47494
#
# Velocity S-wave (km/s) = 3.22177 3.53590 3.38249
# Velocity P-wave (km/s) = 5.30239 5.85626 5.58619
#
# Compressibility (1/GPa) = 0.02719094
#
# Stress axis : x y z
#
# Youngs Moduli (GPa) = 78.13830 43.63881 88.07258
#
# Poissons Ratio (x) = 0.00753 -0.00263
# Poissons Ratio (y) = 0.01348 0.86273
# Poissons Ratio (z) = -0.00234 0.42747
#
# Static dielectric constant tensor:
#      x y z
#    x 4.027100 0.000000 0.000000 
#    y 0.000000 4.679420 0.000000 
#    z 0.000000 0.000000 4.384620 
# 
# 
# High freq. dielectric constant tensor:
#      x y z
#    x 1.993170 0.000000 0.000000 
#    y 0.000000 2.039400 0.000000 
#    z 0.000000 0.000000 2.022030 
# 
# From -- ./inp_files/18362.got.cif
#   From: 2010.03.12/outbox.cif.g09.slc.cpg/sg60_10_cif.got.tgz:18362.got - 2010.04.10 18:46:24.
