data_PCOD8248205
_publ_section_title
;
Structure prediction by ZEFSAII (Michael W. Deem and Ramdas Pophale) SiO2 
 PCOD8248205
Probable space group: P B C N
;
_chemical_formula_sum "Si O2"
_cell_formula_units_Z 56
_cell_length_a 13.391884
_cell_length_b 8.848662
_cell_length_c 21.840311
_cell_angle_alpha 90.000000
_cell_angle_beta 90.000000
_cell_angle_gamma 90.000000
_cell_volume 2588.082424
_symmetry_space_group_name_H-M "P B C N"
_symmetry_group_IT_number 60
_symmetry_cell_setting 'orthorhombic'
loop_
_space_group_symop_operation_xyz
x,y,z
1/2-x,1/2-y,1/2+z
1/2+x,1/2-y,-z
-x,y,1/2-z
-x,-y,-z
1/2+x,1/2+y,1/2-z
1/2-x,1/2+y,z
x,-y,1/2+z
loop_
_atom_site_type_symbol
_atom_site_label
_atom_site_fract_x
_atom_site_fract_y
_atom_site_fract_z
Si Si1 0.247994 0.082731 0.737603
Si Si2 0.580135 0.696369 0.577883
Si Si3 0.795427 0.919410 0.967870
Si Si4 0.637703 0.674617 0.335204
Si Si5 0.577756 0.362569 0.623610
Si Si6 0.705667 0.164410 0.177820
Si Si7 0.385173 0.738305 0.510002
O O1 0.319799 0.165199 0.688855
O O2 0.180608 0.205101 0.773124
O O3 0.172447 0.963692 0.707362
O O4 0.314247 0.995287 0.788958
O O5 0.638323 0.673140 0.515338
O O6 0.573730 0.542198 0.615604
O O7 0.634633 0.823553 0.618777
O O8 0.470579 0.754292 0.560922
O O9 0.819121 0.853792 0.901911
O O10 0.679824 0.890453 0.984983
O O11 0.815135 0.096852 0.972442
O O12 0.517529 0.686200 0.335975
O O13 0.678454 0.317217 0.658261
O O14 0.570645 0.280715 0.557793
#
# Coordination Sequence:
#
# PCOD8248205 Si02
#       7
#     8   8   8   8   8   8   8
#     4  10  25  41  66  93 134 180 225 273 322 392
#     4  11  21  41  71 102 132 174 221 270 343 407
#     4  11  21  39  69  99 141 167 212 278 340 400
#     4  11  22  44  68  96 133 177 226 271 337 394
#     4  11  21  40  74  95 128 180 222 273 334 410
#     4  11  22  45  68  95 135 174 228 276 326 389
#     4  11  22  40  67 109 131 174 214 269 350 408
#
# _framework density 21.637642
#
# number of rings (size 3 to 8) (size 9 to 14) (size 15 to 20)
#    0.000    1.143    5.714    1.714    0.000    2.286 
#    0.000    5.000    0.000    0.000    0.000    0.000 
#    0.000    0.000    0.000    0.000    0.000    0.000 
#
# Total GULP energy -694512.133079 kJ/mol
# GULP energy per Si atom -12402.002376 kJ/mol
# Density = 2.158839 g / cm^3
# Si number density = 21.637642 Si / 1000 Ang^3
#
#
#
# Elastic Constant Matrix: (Units=GPa)
#
#
# Indices 1 2 3 4 5 6 
#
# 1 143.3946 41.0359 31.0691 0.0000 0.0000 0.0000
# 2 41.0359 71.2508 36.0386 0.0000 0.0000 0.0000
# 3 31.0691 36.0386 93.1457 0.0000 0.0000 0.0000
# 4 0.0000 0.0000 0.0000 38.7473 0.0000 0.0000
# 5 0.0000 0.0000 0.0000 0.0000 20.1605 0.0000
# 6 0.0000 0.0000 0.0000 0.0000 0.0000 24.8480
#
#
#
# Elastic Compliance Matrix: (Units=1/GPa)
#
#
# Indices 1 2 3 4 5 6 
#
# 1 0.008450 -0.004278 -0.001163 0.000000 0.000000 0.000000
# 2 -0.004278 0.019616 -0.006162 0.000000 0.000000 0.000000
# 3 -0.001163 -0.006162 0.013508 0.000000 0.000000 0.000000
# 4 0.000000 0.000000 0.000000 0.025808 0.000000 0.000000
# 5 0.000000 0.000000 0.000000 0.000000 0.049602 0.000000
# 6 0.000000 0.000000 0.000000 0.000000 0.000000 0.040245
#
#
# Mechanical properties :
#
#
# Convention : Reuss Voigt Hill
#
# Bulk Modulus (GPa) = 54.44812 58.23094 56.33953
# Shear Modulus (GPa) = 26.80112 30.06100 28.43106
#
# Velocity S-wave (km/s) = 3.52324 3.73136 3.62880
# Velocity P-wave (km/s) = 6.46291 6.74792 6.60695
#
# Compressibility (1/GPa) = 0.01836611
#
# Stress axis : x y z
#
# Youngs Moduli (GPa) = 118.34083 50.97886 74.02932
#
# Poissons Ratio (x) = 0.21811 0.08611
# Poissons Ratio (y) = 0.50631 0.45620
# Poissons Ratio (z) = 0.13766 0.31416
#
# Static dielectric constant tensor:
#      x y z
#    x 3.869640 0.000000 0.000000 
#    y 0.000000 3.866370 0.000000 
#    z 0.000000 0.000000 4.171320 
# 
# 
# High freq. dielectric constant tensor:
#      x y z
#    x 1.837400 0.000000 0.000000 
#    y 0.000000 1.840790 0.000000 
#    z 0.000000 0.000000 1.868590 
# 
# From -- ./inp_files/22930.got.cif
#   From: 2010.03.12/outbox.cif.g09.slc.cpg/sg60_12_cif.got.tgz:22930.got - 2010.04.10 18:46:24.
