data_PCOD8248467
_publ_section_title
;
Structure prediction by ZEFSAII (Michael W. Deem and Ramdas Pophale) SiO2 
 PCOD8248467
Probable space group: P B C N
;
_chemical_formula_sum "Si O2"
_cell_formula_units_Z 24
_cell_length_a 4.979072
_cell_length_b 19.128007
_cell_length_c 8.894286
_cell_angle_alpha 90.000000
_cell_angle_beta 90.000000
_cell_angle_gamma 90.000000
_cell_volume 847.089344
_symmetry_space_group_name_H-M "P B C N"
_symmetry_group_IT_number 60
_symmetry_cell_setting 'orthorhombic'
loop_
_space_group_symop_operation_xyz
x,y,z
1/2-x,1/2-y,1/2+z
1/2+x,1/2-y,-z
-x,y,1/2-z
-x,-y,-z
1/2+x,1/2+y,1/2-z
1/2-x,1/2+y,z
x,-y,1/2+z
loop_
_atom_site_type_symbol
_atom_site_label
_atom_site_fract_x
_atom_site_fract_y
_atom_site_fract_z
Si Si1 0.974877 0.281768 0.074825
Si Si2 0.679665 0.042279 0.113334
Si Si3 0.907464 0.900681 0.098674
O O1 0.864760 0.361303 0.041251
O O2 0.000000 0.265807 0.250000
O O3 0.764011 0.226844 0.003211
O O4 0.500000 0.074170 0.250000
O O5 0.870003 0.100820 0.035047
O O6 0.867627 0.978378 0.165978
O O7 0.500000 0.000000 0.000000
O O8 0.000000 0.857973 0.250000
#
# Coordination Sequence:
#
# PCOD8248467 Si02
#       3
#     8   8   8
#     4  12  28  54  85 117 160 217 279 341 409 482
#     4  11  23  43  75 116 160 212 268 327 405 489
#     4  11  24  45  77 110 160 218 266 332 411 483
#
# _framework density 28.332312000000002
#
# number of rings (size 3 to 8) (size 9 to 14) (size 15 to 20)
#    0.000    0.667    3.333    4.000    4.667    0.000 
#    6.000    1.667    0.000    0.000    0.000    0.000 
#    0.000    0.000    0.000    0.000    0.000    0.000 
#
# Total GULP energy -297347.713806 kJ/mol
# GULP energy per Si atom -12389.488075 kJ/mol
# Density = 2.826783 g / cm^3
# Si number density = 28.332312 Si / 1000 Ang^3
#
#
#
# Elastic Constant Matrix: (Units=GPa)
#
#
# Indices 1 2 3 4 5 6 
#
# 1 92.8720 -13.3196 65.3176 0.0000 0.0000 0.0000
# 2 -13.3196 90.2417 30.2453 0.0000 0.0000 0.0000
# 3 65.3176 30.2453 208.4423 0.0000 0.0000 0.0000
# 4 0.0000 0.0000 0.0000 15.5370 0.0000 0.0000
# 5 0.0000 0.0000 0.0000 0.0000 74.3692 0.0000
# 6 0.0000 0.0000 0.0000 0.0000 0.0000 46.8674
#
#
#
# Elastic Compliance Matrix: (Units=1/GPa)
#
#
# Indices 1 2 3 4 5 6 
#
# 1 0.015071 0.004002 -0.005304 0.000000 0.000000 0.000000
# 2 0.004002 0.012711 -0.003098 0.000000 0.000000 0.000000
# 3 -0.005304 -0.003098 0.006909 0.000000 0.000000 0.000000
# 4 0.000000 0.000000 0.000000 0.064363 0.000000 0.000000
# 5 0.000000 0.000000 0.000000 0.000000 0.013446 0.000000
# 6 0.000000 0.000000 0.000000 0.000000 0.000000 0.021337
#
#
# Mechanical properties :
#
#
# Convention : Reuss Voigt Hill
#
# Bulk Modulus (GPa) = 38.62307 61.78252 50.20279
# Shear Modulus (GPa) = 33.05413 47.97554 40.51483
#
# Velocity S-wave (km/s) = 3.41934 4.11946 3.78562
# Velocity P-wave (km/s) = 5.40842 6.66935 6.07171
#
# Compressibility (1/GPa) = 0.02589126
#
# Stress axis : x y z
#
# Youngs Moduli (GPa) = 66.35048 78.67503 144.73898
#
# Poissons Ratio (x) = -0.31486 0.76763
# Poissons Ratio (y) = -0.26554 0.44846
# Poissons Ratio (z) = 0.35189 0.24377
#
# Static dielectric constant tensor:
#      x y z
#    x 5.354970 0.000000 0.000000 
#    y 0.000000 7.503930 0.000000 
#    z 0.000000 0.000000 5.477120 
# 
# 
# High freq. dielectric constant tensor:
#      x y z
#    x 2.176440 0.000000 0.000000 
#    y 0.000000 2.133990 0.000000 
#    z 0.000000 0.000000 2.155830 
# 
# From -- ./inp_files/2882.got.cif
#   From: 2010.03.12/outbox.cif.g09.slc.cpg/sg60_2_cif.got.tgz:2882.got - 2010.04.10 18:46:24.
