data_PCOD8248456
_publ_section_title
;
Structure prediction by ZEFSAII (Michael W. Deem and Ramdas Pophale) SiO2 
 PCOD8248456
Probable space group: P B C N
;
_chemical_formula_sum "Si O2"
_cell_formula_units_Z 40
_cell_length_a 11.102798
_cell_length_b 24.236929
_cell_length_c 6.514927
_cell_angle_alpha 90.000000
_cell_angle_beta 90.000000
_cell_angle_gamma 90.000000
_cell_volume 1753.152046
_symmetry_space_group_name_H-M "P B C N"
_symmetry_group_IT_number 60
_symmetry_cell_setting 'orthorhombic'
loop_
_space_group_symop_operation_xyz
x,y,z
1/2-x,1/2-y,1/2+z
1/2+x,1/2-y,-z
-x,y,1/2-z
-x,-y,-z
1/2+x,1/2+y,1/2-z
1/2-x,1/2+y,z
x,-y,1/2+z
loop_
_atom_site_type_symbol
_atom_site_label
_atom_site_fract_x
_atom_site_fract_y
_atom_site_fract_z
Si Si1 0.159196 0.448823 0.897134
Si Si2 0.631508 0.626641 0.201618
Si Si3 0.117929 0.779220 0.121678
Si Si4 0.789232 0.672676 0.557940
Si Si5 0.909367 0.566931 0.554110
O O1 0.287281 0.417712 0.929872
O O2 0.106279 0.423922 0.689200
O O3 0.056815 0.441553 0.083430
O O4 0.173850 0.515049 0.873989
O O5 0.500000 0.600223 0.250000
O O6 0.689425 0.643424 0.417199
O O7 0.614572 0.682729 0.077158
O O8 0.233722 0.793124 0.256570
O O9 0.125193 0.714775 0.065004
O O10 0.000000 0.790675 0.250000
O O11 0.867933 0.623744 0.659715
#
# Coordination Sequence:
#
# PCOD8248456 Si02
#       5
#     8   8   8   8   8
#     4   9  20  39  64  90 126 162 211 271 325 393
#     4  11  23  43  62  94 133 171 215 274 326 394
#     4  12  25  41  66  93 134 174 219 268 328 393
#     4  11  24  41  64  95 128 170 216 267 326 387
#     4   9  20  39  63  93 125 161 212 269 328 385
#
# _framework density 22.816047000000001
#
# number of rings (size 3 to 8) (size 9 to 14) (size 15 to 20)
#    0.000    1.600    4.000    0.000    8.400    0.000 
#    0.000    7.000    0.000    0.000    0.000    0.000 
#    0.000    0.000    0.000    0.000    0.000    0.000 
#
# Total GULP energy -495933.544137 kJ/mol
# GULP energy per Si atom -12398.338603 kJ/mol
# Density = 2.276412 g / cm^3
# Si number density = 22.816047 Si / 1000 Ang^3
#
#
#
# Elastic Constant Matrix: (Units=GPa)
#
#
# Indices 1 2 3 4 5 6 
#
# 1 128.0399 72.4766 19.8132 0.0000 0.0000 0.0000
# 2 72.4766 175.4787 15.3346 0.0000 0.0000 0.0000
# 3 19.8132 15.3346 31.7106 0.0000 0.0000 0.0000
# 4 0.0000 0.0000 0.0000 34.9484 0.0000 0.0000
# 5 0.0000 0.0000 0.0000 0.0000 37.6543 0.0000
# 6 0.0000 0.0000 0.0000 0.0000 0.0000 32.5126
#
#
#
# Elastic Compliance Matrix: (Units=1/GPa)
#
#
# Indices 1 2 3 4 5 6 
#
# 1 0.010855 -0.004062 -0.004818 0.000000 0.000000 0.000000
# 2 -0.004062 0.007470 -0.001074 0.000000 0.000000 0.000000
# 3 -0.004818 -0.001074 0.035065 0.000000 0.000000 0.000000
# 4 0.000000 0.000000 0.000000 0.028614 0.000000 0.000000
# 5 0.000000 0.000000 0.000000 0.000000 0.026557 0.000000
# 6 0.000000 0.000000 0.000000 0.000000 0.000000 0.030757
#
#
# Mechanical properties :
#
#
# Convention : Reuss Voigt Hill
#
# Bulk Modulus (GPa) = 29.86743 61.16421 45.51582
# Shear Modulus (GPa) = 29.34470 36.19671 32.77071
#
# Velocity S-wave (km/s) = 3.59017 3.98736 3.79397
# Velocity P-wave (km/s) = 5.50498 6.93285 6.25976
#
# Compressibility (1/GPa) = 0.03348129
#
# Stress axis : x y z
#
# Youngs Moduli (GPa) = 92.12263 133.86112 28.51847
#
# Poissons Ratio (x) = 0.54379 0.13740
# Poissons Ratio (y) = 0.37424 0.03064
# Poissons Ratio (z) = 0.44384 0.14381
#
# Static dielectric constant tensor:
#      x y z
#    x 4.492440 0.000000 0.000000 
#    y 0.000000 4.110970 0.000000 
#    z 0.000000 0.000000 4.214170 
# 
# 
# High freq. dielectric constant tensor:
#      x y z
#    x 1.887170 0.000000 0.000000 
#    y 0.000000 1.902700 0.000000 
#    z 0.000000 0.000000 1.919420 
# 
# From -- ./inp_files/4783.got.cif
#   From: 2010.03.12/outbox.cif.g09.slc.cpg/sg60_3_cif.got.tgz:4783.got - 2010.04.10 18:46:24.
