data_PCOD8248814
_publ_section_title
;
Structure prediction by ZEFSAII (Michael W. Deem and Ramdas Pophale) SiO2 
 PCOD8248814
Probable space group: P B C A
;
_chemical_formula_sum "Si O2"
_cell_formula_units_Z 64
_cell_length_a 11.935148
_cell_length_b 24.089638
_cell_length_c 10.871577
_cell_angle_alpha 90.000000
_cell_angle_beta 90.000000
_cell_angle_gamma 90.000000
_cell_volume 3125.724010
_symmetry_space_group_name_H-M "P B C A"
_symmetry_group_IT_number 61
_symmetry_cell_setting 'orthorhombic'
loop_
_space_group_symop_operation_xyz
x,y,z
1/2-x,-y,1/2+z
1/2+x,1/2-y,-z
-x,1/2+y,1/2-z
-x,-y,-z
1/2+x,y,1/2-z
1/2-x,1/2+y,z
x,1/2-y,1/2+z
loop_
_atom_site_type_symbol
_atom_site_label
_atom_site_fract_x
_atom_site_fract_y
_atom_site_fract_z
Si Si1 0.589557 0.057492 0.900263
Si Si2 0.819482 0.203394 0.143539
Si Si3 0.810454 0.475811 0.744028
Si Si4 0.280170 0.605763 0.057797
Si Si5 0.415151 0.649913 0.407249
Si Si6 0.014395 0.897218 0.833267
Si Si7 0.359099 0.286549 0.580100
Si Si8 0.145151 0.530857 0.908442
O O1 0.670604 0.040402 0.787803
O O2 0.461564 0.063076 0.851116
O O3 0.623450 0.112509 0.975416
O O4 0.600240 0.998311 0.969190
O O5 0.690371 0.183942 0.143269
O O6 0.902457 0.151924 0.130307
O O7 0.844936 0.233685 0.276098
O O8 0.839293 0.239832 0.022056
O O9 0.788225 0.425264 0.835802
O O10 0.917009 0.455337 0.662834
O O11 0.694152 0.480436 0.671242
O O12 0.414119 0.601572 0.067986
O O13 0.238279 0.668658 0.057508
O O14 0.243787 0.575495 0.932208
O O15 0.461598 0.609754 0.301860
O O16 0.515506 0.691131 0.445176
#
# Coordination Sequence:
#
# PCOD8248814 Si02
#       8
#     8   8   8   8   8   8   8   8
#     4  10  19  34  60  89 116 167 216 254 310 391
#     4  11  25  41  69  95 125 165 221 268 329 385
#     4  11  20  35  59  91 126 167 209 257 315 384
#     4  11  20  38  60  84 123 164 203 259 313 376
#     4  11  20  41  66  89 126 163 219 261 318 394
#     4  11  20  37  63  91 121 170 209 256 318 390
#     4  11  24  43  65  96 121 168 212 274 326 380
#     4  10  20  34  57  88 121 160 210 258 307 380
#
# _framework density 20.475256999999999
#
# number of rings (size 3 to 8) (size 9 to 14) (size 15 to 20)
#    0.000    1.250    5.000    3.750    1.750    0.500 
#    2.250    2.500    0.000    0.000    0.000    0.000 
#    0.000    0.000    0.000    0.000    0.000    0.000 
#
# Total GULP energy -792870.141191 kJ/mol
# GULP energy per Si atom -12388.595956 kJ/mol
# Density = 2.042865 g / cm^3
# Si number density = 20.475257 Si / 1000 Ang^3
#
#
#
# Elastic Constant Matrix: (Units=GPa)
#
#
# Indices 1 2 3 4 5 6 
#
# 1 100.4323 29.6802 28.0703 0.0000 0.0000 0.0000
# 2 29.6802 69.5389 48.1509 0.0000 0.0000 0.0000
# 3 28.0703 48.1509 71.1093 0.0000 0.0000 0.0000
# 4 0.0000 0.0000 0.0000 27.7649 0.0000 0.0000
# 5 0.0000 0.0000 0.0000 0.0000 22.1940 0.0000
# 6 0.0000 0.0000 0.0000 0.0000 0.0000 30.2980
#
#
#
# Elastic Compliance Matrix: (Units=1/GPa)
#
#
# Indices 1 2 3 4 5 6 
#
# 1 0.011592 -0.003350 -0.002308 0.000000 0.000000 0.000000
# 2 -0.003350 0.028043 -0.017667 0.000000 0.000000 0.000000
# 3 -0.002308 -0.017667 0.026937 0.000000 0.000000 0.000000
# 4 0.000000 0.000000 0.000000 0.036017 0.000000 0.000000
# 5 0.000000 0.000000 0.000000 0.000000 0.045057 0.000000
# 6 0.000000 0.000000 0.000000 0.000000 0.000000 0.033005
#
#
# Mechanical properties :
#
#
# Convention : Reuss Voigt Hill
#
# Bulk Modulus (GPa) = 50.19232 50.32036 50.25634
# Shear Modulus (GPa) = 21.37294 25.06334 23.21814
#
# Velocity S-wave (km/s) = 3.23436 3.50248 3.37109
# Velocity P-wave (km/s) = 6.20604 6.40203 6.30480
#
# Compressibility (1/GPa) = 0.01992337
#
# Stress axis : x y z
#
# Youngs Moduli (GPa) = 86.26758 35.65926 37.12399
#
# Poissons Ratio (x) = 0.11945 0.08567
# Poissons Ratio (y) = 0.28897 0.65587
# Poissons Ratio (z) = 0.19908 0.62999
#
# Static dielectric constant tensor:
#      x y z
#    x 4.065870 0.000000 0.000000 
#    y 0.000000 3.461210 0.000000 
#    z 0.000000 0.000000 3.707750 
# 
# 
# High freq. dielectric constant tensor:
#      x y z
#    x 1.822180 0.000000 0.000000 
#    y 0.000000 1.775940 0.000000 
#    z 0.000000 0.000000 1.775940 
# 
# From -- ./inp_files/5478.got.cif
#   From: 2010.03.12/outbox.cif.g09.slc.cpg/sg61_3_cif.got.tgz:5478.got - 2010.04.10 19:05:03.
