data_PCOD8248738
_publ_section_title
;
Structure prediction by ZEFSAII (Michael W. Deem and Ramdas Pophale) SiO2 
 PCOD8248738
Probable space group: P B C A
;
_chemical_formula_sum "Si O2"
_cell_formula_units_Z 64
_cell_length_a 24.765016
_cell_length_b 8.708927
_cell_length_c 14.584689
_cell_angle_alpha 90.000000
_cell_angle_beta 90.000000
_cell_angle_gamma 90.000000
_cell_volume 3145.577835
_symmetry_space_group_name_H-M "P B C A"
_symmetry_group_IT_number 61
_symmetry_cell_setting 'orthorhombic'
loop_
_space_group_symop_operation_xyz
x,y,z
1/2-x,-y,1/2+z
1/2+x,1/2-y,-z
-x,1/2+y,1/2-z
-x,-y,-z
1/2+x,y,1/2-z
1/2-x,1/2+y,z
x,1/2-y,1/2+z
loop_
_atom_site_type_symbol
_atom_site_label
_atom_site_fract_x
_atom_site_fract_y
_atom_site_fract_z
Si Si1 0.385584 0.844504 0.920185
Si Si2 0.406762 0.899682 0.114294
Si Si3 0.347574 0.176936 0.884003
Si Si4 0.775568 0.158636 0.254096
Si Si5 0.852007 0.277077 0.911404
Si Si6 0.070192 0.678233 0.728731
Si Si7 0.672221 0.327348 0.229045
Si Si8 0.008189 0.444248 0.825419
O O1 0.356398 0.703381 0.868743
O O2 0.348317 0.994674 0.902655
O O3 0.447718 0.876334 0.894125
O O4 0.390537 0.796798 0.026627
O O5 0.378045 0.826712 0.201872
O O6 0.471358 0.920777 0.128580
O O7 0.385021 0.067574 0.093501
O O8 0.295611 0.225136 0.825172
O O9 0.399512 0.225092 0.823644
O O10 0.344482 0.267665 0.981862
O O11 0.795799 0.204639 0.356193
O O12 0.711100 0.183941 0.255615
O O13 0.794110 0.985923 0.229338
O O14 0.888472 0.153731 0.855947
O O15 0.039815 0.517277 0.739228
O O16 0.028312 0.812208 0.713909
#
# Coordination Sequence:
#
# PCOD8248738 Si02
#       8
#     8   8   8   8   8   8   8   8
#     4  10  20  35  57  82 108 145 189 232 278 337
#     4   9  19  35  55  80 110 145 186 228 278 336
#     4   9  18  36  57  77 104 143 188 228 274 332
#     4  10  21  37  57  79 110 146 180 229 283 331
#     4   8  17  35  56  75 103 144 185 224 274 332
#     4   9  18  31  51  78 108 144 185 230 279 332
#     4  11  22  38  57  83 114 146 187 234 281 338
#     4  10  18  33  55  80 114 149 184 231 284 334
#
# _framework density 20.346021
#
# number of rings (size 3 to 8) (size 9 to 14) (size 15 to 20)
#    0.000    2.500    0.000    2.625    0.000    2.000 
#    0.000    9.375    0.000    0.000    0.000    0.000 
#    0.000    0.000    0.000    0.000    0.000    0.000 
#
# Total GULP energy -793096.983586 kJ/mol
# GULP energy per Si atom -12392.140369 kJ/mol
# Density = 2.029971 g / cm^3
# Si number density = 20.346021 Si / 1000 Ang^3
#
#
#
# Elastic Constant Matrix: (Units=GPa)
#
#
# Indices 1 2 3 4 5 6 
#
# 1 72.0031 4.4451 -6.2996 0.0000 0.0000 0.0000
# 2 4.4451 29.5394 -2.5657 0.0000 0.0000 0.0000
# 3 -6.2996 -2.5657 74.8351 0.0000 0.0000 0.0000
# 4 0.0000 0.0000 0.0000 28.0991 0.0000 0.0000
# 5 0.0000 0.0000 0.0000 0.0000 13.8440 0.0000
# 6 0.0000 0.0000 0.0000 0.0000 0.0000 34.9457
#
#
#
# Elastic Compliance Matrix: (Units=1/GPa)
#
#
# Indices 1 2 3 4 5 6 
#
# 1 0.014111 -0.002026 0.001118 0.000000 0.000000 0.000000
# 2 -0.002026 0.034245 0.001004 0.000000 0.000000 0.000000
# 3 0.001118 0.001004 0.013491 0.000000 0.000000 0.000000
# 4 0.000000 0.000000 0.000000 0.035588 0.000000 0.000000
# 5 0.000000 0.000000 0.000000 0.000000 0.072234 0.000000
# 6 0.000000 0.000000 0.000000 0.000000 0.000000 0.028616
#
#
# Mechanical properties :
#
#
# Convention : Reuss Voigt Hill
#
# Bulk Modulus (GPa) = 16.11892 18.61523 17.36707
# Shear Modulus (GPa) = 22.85464 27.43094 25.14279
#
# Velocity S-wave (km/s) = 3.35520 3.67580 3.51915
# Velocity P-wave (km/s) = 4.79055 5.21388 5.00669
#
# Compressibility (1/GPa) = 0.06203891
#
# Stress axis : x y z
#
# Youngs Moduli (GPa) = 70.86546 29.20115 74.12201
#
# Poissons Ratio (x) = 0.05917 -0.08290
# Poissons Ratio (y) = 0.14360 -0.07438
# Poissons Ratio (z) = -0.07926 -0.02930
#
# Static dielectric constant tensor:
#      x y z
#    x 3.857740 0.000000 0.000000 
#    y 0.000000 3.408100 0.000000 
#    z 0.000000 0.000000 4.071740 
# 
# 
# High freq. dielectric constant tensor:
#      x y z
#    x 1.801680 0.000000 0.000000 
#    y 0.000000 1.765250 0.000000 
#    z 0.000000 0.000000 1.794130 
# 
# From -- ./inp_files/8500.got.cif
#   From: 2010.03.12/outbox.cif.g09.slc.cpg/sg61_5_cif.got.tgz:8500.got - 2010.04.10 19:05:03.
