data_PCOD8248654
_publ_section_title
;
Structure prediction by ZEFSAII (Michael W. Deem and Ramdas Pophale) SiO2 
 PCOD8248654
Probable space group: P B C N
;
_chemical_formula_sum "Si O2"
_cell_formula_units_Z 32
_cell_length_a 8.045447
_cell_length_b 19.024456
_cell_length_c 9.830027
_cell_angle_alpha 90.000000
_cell_angle_beta 90.000000
_cell_angle_gamma 90.000000
_cell_volume 1504.586414
_symmetry_space_group_name_H-M "P B C N"
_symmetry_group_IT_number 60
_symmetry_cell_setting 'orthorhombic'
loop_
_space_group_symop_operation_xyz
x,y,z
1/2-x,1/2-y,1/2+z
1/2+x,1/2-y,-z
-x,y,1/2-z
-x,-y,-z
1/2+x,1/2+y,1/2-z
1/2-x,1/2+y,z
x,-y,1/2+z
loop_
_atom_site_type_symbol
_atom_site_label
_atom_site_fract_x
_atom_site_fract_y
_atom_site_fract_z
Si Si1 0.133036 0.209804 0.642647
Si Si2 0.815371 0.028909 0.498393
Si Si3 0.412392 0.324952 0.609595
Si Si4 0.313413 0.930186 0.222116
O O1 0.285355 0.262096 0.630665
O O2 0.196007 0.136363 0.702226
O O3 0.000000 0.240669 0.750000
O O4 0.053630 0.199347 0.495089
O O5 0.809920 0.108535 0.444761
O O6 0.750188 0.024561 0.651271
O O7 0.694384 0.980506 0.408712
O O8 0.000000 0.000000 0.500000
O O9 0.500000 0.345575 0.750000
O O10 0.500000 0.904199 0.250000
#
# Coordination Sequence:
#
# PCOD8248654 Si02
#       4
#     8   8   8   8
#     4  12  25  48  70 102 144 189 234 295 359 413
#     4  12  24  48  74 103 141 191 234 290 359 419
#     4  12  26  43  73 103 140 188 238 289 354 430
#     4  12  26  46  73 105 145 181 237 296 353 423
#
# _framework density 21.268304000000001
#
# number of rings (size 3 to 8) (size 9 to 14) (size 15 to 20)
#    0.000    0.000    5.000    5.250    3.500    1.000 
#    0.000    0.000    0.000    0.000    0.000    0.000 
#    0.000    0.000    0.000    0.000    0.000    0.000 
#
# Total GULP energy -397108.516750 kJ/mol
# GULP energy per Si atom -12409.641148 kJ/mol
# Density = 2.121990 g / cm^3
# Si number density = 21.268304 Si / 1000 Ang^3
#
#
#
# Elastic Constant Matrix: (Units=GPa)
#
#
# Indices 1 2 3 4 5 6 
#
# 1 103.8681 16.1162 41.2035 0.0000 0.0000 0.0000
# 2 16.1162 89.5629 22.2536 0.0000 0.0000 0.0000
# 3 41.2035 22.2536 132.9347 0.0000 0.0000 0.0000
# 4 0.0000 0.0000 0.0000 36.5831 0.0000 0.0000
# 5 0.0000 0.0000 0.0000 0.0000 37.5932 0.0000
# 6 0.0000 0.0000 0.0000 0.0000 0.0000 41.2437
#
#
#
# Elastic Compliance Matrix: (Units=1/GPa)
#
#
# Indices 1 2 3 4 5 6 
#
# 1 0.011098 -0.001192 -0.003240 0.000000 0.000000 0.000000
# 2 -0.001192 0.011778 -0.001602 0.000000 0.000000 0.000000
# 3 -0.003240 -0.001602 0.008795 0.000000 0.000000 0.000000
# 4 0.000000 0.000000 0.000000 0.027335 0.000000 0.000000
# 5 0.000000 0.000000 0.000000 0.000000 0.026601 0.000000
# 6 0.000000 0.000000 0.000000 0.000000 0.000000 0.024246
#
#
# Mechanical properties :
#
#
# Convention : Reuss Voigt Hill
#
# Bulk Modulus (GPa) = 51.01504 53.94580 52.48042
# Shear Modulus (GPa) = 38.92400 39.53683 39.23042
#
# Velocity S-wave (km/s) = 4.28266 4.31624 4.29948
# Velocity P-wave (km/s) = 6.96372 7.08938 7.02683
#
# Compressibility (1/GPa) = 0.01960206
#
# Stress axis : x y z
#
# Youngs Moduli (GPa) = 90.10696 84.90469 113.70037
#
# Poissons Ratio (x) = 0.10120 0.36842
# Poissons Ratio (y) = 0.10740 0.18217
# Poissons Ratio (z) = 0.29197 0.13604
#
# Static dielectric constant tensor:
#      x y z
#    x 5.348320 0.000000 0.000000 
#    y 0.000000 4.006500 0.000000 
#    z 0.000000 0.000000 4.323450 
# 
# 
# High freq. dielectric constant tensor:
#      x y z
#    x 1.841180 0.000000 0.000000 
#    y 0.000000 1.838160 0.000000 
#    z 0.000000 0.000000 1.857680 
# 
# From -- ./inp_files/3557.got.cif
#   From: 2010.03.12/outbox.cif.g09.slc.cpg/sg60_2_cif.got.tgz:3557.got - 2010.04.10 18:46:24.
