data_PCOD8248076
_publ_section_title
;
Structure prediction by ZEFSAII (Michael W. Deem and Ramdas Pophale) SiO2 
 PCOD8248076
Probable space group: P B C N
;
_chemical_formula_sum "Si O2"
_cell_formula_units_Z 40
_cell_length_a 15.631496
_cell_length_b 8.318660
_cell_length_c 13.872656
_cell_angle_alpha 90.000000
_cell_angle_beta 90.000000
_cell_angle_gamma 90.000000
_cell_volume 1803.904472
_symmetry_space_group_name_H-M "P B C N"
_symmetry_group_IT_number 60
_symmetry_cell_setting 'orthorhombic'
loop_
_space_group_symop_operation_xyz
x,y,z
1/2-x,1/2-y,1/2+z
1/2+x,1/2-y,-z
-x,y,1/2-z
-x,-y,-z
1/2+x,1/2+y,1/2-z
1/2-x,1/2+y,z
x,-y,1/2+z
loop_
_atom_site_type_symbol
_atom_site_label
_atom_site_fract_x
_atom_site_fract_y
_atom_site_fract_z
Si Si1 0.502695 0.591896 0.855530
Si Si2 0.154872 0.113822 0.344399
Si Si3 0.220798 0.413951 0.453289
Si Si4 0.569608 0.862363 0.506876
Si Si5 0.154022 0.869702 0.625596
O O1 0.500000 0.673738 0.750000
O O2 0.444939 0.430399 0.851328
O O3 0.468181 0.720266 0.929641
O O4 0.598012 0.533696 0.883971
O O5 0.171777 0.255042 0.420090
O O6 0.182108 0.160619 0.235781
O O7 0.205397 0.953663 0.376593
O O8 0.155895 0.563602 0.449112
O O9 0.261449 0.388055 0.559509
O O10 0.596789 0.784289 0.405150
O O11 0.500000 0.000000 0.500000
#
# Coordination Sequence:
#
# PCOD8248076 Si02
#       5
#     8   8   8   8   8
#     4  10  23  47  72  99 136 188 229 289 346 415
#     4  11  24  44  70 100 144 177 239 285 351 415
#     4  12  25  44  68 103 142 183 228 293 346 416
#     4  12  26  43  69 102 139 183 234 287 342 418
#     4  11  25  44  74 100 139 189 229 289 357 405
#
# _framework density 22.174123999999999
#
# number of rings (size 3 to 8) (size 9 to 14) (size 15 to 20)
#    0.000    0.800    4.000    1.800    5.600    1.600 
#    3.600    0.000    0.000    0.000    0.000    0.000 
#    0.000    0.000    0.000    0.000    0.000    0.000 
#
# Total GULP energy -496063.519761 kJ/mol
# GULP energy per Si atom -12401.587994 kJ/mol
# Density = 2.212365 g / cm^3
# Si number density = 22.174124 Si / 1000 Ang^3
#
#
#
# Elastic Constant Matrix: (Units=GPa)
#
#
# Indices 1 2 3 4 5 6 
#
# 1 69.7946 16.4128 33.1240 0.0000 0.0000 0.0000
# 2 16.4128 82.8466 39.2348 0.0000 0.0000 0.0000
# 3 33.1240 39.2348 134.4051 0.0000 0.0000 0.0000
# 4 0.0000 0.0000 0.0000 17.7221 0.0000 0.0000
# 5 0.0000 0.0000 0.0000 0.0000 36.0717 0.0000
# 6 0.0000 0.0000 0.0000 0.0000 0.0000 32.7713
#
#
#
# Elastic Compliance Matrix: (Units=1/GPa)
#
#
# Indices 1 2 3 4 5 6 
#
# 1 0.016395 -0.001549 -0.003588 0.000000 0.000000 0.000000
# 2 -0.001549 0.014153 -0.003750 0.000000 0.000000 0.000000
# 3 -0.003588 -0.003750 0.009419 0.000000 0.000000 0.000000
# 4 0.000000 0.000000 0.000000 0.056427 0.000000 0.000000
# 5 0.000000 0.000000 0.000000 0.000000 0.027723 0.000000
# 6 0.000000 0.000000 0.000000 0.000000 0.000000 0.030515
#
#
# Mechanical properties :
#
#
# Convention : Reuss Voigt Hill
#
# Bulk Modulus (GPa) = 45.05823 51.62107 48.33965
# Shear Modulus (GPa) = 27.80822 30.53133 29.16977
#
# Velocity S-wave (km/s) = 3.54515 3.71467 3.63090
# Velocity P-wave (km/s) = 6.09276 6.45978 6.27895
#
# Compressibility (1/GPa) = 0.02219351
#
# Stress axis : x y z
#
# Youngs Moduli (GPa) = 60.99433 70.65559 106.16604
#
# Poissons Ratio (x) = 0.10942 0.38097
# Poissons Ratio (y) = 0.09445 0.39811
# Poissons Ratio (z) = 0.21888 0.26495
#
# Static dielectric constant tensor:
#      x y z
#    x 4.364440 0.000000 0.000000 
#    y 0.000000 4.080420 0.000000 
#    z 0.000000 0.000000 4.074380 
# 
# 
# High freq. dielectric constant tensor:
#      x y z
#    x 1.886310 0.000000 0.000000 
#    y 0.000000 1.869950 0.000000 
#    z 0.000000 0.000000 1.873970 
# 
# From -- ./inp_files/16609.got.cif
#   From: 2010.03.12/outbox.cif.g09.slc.cpg/sg60_9_cif.got.tgz:16609.got - 2010.04.10 18:46:24.
