data_PCOD8248858
_publ_section_title
;
Structure prediction by ZEFSAII (Michael W. Deem and Ramdas Pophale) SiO2 
 PCOD8248858
Probable space group: P B C A
;
_chemical_formula_sum "Si O2"
_cell_formula_units_Z 48
_cell_length_a 10.043249
_cell_length_b 8.456911
_cell_length_c 25.773089
_cell_angle_alpha 90.000000
_cell_angle_beta 90.000000
_cell_angle_gamma 90.000000
_cell_volume 2189.033782
_symmetry_space_group_name_H-M "P B C A"
_symmetry_group_IT_number 61
_symmetry_cell_setting 'orthorhombic'
loop_
_space_group_symop_operation_xyz
x,y,z
1/2-x,-y,1/2+z
1/2+x,1/2-y,-z
-x,1/2+y,1/2-z
-x,-y,-z
1/2+x,y,1/2-z
1/2-x,1/2+y,z
x,1/2-y,1/2+z
loop_
_atom_site_type_symbol
_atom_site_label
_atom_site_fract_x
_atom_site_fract_y
_atom_site_fract_z
Si Si1 0.179120 0.529013 0.048698
Si Si2 0.483266 0.456092 0.068165
Si Si3 0.518332 0.737572 0.522179
Si Si4 0.122730 0.482629 0.788361
Si Si5 0.556285 0.794595 0.855382
Si Si6 0.113091 0.674717 0.257009
O O1 0.332331 0.486520 0.049225
O O2 0.145341 0.626910 0.100391
O O3 0.096124 0.366863 0.048380
O O4 0.142265 0.630122 0.996840
O O5 0.560255 0.625370 0.064243
O O6 0.491364 0.380153 0.125557
O O7 0.543943 0.328754 0.027814
O O8 0.275416 0.443932 0.777533
O O9 0.107706 0.671007 0.793088
O O10 0.073229 0.403501 0.842416
O O11 0.028511 0.416854 0.741551
O O12 0.643985 0.773933 0.802949
#
# Coordination Sequence:
#
# PCOD8248858 Si02
#       6
#     8   8   8   8   8   8
#     4  10  19  37  61  91 120 159 208 256 297 390
#     4  10  19  37  61  91 119 158 208 257 294 387
#     4   9  19  34  60  82 123 153 188 252 319 349
#     4  10  22  41  65  90 127 170 215 274 330 385
#     4   9  23  36  62  92 120 160 224 253 316 379
#     4  10  22  41  65  90 127 170 217 270 332 384
#
# _framework density 21.927481
#
# number of rings (size 3 to 8) (size 9 to 14) (size 15 to 20)
#    1.000    1.333    0.000    3.000    2.333    0.000 
#    3.000    0.000   55.000    0.000    0.000    0.000 
#    0.000    0.000    0.000    0.000    0.000    0.000 
#
# Total GULP energy -594748.499180 kJ/mol
# GULP energy per Si atom -12390.593733 kJ/mol
# Density = 2.187757 g / cm^3
# Si number density = 21.927481 Si / 1000 Ang^3
#
#
#
# Elastic Constant Matrix: (Units=GPa)
#
#
# Indices 1 2 3 4 5 6 
#
# 1 55.6939 2.7278 2.4340 0.0000 0.0000 0.0000
# 2 2.7278 85.0157 -14.1937 0.0000 0.0000 0.0000
# 3 2.4340 -14.1937 40.9262 0.0000 0.0000 0.0000
# 4 0.0000 0.0000 0.0000 44.3158 0.0000 0.0000
# 5 0.0000 0.0000 0.0000 0.0000 23.9779 0.0000
# 6 0.0000 0.0000 0.0000 0.0000 0.0000 24.4261
#
#
#
# Elastic Compliance Matrix: (Units=1/GPa)
#
#
# Indices 1 2 3 4 5 6 
#
# 1 0.018054 -0.000805 -0.001353 0.000000 0.000000 0.000000
# 2 -0.000805 0.012521 0.004390 0.000000 0.000000 0.000000
# 3 -0.001353 0.004390 0.026037 0.000000 0.000000 0.000000
# 4 0.000000 0.000000 0.000000 0.022565 0.000000 0.000000
# 5 0.000000 0.000000 0.000000 0.000000 0.041705 0.000000
# 6 0.000000 0.000000 0.000000 0.000000 0.000000 0.040940
#
#
# Mechanical properties :
#
#
# Convention : Reuss Voigt Hill
#
# Bulk Modulus (GPa) = 16.37271 18.17467 17.27369
# Shear Modulus (GPa) = 28.13461 31.25515 29.69488
#
# Velocity S-wave (km/s) = 3.58589 3.77953 3.68398
# Velocity P-wave (km/s) = 4.96264 5.23000 5.09807
#
# Compressibility (1/GPa) = 0.06107723
#
# Stress axis : x y z
#
# Youngs Moduli (GPa) = 55.38984 79.86352 38.40642
#
# Poissons Ratio (x) = 0.06430 0.05196
# Poissons Ratio (y) = 0.04460 -0.16862
# Poissons Ratio (z) = 0.07494 -0.35063
#
# Static dielectric constant tensor:
#      x y z
#    x 3.584790 0.000000 0.000000 
#    y 0.000000 4.299940 0.000000 
#    z 0.000000 0.000000 3.726500 
# 
# 
# High freq. dielectric constant tensor:
#      x y z
#    x 1.832890 0.000000 0.000000 
#    y 0.000000 1.884710 0.000000 
#    z 0.000000 0.000000 1.833710 
# 
# From -- ./inp_files/10981.got.cif
#   From: 2010.03.12/outbox.cif.g09.slc.cpg/sg61_6_cif.got.tgz:10981.got - 2010.04.10 19:05:03.
