data_PCOD8248234
_publ_section_title
;
Structure prediction by ZEFSAII (Michael W. Deem and Ramdas Pophale) SiO2 
 PCOD8248234
Probable space group: P B C N
;
_chemical_formula_sum "Si O2"
_cell_formula_units_Z 56
_cell_length_a 12.482159
_cell_length_b 21.767349
_cell_length_c 9.055504
_cell_angle_alpha 90.000000
_cell_angle_beta 90.000000
_cell_angle_gamma 90.000000
_cell_volume 2460.412233
_symmetry_space_group_name_H-M "P B C N"
_symmetry_group_IT_number 60
_symmetry_cell_setting 'orthorhombic'
loop_
_space_group_symop_operation_xyz
x,y,z
1/2-x,1/2-y,1/2+z
1/2+x,1/2-y,-z
-x,y,1/2-z
-x,-y,-z
1/2+x,1/2+y,1/2-z
1/2-x,1/2+y,z
x,-y,1/2+z
loop_
_atom_site_type_symbol
_atom_site_label
_atom_site_fract_x
_atom_site_fract_y
_atom_site_fract_z
Si Si1 0.091965 0.243043 0.139644
Si Si2 0.866515 0.421037 0.950156
Si Si3 0.092430 0.639365 0.464350
Si Si4 0.687388 0.422802 0.476323
Si Si5 0.241257 0.506795 0.789939
Si Si6 0.823223 0.297611 0.825057
Si Si7 0.535835 0.315529 0.409102
O O1 0.207042 0.230061 0.212999
O O2 0.000000 0.222827 0.250000
O O3 0.077931 0.314705 0.101564
O O4 0.073210 0.199775 0.996706
O O5 0.834477 0.462807 0.809335
O O6 0.807426 0.355138 0.935229
O O7 0.993257 0.406978 0.945050
O O8 0.834342 0.451546 0.105326
O O9 0.191009 0.596790 0.499129
O O10 0.113035 0.680978 0.319905
O O11 0.670764 0.471000 0.609755
O O12 0.682332 0.452552 0.314338
O O13 0.602529 0.368482 0.491316
O O14 0.892561 0.245947 0.906459
O O15 0.500000 0.339241 0.250000
#
# Coordination Sequence:
#
# PCOD8248234 Si02
#       7
#     8   8   8   8   8   8   8
#     4  12  28  41  71 110 141 183 231 281 361 436
#     4  11  24  43  71 101 143 184 236 277 359 407
#     4  12  24  42  71 105 144 181 225 286 353 435
#     4  11  25  45  71 100 143 180 241 283 352 411
#     4  10  26  45  69 101 142 192 231 292 339 417
#     4  12  24  45  71 100 150 176 225 294 361 414
#     4  12  25  46  75 105 138 184 231 290 367 419
#
# _framework density 22.760413
#
# number of rings (size 3 to 8) (size 9 to 14) (size 15 to 20)
#    0.000    0.571    5.714    1.286    4.000    3.429 
#    0.000    0.714    0.000    0.000    0.000    0.000 
#    0.000    0.000    0.000    0.000    0.000    0.000 
#
# Total GULP energy -694455.635566 kJ/mol
# GULP energy per Si atom -12400.993492 kJ/mol
# Density = 2.270861 g / cm^3
# Si number density = 22.760413 Si / 1000 Ang^3
#
#
#
# Elastic Constant Matrix: (Units=GPa)
#
#
# Indices 1 2 3 4 5 6 
#
# 1 55.8101 14.0783 -3.6667 0.0000 0.0000 0.0000
# 2 14.0783 101.3666 18.5066 0.0000 0.0000 0.0000
# 3 -3.6667 18.5066 81.5278 0.0000 0.0000 0.0000
# 4 0.0000 0.0000 0.0000 14.5599 0.0000 0.0000
# 5 0.0000 0.0000 0.0000 0.0000 26.5933 0.0000
# 6 0.0000 0.0000 0.0000 0.0000 0.0000 22.4145
#
#
#
# Elastic Compliance Matrix: (Units=1/GPa)
#
#
# Indices 1 2 3 4 5 6 
#
# 1 0.018742 -0.002876 0.001496 0.000000 0.000000 0.000000
# 2 -0.002876 0.010733 -0.002566 0.000000 0.000000 0.000000
# 3 0.001496 -0.002566 0.012915 0.000000 0.000000 0.000000
# 4 0.000000 0.000000 0.000000 0.068682 0.000000 0.000000
# 5 0.000000 0.000000 0.000000 0.000000 0.037604 0.000000
# 6 0.000000 0.000000 0.000000 0.000000 0.000000 0.044614
#
#
# Mechanical properties :
#
#
# Convention : Reuss Voigt Hill
#
# Bulk Modulus (GPa) = 28.98705 32.94898 30.96801
# Shear Modulus (GPa) = 23.50941 26.69928 25.10434
#
# Velocity S-wave (km/s) = 3.21738 3.42871 3.32472
# Velocity P-wave (km/s) = 5.15416 5.49387 5.32672
#
# Compressibility (1/GPa) = 0.03449817
#
# Stress axis : x y z
#
# Youngs Moduli (GPa) = 53.35705 93.17016 77.42668
#
# Poissons Ratio (x) = 0.26796 -0.11581
# Poissons Ratio (y) = 0.15346 0.19866
# Poissons Ratio (z) = -0.07981 0.23905
#
# Static dielectric constant tensor:
#      x y z
#    x 4.033620 0.000000 0.000000 
#    y 0.000000 4.367970 0.000000 
#    z 0.000000 0.000000 4.863440 
# 
# 
# High freq. dielectric constant tensor:
#      x y z
#    x 1.882070 0.000000 0.000000 
#    y 0.000000 1.909960 0.000000 
#    z 0.000000 0.000000 1.907560 
# 
# From -- ./inp_files/6132.got.cif
#   From: 2010.03.12/outbox.cif.g09.slc.cpg/sg60_4_cif.got.tgz:6132.got - 2010.04.10 18:46:24.
