data_PCOD8248649
_publ_section_title
;
Structure prediction by ZEFSAII (Michael W. Deem and Ramdas Pophale) SiO2 
 PCOD8248649
Probable space group: P B C N
;
_chemical_formula_sum "Si O2"
_cell_formula_units_Z 40
_cell_length_a 11.096085
_cell_length_b 18.476510
_cell_length_c 7.912946
_cell_angle_alpha 90.000000
_cell_angle_beta 90.000000
_cell_angle_gamma 90.000000
_cell_volume 1622.287860
_symmetry_space_group_name_H-M "P B C N"
_symmetry_group_IT_number 60
_symmetry_cell_setting 'orthorhombic'
loop_
_space_group_symop_operation_xyz
x,y,z
1/2-x,1/2-y,1/2+z
1/2+x,1/2-y,-z
-x,y,1/2-z
-x,-y,-z
1/2+x,1/2+y,1/2-z
1/2-x,1/2+y,z
x,-y,1/2+z
loop_
_atom_site_type_symbol
_atom_site_label
_atom_site_fract_x
_atom_site_fract_y
_atom_site_fract_z
Si Si1 0.529559 0.329809 0.439406
Si Si2 0.790829 0.857107 0.911886
Si Si3 0.359279 0.969729 0.778315
Si Si4 0.345581 0.233085 0.822065
Si Si5 0.789135 0.606174 0.883757
O O1 0.500000 0.303512 0.250000
O O2 0.427119 0.379442 0.530138
O O3 0.541372 0.257779 0.560547
O O4 0.652292 0.375012 0.430911
O O5 0.704876 0.924273 0.872170
O O6 0.788175 0.807551 0.744698
O O7 0.752423 0.808030 0.068127
O O8 0.500000 0.978741 0.750000
O O9 0.295318 0.048832 0.772455
O O10 0.349379 0.932915 0.958780
O O11 0.369935 0.176793 0.667674
#
# Coordination Sequence:
#
# PCOD8248649 Si02
#       5
#     8   8   8   8   8
#     4  12  26  48  76 115 156 199 264 323 392 459
#     4  12  24  46  75 114 151 208 257 322 390 464
#     4  12  29  51  76 112 159 208 266 316 395 472
#     4  12  24  47  75 113 154 197 257 317 393 455
#     4  12  27  53  75 118 154 209 262 320 392 467
#
# _framework density 24.656535999999999
#
# number of rings (size 3 to 8) (size 9 to 14) (size 15 to 20)
#    0.000    0.000    6.000    2.400    0.000    8.000 
#    0.000    0.000    0.000    0.000    0.000    0.000 
#    0.000    0.000    0.000    0.000    0.000    0.000 
#
# Total GULP energy -495766.401454 kJ/mol
# GULP energy per Si atom -12394.160036 kJ/mol
# Density = 2.460042 g / cm^3
# Si number density = 24.656536 Si / 1000 Ang^3
#
#
#
# Elastic Constant Matrix: (Units=GPa)
#
#
# Indices 1 2 3 4 5 6 
#
# 1 142.5468 56.2899 20.8785 0.0000 0.0000 0.0000
# 2 56.2899 100.6424 18.8520 0.0000 0.0000 0.0000
# 3 20.8785 18.8520 68.5765 0.0000 0.0000 0.0000
# 4 0.0000 0.0000 0.0000 40.2345 0.0000 0.0000
# 5 0.0000 0.0000 0.0000 0.0000 42.0421 0.0000
# 6 0.0000 0.0000 0.0000 0.0000 0.0000 24.3733
#
#
#
# Elastic Compliance Matrix: (Units=1/GPa)
#
#
# Indices 1 2 3 4 5 6 
#
# 1 0.009139 -0.004840 -0.001452 0.000000 0.000000 0.000000
# 2 -0.004840 0.013038 -0.002111 0.000000 0.000000 0.000000
# 3 -0.001452 -0.002111 0.015605 0.000000 0.000000 0.000000
# 4 0.000000 0.000000 0.000000 0.024854 0.000000 0.000000
# 5 0.000000 0.000000 0.000000 0.000000 0.023786 0.000000
# 6 0.000000 0.000000 0.000000 0.000000 0.000000 0.041029
#
#
# Mechanical properties :
#
#
# Convention : Reuss Voigt Hill
#
# Bulk Modulus (GPa) = 47.67094 55.97850 51.82472
# Shear Modulus (GPa) = 33.05838 35.71301 34.38569
#
# Velocity S-wave (km/s) = 3.66560 3.80994 3.73847
# Velocity P-wave (km/s) = 6.10668 6.48897 6.30073
#
# Compressibility (1/GPa) = 0.02097714
#
# Stress axis : x y z
#
# Youngs Moduli (GPa) = 109.42155 76.69686 64.08361
#
# Poissons Ratio (x) = 0.37117 0.09305
# Poissons Ratio (y) = 0.52955 0.13527
# Poissons Ratio (z) = 0.15888 0.16190
#
# Static dielectric constant tensor:
#      x y z
#    x 4.377730 0.000000 0.000000 
#    y 0.000000 4.566480 0.000000 
#    z 0.000000 0.000000 5.244740 
# 
# 
# High freq. dielectric constant tensor:
#      x y z
#    x 1.979740 0.000000 0.000000 
#    y 0.000000 1.969450 0.000000 
#    z 0.000000 0.000000 2.016210 
# 
# From -- ./inp_files/4777.got.cif
#   From: 2010.03.12/outbox.cif.g09.slc.cpg/sg60_3_cif.got.tgz:4777.got - 2010.04.10 18:46:24.
