data_PCOD8248028
_publ_section_title
;
Structure prediction by ZEFSAII (Michael W. Deem and Ramdas Pophale) SiO2 
 PCOD8248028
Probable space group: P B C N
;
_chemical_formula_sum "Si O2"
_cell_formula_units_Z 56
_cell_length_a 8.533503
_cell_length_b 15.236850
_cell_length_c 20.489955
_cell_angle_alpha 90.000000
_cell_angle_beta 90.000000
_cell_angle_gamma 90.000000
_cell_volume 2664.179868
_symmetry_space_group_name_H-M "P B C N"
_symmetry_group_IT_number 60
_symmetry_cell_setting 'orthorhombic'
loop_
_space_group_symop_operation_xyz
x,y,z
1/2-x,1/2-y,1/2+z
1/2+x,1/2-y,-z
-x,y,1/2-z
-x,-y,-z
1/2+x,1/2+y,1/2-z
1/2-x,1/2+y,z
x,-y,1/2+z
loop_
_atom_site_type_symbol
_atom_site_label
_atom_site_fract_x
_atom_site_fract_y
_atom_site_fract_z
Si Si1 0.837328 0.986698 0.061733
Si Si2 0.756838 0.626215 0.676566
Si Si3 0.000000 0.475398 0.250000
Si Si4 0.621597 0.607702 0.438914
Si Si5 0.500000 0.735744 0.750000
Si Si6 0.131896 0.349268 0.963674
Si Si7 0.915515 0.375843 0.846967
Si Si8 0.094387 0.271768 0.437412
O O1 0.791863 0.957713 0.133838
O O2 0.722515 0.059027 0.029907
O O3 0.822611 0.900034 0.014957
O O4 0.014436 0.021084 0.069072
O O5 0.605999 0.676010 0.703798
O O6 0.864769 0.689540 0.632947
O O7 0.853373 0.588175 0.737066
O O8 0.961948 0.533348 0.313063
O O9 0.762113 0.604317 0.388330
O O10 0.525062 0.693729 0.423270
O O11 0.388412 0.798589 0.705972
O O12 0.252341 0.268088 0.973711
O O13 0.058058 0.343169 0.891939
O O14 0.993308 0.343421 0.017211
#
# Coordination Sequence:
#
# PCOD8248028 Si02
#       8
#     8   8   4   8   4   8   8   8
#     4  10  23  44  67  98 134 167 219 271 337 388
#     4  12  25  46  64  99 129 178 221 277 318 395
#     4  11  28  42  66  95 128 180 230 261 328 386
#     4  10  24  42  69 101 128 173 213 272 337 396
#     4  11  28  44  70  91 138 178 226 267 322 392
#     4  11  21  42  68  97 135 170 213 280 330 395
#     4  11  23  46  64  96 131 180 217 272 323 396
#     4  11  24  41  69 100 132 168 220 273 336 392
#
# _framework density 21.019601999999999
#
# number of rings (size 3 to 8) (size 9 to 14) (size 15 to 20)
#    0.000    1.143    2.857    2.571    6.000    1.143 
#    2.571    1.429    0.000    0.000    0.000    0.000 
#    0.000    0.000    0.000    0.000    0.000    0.000 
#
# Total GULP energy -694548.499222 kJ/mol
# GULP energy per Si atom -12402.651772 kJ/mol
# Density = 2.097176 g / cm^3
# Si number density = 21.019602 Si / 1000 Ang^3
#
#
#
# Elastic Constant Matrix: (Units=GPa)
#
#
# Indices 1 2 3 4 5 6 
#
# 1 121.3156 46.7379 59.4448 0.0000 0.0000 0.0000
# 2 46.7379 98.3237 40.9352 0.0000 0.0000 0.0000
# 3 59.4448 40.9352 103.9070 0.0000 0.0000 0.0000
# 4 0.0000 0.0000 0.0000 35.3791 0.0000 0.0000
# 5 0.0000 0.0000 0.0000 0.0000 42.9896 0.0000
# 6 0.0000 0.0000 0.0000 0.0000 0.0000 30.0015
#
#
#
# Elastic Compliance Matrix: (Units=1/GPa)
#
#
# Indices 1 2 3 4 5 6 
#
# 1 0.012393 -0.003516 -0.005705 0.000000 0.000000 0.000000
# 2 -0.003516 0.013163 -0.003174 0.000000 0.000000 0.000000
# 3 -0.005705 -0.003174 0.014138 0.000000 0.000000 0.000000
# 4 0.000000 0.000000 0.000000 0.028265 0.000000 0.000000
# 5 0.000000 0.000000 0.000000 0.000000 0.023261 0.000000
# 6 0.000000 0.000000 0.000000 0.000000 0.000000 0.033332
#
#
# Mechanical properties :
#
#
# Convention : Reuss Voigt Hill
#
# Bulk Modulus (GPa) = 67.09454 68.64244 67.86849
# Shear Modulus (GPa) = 32.40211 33.43595 32.91903
#
# Velocity S-wave (km/s) = 3.93048 3.99269 3.96171
# Velocity P-wave (km/s) = 7.25172 7.34729 7.29966
#
# Compressibility (1/GPa) = 0.01490434
#
# Stress axis : x y z
#
# Youngs Moduli (GPa) = 80.69198 75.96865 70.72997
#
# Poissons Ratio (x) = 0.26709 0.40350
# Poissons Ratio (y) = 0.28370 0.22453
# Poissons Ratio (z) = 0.46033 0.24116
#
# Static dielectric constant tensor:
#      x y z
#    x 3.907090 0.000000 0.000000 
#    y 0.000000 3.810250 0.000000 
#    z 0.000000 0.000000 3.711810 
# 
# 
# High freq. dielectric constant tensor:
#      x y z
#    x 1.832320 0.000000 0.000000 
#    y 0.000000 1.836590 0.000000 
#    z 0.000000 0.000000 1.818250 
# 
# From -- ./inp_files/22246.got.cif
#   From: 2010.03.12/outbox.cif.g09.slc.cpg/sg60_12_cif.got.tgz:22246.got - 2010.04.10 18:46:24.
