data_PCOD8248142
_publ_section_title
;
Structure prediction by ZEFSAII (Michael W. Deem and Ramdas Pophale) SiO2 
 PCOD8248142
Probable space group: P B C N
;
_chemical_formula_sum "Si O2"
_cell_formula_units_Z 48
_cell_length_a 21.670877
_cell_length_b 11.653931
_cell_length_c 9.314783
_cell_angle_alpha 90.000000
_cell_angle_beta 90.000000
_cell_angle_gamma 90.000000
_cell_volume 2352.456879
_symmetry_space_group_name_H-M "P B C N"
_symmetry_group_IT_number 60
_symmetry_cell_setting 'orthorhombic'
loop_
_space_group_symop_operation_xyz
x,y,z
1/2-x,1/2-y,1/2+z
1/2+x,1/2-y,-z
-x,y,1/2-z
-x,-y,-z
1/2+x,1/2+y,1/2-z
1/2-x,1/2+y,z
x,-y,1/2+z
loop_
_atom_site_type_symbol
_atom_site_label
_atom_site_fract_x
_atom_site_fract_y
_atom_site_fract_z
Si Si1 0.135915 0.964473 0.540123
Si Si2 0.070758 0.877334 0.270419
Si Si3 0.736974 0.623229 0.041409
Si Si4 0.571779 0.887090 0.731228
Si Si5 0.636128 0.936560 0.441301
Si Si6 0.705867 0.738939 0.321120
O O1 0.087442 0.901772 0.436622
O O2 0.184287 0.878810 0.609697
O O3 0.104756 0.036916 0.664501
O O4 0.176251 0.048136 0.440825
O O5 0.085468 0.745569 0.232867
O O6 0.000000 0.904968 0.250000
O O7 0.799274 0.544053 0.030295
O O8 0.736174 0.714914 0.168960
O O9 0.735684 0.704914 0.902102
O O10 0.500000 0.918832 0.750000
O O11 0.585677 0.911783 0.563887
O O12 0.614196 0.958037 0.842820
O O13 0.647459 0.828022 0.332359
#
# Coordination Sequence:
#
# PCOD8248142 Si02
#       6
#     8   8   8   8   8   8
#     4  12  23  43  68  97 136 172 221 278 341 399
#     4  11  25  44  69  98 135 180 228 280 333 396
#     4  10  25  39  70  97 134 169 216 276 341 401
#     4  11  24  46  69  98 136 183 230 281 332 399
#     4  10  25  43  68  96 139 175 228 274 339 401
#     4  10  24  43  64 100 134 171 219 274 338 409
#
# _framework density 20.404199999999999
#
# number of rings (size 3 to 8) (size 9 to 14) (size 15 to 20)
#    1.000    0.333    3.333    1.000    7.000    2.667 
#    0.000    0.833    0.000    0.000    0.000    0.000 
#    0.000    0.000    0.000    0.000    0.000    0.000 
#
# Total GULP energy -594739.486975 kJ/mol
# GULP energy per Si atom -12390.405979 kJ/mol
# Density = 2.035776 g / cm^3
# Si number density = 20.404200 Si / 1000 Ang^3
#
#
#
# Elastic Constant Matrix: (Units=GPa)
#
#
# Indices 1 2 3 4 5 6 
#
# 1 70.5049 36.8058 20.4133 0.0000 0.0000 0.0000
# 2 36.8058 97.5793 33.0066 0.0000 0.0000 0.0000
# 3 20.4133 33.0066 56.9444 0.0000 0.0000 0.0000
# 4 0.0000 0.0000 0.0000 -3.2732 0.0000 0.0000
# 5 0.0000 0.0000 0.0000 0.0000 34.3848 0.0000
# 6 0.0000 0.0000 0.0000 0.0000 0.0000 55.2899
#
#
#
# Elastic Compliance Matrix: (Units=1/GPa)
#
#
# Indices 1 2 3 4 5 6 
#
# 1 0.018104 -0.005763 -0.003149 0.000000 0.000000 0.000000
# 2 -0.005763 0.014582 -0.006386 0.000000 0.000000 0.000000
# 3 -0.003149 -0.006386 0.022392 0.000000 0.000000 0.000000
# 4 0.000000 0.000000 0.000000 -0.305514 0.000000 0.000000
# 5 0.000000 0.000000 0.000000 0.000000 0.029083 0.000000
# 6 0.000000 0.000000 0.000000 0.000000 0.000000 0.018086
#
#
# Mechanical properties :
#
#
# Convention : Reuss Voigt Hill
#
# Bulk Modulus (GPa) = 40.84965 45.05331 42.95148
# Shear Modulus (GPa) = -30.39327 26.26718 -2.06305
#
# Velocity S-wave (km/s) = -3.86367 3.59185 -1.00662
# Velocity P-wave (km/s) = 0.39971 6.27138 4.44353
#
# Compressibility (1/GPa) = 0.02448001
#
# Stress axis : x y z
#
# Youngs Moduli (GPa) = 55.23694 68.57740 44.65974
#
# Poissons Ratio (x) = 0.39523 0.14064
# Poissons Ratio (y) = 0.31835 0.28520
# Poissons Ratio (z) = 0.17395 0.43795
#
# Static dielectric constant tensor:
#      x y z
#    x 3.750160 0.000000 0.000000 
#    y 0.000000 3.740800 0.000000 
#    z 0.000000 0.000000 3.969090 
# 
# 
# High freq. dielectric constant tensor:
#      x y z
#    x 1.793860 0.000000 0.000000 
#    y 0.000000 1.804540 0.000000 
#    z 0.000000 0.000000 1.800550 
# 
# From -- ./inp_files/7856.got.cif
#   From: 2010.03.12/outbox.cif.g09.slc.cpg/sg60_4_cif.got.tgz:7856.got - 2010.04.10 18:46:24.
