data_PCOD8248154
_publ_section_title
;
Structure prediction by ZEFSAII (Michael W. Deem and Ramdas Pophale) SiO2 
 PCOD8248154
Probable space group: P B C N
;
_chemical_formula_sum "Si O2"
_cell_formula_units_Z 28
_cell_length_a 4.920592
_cell_length_b 28.540716
_cell_length_c 8.618564
_cell_angle_alpha 90.000000
_cell_angle_beta 90.000000
_cell_angle_gamma 90.000000
_cell_volume 1210.367158
_symmetry_space_group_name_H-M "P B C N"
_symmetry_group_IT_number 60
_symmetry_cell_setting 'orthorhombic'
loop_
_space_group_symop_operation_xyz
x,y,z
1/2-x,1/2-y,1/2+z
1/2+x,1/2-y,-z
-x,y,1/2-z
-x,-y,-z
1/2+x,1/2+y,1/2-z
1/2-x,1/2+y,z
x,-y,1/2+z
loop_
_atom_site_type_symbol
_atom_site_label
_atom_site_fract_x
_atom_site_fract_y
_atom_site_fract_z
Si Si1 0.831331 0.067290 0.531068
Si Si2 0.500000 0.494194 0.750000
Si Si3 0.141336 0.628481 0.582976
Si Si4 0.547973 0.225577 0.066372
O O1 0.559126 0.094808 0.489696
O O2 0.782554 0.029114 0.667580
O O3 0.066385 0.103559 0.584735
O O4 0.870556 0.039436 0.374275
O O5 0.000000 0.636543 0.750000
O O6 0.174342 0.676924 0.491778
O O7 0.500000 0.225405 0.250000
O O8 0.765511 0.265658 0.023203
#
# Coordination Sequence:
#
# PCOD8248154 Si02
#       4
#     8   4   8   8
#     4  11  25  41  67  96 137 178 228 277 339 392
#     4  10  24  44  64  96 134 182 228 280 332 404
#     4  12  24  44  68 100 137 176 225 279 341 404
#     4  12  27  48  76 106 141 183 230 287 352 423
#
# _framework density 23.133475000000001
#
# number of rings (size 3 to 8) (size 9 to 14) (size 15 to 20)
#    0.000    0.571    2.857    4.286    4.000    6.857 
#    0.000    0.000    0.000    0.000    0.000    0.000 
#    0.000    0.000    0.000    0.000    0.000    0.000 
#
# Total GULP energy -347107.001422 kJ/mol
# GULP energy per Si atom -12396.678622 kJ/mol
# Density = 2.308082 g / cm^3
# Si number density = 23.133475 Si / 1000 Ang^3
#
#
#
# Elastic Constant Matrix: (Units=GPa)
#
#
# Indices 1 2 3 4 5 6 
#
# 1 62.8212 7.6034 6.8000 0.0000 0.0000 0.0000
# 2 7.6034 113.7434 53.7056 0.0000 0.0000 0.0000
# 3 6.8000 53.7056 140.1957 0.0000 0.0000 0.0000
# 4 0.0000 0.0000 0.0000 37.0105 0.0000 0.0000
# 5 0.0000 0.0000 0.0000 0.0000 21.8145 0.0000
# 6 0.0000 0.0000 0.0000 0.0000 0.0000 98.4808
#
#
#
# Elastic Compliance Matrix: (Units=1/GPa)
#
#
# Indices 1 2 3 4 5 6 
#
# 1 0.016071 -0.000862 -0.000449 0.000000 0.000000 0.000000
# 2 -0.000862 0.010779 -0.004087 0.000000 0.000000 0.000000
# 3 -0.000449 -0.004087 0.008720 0.000000 0.000000 0.000000
# 4 0.000000 0.000000 0.000000 0.027019 0.000000 0.000000
# 5 0.000000 0.000000 0.000000 0.000000 0.045841 0.000000
# 6 0.000000 0.000000 0.000000 0.000000 0.000000 0.010154
#
#
# Mechanical properties :
#
#
# Convention : Reuss Voigt Hill
#
# Bulk Modulus (GPa) = 40.36626 50.33093 45.34859
# Shear Modulus (GPa) = 36.32635 48.03791 42.18213
#
# Velocity S-wave (km/s) = 3.96699 4.56187 4.27479
# Velocity P-wave (km/s) = 6.20241 7.03928 6.63405
#
# Compressibility (1/GPa) = 0.02477316
#
# Stress axis : x y z
#
# Youngs Moduli (GPa) = 62.22325 92.77024 114.67244
#
# Poissons Ratio (x) = 0.07999 0.05151
# Poissons Ratio (y) = 0.05365 0.46872
# Poissons Ratio (z) = 0.02795 0.37920
#
# Static dielectric constant tensor:
#      x y z
#    x 4.103370 0.000000 0.000000 
#    y 0.000000 4.413080 0.000000 
#    z 0.000000 0.000000 4.314730 
# 
# 
# High freq. dielectric constant tensor:
#      x y z
#    x 1.907090 0.000000 0.000000 
#    y 0.000000 1.933990 0.000000 
#    z 0.000000 0.000000 1.927680 
# 
# From -- ./inp_files/2956.got.cif
#   From: 2010.03.12/outbox.cif.g09.slc.cpg/sg60_2_cif.got.tgz:2956.got - 2010.04.10 18:46:24.
