data_PCOD8248203
_publ_section_title
;
Structure prediction by ZEFSAII (Michael W. Deem and Ramdas Pophale) SiO2 
 PCOD8248203
Probable space group: P B C N
;
_chemical_formula_sum "Si O2"
_cell_formula_units_Z 28
_cell_length_a 6.953059
_cell_length_b 16.163090
_cell_length_c 12.572202
_cell_angle_alpha 90.000000
_cell_angle_beta 90.000000
_cell_angle_gamma 90.000000
_cell_volume 1412.900751
_symmetry_space_group_name_H-M "P B C N"
_symmetry_group_IT_number 60
_symmetry_cell_setting 'orthorhombic'
loop_
_space_group_symop_operation_xyz
x,y,z
1/2-x,1/2-y,1/2+z
1/2+x,1/2-y,-z
-x,y,1/2-z
-x,-y,-z
1/2+x,1/2+y,1/2-z
1/2-x,1/2+y,z
x,-y,1/2+z
loop_
_atom_site_type_symbol
_atom_site_label
_atom_site_fract_x
_atom_site_fract_y
_atom_site_fract_z
Si Si1 0.782773 0.499628 0.464681
Si Si2 0.833605 0.143045 0.833039
Si Si3 0.478822 0.373416 0.947095
Si Si4 0.500000 0.259864 0.750000
O O1 0.766958 0.445669 0.356109
O O2 0.657942 0.455121 0.558378
O O3 0.700001 0.592672 0.447085
O O4 0.000000 0.500000 0.500000
O O5 0.679645 0.206310 0.787184
O O6 0.000000 0.127958 0.750000
O O7 0.928455 0.176848 0.943902
O O8 0.432248 0.316025 0.847726
#
# Coordination Sequence:
#
# PCOD8248203 Si02
#       4
#     8   8   8   4
#     4   9  21  44  71  91 132 171 219 274 321 397
#     4  10  25  40  66  93 136 169 218 270 328 393
#     4   9  24  41  63 100 131 161 230 266 320 396
#     4  12  26  40  70  94 136 176 208 280 336 392
#
# _framework density 19.817387
#
# number of rings (size 3 to 8) (size 9 to 14) (size 15 to 20)
#    1.714    0.571    0.000    0.000   10.000    2.286 
#    0.000    0.000    0.000    0.000    0.000    0.000 
#    0.000    0.000    0.000    0.000    0.000    0.000 
#
# Total GULP energy -346925.847219 kJ/mol
# GULP energy per Si atom -12390.208829 kJ/mol
# Density = 1.977228 g / cm^3
# Si number density = 19.817387 Si / 1000 Ang^3
#
#
#
# Elastic Constant Matrix: (Units=GPa)
#
#
# Indices 1 2 3 4 5 6 
#
# 1 143.0214 59.9179 65.1325 0.0000 0.0000 0.0000
# 2 59.9179 95.9642 65.0785 0.0000 0.0000 0.0000
# 3 65.1325 65.0785 160.5636 0.0000 0.0000 0.0000
# 4 0.0000 0.0000 0.0000 49.8164 0.0000 0.0000
# 5 0.0000 0.0000 0.0000 0.0000 30.5507 0.0000
# 6 0.0000 0.0000 0.0000 0.0000 0.0000 103.3215
#
#
#
# Elastic Compliance Matrix: (Units=1/GPa)
#
#
# Indices 1 2 3 4 5 6 
#
# 1 0.009955 -0.004795 -0.002095 0.000000 0.000000 0.000000
# 2 -0.004795 0.016680 -0.004816 0.000000 0.000000 0.000000
# 3 -0.002095 -0.004816 0.009030 0.000000 0.000000 0.000000
# 4 0.000000 0.000000 0.000000 0.020074 0.000000 0.000000
# 5 0.000000 0.000000 0.000000 0.000000 0.032732 0.000000
# 6 0.000000 0.000000 0.000000 0.000000 0.000000 0.009679
#
#
# Mechanical properties :
#
#
# Convention : Reuss Voigt Hill
#
# Bulk Modulus (GPa) = 81.60630 86.64524 84.12577
# Shear Modulus (GPa) = 39.79488 50.69907 45.24698
#
# Velocity S-wave (km/s) = 4.48602 5.06346 4.78346
# Velocity P-wave (km/s) = 8.25234 8.83185 8.54701
#
# Compressibility (1/GPa) = 0.01225396
#
# Stress axis : x y z
#
# Youngs Moduli (GPa) = 100.45497 59.95149 110.74722
#
# Poissons Ratio (x) = 0.28747 0.23198
# Poissons Ratio (y) = 0.48168 0.53331
# Poissons Ratio (z) = 0.21042 0.28870
#
# Static dielectric constant tensor:
#      x y z
#    x 3.530970 0.000000 0.000000 
#    y 0.000000 3.510830 0.000000 
#    z 0.000000 0.000000 3.549820 
# 
# 
# High freq. dielectric constant tensor:
#      x y z
#    x 1.774090 0.000000 0.000000 
#    y 0.000000 1.757840 0.000000 
#    z 0.000000 0.000000 1.767580 
# 
# From -- ./inp_files/8750.got.cif
#   From: 2010.03.12/outbox.cif.g09.slc.cpg/sg60_5_cif.got.tgz:8750.got - 2010.04.10 18:46:24.
