data_PCOD8248183
_publ_section_title
;
Structure prediction by ZEFSAII (Michael W. Deem and Ramdas Pophale) SiO2 
 PCOD8248183
Probable space group: P B C N
;
_chemical_formula_sum "Si O2"
_cell_formula_units_Z 60
_cell_length_a 19.314197
_cell_length_b 25.981519
_cell_length_c 5.674281
_cell_angle_alpha 90.000000
_cell_angle_beta 90.000000
_cell_angle_gamma 90.000000
_cell_volume 2847.423298
_symmetry_space_group_name_H-M "P B C N"
_symmetry_group_IT_number 60
_symmetry_cell_setting 'orthorhombic'
loop_
_space_group_symop_operation_xyz
x,y,z
1/2-x,1/2-y,1/2+z
1/2+x,1/2-y,-z
-x,y,1/2-z
-x,-y,-z
1/2+x,1/2+y,1/2-z
1/2-x,1/2+y,z
x,-y,1/2+z
loop_
_atom_site_type_symbol
_atom_site_label
_atom_site_fract_x
_atom_site_fract_y
_atom_site_fract_z
Si Si1 0.433450 0.309236 0.593291
Si Si2 0.208480 0.189202 0.292932
Si Si3 0.596423 0.470373 0.430575
Si Si4 0.244051 0.471571 0.055357
Si Si5 0.078628 0.707868 0.303633
Si Si6 0.500000 0.386784 0.250000
Si Si7 0.179110 0.634788 0.536863
Si Si8 0.317589 0.201987 0.936325
O O1 0.500000 0.302918 0.750000
O O2 0.369548 0.330227 0.748885
O O3 0.414510 0.252477 0.497638
O O4 0.446810 0.350473 0.389555
O O5 0.243864 0.160875 0.514720
O O6 0.258240 0.172297 0.080140
O O7 0.216189 0.250868 0.294838
O O8 0.580596 0.500772 0.676955
O O9 0.676332 0.452911 0.440661
O O10 0.546143 0.420935 0.429261
O O11 0.230071 0.497723 0.310629
O O12 0.188241 0.425983 0.035029
O O13 0.120986 0.655029 0.354379
O O14 0.118423 0.729245 0.074400
O O15 0.000000 0.693657 0.250000
O O16 0.149737 0.656424 0.781598
#
# Coordination Sequence:
#
# PCOD8248183 Si02
#       8
#     8   8   8   8   8   4   8   8
#     4  12  27  39  58  93 144 190 226 283 327 402
#     4  11  22  37  60  93 135 170 231 273 332 403
#     4  10  24  46  70  92 131 181 239 302 353 403
#     4  10  25  46  72 102 134 173 233 301 361 417
#     4  11  24  42  62  95 139 177 221 258 344 427
#     4  12  28  38  62  96 130 190 240 282 340 394
#     4  11  25  39  71  95 128 182 215 291 351 418
#     4  11  21  38  64  94 128 177 221 275 330 410
#
# _framework density 21.071681999999999
#
# number of rings (size 3 to 8) (size 9 to 14) (size 15 to 20)
#    0.000    1.067    3.333    2.000    9.333    1.067 
#    0.000    0.000    0.000    0.800    0.000    0.000 
#    0.000    0.000    0.000    0.000    0.000    0.000 
#
# Total GULP energy -743353.524659 kJ/mol
# GULP energy per Si atom -12389.225411 kJ/mol
# Density = 2.102372 g / cm^3
# Si number density = 21.071682 Si / 1000 Ang^3
#
#
#
# Elastic Constant Matrix: (Units=GPa)
#
#
# Indices 1 2 3 4 5 6 
#
# 1 122.7478 34.4185 34.7266 0.0000 0.0000 0.0000
# 2 34.4185 94.1606 25.6713 0.0000 0.0000 0.0000
# 3 34.7266 25.6713 98.9493 0.0000 0.0000 0.0000
# 4 0.0000 0.0000 0.0000 23.5898 0.0000 0.0000
# 5 0.0000 0.0000 0.0000 0.0000 23.0848 0.0000
# 6 0.0000 0.0000 0.0000 0.0000 0.0000 25.3276
#
#
#
# Elastic Compliance Matrix: (Units=1/GPa)
#
#
# Indices 1 2 3 4 5 6 
#
# 1 0.009692 -0.002814 -0.002671 0.000000 0.000000 0.000000
# 2 -0.002814 0.012246 -0.002189 0.000000 0.000000 0.000000
# 3 -0.002671 -0.002189 0.011612 0.000000 0.000000 0.000000
# 4 0.000000 0.000000 0.000000 0.042391 0.000000 0.000000
# 5 0.000000 0.000000 0.000000 0.000000 0.043319 0.000000
# 6 0.000000 0.000000 0.000000 0.000000 0.000000 0.039483
#
#
# Mechanical properties :
#
#
# Convention : Reuss Voigt Hill
#
# Bulk Modulus (GPa) = 54.94692 56.16560 55.55626
# Shear Modulus (GPa) = 27.75347 29.13651 28.44499
#
# Velocity S-wave (km/s) = 3.63312 3.72255 3.67811
# Velocity P-wave (km/s) = 6.61304 6.72227 6.66787
#
# Compressibility (1/GPa) = 0.01819938
#
# Stress axis : x y z
#
# Youngs Moduli (GPa) = 103.18187 81.66096 86.12049
#
# Poissons Ratio (x) = 0.22982 0.23004
# Poissons Ratio (y) = 0.29039 0.18855
# Poissons Ratio (z) = 0.27562 0.17878
#
# Static dielectric constant tensor:
#      x y z
#    x 3.848870 0.000000 0.000000 
#    y 0.000000 3.504940 0.000000 
#    z 0.000000 0.000000 4.191940 
# 
# 
# High freq. dielectric constant tensor:
#      x y z
#    x 1.820180 0.000000 0.000000 
#    y 0.000000 1.795410 0.000000 
#    z 0.000000 0.000000 1.844320 
# 
# From -- ./inp_files/2170.got.cif
#   From: 2010.03.12/outbox.cif.g09.slc.cpg/sg60_2_cif.got.tgz:2170.got - 2010.04.10 18:46:24.
