data_PCOD8248943
_publ_section_title
;
Structure prediction by ZEFSAII (Michael W. Deem and Ramdas Pophale) SiO2 
 PCOD8248943
Probable space group: P B C A
;
_chemical_formula_sum "Si O2"
_cell_formula_units_Z 40
_cell_length_a 23.101981
_cell_length_b 17.355871
_cell_length_c 5.144631
_cell_angle_alpha 90.000000
_cell_angle_beta 90.000000
_cell_angle_gamma 90.000000
_cell_volume 2062.765533
_symmetry_space_group_name_H-M "P B C A"
_symmetry_group_IT_number 61
_symmetry_cell_setting 'orthorhombic'
loop_
_space_group_symop_operation_xyz
x,y,z
1/2-x,-y,1/2+z
1/2+x,1/2-y,-z
-x,1/2+y,1/2-z
-x,-y,-z
1/2+x,y,1/2-z
1/2-x,1/2+y,z
x,1/2-y,1/2+z
loop_
_atom_site_type_symbol
_atom_site_label
_atom_site_fract_x
_atom_site_fract_y
_atom_site_fract_z
Si Si1 0.357791 0.910514 0.839022
Si Si2 0.592982 0.799488 0.861604
Si Si3 0.326021 0.062347 0.056287
Si Si4 0.708590 0.418782 0.172969
Si Si5 0.539396 0.299473 0.671307
O O1 0.314629 0.877121 0.064673
O O2 0.363586 0.003220 0.877853
O O3 0.331581 0.889647 0.560992
O O4 0.421094 0.874311 0.866782
O O5 0.606809 0.737674 0.639545
O O6 0.632992 0.873587 0.820730
O O7 0.526774 0.827594 0.845692
O O8 0.275243 0.101903 0.885247
O O9 0.296225 0.012506 0.290163
O O10 0.552925 0.237085 0.450293
#
# Coordination Sequence:
#
# PCOD8248943 Si02
#       5
#     8   8   8   8   8
#     4  10  20  35  60  85 110 150 193 228 289 337
#     4  10  24  39  59  83 115 156 190 235 289 336
#     4  10  21  38  62  82 121 145 195 233 285 340
#     4  10  20  35  60  84 112 147 181 239 289 322
#     4  10  21  41  57  80 120 154 189 240 289 334
#
# _framework density 19.391441
#
# number of rings (size 3 to 8) (size 9 to 14) (size 15 to 20)
#    1.200    0.800    2.000    1.200    2.800    0.800 
#    0.000    7.000    0.000    0.000    0.000    0.000 
#    0.000    0.000    0.000    0.000    0.000    0.000 
#
# Total GULP energy -495839.386669 kJ/mol
# GULP energy per Si atom -12395.984667 kJ/mol
# Density = 1.934730 g / cm^3
# Si number density = 19.391441 Si / 1000 Ang^3
#
#
#
# Elastic Constant Matrix: (Units=GPa)
#
#
# Indices 1 2 3 4 5 6 
#
# 1 103.5930 48.7047 25.7414 0.0000 0.0000 0.0000
# 2 48.7047 44.7331 1.7887 0.0000 0.0000 0.0000
# 3 25.7414 1.7887 100.0236 0.0000 0.0000 0.0000
# 4 0.0000 0.0000 0.0000 15.9942 0.0000 0.0000
# 5 0.0000 0.0000 0.0000 0.0000 23.8261 0.0000
# 6 0.0000 0.0000 0.0000 0.0000 0.0000 36.1620
#
#
#
# Elastic Compliance Matrix: (Units=1/GPa)
#
#
# Indices 1 2 3 4 5 6 
#
# 1 0.022272 -0.024037 -0.005302 0.000000 0.000000 0.000000
# 2 -0.024037 0.048313 0.005322 0.000000 0.000000 0.000000
# 3 -0.005302 0.005322 0.011267 0.000000 0.000000 0.000000
# 4 0.000000 0.000000 0.000000 0.062523 0.000000 0.000000
# 5 0.000000 0.000000 0.000000 0.000000 0.041971 0.000000
# 6 0.000000 0.000000 0.000000 0.000000 0.000000 0.027653
#
#
# Mechanical properties :
#
#
# Convention : Reuss Voigt Hill
#
# Bulk Modulus (GPa) = 29.57006 44.53549 37.05277
# Shear Modulus (GPa) = 18.29460 26.67080 22.48270
#
# Velocity S-wave (km/s) = 3.07487 3.71265 3.40871
# Velocity P-wave (km/s) = 5.28097 6.43388 5.88572
#
# Compressibility (1/GPa) = 0.03381799
#
# Stress axis : x y z
#
# Youngs Moduli (GPa) = 44.89998 20.69832 88.75546
#
# Poissons Ratio (x) = 0.49753 0.47057
# Poissons Ratio (y) = 1.07926 -0.47236
# Poissons Ratio (z) = 0.23805 -0.11016
#
# Static dielectric constant tensor:
#      x y z
#    x 3.430510 0.000000 0.000000 
#    y 0.000000 3.061990 0.000000 
#    z 0.000000 0.000000 3.617520 
# 
# 
# High freq. dielectric constant tensor:
#      x y z
#    x 1.753870 0.000000 0.000000 
#    y 0.000000 1.714990 0.000000 
#    z 0.000000 0.000000 1.769430 
# 
# From -- ./inp_files/719.got.cif
#   From: 2010.03.12/outbox.cif.g09.slc.cpg/sg61_1_cif.got.tgz:719.got - 2010.04.10 19:05:03.
