data_PCOD8248785
_publ_section_title
;
Structure prediction by ZEFSAII (Michael W. Deem and Ramdas Pophale) SiO2 
 PCOD8248785
Probable space group: P B C A
;
_chemical_formula_sum "Si O2"
_cell_formula_units_Z 64
_cell_length_a 18.202970
_cell_length_b 8.678850
_cell_length_c 20.970925
_cell_angle_alpha 90.000000
_cell_angle_beta 90.000000
_cell_angle_gamma 90.000000
_cell_volume 3313.004477
_symmetry_space_group_name_H-M "P B C A"
_symmetry_group_IT_number 61
_symmetry_cell_setting 'orthorhombic'
loop_
_space_group_symop_operation_xyz
x,y,z
1/2-x,-y,1/2+z
1/2+x,1/2-y,-z
-x,1/2+y,1/2-z
-x,-y,-z
1/2+x,y,1/2-z
1/2-x,1/2+y,z
x,1/2-y,1/2+z
loop_
_atom_site_type_symbol
_atom_site_label
_atom_site_fract_x
_atom_site_fract_y
_atom_site_fract_z
Si Si1 0.404176 0.210088 0.748765
Si Si2 0.186782 0.829670 0.370272
Si Si3 0.441767 0.645210 0.248739
Si Si4 0.193520 0.658530 0.634247
Si Si5 0.809682 0.338197 0.506268
Si Si6 0.345510 0.688111 0.367124
Si Si7 0.654929 0.308295 0.006929
Si Si8 0.152954 0.191365 0.132926
O O1 0.358920 0.244858 0.812677
O O2 0.472300 0.324818 0.745673
O O3 0.352919 0.246816 0.687948
O O4 0.432873 0.036762 0.746772
O O5 0.153880 0.760734 0.436641
O O6 0.272299 0.790829 0.359893
O O7 0.178150 0.011807 0.371232
O O8 0.398886 0.719682 0.308131
O O9 0.410160 0.724176 0.184481
O O10 0.161391 0.708203 0.564514
O O11 0.279932 0.691356 0.641771
O O12 0.187328 0.476351 0.643170
O O13 0.820843 0.517525 0.520107
O O14 0.723529 0.306982 0.506063
O O15 0.389902 0.745465 0.431291
O O16 0.615706 0.293819 0.937879
#
# Coordination Sequence:
#
# PCOD8248785 Si02
#       8
#     8   8   8   8   8   8   8   8
#     4  10  22  37  51  71 100 133 169 206 244 290
#     4  10  19  32  52  77 102 128 162 203 245 293
#     4  10  22  37  51  71 100 133 169 206 244 290
#     4   9  18  33  53  77 101 127 164 205 245 292
#     4   9  16  28  49  75 101 127 157 199 246 290
#     4  10  19  32  52  77 102 128 162 203 245 293
#     4   9  16  28  49  75 101 127 157 199 246 290
#     4   9  18  33  53  77 101 127 164 205 245 292
#
# _framework density 19.317812
#
# number of rings (size 3 to 8) (size 9 to 14) (size 15 to 20)
#    0.000    2.500    0.000    3.750    0.000    4.000 
#    0.000    1.250    0.000    7.500    0.000    0.000 
#    0.000    0.000    0.000    0.000    0.000    0.000 
#
# Total GULP energy -793195.188294 kJ/mol
# GULP energy per Si atom -12393.674817 kJ/mol
# Density = 1.927384 g / cm^3
# Si number density = 19.317812 Si / 1000 Ang^3
#
#
#
# Elastic Constant Matrix: (Units=GPa)
#
#
# Indices 1 2 3 4 5 6 
#
# 1 41.0655 0.7292 28.2090 0.0000 0.0000 0.0000
# 2 0.7292 26.6038 21.9858 0.0000 0.0000 0.0000
# 3 28.2090 21.9858 162.0601 0.0000 0.0000 0.0000
# 4 0.0000 0.0000 0.0000 30.3975 0.0000 0.0000
# 5 0.0000 0.0000 0.0000 0.0000 6.7357 0.0000
# 6 0.0000 0.0000 0.0000 0.0000 0.0000 22.5397
#
#
#
# Elastic Compliance Matrix: (Units=1/GPa)
#
#
# Indices 1 2 3 4 5 6 
#
# 1 0.027973 0.003668 -0.005367 0.000000 0.000000 0.000000
# 2 0.003668 0.042816 -0.006447 0.000000 0.000000 0.000000
# 3 -0.005367 -0.006447 0.007979 0.000000 0.000000 0.000000
# 4 0.000000 0.000000 0.000000 0.032897 0.000000 0.000000
# 5 0.000000 0.000000 0.000000 0.000000 0.148462 0.000000
# 6 0.000000 0.000000 0.000000 0.000000 0.000000 0.044366
#
#
# Mechanical properties :
#
#
# Convention : Reuss Voigt Hill
#
# Bulk Modulus (GPa) = 16.00581 36.84195 26.42388
# Shear Modulus (GPa) = 14.63654 23.85494 19.24574
#
# Velocity S-wave (km/s) = 2.75557 3.51788 3.15980
# Velocity P-wave (km/s) = 4.29275 5.96771 5.19814
#
# Compressibility (1/GPa) = 0.06247730
#
# Stress axis : x y z
#
# Youngs Moduli (GPa) = 35.74902 23.35568 125.32313
#
# Poissons Ratio (x) = -0.08568 0.67258
# Poissons Ratio (y) = -0.13114 0.80798
# Poissons Ratio (z) = 0.19186 0.15058
#
# Static dielectric constant tensor:
#      x y z
#    x 3.107820 0.000000 0.000000 
#    y 0.000000 3.404590 0.000000 
#    z 0.000000 0.000000 4.430450 
# 
# 
# High freq. dielectric constant tensor:
#      x y z
#    x 1.698880 0.000000 0.000000 
#    y 0.000000 1.750760 0.000000 
#    z 0.000000 0.000000 1.784210 
# 
# From -- ./inp_files/10620.got.cif
#   From: 2010.03.12/outbox.cif.g09.slc.cpg/sg61_6_cif.got.tgz:10620.got - 2010.04.10 19:05:03.
