data_PCOD8248823
_publ_section_title
;
Structure prediction by ZEFSAII (Michael W. Deem and Ramdas Pophale) SiO2 
 PCOD8248823
Probable space group: P B C A
;
_chemical_formula_sum "Si O2"
_cell_formula_units_Z 64
_cell_length_a 14.556082
_cell_length_b 20.903840
_cell_length_c 9.974164
_cell_angle_alpha 90.000000
_cell_angle_beta 90.000000
_cell_angle_gamma 90.000000
_cell_volume 3034.918765
_symmetry_space_group_name_H-M "P B C A"
_symmetry_group_IT_number 61
_symmetry_cell_setting 'orthorhombic'
loop_
_space_group_symop_operation_xyz
x,y,z
1/2-x,-y,1/2+z
1/2+x,1/2-y,-z
-x,1/2+y,1/2-z
-x,-y,-z
1/2+x,y,1/2-z
1/2-x,1/2+y,z
x,1/2-y,1/2+z
loop_
_atom_site_type_symbol
_atom_site_label
_atom_site_fract_x
_atom_site_fract_y
_atom_site_fract_z
Si Si1 0.123379 0.485869 0.231822
Si Si2 0.757857 0.380867 0.276959
Si Si3 0.752102 0.867001 0.968427
Si Si4 0.442715 0.404124 0.554942
Si Si5 0.336034 0.741745 0.636368
Si Si6 0.393111 0.823484 0.881307
Si Si7 0.933695 0.449256 0.232561
Si Si8 0.794907 0.561511 0.215944
O O1 0.180950 0.428349 0.160290
O O2 0.077607 0.525615 0.111854
O O3 0.195372 0.529224 0.318503
O O4 0.030629 0.462074 0.313170
O O5 0.743733 0.307692 0.319156
O O6 0.861844 0.403615 0.313909
O O7 0.737663 0.391264 0.119294
O O8 0.646266 0.859829 0.928641
O O9 0.792917 0.797215 0.951638
O O10 0.800244 0.919818 0.873649
O O11 0.518455 0.367348 0.642523
O O12 0.468483 0.411827 0.399438
O O13 0.389295 0.768458 0.766655
O O14 0.401971 0.706275 0.529867
O O15 0.305475 0.872152 0.868504
O O16 0.878770 0.513273 0.189376
#
# Coordination Sequence:
#
# PCOD8248823 Si02
#       8
#     8   8   8   8   8   8   8   8
#     4  10  19  35  59  92 122 153 200 262 311 371
#     4  10  21  37  60  88 122 167 207 257 318 373
#     4   9  20  41  56  83 125 166 206 264 308 364
#     4  10  20  36  63  92 120 162 215 261 308 378
#     4  11  22  41  62  85 123 169 214 253 312 369
#     4  11  22  40  66  91 121 169 212 259 309 373
#     4  10  19  35  60  92 123 155 207 258 309 377
#     4   9  20  35  62  87 122 161 200 252 318 365
#
# _framework density 21.087880999999999
#
# number of rings (size 3 to 8) (size 9 to 14) (size 15 to 20)
#    0.000    2.000    2.500    1.125    1.750    0.000 
#    9.000    0.625    0.000    0.000    0.000    0.000 
#    0.000    0.000    0.000    0.000    0.000    0.000 
#
# Total GULP energy -792988.361611 kJ/mol
# GULP energy per Si atom -12390.443150 kJ/mol
# Density = 2.103988 g / cm^3
# Si number density = 21.087881 Si / 1000 Ang^3
#
#
#
# Elastic Constant Matrix: (Units=GPa)
#
#
# Indices 1 2 3 4 5 6 
#
# 1 126.8843 31.0648 10.7219 0.0000 0.0000 0.0000
# 2 31.0648 88.6648 13.1719 0.0000 0.0000 0.0000
# 3 10.7219 13.1719 48.3457 0.0000 0.0000 0.0000
# 4 0.0000 0.0000 0.0000 25.7771 0.0000 0.0000
# 5 0.0000 0.0000 0.0000 0.0000 16.9384 0.0000
# 6 0.0000 0.0000 0.0000 0.0000 0.0000 25.1884
#
#
#
# Elastic Compliance Matrix: (Units=1/GPa)
#
#
# Indices 1 2 3 4 5 6 
#
# 1 0.008681 -0.002872 -0.001143 0.000000 0.000000 0.000000
# 2 -0.002872 0.012704 -0.002824 0.000000 0.000000 0.000000
# 3 -0.001143 -0.002824 0.021707 0.000000 0.000000 0.000000
# 4 0.000000 0.000000 0.000000 0.038794 0.000000 0.000000
# 5 0.000000 0.000000 0.000000 0.000000 0.059037 0.000000
# 6 0.000000 0.000000 0.000000 0.000000 0.000000 0.039701
#
#
# Mechanical properties :
#
#
# Convention : Reuss Voigt Hill
#
# Bulk Modulus (GPa) = 33.99678 41.53466 37.76572
# Shear Modulus (GPa) = 24.49694 27.50987 26.00340
#
# Velocity S-wave (km/s) = 3.41201 3.61575 3.51536
# Velocity P-wave (km/s) = 5.62840 6.09674 5.86725
#
# Compressibility (1/GPa) = 0.02941455
#
# Stress axis : x y z
#
# Youngs Moduli (GPa) = 115.19638 78.71441 46.06738
#
# Poissons Ratio (x) = 0.22604 0.05265
# Poissons Ratio (y) = 0.33081 0.13011
# Poissons Ratio (z) = 0.13165 0.22232
#
# Static dielectric constant tensor:
#      x y z
#    x 3.994100 0.000000 0.000000 
#    y 0.000000 3.915590 0.000000 
#    z 0.000000 0.000000 3.528640 
# 
# 
# High freq. dielectric constant tensor:
#      x y z
#    x 1.822130 0.000000 0.000000 
#    y 0.000000 1.837460 0.000000 
#    z 0.000000 0.000000 1.793450 
# 
# From -- ./inp_files/3208.got.cif
#   From: 2010.03.12/outbox.cif.g09.slc.cpg/sg61_2_cif.got.tgz:3208.got - 2010.04.10 19:05:03.
