data_PCOD8248995
_publ_section_title
;
Structure prediction by ZEFSAII (Michael W. Deem and Ramdas Pophale) SiO2 
 PCOD8248995
Probable space group: P B C A
;
_chemical_formula_sum "Si O2"
_cell_formula_units_Z 56
_cell_length_a 23.005339
_cell_length_b 5.245555
_cell_length_c 21.206496
_cell_angle_alpha 90.000000
_cell_angle_beta 90.000000
_cell_angle_gamma 90.000000
_cell_volume 2559.110255
_symmetry_space_group_name_H-M "P B C A"
_symmetry_group_IT_number 61
_symmetry_cell_setting 'orthorhombic'
loop_
_space_group_symop_operation_xyz
x,y,z
1/2-x,-y,1/2+z
1/2+x,1/2-y,-z
-x,1/2+y,1/2-z
-x,-y,-z
1/2+x,y,1/2-z
1/2-x,1/2+y,z
x,1/2-y,1/2+z
loop_
_atom_site_type_symbol
_atom_site_label
_atom_site_fract_x
_atom_site_fract_y
_atom_site_fract_z
Si Si1 0.022031 0.746447 0.817868
Si Si2 0.278138 0.157798 0.373007
Si Si3 0.585944 0.594558 0.300962
Si Si4 0.719354 0.587674 0.275047
Si Si5 0.532866 0.894652 0.402920
Si Si6 0.935689 0.788807 0.010118
Si Si7 0.601297 0.687403 0.573681
O O1 0.064073 0.732420 0.757545
O O2 0.053516 0.593966 0.874756
O O3 0.957942 0.644007 0.801268
O O4 0.012194 0.030987 0.846398
O O5 0.233938 0.374877 0.401023
O O6 0.271224 0.118957 0.298891
O O7 0.340156 0.272702 0.388414
O O8 0.652579 0.519306 0.290798
O O9 0.583238 0.733859 0.369089
O O10 0.758302 0.356658 0.304009
O O11 0.499956 0.738801 0.458964
O O12 0.558725 0.155277 0.435026
O O13 0.894935 0.543380 0.022678
O O14 0.910956 0.047122 0.040062
#
# Coordination Sequence:
#
# PCOD8248995 Si02
#       7
#     8   8   8   8   8   8   8
#     4  11  23  35  61  98 126 162 193 262 328 373
#     4  10  20  37  61  88 119 159 207 261 310 361
#     4  12  22  39  62  94 133 160 204 263 317 378
#     4  10  24  41  61  88 124 171 209 246 303 374
#     4  10  23  38  57  92 126 167 200 248 313 381
#     4  10  23  38  61  87 129 163 207 245 308 383
#     4  11  21  40  61  91 124 161 205 257 311 372
#
# _framework density 21.882607
#
# number of rings (size 3 to 8) (size 9 to 14) (size 15 to 20)
#    0.000    1.429    4.286    0.857    4.000    1.714 
#    2.571    0.000    0.000    5.143    0.000    0.000 
#    0.000    0.000    0.000    0.000    0.000    0.000 
#
# Total GULP energy -693795.998037 kJ/mol
# GULP energy per Si atom -12389.214251 kJ/mol
# Density = 2.183280 g / cm^3
# Si number density = 21.882607 Si / 1000 Ang^3
#
#
#
# Elastic Constant Matrix: (Units=GPa)
#
#
# Indices 1 2 3 4 5 6 
#
# 1 109.8307 39.1058 5.1762 0.0000 0.0000 0.0000
# 2 39.1058 72.8536 7.1507 0.0000 0.0000 0.0000
# 3 5.1762 7.1507 51.6896 0.0000 0.0000 0.0000
# 4 0.0000 0.0000 0.0000 23.5187 0.0000 0.0000
# 5 0.0000 0.0000 0.0000 0.0000 23.6381 0.0000
# 6 0.0000 0.0000 0.0000 0.0000 0.0000 33.2281
#
#
#
# Elastic Compliance Matrix: (Units=1/GPa)
#
#
# Indices 1 2 3 4 5 6 
#
# 1 0.011261 -0.006015 -0.000295 0.000000 0.000000 0.000000
# 2 -0.006015 0.017129 -0.001767 0.000000 0.000000 0.000000
# 3 -0.000295 -0.001767 0.019620 0.000000 0.000000 0.000000
# 4 0.000000 0.000000 0.000000 0.042519 0.000000 0.000000
# 5 0.000000 0.000000 0.000000 0.000000 0.042305 0.000000
# 6 0.000000 0.000000 0.000000 0.000000 0.000000 0.030095
#
#
# Mechanical properties :
#
#
# Convention : Reuss Voigt Hill
#
# Bulk Modulus (GPa) = 31.39385 37.47104 34.43245
# Shear Modulus (GPa) = 26.35709 28.27306 27.31507
#
# Velocity S-wave (km/s) = 3.47432 3.59839 3.53690
# Velocity P-wave (km/s) = 5.52016 5.86731 5.69638
#
# Compressibility (1/GPa) = 0.03185337
#
# Stress axis : x y z
#
# Youngs Moduli (GPa) = 88.80471 58.38216 50.96760
#
# Poissons Ratio (x) = 0.35119 0.01506
# Poissons Ratio (y) = 0.53420 0.09007
# Poissons Ratio (z) = 0.02624 0.10317
#
# Static dielectric constant tensor:
#      x y z
#    x 3.721580 0.000000 0.000000 
#    y 0.000000 4.119020 0.000000 
#    z 0.000000 0.000000 4.117680 
# 
# 
# High freq. dielectric constant tensor:
#      x y z
#    x 1.831650 0.000000 0.000000 
#    y 0.000000 1.868210 0.000000 
#    z 0.000000 0.000000 1.847340 
# 
# From -- ./inp_files/1053.got.cif
#   From: 2010.03.12/outbox.cif.g09.slc.cpg/sg61_1_cif.got.tgz:1053.got - 2010.04.10 19:05:03.
