data_PCOD8248783
_publ_section_title
;
Structure prediction by ZEFSAII (Michael W. Deem and Ramdas Pophale) SiO2 
 PCOD8248783
Probable space group: P B C A
;
_chemical_formula_sum "Si O2"
_cell_formula_units_Z 64
_cell_length_a 17.049114
_cell_length_b 20.040180
_cell_length_c 9.626035
_cell_angle_alpha 90.000000
_cell_angle_beta 90.000000
_cell_angle_gamma 90.000000
_cell_volume 3288.901517
_symmetry_space_group_name_H-M "P B C A"
_symmetry_group_IT_number 61
_symmetry_cell_setting 'orthorhombic'
loop_
_space_group_symop_operation_xyz
x,y,z
1/2-x,-y,1/2+z
1/2+x,1/2-y,-z
-x,1/2+y,1/2-z
-x,-y,-z
1/2+x,y,1/2-z
1/2-x,1/2+y,z
x,1/2-y,1/2+z
loop_
_atom_site_type_symbol
_atom_site_label
_atom_site_fract_x
_atom_site_fract_y
_atom_site_fract_z
Si Si1 0.976220 0.419598 0.430254
Si Si2 0.547583 0.456096 0.796158
Si Si3 0.484771 0.682483 0.272445
Si Si4 0.554942 0.777367 0.483413
Si Si5 0.777174 0.946855 0.807449
Si Si6 0.695753 0.201027 0.297071
Si Si7 0.198796 0.944884 0.974912
Si Si8 0.733009 0.795525 0.507611
O O1 0.988808 0.468175 0.294925
O O2 0.973685 0.341574 0.392008
O O3 0.894031 0.440218 0.503249
O O4 0.045707 0.432708 0.540760
O O5 0.501062 0.398143 0.712440
O O6 0.636516 0.460284 0.743146
O O7 0.512763 0.713451 0.417600
O O8 0.394073 0.696731 0.248074
O O9 0.534183 0.712719 0.144902
O O10 0.647492 0.767260 0.470762
O O11 0.773729 0.869829 0.858007
O O12 0.714100 0.960665 0.686831
O O13 0.760855 0.996811 0.934487
O O14 0.703906 0.258347 0.411646
O O15 0.748183 0.221921 0.166191
O O16 0.239471 0.874894 0.017319
#
# Coordination Sequence:
#
# PCOD8248783 Si02
#       8
#     8   8   8   8   8   8   8   8
#     4   8  15  30  52  72  92 127 169 198 233 297
#     4   8  15  30  52  70  91 124 164 201 235 280
#     4  10  19  32  52  75  99 130 167 208 248 294
#     4  10  19  32  52  75 100 132 169 204 246 297
#     4   9  18  32  51  74  98 128 164 203 247 294
#     4  10  20  34  52  75 104 134 169 209 254 299
#     4   9  18  32  50  72  98 128 164 204 246 292
#     4  10  20  34  51  74 104 135 166 208 253 302
#
# _framework density 19.459385000000001
#
# number of rings (size 3 to 8) (size 9 to 14) (size 15 to 20)
#    0.000    2.750    0.000    1.500    0.000    2.000 
#    0.000    5.000    0.000    1.500    0.000    0.000 
#    0.000    0.000    0.000    0.000    0.000    0.000 
#
# Total GULP energy -793123.888501 kJ/mol
# GULP energy per Si atom -12392.560758 kJ/mol
# Density = 1.941509 g / cm^3
# Si number density = 19.459385 Si / 1000 Ang^3
#
#
#
# Elastic Constant Matrix: (Units=GPa)
#
#
# Indices 1 2 3 4 5 6 
#
# 1 46.5465 15.1877 14.9776 0.0000 0.0000 0.0000
# 2 15.1877 80.0612 28.8125 0.0000 0.0000 0.0000
# 3 14.9776 28.8125 42.3120 0.0000 0.0000 0.0000
# 4 0.0000 0.0000 0.0000 32.0504 0.0000 0.0000
# 5 0.0000 0.0000 0.0000 0.0000 27.3487 0.0000
# 6 0.0000 0.0000 0.0000 0.0000 0.0000 22.5094
#
#
#
# Elastic Compliance Matrix: (Units=1/GPa)
#
#
# Indices 1 2 3 4 5 6 
#
# 1 0.024490 -0.002021 -0.007293 0.000000 0.000000 0.000000
# 2 -0.002021 0.016712 -0.010664 0.000000 0.000000 0.000000
# 3 -0.007293 -0.010664 0.033477 0.000000 0.000000 0.000000
# 4 0.000000 0.000000 0.000000 0.031201 0.000000 0.000000
# 5 0.000000 0.000000 0.000000 0.000000 0.036565 0.000000
# 6 0.000000 0.000000 0.000000 0.000000 0.000000 0.044426
#
#
# Mechanical properties :
#
#
# Convention : Reuss Voigt Hill
#
# Bulk Modulus (GPa) = 28.79975 31.87504 30.33740
# Shear Modulus (GPa) = 20.97299 23.71115 22.34207
#
# Velocity S-wave (km/s) = 3.28652 3.49448 3.39210
# Velocity P-wave (km/s) = 5.40682 5.71819 5.56468
#
# Compressibility (1/GPa) = 0.03472252
#
# Stress axis : x y z
#
# Youngs Moduli (GPa) = 40.83291 59.83778 29.87088
#
# Poissons Ratio (x) = 0.12095 0.21784
# Poissons Ratio (y) = 0.08254 0.31856
# Poissons Ratio (z) = 0.29778 0.63814
#
# Static dielectric constant tensor:
#      x y z
#    x 3.458450 0.000000 0.000000 
#    y 0.000000 3.966430 0.000000 
#    z 0.000000 0.000000 3.167840 
# 
# 
# High freq. dielectric constant tensor:
#      x y z
#    x 1.752470 0.000000 0.000000 
#    y 0.000000 1.771150 0.000000 
#    z 0.000000 0.000000 1.715140 
# 
# From -- ./inp_files/3734.got.cif
#   From: 2010.03.12/outbox.cif.g09.slc.cpg/sg61_2_cif.got.tgz:3734.got - 2010.04.10 19:05:03.
