data_PCOD8248148
_publ_section_title
;
Structure prediction by ZEFSAII (Michael W. Deem and Ramdas Pophale) SiO2 
 PCOD8248148
Probable space group: P B C N
;
_chemical_formula_sum "Si O2"
_cell_formula_units_Z 60
_cell_length_a 27.660449
_cell_length_b 9.094654
_cell_length_c 11.003313
_cell_angle_alpha 90.000000
_cell_angle_beta 90.000000
_cell_angle_gamma 90.000000
_cell_volume 2768.017770
_symmetry_space_group_name_H-M "P B C N"
_symmetry_group_IT_number 60
_symmetry_cell_setting 'orthorhombic'
loop_
_space_group_symop_operation_xyz
x,y,z
1/2-x,1/2-y,1/2+z
1/2+x,1/2-y,-z
-x,y,1/2-z
-x,-y,-z
1/2+x,1/2+y,1/2-z
1/2-x,1/2+y,z
x,-y,1/2+z
loop_
_atom_site_type_symbol
_atom_site_label
_atom_site_fract_x
_atom_site_fract_y
_atom_site_fract_z
Si Si1 0.813568 0.219451 0.425822
Si Si2 0.904401 0.205575 0.836097
Si Si3 0.500000 0.782348 0.250000
Si Si4 0.449967 0.889712 0.487463
Si Si5 0.808047 0.766322 0.204234
Si Si6 0.046818 0.692786 0.405232
Si Si7 0.918485 0.123512 0.386409
Si Si8 0.738989 0.991621 0.314553
O O1 0.826554 0.220049 0.567663
O O2 0.863938 0.180172 0.358936
O O3 0.774191 0.092301 0.397471
O O4 0.794815 0.383251 0.393989
O O5 0.905039 0.292303 0.966607
O O6 0.849219 0.189562 0.798782
O O7 0.934247 0.291722 0.731572
O O8 0.925553 0.048125 0.866688
O O9 0.477504 0.875666 0.359289
O O10 0.454110 0.688928 0.212375
O O11 0.489391 0.842158 0.591084
O O12 0.429747 0.056202 0.482363
O O13 0.792508 0.599390 0.231137
O O14 0.766161 0.885106 0.221334
O O15 0.062631 0.839209 0.478018
#
# Coordination Sequence:
#
# PCOD8248148 Si02
#       8
#     8   8   4   8   8   8   8   8
#     4  11  22  45  68  96 140 172 225 286 340 415
#     4  12  25  40  71 101 135 179 231 281 347 411
#     4  10  26  44  68 100 142 182 238 276 356 404
#     4  10  25  43  68  96 131 182 229 283 331 408
#     4  11  23  42  68 101 134 179 225 280 342 413
#     4  10  24  44  67  94 138 175 229 284 338 397
#     4  11  25  43  66 101 140 184 222 288 341 414
#     4  10  24  43  68 100 134 177 224 279 351 412
#
# _framework density 21.676161
#
# number of rings (size 3 to 8) (size 9 to 14) (size 15 to 20)
#    0.000    1.333    2.667    1.200   11.200    1.067 
#    0.000    1.333    0.000    0.000    0.000    0.000 
#    0.000    0.000    0.000    0.000    0.000    0.000 
#
# Total GULP energy -743477.697367 kJ/mol
# GULP energy per Si atom -12391.294956 kJ/mol
# Density = 2.162683 g / cm^3
# Si number density = 21.676161 Si / 1000 Ang^3
#
#
#
# Elastic Constant Matrix: (Units=GPa)
#
#
# Indices 1 2 3 4 5 6 
#
# 1 68.5673 28.2387 43.1854 0.0000 0.0000 0.0000
# 2 28.2387 126.8199 28.5830 0.0000 0.0000 0.0000
# 3 43.1854 28.5830 66.5498 0.0000 0.0000 0.0000
# 4 0.0000 0.0000 0.0000 23.6744 0.0000 0.0000
# 5 0.0000 0.0000 0.0000 0.0000 35.8379 0.0000
# 6 0.0000 0.0000 0.0000 0.0000 0.0000 27.5958
#
#
#
# Elastic Compliance Matrix: (Units=1/GPa)
#
#
# Indices 1 2 3 4 5 6 
#
# 1 0.025174 -0.002130 -0.015421 0.000000 0.000000 0.000000
# 2 -0.002130 0.008910 -0.002445 0.000000 0.000000 0.000000
# 3 -0.015421 -0.002445 0.026083 0.000000 0.000000 0.000000
# 4 0.000000 0.000000 0.000000 0.042240 0.000000 0.000000
# 5 0.000000 0.000000 0.000000 0.000000 0.027903 0.000000
# 6 0.000000 0.000000 0.000000 0.000000 0.000000 0.036237
#
#
# Mechanical properties :
#
#
# Convention : Reuss Voigt Hill
#
# Bulk Modulus (GPa) = 49.56337 51.32792 50.44565
# Shear Modulus (GPa) = 23.44495 28.21694 25.83095
#
# Velocity S-wave (km/s) = 3.29234 3.61189 3.45581
# Velocity P-wave (km/s) = 6.11291 6.41289 6.26470
#
# Compressibility (1/GPa) = 0.02017619
#
# Stress axis : x y z
#
# Youngs Moduli (GPa) = 39.72364 112.22729 38.33843
#
# Poissons Ratio (x) = 0.23902 0.59122
# Poissons Ratio (y) = 0.08460 0.09374
# Poissons Ratio (z) = 0.61258 0.27439
#
# Static dielectric constant tensor:
#      x y z
#    x 3.904360 0.000000 0.000000 
#    y 0.000000 4.073720 0.000000 
#    z 0.000000 0.000000 4.294920 
# 
# 
# High freq. dielectric constant tensor:
#      x y z
#    x 1.852480 0.000000 0.000000 
#    y 0.000000 1.865400 0.000000 
#    z 0.000000 0.000000 1.847640 
# 
# From -- ./inp_files/13382.got.cif
#   From: 2010.03.12/outbox.cif.g09.slc.cpg/sg60_7_cif.got.tgz:13382.got - 2010.04.10 18:46:24.
