data_PCOD8248066
_publ_section_title
;
Structure prediction by ZEFSAII (Michael W. Deem and Ramdas Pophale) SiO2 
 PCOD8248066
Probable space group: P B C N
;
_chemical_formula_sum "Si O2"
_cell_formula_units_Z 44
_cell_length_a 10.481279
_cell_length_b 8.658699
_cell_length_c 21.342458
_cell_angle_alpha 90.000000
_cell_angle_beta 90.000000
_cell_angle_gamma 90.000000
_cell_volume 1936.918555
_symmetry_space_group_name_H-M "P B C N"
_symmetry_group_IT_number 60
_symmetry_cell_setting 'orthorhombic'
loop_
_space_group_symop_operation_xyz
x,y,z
1/2-x,1/2-y,1/2+z
1/2+x,1/2-y,-z
-x,y,1/2-z
-x,-y,-z
1/2+x,1/2+y,1/2-z
1/2-x,1/2+y,z
x,-y,1/2+z
loop_
_atom_site_type_symbol
_atom_site_label
_atom_site_fract_x
_atom_site_fract_y
_atom_site_fract_z
Si Si1 0.874374 0.294695 0.973901
Si Si2 0.648258 0.116323 0.024973
Si Si3 0.500000 0.502767 0.750000
Si Si4 0.691653 0.256095 0.724493
Si Si5 0.401441 0.941367 0.834652
Si Si6 0.362387 0.746290 0.667030
O O1 0.838845 0.223311 0.906524
O O2 0.025927 0.270923 0.988947
O O3 0.780977 0.210493 0.023414
O O4 0.847439 0.478381 0.974488
O O5 0.628605 0.035654 0.092319
O O6 0.595200 0.394275 0.710499
O O7 0.430567 0.598063 0.696303
O O8 0.823132 0.290220 0.688038
O O9 0.725600 0.260745 0.798769
O O10 0.632864 0.093808 0.703903
O O11 0.549762 0.899423 0.822737
#
# Coordination Sequence:
#
# PCOD8248066 Si02
#       6
#     8   8   4   8   8   8
#     4  10  24  44  70 100 141 177 232 283 342 408
#     4  10  23  46  68 104 133 187 228 281 345 402
#     4  12  26  40  64 104 132 176 226 270 366 398
#     4  12  24  41  66 101 130 184 224 276 345 412
#     4  11  22  43  71  91 144 178 223 284 336 407
#     4  11  24  46  65 100 143 172 225 294 334 410
#
# _framework density 22.716494999999998
#
# number of rings (size 3 to 8) (size 9 to 14) (size 15 to 20)
#    0.000    1.091    3.636    1.091    5.091    2.182 
#    9.818    0.000    0.000    0.000    0.000    0.000 
#    0.000    0.000    0.000    0.000    0.000    0.000 
#
# Total GULP energy -545556.130739 kJ/mol
# GULP energy per Si atom -12399.002971 kJ/mol
# Density = 2.266479 g / cm^3
# Si number density = 22.716495 Si / 1000 Ang^3
#
#
#
# Elastic Constant Matrix: (Units=GPa)
#
#
# Indices 1 2 3 4 5 6 
#
# 1 88.4947 39.2541 46.3366 0.0000 0.0000 0.0000
# 2 39.2541 104.9713 48.2256 0.0000 0.0000 0.0000
# 3 46.3366 48.2256 95.1126 0.0000 0.0000 0.0000
# 4 0.0000 0.0000 0.0000 23.0981 0.0000 0.0000
# 5 0.0000 0.0000 0.0000 0.0000 30.6378 0.0000
# 6 0.0000 0.0000 0.0000 0.0000 0.0000 39.8307
#
#
#
# Elastic Compliance Matrix: (Units=1/GPa)
#
#
# Indices 1 2 3 4 5 6 
#
# 1 0.015914 -0.003115 -0.006174 0.000000 0.000000 0.000000
# 2 -0.003115 0.013029 -0.005089 0.000000 0.000000 0.000000
# 3 -0.006174 -0.005089 0.016102 0.000000 0.000000 0.000000
# 4 0.000000 0.000000 0.000000 0.043294 0.000000 0.000000
# 5 0.000000 0.000000 0.000000 0.000000 0.032639 0.000000
# 6 0.000000 0.000000 0.000000 0.000000 0.000000 0.025106
#
#
# Mechanical properties :
#
#
# Convention : Reuss Voigt Hill
#
# Bulk Modulus (GPa) = 61.38550 61.80123 61.59337
# Shear Modulus (GPa) = 27.73628 29.03083 28.38355
#
# Velocity S-wave (km/s) = 3.49804 3.57874 3.53862
# Velocity P-wave (km/s) = 6.58757 6.65890 6.62333
#
# Compressibility (1/GPa) = 0.01629049
#
# Stress axis : x y z
#
# Youngs Moduli (GPa) = 62.83603 76.75146 62.10513
#
# Poissons Ratio (x) = 0.23907 0.38342
# Poissons Ratio (y) = 0.19573 0.31604
# Poissons Ratio (z) = 0.38793 0.39057
#
# Static dielectric constant tensor:
#      x y z
#    x 4.388880 0.000000 0.000000 
#    y 0.000000 3.852460 0.000000 
#    z 0.000000 0.000000 4.021040 
# 
# 
# High freq. dielectric constant tensor:
#      x y z
#    x 1.907240 0.000000 0.000000 
#    y 0.000000 1.887300 0.000000 
#    z 0.000000 0.000000 1.889860 
# 
# From -- ./inp_files/24188.got.cif
#   From: 2010.03.12/outbox.cif.g09.slc.cpg/sg60_13_cif.got.tgz:24188.got - 2010.04.10 18:46:24.
