data_PCOD8248090
_publ_section_title
;
Structure prediction by ZEFSAII (Michael W. Deem and Ramdas Pophale) SiO2 
 PCOD8248090
Probable space group: P B C N
;
_chemical_formula_sum "Si O2"
_cell_formula_units_Z 60
_cell_length_a 8.638502
_cell_length_b 11.575162
_cell_length_c 24.190995
_cell_angle_alpha 90.000000
_cell_angle_beta 90.000000
_cell_angle_gamma 90.000000
_cell_volume 2418.907426
_symmetry_space_group_name_H-M "P B C N"
_symmetry_group_IT_number 60
_symmetry_cell_setting 'orthorhombic'
loop_
_space_group_symop_operation_xyz
x,y,z
1/2-x,1/2-y,1/2+z
1/2+x,1/2-y,-z
-x,y,1/2-z
-x,-y,-z
1/2+x,1/2+y,1/2-z
1/2-x,1/2+y,z
x,-y,1/2+z
loop_
_atom_site_type_symbol
_atom_site_label
_atom_site_fract_x
_atom_site_fract_y
_atom_site_fract_z
Si Si1 0.284930 0.344734 0.051705
Si Si2 0.000000 0.116809 0.750000
Si Si3 0.206930 0.247347 0.265980
Si Si4 0.605696 0.758051 0.550716
Si Si5 0.174099 0.622667 0.872379
Si Si6 0.178441 0.814075 0.646723
Si Si7 0.393461 0.555479 0.339594
Si Si8 0.592124 0.970464 0.907340
O O1 0.471810 0.340011 0.045460
O O2 0.237074 0.292784 0.111280
O O3 0.224958 0.478107 0.051130
O O4 0.200919 0.267502 0.005663
O O5 0.864907 0.207791 0.759594
O O6 0.988201 0.039971 0.695222
O O7 0.146323 0.346636 0.307807
O O8 0.115531 0.220894 0.208765
O O9 0.219193 0.128000 0.299322
O O10 0.736277 0.727816 0.596908
O O11 0.517198 0.877812 0.563012
O O12 0.280820 0.509862 0.881562
O O13 0.005502 0.586437 0.893561
O O14 0.316346 0.910945 0.644280
O O15 0.015042 0.867476 0.624872
#
# Coordination Sequence:
#
# PCOD8248090 Si02
#       8
#     8   4   8   8   8   8   8   8
#     4  11  25  45  72  99 137 185 230 298 358 417
#     4  10  24  38  66  92 138 182 220 280 330 396
#     4  11  24  41  69  98 142 181 231 276 343 410
#     4  11  25  48  70 101 139 178 238 295 350 430
#     4  11  25  43  71 101 140 185 231 285 353 413
#     4  11  25  43  68 100 139 175 236 284 341 422
#     4  11  22  44  63  99 134 184 224 285 340 407
#     4  11  25  44  72 102 136 184 232 291 359 421
#
# _framework density 24.804587999999999
#
# number of rings (size 3 to 8) (size 9 to 14) (size 15 to 20)
#    0.000    1.067    1.333    3.600   11.200    2.133 
#    0.000    6.667    0.000    0.000    0.000    0.000 
#    0.000    0.000    0.000    0.000    0.000    0.000 
#
# Total GULP energy -743414.677863 kJ/mol
# GULP energy per Si atom -12390.244631 kJ/mol
# Density = 2.474813 g / cm^3
# Si number density = 24.804588 Si / 1000 Ang^3
#
#
#
# Elastic Constant Matrix: (Units=GPa)
#
#
# Indices 1 2 3 4 5 6 
#
# 1 107.8226 29.3036 12.5482 0.0000 0.0000 0.0000
# 2 29.3036 72.5307 -4.5294 0.0000 0.0000 0.0000
# 3 12.5482 -4.5294 72.8392 0.0000 0.0000 0.0000
# 4 0.0000 0.0000 0.0000 19.1365 0.0000 0.0000
# 5 0.0000 0.0000 0.0000 0.0000 23.9642 0.0000
# 6 0.0000 0.0000 0.0000 0.0000 0.0000 58.7518
#
#
#
# Elastic Compliance Matrix: (Units=1/GPa)
#
#
# Indices 1 2 3 4 5 6 
#
# 1 0.010737 -0.004471 -0.002128 0.000000 0.000000 0.000000
# 2 -0.004471 0.015703 0.001747 0.000000 0.000000 0.000000
# 3 -0.002128 0.001747 0.014204 0.000000 0.000000 0.000000
# 4 0.000000 0.000000 0.000000 0.052256 0.000000 0.000000
# 5 0.000000 0.000000 0.000000 0.000000 0.041729 0.000000
# 6 0.000000 0.000000 0.000000 0.000000 0.000000 0.017021
#
#
# Mechanical properties :
#
#
# Convention : Reuss Voigt Hill
#
# Bulk Modulus (GPa) = 32.32065 36.42634 34.37350
# Shear Modulus (GPa) = 29.12615 34.76184 31.94400
#
# Velocity S-wave (km/s) = 3.43041 3.74763 3.59252
# Velocity P-wave (km/s) = 5.36178 5.78303 5.57639
#
# Compressibility (1/GPa) = 0.03093997
#
# Stress axis : x y z
#
# Youngs Moduli (GPa) = 93.13427 63.68354 70.40255
#
# Poissons Ratio (x) = 0.28472 0.14980
# Poissons Ratio (y) = 0.41639 -0.12297
# Poissons Ratio (z) = 0.19816 -0.11123
#
# Static dielectric constant tensor:
#      x y z
#    x 4.863070 0.000000 0.000000 
#    y 0.000000 4.618510 0.000000 
#    z 0.000000 0.000000 4.168240 
# 
# 
# High freq. dielectric constant tensor:
#      x y z
#    x 2.007700 0.000000 0.000000 
#    y 0.000000 1.996790 0.000000 
#    z 0.000000 0.000000 1.959280 
# 
# From -- ./inp_files/25198.got.cif
#   From: 2010.03.12/outbox.cif.g09.slc.cpg/sg60_13_cif.got.tgz:25198.got - 2010.04.10 18:46:24.
