data_PCOD8249324
_publ_section_title
;
Structure prediction by ZEFSAII (Michael W. Deem and Ramdas Pophale) SiO2 
 PCOD8249324
Probable space group: P B C A
;
_chemical_formula_sum "Si O2"
_cell_formula_units_Z 48
_cell_length_a 11.616482
_cell_length_b 17.130660
_cell_length_c 10.449398
_cell_angle_alpha 90.000000
_cell_angle_beta 90.000000
_cell_angle_gamma 90.000000
_cell_volume 2079.409340
_symmetry_space_group_name_H-M "P B C A"
_symmetry_group_IT_number 61
_symmetry_cell_setting 'orthorhombic'
loop_
_space_group_symop_operation_xyz
x,y,z
1/2-x,-y,1/2+z
1/2+x,1/2-y,-z
-x,1/2+y,1/2-z
-x,-y,-z
1/2+x,y,1/2-z
1/2-x,1/2+y,z
x,1/2-y,1/2+z
loop_
_atom_site_type_symbol
_atom_site_label
_atom_site_fract_x
_atom_site_fract_y
_atom_site_fract_z
Si Si1 0.937750 0.292629 0.999746
Si Si2 0.192869 0.918489 0.602645
Si Si3 0.957243 0.419233 0.661851
Si Si4 0.678449 0.795350 0.264832
Si Si5 0.376096 0.789339 0.633233
Si Si6 0.136178 0.548608 0.607908
O O1 0.871854 0.269184 0.129917
O O2 0.070297 0.267354 0.023127
O O3 0.919572 0.387041 0.976247
O O4 0.890316 0.245888 0.878977
O O5 0.155605 0.927810 0.750668
O O6 0.286153 0.850646 0.573086
O O7 0.250822 0.999797 0.561044
O O8 0.917401 0.409156 0.515364
O O9 0.025074 0.340553 0.703033
O O10 0.041724 0.493393 0.675514
O O11 0.811466 0.766941 0.266291
O O12 0.672918 0.888400 0.286202
#
# Coordination Sequence:
#
# PCOD8249324 Si02
#       6
#     8   8   8   8   8   8
#     4  11  24  43  65 103 137 177 231 286 347 408
#     4  10  24  41  68  99 132 180 231 275 341 415
#     4  10  21  45  68  93 137 182 225 278 348 398
#     4  11  25  42  67 100 135 180 231 279 349 409
#     4  10  21  42  67  97 133 178 220 286 335 407
#     4  10  23  43  68  95 135 185 226 285 341 408
#
# _framework density 23.083477999999999
#
# number of rings (size 3 to 8) (size 9 to 14) (size 15 to 20)
#    0.000    1.667    1.667    2.000    2.333    6.667 
#    3.000    1.667    0.000    0.000    0.000    0.000 
#    0.000    0.000    0.000    0.000    0.000    0.000 
#
# Total GULP energy -594814.665810 kJ/mol
# GULP energy per Si atom -12391.972204 kJ/mol
# Density = 2.303094 g / cm^3
# Si number density = 23.083478 Si / 1000 Ang^3
#
#
#
# Elastic Constant Matrix: (Units=GPa)
#
#
# Indices 1 2 3 4 5 6 
#
# 1 80.2227 34.7824 26.2541 0.0000 0.0000 0.0000
# 2 34.7824 83.9412 18.8712 0.0000 0.0000 0.0000
# 3 26.2541 18.8712 92.1784 0.0000 0.0000 0.0000
# 4 0.0000 0.0000 0.0000 28.3083 0.0000 0.0000
# 5 0.0000 0.0000 0.0000 0.0000 30.3019 0.0000
# 6 0.0000 0.0000 0.0000 0.0000 0.0000 44.9686
#
#
#
# Elastic Compliance Matrix: (Units=1/GPa)
#
#
# Indices 1 2 3 4 5 6 
#
# 1 0.016143 -0.005928 -0.003384 0.000000 0.000000 0.000000
# 2 -0.005928 0.014665 -0.001314 0.000000 0.000000 0.000000
# 3 -0.003384 -0.001314 0.012081 0.000000 0.000000 0.000000
# 4 0.000000 0.000000 0.000000 0.035325 0.000000 0.000000
# 5 0.000000 0.000000 0.000000 0.000000 0.033001 0.000000
# 6 0.000000 0.000000 0.000000 0.000000 0.000000 0.022238
#
#
# Mechanical properties :
#
#
# Convention : Reuss Voigt Hill
#
# Bulk Modulus (GPa) = 46.21742 46.23973 46.22857
# Shear Modulus (GPa) = 30.87967 32.47807 31.67887
#
# Velocity S-wave (km/s) = 3.66148 3.75505 3.70856
# Velocity P-wave (km/s) = 6.15959 6.23502 6.19742
#
# Compressibility (1/GPa) = 0.02163687
#
# Stress axis : x y z
#
# Youngs Moduli (GPa) = 61.94553 68.18962 82.77207
#
# Poissons Ratio (x) = 0.40425 0.28012
# Poissons Ratio (y) = 0.36724 0.10874
# Poissons Ratio (z) = 0.20964 0.08959
#
# Static dielectric constant tensor:
#      x y z
#    x 4.600820 0.000000 0.000000 
#    y 0.000000 4.478110 0.000000 
#    z 0.000000 0.000000 3.843130 
# 
# 
# High freq. dielectric constant tensor:
#      x y z
#    x 1.912740 0.000000 0.000000 
#    y 0.000000 1.918990 0.000000 
#    z 0.000000 0.000000 1.888970 
# 
# From -- ./inp_files/5230.got.cif
#   From: 2010.03.12/outbox.cif.g09.slc.cpg/sg61_3_cif.got.tgz:5230.got - 2010.04.10 19:05:03.
