data_PCOD8249642
_publ_section_title
;
Structure prediction by ZEFSAII (Michael W. Deem and Ramdas Pophale) SiO2 
 PCOD8249642
Probable space group: P B C A
;
_chemical_formula_sum "Si O2"
_cell_formula_units_Z 56
_cell_length_a 20.738603
_cell_length_b 8.687739
_cell_length_c 14.146634
_cell_angle_alpha 90.000000
_cell_angle_beta 90.000000
_cell_angle_gamma 90.000000
_cell_volume 2548.821259
_symmetry_space_group_name_H-M "P B C A"
_symmetry_group_IT_number 61
_symmetry_cell_setting 'orthorhombic'
loop_
_space_group_symop_operation_xyz
x,y,z
1/2-x,-y,1/2+z
1/2+x,1/2-y,-z
-x,1/2+y,1/2-z
-x,-y,-z
1/2+x,y,1/2-z
1/2-x,1/2+y,z
x,1/2-y,1/2+z
loop_
_atom_site_type_symbol
_atom_site_label
_atom_site_fract_x
_atom_site_fract_y
_atom_site_fract_z
Si Si1 0.335489 0.741809 0.282393
Si Si2 0.575696 0.287540 0.886028
Si Si3 0.746010 0.518846 0.628977
Si Si4 0.075949 0.861533 0.116607
Si Si5 0.836377 0.227679 0.040923
Si Si6 0.053465 0.179789 0.414681
Si Si7 0.445101 0.341559 0.331750
O O1 0.359077 0.737512 0.174109
O O2 0.284060 0.877112 0.295546
O O3 0.304001 0.578966 0.309521
O O4 0.396694 0.772528 0.349606
O O5 0.567728 0.463754 0.918609
O O6 0.514187 0.241004 0.821910
O O7 0.580350 0.180248 0.978279
O O8 0.706125 0.619469 0.553454
O O9 0.794512 0.420187 0.566818
O O10 0.086209 0.861387 0.228868
O O11 0.014960 0.762658 0.084957
O O12 0.139119 0.787675 0.066969
O O13 0.898441 0.231390 0.109077
O O14 0.045666 0.005081 0.381768
#
# Coordination Sequence:
#
# PCOD8249642 Si02
#       7
#     8   8   8   8   8   8   8
#     4  11  23  47  70 100 142 178 238 279 346 415
#     4  12  25  42  70 108 139 181 226 287 364 412
#     4  10  24  47  71  96 143 194 228 290 327 417
#     4  12  24  43  70 108 141 179 229 288 358 419
#     4  11  24  46  71 100 141 181 239 283 345 415
#     4  12  24  43  71 106 143 173 228 293 356 418
#     4  12  24  44  69 108 143 175 227 296 354 418
#
# _framework density 21.970942000000001
#
# number of rings (size 3 to 8) (size 9 to 14) (size 15 to 20)
#    0.000    0.571    5.714    1.714    2.000    1.143 
#    0.000   15.714    0.000    0.000    0.000    0.000 
#    0.000    0.000    0.000    0.000    0.000    0.000 
#
# Total GULP energy -694780.027533 kJ/mol
# GULP energy per Si atom -12406.786206 kJ/mol
# Density = 2.192093 g / cm^3
# Si number density = 21.970942 Si / 1000 Ang^3
#
#
#
# Elastic Constant Matrix: (Units=GPa)
#
#
# Indices 1 2 3 4 5 6 
#
# 1 120.6860 66.5126 60.2660 0.0000 0.0000 0.0000
# 2 66.5126 121.9718 65.4284 0.0000 0.0000 0.0000
# 3 60.2660 65.4284 148.5221 0.0000 0.0000 0.0000
# 4 0.0000 0.0000 0.0000 22.0609 0.0000 0.0000
# 5 0.0000 0.0000 0.0000 0.0000 28.7896 0.0000
# 6 0.0000 0.0000 0.0000 0.0000 0.0000 26.8769
#
#
#
# Elastic Compliance Matrix: (Units=1/GPa)
#
#
# Indices 1 2 3 4 5 6 
#
# 1 0.012644 -0.005425 -0.002741 0.000000 0.000000 0.000000
# 2 -0.005425 0.013063 -0.003553 0.000000 0.000000 0.000000
# 3 -0.002741 -0.003553 0.009411 0.000000 0.000000 0.000000
# 4 0.000000 0.000000 0.000000 0.045329 0.000000 0.000000
# 5 0.000000 0.000000 0.000000 0.000000 0.034735 0.000000
# 6 0.000000 0.000000 0.000000 0.000000 0.000000 0.037207
#
#
# Mechanical properties :
#
#
# Convention : Reuss Voigt Hill
#
# Bulk Modulus (GPa) = 85.61913 86.17709 85.89811
# Shear Modulus (GPa) = 27.82106 28.81034 28.31570
#
# Velocity S-wave (km/s) = 3.56232 3.62511 3.59385
# Velocity P-wave (km/s) = 7.48158 7.53858 7.51014
#
# Compressibility (1/GPa) = 0.01167963
#
# Stress axis : x y z
#
# Youngs Moduli (GPa) = 79.08623 76.55239 106.26351
#
# Poissons Ratio (x) = 0.41528 0.29126
# Poissons Ratio (y) = 0.42903 0.37759
# Poissons Ratio (z) = 0.21677 0.27202
#
# Static dielectric constant tensor:
#      x y z
#    x 4.155770 0.000000 0.000000 
#    y 0.000000 4.026170 0.000000 
#    z 0.000000 0.000000 3.907670 
# 
# 
# High freq. dielectric constant tensor:
#      x y z
#    x 1.873660 0.000000 0.000000 
#    y 0.000000 1.871680 0.000000 
#    z 0.000000 0.000000 1.860600 
# 
# From -- ./inp_files/8386.got.cif
#   From: 2010.03.12/outbox.cif.g09.slc.cpg/sg61_5_cif.got.tgz:8386.got - 2010.04.10 19:05:03.
