data_PCOD8249124
_publ_section_title
;
Structure prediction by ZEFSAII (Michael W. Deem and Ramdas Pophale) SiO2 
 PCOD8249124
Probable space group: P B C A
;
_chemical_formula_sum "Si O2"
_cell_formula_units_Z 40
_cell_length_a 16.021565
_cell_length_b 10.816685
_cell_length_c 8.929954
_cell_angle_alpha 90.000000
_cell_angle_beta 90.000000
_cell_angle_gamma 90.000000
_cell_volume 1547.563009
_symmetry_space_group_name_H-M "P B C A"
_symmetry_group_IT_number 61
_symmetry_cell_setting 'orthorhombic'
loop_
_space_group_symop_operation_xyz
x,y,z
1/2-x,-y,1/2+z
1/2+x,1/2-y,-z
-x,1/2+y,1/2-z
-x,-y,-z
1/2+x,y,1/2-z
1/2-x,1/2+y,z
x,1/2-y,1/2+z
loop_
_atom_site_type_symbol
_atom_site_label
_atom_site_fract_x
_atom_site_fract_y
_atom_site_fract_z
Si Si1 0.343753 0.593930 0.169284
Si Si2 0.794224 0.031875 0.541733
Si Si3 0.051269 0.802281 0.514024
Si Si4 0.030169 0.920994 0.827980
Si Si5 0.890378 0.867317 0.330571
O O1 0.286873 0.523123 0.291366
O O2 0.294067 0.589662 0.011679
O O3 0.434881 0.532587 0.151082
O O4 0.359697 0.734530 0.226190
O O5 0.816569 0.921233 0.430312
O O6 0.863307 0.138199 0.541862
O O7 0.056010 0.655867 0.476605
O O8 0.973151 0.865345 0.432053
O O9 0.039199 0.823589 0.690773
O O10 0.088990 0.040932 0.808553
#
# Coordination Sequence:
#
# PCOD8249124 Si02
#       5
#     8   8   8   8   8
#     4  11  24  44  75 111 149 198 243 318 380 443
#     4  11  23  48  72 106 154 190 247 310 388 443
#     4  10  20  44  78 102 145 192 247 309 367 445
#     4  10  20  45  76 110 144 197 256 301 366 452
#     4  10  21  46  77  99 146 193 256 305 364 460
#
# _framework density 25.847090999999999
#
# number of rings (size 3 to 8) (size 9 to 14) (size 15 to 20)
#    0.000    1.600    4.000    1.200    0.000    1.600 
#   18.000    6.000    0.000    0.000    0.000    0.000 
#    0.000    0.000    0.000    0.000    0.000    0.000 
#
# Total GULP energy -496035.980803 kJ/mol
# GULP energy per Si atom -12400.899520 kJ/mol
# Density = 2.578826 g / cm^3
# Si number density = 25.847091 Si / 1000 Ang^3
#
#
#
# Elastic Constant Matrix: (Units=GPa)
#
#
# Indices 1 2 3 4 5 6 
#
# 1 102.3647 48.0430 51.9626 0.0000 0.0000 0.0000
# 2 48.0430 119.0433 53.0017 0.0000 0.0000 0.0000
# 3 51.9626 53.0017 84.5654 0.0000 0.0000 0.0000
# 4 0.0000 0.0000 0.0000 43.1010 0.0000 0.0000
# 5 0.0000 0.0000 0.0000 0.0000 49.6967 0.0000
# 6 0.0000 0.0000 0.0000 0.0000 0.0000 33.3686
#
#
#
# Elastic Compliance Matrix: (Units=1/GPa)
#
#
# Indices 1 2 3 4 5 6 
#
# 1 0.014783 -0.002666 -0.007413 0.000000 0.000000 0.000000
# 2 -0.002666 0.012132 -0.005966 0.000000 0.000000 0.000000
# 3 -0.007413 -0.005966 0.020120 0.000000 0.000000 0.000000
# 4 0.000000 0.000000 0.000000 0.023201 0.000000 0.000000
# 5 0.000000 0.000000 0.000000 0.000000 0.020122 0.000000
# 6 0.000000 0.000000 0.000000 0.000000 0.000000 0.029968
#
#
# Mechanical properties :
#
#
# Convention : Reuss Voigt Hill
#
# Bulk Modulus (GPa) = 66.90975 67.99868 67.45421
# Shear Modulus (GPa) = 31.76663 35.43099 33.59881
#
# Velocity S-wave (km/s) = 3.50954 3.70644 3.60933
# Velocity P-wave (km/s) = 6.50888 6.68447 6.59726
#
# Compressibility (1/GPa) = 0.01494551
#
# Stress axis : x y z
#
# Youngs Moduli (GPa) = 67.64509 82.42421 49.70300
#
# Poissons Ratio (x) = 0.21971 0.36845
# Poissons Ratio (y) = 0.18031 0.29653
# Poissons Ratio (z) = 0.50145 0.49175
#
# Static dielectric constant tensor:
#      x y z
#    x 4.584710 0.000000 0.000000 
#    y 0.000000 4.618450 0.000000 
#    z 0.000000 0.000000 4.585370 
# 
# 
# High freq. dielectric constant tensor:
#      x y z
#    x 2.031390 0.000000 0.000000 
#    y 0.000000 2.033730 0.000000 
#    z 0.000000 0.000000 2.035120 
# 
# From -- ./inp_files/3281.got.cif
#   From: 2010.03.12/outbox.cif.g09.slc.cpg/sg61_2_cif.got.tgz:3281.got - 2010.04.10 19:05:03.
