data_PCOD8249980
_publ_section_title
;
Structure prediction by ZEFSAII (Michael W. Deem and Ramdas Pophale) SiO2 
 PCOD8249980
Probable space group: P N M A
;
_chemical_formula_sum "Si O2"
_cell_formula_units_Z 40
_cell_length_a 9.718606
_cell_length_b 13.334913
_cell_length_c 19.340485
_cell_angle_alpha 90.000000
_cell_angle_beta 90.000000
_cell_angle_gamma 90.000000
_cell_volume 2506.464299
_symmetry_space_group_name_H-M "P N M A"
_symmetry_group_IT_number 62
_symmetry_cell_setting 'orthorhombic'
loop_
_space_group_symop_operation_xyz
x,y,z
1/2-x,-y,1/2+z
1/2+x,1/2-y,1/2-z
-x,1/2+y,-z
-x,-y,-z
1/2+x,y,1/2-z
1/2-x,1/2+y,1/2+z
x,1/2-y,z
loop_
_atom_site_type_symbol
_atom_site_label
_atom_site_fract_x
_atom_site_fract_y
_atom_site_fract_z
Si Si1 0.390923 0.631233 0.636058
Si Si2 0.186542 0.632244 0.901361
Si Si3 0.894631 0.446240 0.402983
Si Si4 0.409172 0.631251 0.794820
Si Si5 0.596393 0.135368 0.987287
O O1 0.372991 0.750000 0.629038
O O2 0.531306 0.589984 0.600578
O O3 0.266668 0.577707 0.596861
O O4 0.394276 0.598539 0.715979
O O5 0.176738 0.750000 0.892304
O O6 0.274400 0.592712 0.835872
O O7 0.263292 0.604399 0.972489
O O8 0.917037 0.563566 0.421029
O O9 0.957396 0.422832 0.327707
O O10 0.967820 0.377719 0.460989
O O11 0.432263 0.750000 0.802462
O O12 0.600739 0.250000 0.961553
#
# Coordination Sequence:
#
# PCOD8249980 Si02
#       5
#     8   8   8   8   8
#     4  10  17  25  42  68  92 111 136 174 216 259
#     4   8  15  26  39  58  87 116 138 170 216 255
#     4  10  18  28  47  67  84 114 149 176 209 260
#     4   9  16  27  42  64  93 115 134 169 220 268
#     4   9  18  32  45  60  86 117 148 180 212 249
#
# _framework density 15.958736
#
# number of rings (size 3 to 8) (size 9 to 14) (size 15 to 20)
#    0.000    2.800    0.000    4.200    0.000    4.000 
#    0.000    0.000    0.000    1.200    0.000    0.000 
#    0.000    0.000    0.000    0.000    0.000    0.000 
#
# Total GULP energy -495872.593514 kJ/mol
# GULP energy per Si atom -12396.814838 kJ/mol
# Density = 1.592241 g / cm^3
# Si number density = 15.958736 Si / 1000 Ang^3
#
#
#
# Elastic Constant Matrix: (Units=GPa)
#
#
# Indices 1 2 3 4 5 6 
#
# 1 125.1103 23.3239 26.3258 0.0000 0.0000 0.0000
# 2 23.3239 56.4302 32.3616 0.0000 0.0000 0.0000
# 3 26.3258 32.3616 45.1300 0.0000 0.0000 0.0000
# 4 0.0000 0.0000 0.0000 16.6208 0.0000 0.0000
# 5 0.0000 0.0000 0.0000 0.0000 14.9291 0.0000
# 6 0.0000 0.0000 0.0000 0.0000 0.0000 15.0807
#
#
#
# Elastic Compliance Matrix: (Units=1/GPa)
#
#
# Indices 1 2 3 4 5 6 
#
# 1 0.009161 -0.001226 -0.004465 0.000000 0.000000 0.000000
# 2 -0.001226 0.030262 -0.020985 0.000000 0.000000 0.000000
# 3 -0.004465 -0.020985 0.039811 0.000000 0.000000 0.000000
# 4 0.000000 0.000000 0.000000 0.060165 0.000000 0.000000
# 5 0.000000 0.000000 0.000000 0.000000 0.066983 0.000000
# 6 0.000000 0.000000 0.000000 0.000000 0.000000 0.066310
#
#
# Mechanical properties :
#
#
# Convention : Reuss Voigt Hill
#
# Bulk Modulus (GPa) = 38.63686 43.41033 41.02360
# Shear Modulus (GPa) = 14.94001 18.97007 16.95504
#
# Velocity S-wave (km/s) = 3.06300 3.45149 3.26303
# Velocity P-wave (km/s) = 6.06402 6.56843 6.32126
#
# Compressibility (1/GPa) = 0.02588202
#
# Stress axis : x y z
#
# Youngs Moduli (GPa) = 109.15855 33.04438 25.11892
#
# Poissons Ratio (x) = 0.04051 0.11215
# Poissons Ratio (y) = 0.13383 0.52713
# Poissons Ratio (z) = 0.48737 0.69344
#
# Static dielectric constant tensor:
#      x y z
#    x 3.460650 0.000000 0.000000 
#    y 0.000000 2.686310 0.000000 
#    z 0.000000 0.000000 2.877800 
# 
# 
# High freq. dielectric constant tensor:
#      x y z
#    x 1.628880 0.000000 0.000000 
#    y 0.000000 1.567930 0.000000 
#    z 0.000000 0.000000 1.595470 
# 
# From -- ./inp_files/16648.got.cif
#   From: 2010.03.12/outbox.cif.g09.slc.cpg/sg62_9_cif.got.tgz:16648.got - 2010.04.10 19:12:36.
