data_PCOD8249611
_publ_section_title
;
Structure prediction by ZEFSAII (Michael W. Deem and Ramdas Pophale) SiO2 
 PCOD8249611
Probable space group: P B C A
;
_chemical_formula_sum "Si O2"
_cell_formula_units_Z 56
_cell_length_a 23.672657
_cell_length_b 9.514305
_cell_length_c 10.969991
_cell_angle_alpha 90.000000
_cell_angle_beta 90.000000
_cell_angle_gamma 90.000000
_cell_volume 2470.758774
_symmetry_space_group_name_H-M "P B C A"
_symmetry_group_IT_number 61
_symmetry_cell_setting 'orthorhombic'
loop_
_space_group_symop_operation_xyz
x,y,z
1/2-x,-y,1/2+z
1/2+x,1/2-y,-z
-x,1/2+y,1/2-z
-x,-y,-z
1/2+x,y,1/2-z
1/2-x,1/2+y,z
x,1/2-y,1/2+z
loop_
_atom_site_type_symbol
_atom_site_label
_atom_site_fract_x
_atom_site_fract_y
_atom_site_fract_z
Si Si1 0.768192 0.744491 0.277828
Si Si2 0.520087 0.184727 0.827258
Si Si3 0.563247 0.272431 0.582669
Si Si4 0.602180 0.558031 0.655445
Si Si5 0.174520 0.681203 0.387707
Si Si6 0.125132 0.066678 0.772861
Si Si7 0.816646 0.033141 0.871414
O O1 0.741127 0.703065 0.145141
O O2 0.823551 0.837606 0.273129
O O3 0.717869 0.827489 0.340334
O O4 0.779293 0.606486 0.358555
O O5 0.525353 0.287381 0.708475
O O6 0.460238 0.112055 0.821347
O O7 0.572161 0.073257 0.820594
O O8 0.526414 0.257273 0.960886
O O9 0.599189 0.417549 0.572999
O O10 0.604771 0.138630 0.598678
O O11 0.641855 0.672730 0.587188
O O12 0.628852 0.518060 0.785706
O O13 0.143042 0.596419 0.278330
O O14 0.166185 0.563097 0.490737
#
# Coordination Sequence:
#
# PCOD8249611 Si02
#       7
#     8   8   8   8   8   8   8
#     4  11  23  46  62 102 132 177 233 283 347 411
#     4  10  25  42  75 102 140 182 231 285 352 418
#     4  10  24  44  71 100 138 186 223 286 344 416
#     4  11  25  45  67 104 141 176 240 277 354 417
#     4  11  27  42  70  98 137 182 229 293 347 416
#     4  10  24  42  69  98 136 178 232 273 354 408
#     4  11  25  43  71  98 138 183 229 295 343 414
#
# _framework density 22.665102000000001
#
# number of rings (size 3 to 8) (size 9 to 14) (size 15 to 20)
#    0.857    0.571    2.857    0.429   10.000    2.286 
#    0.000    2.143    0.000    0.000    0.000    0.000 
#    0.000    0.000    0.000    0.000    0.000    0.000 
#
# Total GULP energy -693787.002231 kJ/mol
# GULP energy per Si atom -12389.053611 kJ/mol
# Density = 2.261352 g / cm^3
# Si number density = 22.665102 Si / 1000 Ang^3
#
#
#
# Elastic Constant Matrix: (Units=GPa)
#
#
# Indices 1 2 3 4 5 6 
#
# 1 107.6224 3.7368 4.5105 0.0000 0.0000 0.0000
# 2 3.7368 80.5771 -3.9883 0.0000 0.0000 0.0000
# 3 4.5105 -3.9883 82.2151 0.0000 0.0000 0.0000
# 4 0.0000 0.0000 0.0000 16.6505 0.0000 0.0000
# 5 0.0000 0.0000 0.0000 0.0000 13.9835 0.0000
# 6 0.0000 0.0000 0.0000 0.0000 0.0000 29.5824
#
#
#
# Elastic Compliance Matrix: (Units=1/GPa)
#
#
# Indices 1 2 3 4 5 6 
#
# 1 0.009330 -0.000459 -0.000534 0.000000 0.000000 0.000000
# 2 -0.000459 0.012463 0.000630 0.000000 0.000000 0.000000
# 3 -0.000534 0.000630 0.012223 0.000000 0.000000 0.000000
# 4 0.000000 0.000000 0.000000 0.060058 0.000000 0.000000
# 5 0.000000 0.000000 0.000000 0.000000 0.071513 0.000000
# 6 0.000000 0.000000 0.000000 0.000000 0.000000 0.033804
#
#
# Mechanical properties :
#
#
# Convention : Reuss Voigt Hill
#
# Bulk Modulus (GPa) = 30.03986 30.99250 30.51618
# Shear Modulus (GPa) = 23.67263 29.78700 26.72981
#
# Velocity S-wave (km/s) = 3.23531 3.62915 3.43787
# Velocity P-wave (km/s) = 5.21908 5.59149 5.40850
#
# Compressibility (1/GPa) = 0.03328910
#
# Stress axis : x y z
#
# Youngs Moduli (GPa) = 107.18028 80.23792 81.81255
#
# Poissons Ratio (x) = 0.03684 0.04370
# Poissons Ratio (y) = 0.04921 -0.05152
# Poissons Ratio (z) = 0.05725 -0.05053
#
# Static dielectric constant tensor:
#      x y z
#    x 4.074490 0.000000 0.000000 
#    y 0.000000 4.120440 0.000000 
#    z 0.000000 0.000000 3.974980 
# 
# 
# High freq. dielectric constant tensor:
#      x y z
#    x 1.896370 0.000000 0.000000 
#    y 0.000000 1.896620 0.000000 
#    z 0.000000 0.000000 1.877540 
# 
# From -- ./inp_files/6614.got.cif
#   From: 2010.03.12/outbox.cif.g09.slc.cpg/sg61_4_cif.got.tgz:6614.got - 2010.04.10 19:05:03.
