data_PCOD8249341
_publ_section_title
;
Structure prediction by ZEFSAII (Michael W. Deem and Ramdas Pophale) SiO2 
 PCOD8249341
Probable space group: P B C A
;
_chemical_formula_sum "Si O2"
_cell_formula_units_Z 64
_cell_length_a 20.302459
_cell_length_b 16.060586
_cell_length_c 9.608083
_cell_angle_alpha 90.000000
_cell_angle_beta 90.000000
_cell_angle_gamma 90.000000
_cell_volume 3132.901751
_symmetry_space_group_name_H-M "P B C A"
_symmetry_group_IT_number 61
_symmetry_cell_setting 'orthorhombic'
loop_
_space_group_symop_operation_xyz
x,y,z
1/2-x,-y,1/2+z
1/2+x,1/2-y,-z
-x,1/2+y,1/2-z
-x,-y,-z
1/2+x,y,1/2-z
1/2-x,1/2+y,z
x,1/2-y,1/2+z
loop_
_atom_site_type_symbol
_atom_site_label
_atom_site_fract_x
_atom_site_fract_y
_atom_site_fract_z
Si Si1 0.864473 0.616644 0.474443
Si Si2 0.609031 0.950440 0.958993
Si Si3 0.402097 0.470567 0.225826
Si Si4 0.447517 0.576955 0.756492
Si Si5 0.661737 0.702661 0.790766
Si Si6 0.535212 0.702290 0.381413
Si Si7 0.041082 0.257688 0.630231
Si Si8 0.718785 0.674438 0.490718
O O1 0.872127 0.547908 0.355813
O O2 0.905585 0.584909 0.604722
O O3 0.889630 0.705320 0.417690
O O4 0.789834 0.635119 0.516310
O O5 0.548752 0.884888 0.957161
O O6 0.595493 0.018385 0.842728
O O7 0.611563 0.989823 0.112120
O O8 0.676096 0.900722 0.924388
O O9 0.480427 0.458135 0.203171
O O10 0.359966 0.391142 0.171448
O O11 0.452984 0.663456 0.677438
O O12 0.597718 0.759885 0.803446
O O13 0.687182 0.705752 0.633915
O O14 0.717582 0.743473 0.891008
O O15 0.482917 0.685751 0.258934
O O16 0.508436 0.765335 0.498792
#
# Coordination Sequence:
#
# PCOD8249341 Si02
#       8
#     8   8   8   8   8   8   8   8
#     4  12  28  41  61  98 138 174 219 273 331 395
#     4  10  23  41  68  93 127 175 217 270 328 396
#     4  11  22  43  68 100 128 168 221 277 335 391
#     4  12  24  41  67 100 133 168 216 277 346 394
#     4  10  21  43  71  92 127 171 222 271 317 396
#     4  11  20  41  68  98 129 163 219 274 335 387
#     4  12  23  39  64 100 135 166 215 277 342 392
#     4  10  25  45  62  95 127 180 230 260 325 397
#
# _framework density 20.428346999999999
#
# number of rings (size 3 to 8) (size 9 to 14) (size 15 to 20)
#    0.000    1.000    3.750    3.000    3.500    5.000 
#    0.000    0.000    0.000    0.000    0.000    0.000 
#    0.000    0.000    0.000    0.000    0.000    0.000 
#
# Total GULP energy -793518.831689 kJ/mol
# GULP energy per Si atom -12398.731745 kJ/mol
# Density = 2.038185 g / cm^3
# Si number density = 20.428347 Si / 1000 Ang^3
#
#
#
# Elastic Constant Matrix: (Units=GPa)
#
#
# Indices 1 2 3 4 5 6 
#
# 1 67.2139 33.5335 29.3488 0.0000 0.0000 0.0000
# 2 33.5335 72.2540 40.9531 0.0000 0.0000 0.0000
# 3 29.3488 40.9531 111.1515 0.0000 0.0000 0.0000
# 4 0.0000 0.0000 0.0000 32.9989 0.0000 0.0000
# 5 0.0000 0.0000 0.0000 0.0000 13.7408 0.0000
# 6 0.0000 0.0000 0.0000 0.0000 0.0000 26.9680
#
#
#
# Elastic Compliance Matrix: (Units=1/GPa)
#
#
# Indices 1 2 3 4 5 6 
#
# 1 0.019828 -0.007880 -0.002332 0.000000 0.000000 0.000000
# 2 -0.007880 0.020625 -0.005518 0.000000 0.000000 0.000000
# 3 -0.002332 -0.005518 0.011646 0.000000 0.000000 0.000000
# 4 0.000000 0.000000 0.000000 0.030304 0.000000 0.000000
# 5 0.000000 0.000000 0.000000 0.000000 0.072776 0.000000
# 6 0.000000 0.000000 0.000000 0.000000 0.000000 0.037081
#
#
# Mechanical properties :
#
#
# Convention : Reuss Voigt Hill
#
# Bulk Modulus (GPa) = 48.45652 50.92114 49.68883
# Shear Modulus (GPa) = 21.68256 24.52716 23.10486
#
# Velocity S-wave (km/s) = 3.26144 3.46879 3.36671
# Velocity P-wave (km/s) = 6.16071 6.40501 6.28405
#
# Compressibility (1/GPa) = 0.02063706
#
# Stress axis : x y z
#
# Youngs Moduli (GPa) = 50.43447 48.48427 85.86875
#
# Poissons Ratio (x) = 0.38208 0.20023
# Poissons Ratio (y) = 0.39745 0.47386
# Poissons Ratio (z) = 0.11761 0.26756
#
# Static dielectric constant tensor:
#      x y z
#    x 3.717800 0.000000 0.000000 
#    y 0.000000 3.778030 0.000000 
#    z 0.000000 0.000000 3.888280 
# 
# 
# High freq. dielectric constant tensor:
#      x y z
#    x 1.788300 0.000000 0.000000 
#    y 0.000000 1.799160 0.000000 
#    z 0.000000 0.000000 1.813080 
# 
# From -- ./inp_files/4075.got.cif
#   From: 2010.03.12/outbox.cif.g09.slc.cpg/sg61_3_cif.got.tgz:4075.got - 2010.04.10 19:05:03.
