data_PCOD8249768
_publ_section_title
;
Structure prediction by ZEFSAII (Michael W. Deem and Ramdas Pophale) SiO2 
 PCOD8249768
Probable space group: P B C A
;
_chemical_formula_sum "Si O2"
_cell_formula_units_Z 48
_cell_length_a 13.727458
_cell_length_b 17.145165
_cell_length_c 8.466486
_cell_angle_alpha 90.000000
_cell_angle_beta 90.000000
_cell_angle_gamma 90.000000
_cell_volume 1992.668186
_symmetry_space_group_name_H-M "P B C A"
_symmetry_group_IT_number 61
_symmetry_cell_setting 'orthorhombic'
loop_
_space_group_symop_operation_xyz
x,y,z
1/2-x,-y,1/2+z
1/2+x,1/2-y,-z
-x,1/2+y,1/2-z
-x,-y,-z
1/2+x,y,1/2-z
1/2-x,1/2+y,z
x,1/2-y,1/2+z
loop_
_atom_site_type_symbol
_atom_site_label
_atom_site_fract_x
_atom_site_fract_y
_atom_site_fract_z
Si Si1 0.840002 0.007577 0.166553
Si Si2 0.566063 0.269190 0.961436
Si Si3 0.398067 0.170125 0.258611
Si Si4 0.717547 0.771341 0.452877
Si Si5 0.528992 0.366576 0.262395
Si Si6 0.671434 0.569384 0.819781
O O1 0.882952 0.078272 0.270261
O O2 0.890688 0.928522 0.218056
O O3 0.727306 0.991885 0.208516
O O4 0.854663 0.026044 0.983088
O O5 0.506654 0.318251 0.828883
O O6 0.683288 0.279713 0.948434
O O7 0.546201 0.176294 0.931341
O O8 0.529320 0.297232 0.131851
O O9 0.374898 0.217817 0.099234
O O10 0.311522 0.201648 0.372563
O O11 0.730249 0.849810 0.347903
O O12 0.426761 0.409975 0.271110
#
# Coordination Sequence:
#
# PCOD8249768 Si02
#       6
#     8   8   8   8   8   8
#     4  11  26  46  69 102 139 185 223 286 354 406
#     4  12  23  43  72  99 138 183 232 287 344 414
#     4  11  24  43  68 102 137 176 232 289 344 408
#     4  11  23  41  69 101 131 181 234 279 343 420
#     4  12  25  46  70 101 141 179 235 287 345 408
#     4  11  24  47  67  99 141 178 230 286 343 414
#
# _framework density 24.088304999999998
#
# number of rings (size 3 to 8) (size 9 to 14) (size 15 to 20)
#    0.000    0.667    6.667    1.500    2.333    0.000 
#    3.000    2.500    0.000    0.000    0.000    0.000 
#    0.000    0.000    0.000    0.000    0.000    0.000 
#
# Total GULP energy -595101.381649 kJ/mol
# GULP energy per Si atom -12397.945451 kJ/mol
# Density = 2.403348 g / cm^3
# Si number density = 24.088305 Si / 1000 Ang^3
#
#
#
# Elastic Constant Matrix: (Units=GPa)
#
#
# Indices 1 2 3 4 5 6 
#
# 1 107.7591 23.7972 -9.5610 0.0000 0.0000 0.0000
# 2 23.7972 123.8564 32.5796 0.0000 0.0000 0.0000
# 3 -9.5610 32.5796 18.8456 0.0000 0.0000 0.0000
# 4 0.0000 0.0000 0.0000 41.7785 0.0000 0.0000
# 5 0.0000 0.0000 0.0000 0.0000 18.3358 0.0000
# 6 0.0000 0.0000 0.0000 0.0000 0.0000 46.7533
#
#
#
# Elastic Compliance Matrix: (Units=1/GPa)
#
#
# Indices 1 2 3 4 5 6 
#
# 1 0.012686 -0.007575 0.019531 0.000000 0.000000 0.000000
# 2 -0.007575 0.019331 -0.037261 0.000000 0.000000 0.000000
# 3 0.019531 -0.037261 0.127388 0.000000 0.000000 0.000000
# 4 0.000000 0.000000 0.000000 0.023936 0.000000 0.000000
# 5 0.000000 0.000000 0.000000 0.000000 0.054538 0.000000
# 6 0.000000 0.000000 0.000000 0.000000 0.000000 0.021389
#
#
# Mechanical properties :
#
#
# Convention : Reuss Voigt Hill
#
# Bulk Modulus (GPa) = 9.19166 38.23252 23.71209
# Shear Modulus (GPa) = 14.44498 34.94989 24.69744
#
# Velocity S-wave (km/s) = 2.45147 3.81321 3.20548
# Velocity P-wave (km/s) = 3.44050 5.94085 4.85442
#
# Compressibility (1/GPa) = 0.10879432
#
# Stress axis : x y z
#
# Youngs Moduli (GPa) = 78.82883 51.73154 7.85005
#
# Poissons Ratio (x) = 0.39186 -0.15332
# Poissons Ratio (y) = 0.59712 0.29250
# Poissons Ratio (z) = -1.53962 1.92758
#
# Static dielectric constant tensor:
#      x y z
#    x 4.321610 0.000000 0.000000 
#    y 0.000000 4.520790 0.000000 
#    z 0.000000 0.000000 4.180320 
# 
# 
# High freq. dielectric constant tensor:
#      x y z
#    x 1.967840 0.000000 0.000000 
#    y 0.000000 1.957160 0.000000 
#    z 0.000000 0.000000 1.936650 
# 
# From -- ./inp_files/2879.got.cif
#   From: 2010.03.12/outbox.cif.g09.slc.cpg/sg61_2_cif.got.tgz:2879.got - 2010.04.10 19:05:03.
