data_PCOD8249174
_publ_section_title
;
Structure prediction by ZEFSAII (Michael W. Deem and Ramdas Pophale) SiO2 
 PCOD8249174
Probable space group: P B C A
;
_chemical_formula_sum "Si O2"
_cell_formula_units_Z 24
_cell_length_a 13.782213
_cell_length_b 8.915713
_cell_length_c 9.833375
_cell_angle_alpha 90.000000
_cell_angle_beta 90.000000
_cell_angle_gamma 90.000000
_cell_volume 1208.307967
_symmetry_space_group_name_H-M "P B C A"
_symmetry_group_IT_number 61
_symmetry_cell_setting 'orthorhombic'
loop_
_space_group_symop_operation_xyz
x,y,z
1/2-x,-y,1/2+z
1/2+x,1/2-y,-z
-x,1/2+y,1/2-z
-x,-y,-z
1/2+x,y,1/2-z
1/2-x,1/2+y,z
x,1/2-y,1/2+z
loop_
_atom_site_type_symbol
_atom_site_label
_atom_site_fract_x
_atom_site_fract_y
_atom_site_fract_z
Si Si1 0.672772 0.749817 0.099165
Si Si2 0.365281 0.924354 0.923382
Si Si3 0.926354 0.129768 0.355555
O O1 0.782993 0.700796 0.074481
O O2 0.620389 0.643186 0.207567
O O3 0.672870 0.923246 0.150318
O O4 0.614702 0.739433 0.955810
O O5 0.457337 0.857439 0.842290
O O6 0.398236 0.967237 0.078410
#
# Coordination Sequence:
#
# PCOD8249174 Si02
#       3
#     8   8   8
#     4  10  21  37  64  82 118 158 189 246 293 346
#     4   9  22  39  60  86 123 148 202 240 293 351
#     4   9  22  40  58  88 121 151 197 245 290 353
#
# _framework density 19.862487000000002
#
# number of rings (size 3 to 8) (size 9 to 14) (size 15 to 20)
#    2.000    0.667    0.000    0.000    4.667    5.333 
#    0.000    3.333    0.000    0.000    0.000    0.000 
#    0.000    0.000    0.000    0.000    0.000    0.000 
#
# Total GULP energy -297363.526632 kJ/mol
# GULP energy per Si atom -12390.146943 kJ/mol
# Density = 1.981728 g / cm^3
# Si number density = 19.862487 Si / 1000 Ang^3
#
#
#
# Elastic Constant Matrix: (Units=GPa)
#
#
# Indices 1 2 3 4 5 6 
#
# 1 198.2024 62.8753 33.6298 0.0000 0.0000 0.0000
# 2 62.8753 34.6019 12.5729 0.0000 0.0000 0.0000
# 3 33.6298 12.5729 58.8858 0.0000 0.0000 0.0000
# 4 0.0000 0.0000 0.0000 14.3828 0.0000 0.0000
# 5 0.0000 0.0000 0.0000 0.0000 24.6890 0.0000
# 6 0.0000 0.0000 0.0000 0.0000 0.0000 43.9381
#
#
#
# Elastic Compliance Matrix: (Units=1/GPa)
#
#
# Indices 1 2 3 4 5 6 
#
# 1 0.012223 -0.021329 -0.002427 0.000000 0.000000 0.000000
# 2 -0.021329 0.068550 -0.002455 0.000000 0.000000 0.000000
# 3 -0.002427 -0.002455 0.018892 0.000000 0.000000 0.000000
# 4 0.000000 0.000000 0.000000 0.069527 0.000000 0.000000
# 5 0.000000 0.000000 0.000000 0.000000 0.040504 0.000000
# 6 0.000000 0.000000 0.000000 0.000000 0.000000 0.022759
#
#
# Mechanical properties :
#
#
# Convention : Reuss Voigt Hill
#
# Bulk Modulus (GPa) = 21.16706 56.64954 38.90830
# Shear Modulus (GPa) = 16.63197 28.77614 22.70406
#
# Velocity S-wave (km/s) = 2.89685 3.81040 3.38459
# Velocity P-wave (km/s) = 4.67642 6.92399 5.90807
#
# Compressibility (1/GPa) = 0.04724321
#
# Stress axis : x y z
#
# Youngs Moduli (GPa) = 81.81056 14.58789 52.93220
#
# Poissons Ratio (x) = 0.31115 0.12845
# Poissons Ratio (y) = 1.74497 0.12995
# Poissons Ratio (z) = 0.19853 0.03581
#
# Static dielectric constant tensor:
#      x y z
#    x 3.522860 0.000000 0.000000 
#    y 0.000000 3.238830 0.000000 
#    z 0.000000 0.000000 3.264870 
# 
# 
# High freq. dielectric constant tensor:
#      x y z
#    x 1.787320 0.000000 0.000000 
#    y 0.000000 1.743740 0.000000 
#    z 0.000000 0.000000 1.749950 
# 
# From -- ./inp_files/1581.got.cif
#   From: 2010.03.12/outbox.cif.g09.slc.cpg/sg61_1_cif.got.tgz:1581.got - 2010.04.10 19:05:03.
