data_PCOD8249062
_publ_section_title
;
Structure prediction by ZEFSAII (Michael W. Deem and Ramdas Pophale) SiO2 
 PCOD8249062
Probable space group: P B C A
;
_chemical_formula_sum "Si O2"
_cell_formula_units_Z 48
_cell_length_a 16.970936
_cell_length_b 13.267666
_cell_length_c 8.925404
_cell_angle_alpha 90.000000
_cell_angle_beta 90.000000
_cell_angle_gamma 90.000000
_cell_volume 2009.686008
_symmetry_space_group_name_H-M "P B C A"
_symmetry_group_IT_number 61
_symmetry_cell_setting 'orthorhombic'
loop_
_space_group_symop_operation_xyz
x,y,z
1/2-x,-y,1/2+z
1/2+x,1/2-y,-z
-x,1/2+y,1/2-z
-x,-y,-z
1/2+x,y,1/2-z
1/2-x,1/2+y,z
x,1/2-y,1/2+z
loop_
_atom_site_type_symbol
_atom_site_label
_atom_site_fract_x
_atom_site_fract_y
_atom_site_fract_z
Si Si1 0.294285 0.153439 0.137005
Si Si2 0.119045 0.126309 0.830392
Si Si3 0.893621 0.257145 0.122510
Si Si4 0.550774 0.883305 0.385929
Si Si5 0.710444 0.978161 0.485213
Si Si6 0.824912 0.698190 0.964740
O O1 0.350437 0.170274 0.278985
O O2 0.263951 0.038521 0.134941
O O3 0.221849 0.230399 0.151095
O O4 0.334403 0.177291 0.976926
O O5 0.117204 0.139089 0.649810
O O6 0.037225 0.069139 0.881159
O O7 0.190932 0.053188 0.877015
O O8 0.128485 0.236338 0.911599
O O9 0.943120 0.330277 0.225724
O O10 0.954057 0.198673 0.017166
O O11 0.627441 0.952935 0.404154
O O12 0.760709 0.880117 0.538919
#
# Coordination Sequence:
#
# PCOD8249062 Si02
#       6
#     8   8   8   8   8   8
#     4  10  21  38  62  98 119 163 220 270 310 374
#     4  11  26  44  64  99 134 166 218 266 331 386
#     4  10  20  39  66  89 130 169 212 261 327 383
#     4  11  23  41  65  93 133 173 205 265 335 387
#     4  11  24  36  69  94 125 166 217 264 315 380
#     4  11  23  42  68  95 126 172 217 269 314 383
#
# _framework density 23.884326999999999
#
# number of rings (size 3 to 8) (size 9 to 14) (size 15 to 20)
#    0.000    1.333    3.333    3.500    2.333    1.333 
#    0.000    0.000    0.000    3.000    0.000    0.000 
#    0.000    0.000    0.000    0.000    0.000    0.000 
#
# Total GULP energy -594861.957112 kJ/mol
# GULP energy per Si atom -12392.957440 kJ/mol
# Density = 2.382997 g / cm^3
# Si number density = 23.884327 Si / 1000 Ang^3
#
#
#
# Elastic Constant Matrix: (Units=GPa)
#
#
# Indices 1 2 3 4 5 6 
#
# 1 93.2311 22.7614 23.0674 0.0000 0.0000 0.0000
# 2 22.7614 93.4354 15.7974 0.0000 0.0000 0.0000
# 3 23.0674 15.7974 108.5783 0.0000 0.0000 0.0000
# 4 0.0000 0.0000 0.0000 20.5329 0.0000 0.0000
# 5 0.0000 0.0000 0.0000 0.0000 20.7286 0.0000
# 6 0.0000 0.0000 0.0000 0.0000 0.0000 37.2317
#
#
#
# Elastic Compliance Matrix: (Units=1/GPa)
#
#
# Indices 1 2 3 4 5 6 
#
# 1 0.011877 -0.002529 -0.002155 0.000000 0.000000 0.000000
# 2 -0.002529 0.011511 -0.001138 0.000000 0.000000 0.000000
# 3 -0.002155 -0.001138 0.009833 0.000000 0.000000 0.000000
# 4 0.000000 0.000000 0.000000 0.048702 0.000000 0.000000
# 5 0.000000 0.000000 0.000000 0.000000 0.048243 0.000000
# 6 0.000000 0.000000 0.000000 0.000000 0.000000 0.026859
#
#
# Mechanical properties :
#
#
# Convention : Reuss Voigt Hill
#
# Bulk Modulus (GPa) = 46.34408 46.49969 46.42189
# Shear Modulus (GPa) = 28.43163 31.27321 29.85242
#
# Velocity S-wave (km/s) = 3.45394 3.62244 3.53919
# Velocity P-wave (km/s) = 5.94575 6.08334 6.01494
#
# Compressibility (1/GPa) = 0.02157773
#
# Stress axis : x y z
#
# Youngs Moduli (GPa) = 84.19863 86.87391 101.69495
#
# Poissons Ratio (x) = 0.21969 0.21918
# Poissons Ratio (y) = 0.21292 0.11568
# Poissons Ratio (z) = 0.18147 0.09882
#
# Static dielectric constant tensor:
#      x y z
#    x 4.177150 0.000000 0.000000 
#    y 0.000000 4.248110 0.000000 
#    z 0.000000 0.000000 4.183580 
# 
# 
# High freq. dielectric constant tensor:
#      x y z
#    x 1.937380 0.000000 0.000000 
#    y 0.000000 1.936420 0.000000 
#    z 0.000000 0.000000 1.954810 
# 
# From -- ./inp_files/3476.got.cif
#   From: 2010.03.12/outbox.cif.g09.slc.cpg/sg61_2_cif.got.tgz:3476.got - 2010.04.10 19:05:03.
