data_PCOD8249575
_publ_section_title
;
Structure prediction by ZEFSAII (Michael W. Deem and Ramdas Pophale) SiO2 
 PCOD8249575
Probable space group: P B C A
;
_chemical_formula_sum "Si O2"
_cell_formula_units_Z 48
_cell_length_a 22.349902
_cell_length_b 10.720473
_cell_length_c 8.421297
_cell_angle_alpha 90.000000
_cell_angle_beta 90.000000
_cell_angle_gamma 90.000000
_cell_volume 2017.755570
_symmetry_space_group_name_H-M "P B C A"
_symmetry_group_IT_number 61
_symmetry_cell_setting 'orthorhombic'
loop_
_space_group_symop_operation_xyz
x,y,z
1/2-x,-y,1/2+z
1/2+x,1/2-y,-z
-x,1/2+y,1/2-z
-x,-y,-z
1/2+x,y,1/2-z
1/2-x,1/2+y,z
x,1/2-y,1/2+z
loop_
_atom_site_type_symbol
_atom_site_label
_atom_site_fract_x
_atom_site_fract_y
_atom_site_fract_z
Si Si1 0.613592 0.319238 0.169498
Si Si2 0.089435 0.927917 0.320174
Si Si3 0.805116 0.918044 0.754221
Si Si4 0.540665 0.342789 0.858488
Si Si5 0.183075 0.965103 0.908496
Si Si6 0.079940 0.710388 0.515324
O O1 0.658957 0.205678 0.202662
O O2 0.552035 0.289177 0.266252
O O3 0.647918 0.445939 0.218611
O O4 0.594195 0.346127 0.987184
O O5 0.075458 0.860825 0.488425
O O6 0.158931 0.965360 0.319980
O O7 0.048902 0.045702 0.270296
O O8 0.076711 0.811202 0.202450
O O9 0.740473 0.907577 0.675799
O O10 0.799028 0.945207 0.942709
O O11 0.475968 0.359205 0.933191
O O12 0.141678 0.848501 0.953362
#
# Coordination Sequence:
#
# PCOD8249575 Si02
#       6
#     8   8   8   8   8   8
#     4  11  22  46  68  97 131 179 221 276 338 398
#     4  10  23  45  60  99 133 170 223 278 334 399
#     4  10  25  44  66  98 133 173 228 272 332 400
#     4  11  23  43  70  95 135 173 226 274 338 412
#     4  11  25  44  68  99 135 180 221 283 331 396
#     4  11  23  42  69  96 134 178 217 283 338 394
#
# _framework density 23.788810999999999
#
# number of rings (size 3 to 8) (size 9 to 14) (size 15 to 20)
#    0.000    1.333    5.000    1.500    7.000    1.333 
#    3.000    4.167    0.000    0.000    0.000    0.000 
#    0.000    0.000    0.000    0.000    0.000    0.000 
#
# Total GULP energy -594690.833287 kJ/mol
# GULP energy per Si atom -12389.392360 kJ/mol
# Density = 2.373467 g / cm^3
# Si number density = 23.788811 Si / 1000 Ang^3
#
#
#
# Elastic Constant Matrix: (Units=GPa)
#
#
# Indices 1 2 3 4 5 6 
#
# 1 98.9104 4.7443 11.1824 0.0000 0.0000 0.0000
# 2 4.7443 46.3293 4.5664 0.0000 0.0000 0.0000
# 3 11.1824 4.5664 21.3029 0.0000 0.0000 0.0000
# 4 0.0000 0.0000 0.0000 42.7275 0.0000 0.0000
# 5 0.0000 0.0000 0.0000 0.0000 23.9092 0.0000
# 6 0.0000 0.0000 0.0000 0.0000 0.0000 26.6339
#
#
#
# Elastic Compliance Matrix: (Units=1/GPa)
#
#
# Indices 1 2 3 4 5 6 
#
# 1 0.010762 -0.000557 -0.005530 0.000000 0.000000 0.000000
# 2 -0.000557 0.022079 -0.004440 0.000000 0.000000 0.000000
# 3 -0.005530 -0.004440 0.050797 0.000000 0.000000 0.000000
# 4 0.000000 0.000000 0.000000 0.023404 0.000000 0.000000
# 5 0.000000 0.000000 0.000000 0.000000 0.041825 0.000000
# 6 0.000000 0.000000 0.000000 0.000000 0.000000 0.037546
#
#
# Mechanical properties :
#
#
# Convention : Reuss Voigt Hill
#
# Bulk Modulus (GPa) = 15.97871 23.05876 19.51874
# Shear Modulus (GPa) = 21.89824 28.39076 25.14450
#
# Velocity S-wave (km/s) = 3.03731 3.45838 3.25466
# Velocity P-wave (km/s) = 4.36255 5.06570 4.72722
#
# Compressibility (1/GPa) = 0.06258327
#
# Stress axis : x y z
#
# Youngs Moduli (GPa) = 92.91905 45.29128 19.68638
#
# Poissons Ratio (x) = 0.02523 0.10886
# Poissons Ratio (y) = 0.05176 0.08742
# Poissons Ratio (z) = 0.51383 0.20111
#
# Static dielectric constant tensor:
#      x y z
#    x 4.337540 0.000000 0.000000 
#    y 0.000000 4.184190 0.000000 
#    z 0.000000 0.000000 4.301440 
# 
# 
# High freq. dielectric constant tensor:
#      x y z
#    x 1.953090 0.000000 0.000000 
#    y 0.000000 1.938530 0.000000 
#    z 0.000000 0.000000 1.928190 
# 
# From -- ./inp_files/4227.got.cif
#   From: 2010.03.12/outbox.cif.g09.slc.cpg/sg61_3_cif.got.tgz:4227.got - 2010.04.10 19:05:03.
