data_PCOD8249695
_publ_section_title
;
Structure prediction by ZEFSAII (Michael W. Deem and Ramdas Pophale) SiO2 
 PCOD8249695
Probable space group: P B C A
;
_chemical_formula_sum "Si O2"
_cell_formula_units_Z 64
_cell_length_a 20.721279
_cell_length_b 18.131903
_cell_length_c 8.550646
_cell_angle_alpha 90.000000
_cell_angle_beta 90.000000
_cell_angle_gamma 90.000000
_cell_volume 3212.616401
_symmetry_space_group_name_H-M "P B C A"
_symmetry_group_IT_number 61
_symmetry_cell_setting 'orthorhombic'
loop_
_space_group_symop_operation_xyz
x,y,z
1/2-x,-y,1/2+z
1/2+x,1/2-y,-z
-x,1/2+y,1/2-z
-x,-y,-z
1/2+x,y,1/2-z
1/2-x,1/2+y,z
x,1/2-y,1/2+z
loop_
_atom_site_type_symbol
_atom_site_label
_atom_site_fract_x
_atom_site_fract_y
_atom_site_fract_z
Si Si1 0.008965 0.686998 0.893917
Si Si2 0.136160 0.684776 0.054268
Si Si3 0.367353 0.687001 0.602105
Si Si4 0.138189 0.653604 0.418572
Si Si5 0.008439 0.655180 0.531705
Si Si6 0.240895 0.577833 0.922970
Si Si7 0.133095 0.155206 0.962248
Si Si8 0.241318 0.077073 0.555971
O O1 0.021200 0.674416 0.711536
O O2 0.938632 0.657322 0.948944
O O3 0.067582 0.651781 0.993135
O O4 0.008332 0.773805 0.920817
O O5 0.141340 0.672527 0.237444
O O6 0.143480 0.771592 0.019894
O O7 0.192942 0.643307 0.965372
O O8 0.356166 0.772689 0.566604
O O9 0.360369 0.682745 0.786509
O O10 0.314556 0.636174 0.517633
O O11 0.070913 0.610898 0.465866
O O12 0.195668 0.598559 0.458445
O O13 0.937845 0.617606 0.509903
O O14 0.311607 0.595346 0.996439
O O15 0.243135 0.571744 0.737543
O O16 0.216137 0.501803 0.996684
#
# Coordination Sequence:
#
# PCOD8249695 Si02
#       8
#     8   8   8   8   8   8   8   8
#     4   9  16  30  52  80 108 135 168 215 265 313
#     4  11  21  35  56  83 110 141 178 219 263 315
#     4   9  19  34  56  82 108 136 174 218 265 317
#     4  11  21  35  56  83 110 141 178 219 263 315
#     4   9  16  30  52  80 108 135 168 215 265 313
#     4  11  23  39  55  77 108 144 182 224 269 319
#     4   9  19  34  56  82 108 136 174 218 265 317
#     4  11  23  39  55  77 108 144 182 224 269 319
#
# _framework density 19.921455999999999
#
# number of rings (size 3 to 8) (size 9 to 14) (size 15 to 20)
#    0.000    2.000    0.000    6.000    0.000    5.000 
#    0.000    1.250    0.000    0.000    0.000    0.000 
#    0.000    0.000    0.000    0.000    0.000    0.000 
#
# Total GULP energy -793282.812996 kJ/mol
# GULP energy per Si atom -12395.043953 kJ/mol
# Density = 1.987611 g / cm^3
# Si number density = 19.921456 Si / 1000 Ang^3
#
#
#
# Elastic Constant Matrix: (Units=GPa)
#
#
# Indices 1 2 3 4 5 6 
#
# 1 115.5974 12.3691 16.0013 0.0000 0.0000 0.0000
# 2 12.3691 39.3873 5.5979 0.0000 0.0000 0.0000
# 3 16.0013 5.5979 63.4632 0.0000 0.0000 0.0000
# 4 0.0000 0.0000 0.0000 22.5026 0.0000 0.0000
# 5 0.0000 0.0000 0.0000 0.0000 23.3525 0.0000
# 6 0.0000 0.0000 0.0000 0.0000 0.0000 7.0947
#
#
#
# Elastic Compliance Matrix: (Units=1/GPa)
#
#
# Indices 1 2 3 4 5 6 
#
# 1 0.009219 -0.002597 -0.002095 0.000000 0.000000 0.000000
# 2 -0.002597 0.026443 -0.001678 0.000000 0.000000 0.000000
# 3 -0.002095 -0.001678 0.016433 0.000000 0.000000 0.000000
# 4 0.000000 0.000000 0.000000 0.044439 0.000000 0.000000
# 5 0.000000 0.000000 0.000000 0.000000 0.042822 0.000000
# 6 0.000000 0.000000 0.000000 0.000000 0.000000 0.140950
#
#
# Mechanical properties :
#
#
# Convention : Reuss Voigt Hill
#
# Bulk Modulus (GPa) = 25.40980 31.82049 28.61515
# Shear Modulus (GPa) = 16.33106 22.88858 19.60982
#
# Velocity S-wave (km/s) = 2.86627 3.39328 3.14085
# Velocity P-wave (km/s) = 4.87203 5.60001 5.24866
#
# Compressibility (1/GPa) = 0.03935490
#
# Stress axis : x y z
#
# Youngs Moduli (GPa) = 108.47571 37.81728 60.85154
#
# Poissons Ratio (x) = 0.09822 0.12750
# Poissons Ratio (y) = 0.28174 0.10208
# Poissons Ratio (z) = 0.22728 0.06344
#
# Static dielectric constant tensor:
#      x y z
#    x 4.533970 0.000000 0.000000 
#    y 0.000000 3.513190 0.000000 
#    z 0.000000 0.000000 3.594510 
# 
# 
# High freq. dielectric constant tensor:
#      x y z
#    x 1.805290 0.000000 0.000000 
#    y 0.000000 1.727160 0.000000 
#    z 0.000000 0.000000 1.785850 
# 
# From -- ./inp_files/4092.got.cif
#   From: 2010.03.12/outbox.cif.g09.slc.cpg/sg61_3_cif.got.tgz:4092.got - 2010.04.10 19:05:03.
