data_PCOD8249997
_publ_section_title
;
Structure prediction by ZEFSAII (Michael W. Deem and Ramdas Pophale) SiO2 
 PCOD8249997
Probable space group: P N M A
;
_chemical_formula_sum "Si O2"
_cell_formula_units_Z 64
_cell_length_a 34.445006
_cell_length_b 8.736204
_cell_length_c 13.698193
_cell_angle_alpha 90.000000
_cell_angle_beta 90.000000
_cell_angle_gamma 90.000000
_cell_volume 4122.041049
_symmetry_space_group_name_H-M "P N M A"
_symmetry_group_IT_number 62
_symmetry_cell_setting 'orthorhombic'
loop_
_space_group_symop_operation_xyz
x,y,z
1/2-x,-y,1/2+z
1/2+x,1/2-y,1/2-z
-x,1/2+y,-z
-x,-y,-z
1/2+x,y,1/2-z
1/2-x,1/2+y,1/2+z
x,1/2-y,z
loop_
_atom_site_type_symbol
_atom_site_label
_atom_site_fract_x
_atom_site_fract_y
_atom_site_fract_z
Si Si1 0.807405 0.569715 0.706474
Si Si2 0.694088 0.068934 0.788524
Si Si3 0.878897 0.068323 0.384485
Si Si4 0.734548 0.432052 0.396668
Si Si5 0.540072 0.580692 0.112360
Si Si6 0.618047 0.069342 0.095753
Si Si7 0.464578 0.080418 0.119546
Si Si8 0.230468 0.931526 0.896539
O O1 0.807720 0.750000 0.708127
O O2 0.796565 0.512413 0.815120
O O3 0.849361 0.510091 0.672178
O O4 0.774212 0.516242 0.630527
O O5 0.699477 0.250000 0.794439
O O6 0.650542 0.022535 0.816228
O O7 0.722960 0.989947 0.865726
O O8 0.701032 0.009694 0.679111
O O9 0.872505 0.250000 0.377464
O O10 0.922137 0.021792 0.346766
O O11 0.873569 0.019058 0.496164
O O12 0.736068 0.250000 0.407768
O O13 0.720576 0.508809 0.496268
O O14 0.548603 0.750000 0.152676
O O15 0.576102 0.471967 0.141114
O O16 0.499672 0.523293 0.160397
O O17 0.535174 0.582299 0.996948
O O18 0.620615 0.250000 0.076481
O O19 0.472011 0.250000 0.160197
O O20 0.225122 0.750000 0.890389
#
# Coordination Sequence:
#
# PCOD8249997 Si02
#       8
#     8   8   8   8   8   8   8   8
#     4   8  17  30  44  62  85 112 143 178 213 253
#     4  11  21  32  46  66  89 117 150 180 217 263
#     4  10  19  30  43  62  87 114 146 186 223 255
#     4  10  19  33  49  65  87 115 147 185 224 259
#     4   9  16  25  37  56  82 111 143 177 212 252
#     4  10  17  27  43  62  86 117 149 180 216 260
#     4   8  15  26  39  55  78 110 144 175 213 258
#     4  10  19  33  49  66  88 114 146 184 224 263
#
# _framework density 15.526289999999999
#
# number of rings (size 3 to 8) (size 9 to 14) (size 15 to 20)
#    0.000    2.500    0.000    5.250    0.000    4.500 
#    0.000    6.875    0.000    0.000    0.000    0.000 
#    0.000    1.000    0.000    3.000    0.000    4.250 
#
# Total GULP energy -793355.288207 kJ/mol
# GULP energy per Si atom -12396.176378 kJ/mol
# Density = 1.549095 g / cm^3
# Si number density = 15.526290 Si / 1000 Ang^3
#
#
#
# Elastic Constant Matrix: (Units=GPa)
#
#
# Indices 1 2 3 4 5 6 
#
# 1 113.0180 23.4212 37.0412 0.0000 0.0000 0.0000
# 2 23.4212 50.8785 12.8257 0.0000 0.0000 0.0000
# 3 37.0412 12.8257 67.8156 0.0000 0.0000 0.0000
# 4 0.0000 0.0000 0.0000 20.5231 0.0000 0.0000
# 5 0.0000 0.0000 0.0000 0.0000 17.4075 0.0000
# 6 0.0000 0.0000 0.0000 0.0000 0.0000 24.3613
#
#
#
# Elastic Compliance Matrix: (Units=1/GPa)
#
#
# Indices 1 2 3 4 5 6 
#
# 1 0.011465 -0.003884 -0.005527 0.000000 0.000000 0.000000
# 2 -0.003884 0.021955 -0.002031 0.000000 0.000000 0.000000
# 3 -0.005527 -0.002031 0.018149 0.000000 0.000000 0.000000
# 4 0.000000 0.000000 0.000000 0.048726 0.000000 0.000000
# 5 0.000000 0.000000 0.000000 0.000000 0.057447 0.000000
# 6 0.000000 0.000000 0.000000 0.000000 0.000000 0.041049
#
#
# Mechanical properties :
#
#
# Convention : Reuss Voigt Hill
#
# Bulk Modulus (GPa) = 34.86294 42.03203 38.44748
# Shear Modulus (GPa) = 21.62301 23.01997 22.32149
#
# Velocity S-wave (km/s) = 3.73590 3.85469 3.79576
# Velocity P-wave (km/s) = 6.41187 6.85141 6.63528
#
# Compressibility (1/GPa) = 0.02868376
#
# Stress axis : x y z
#
# Youngs Moduli (GPa) = 87.22432 45.54853 55.09932
#
# Poissons Ratio (x) = 0.17692 0.30456
# Poissons Ratio (y) = 0.33880 0.11189
# Poissons Ratio (z) = 0.48213 0.09249
#
# Static dielectric constant tensor:
#      x y z
#    x 3.282510 0.000000 0.000000 
#    y 0.000000 3.039940 0.000000 
#    z 0.000000 0.000000 2.725080 
# 
# 
# High freq. dielectric constant tensor:
#      x y z
#    x 1.597990 0.000000 0.000000 
#    y 0.000000 1.604530 0.000000 
#    z 0.000000 0.000000 1.547650 
# 
# From -- ./inp_files/21248.got.cif
#   From: 2010.03.12/outbox.cif.g09.slc.cpg/sg62_11_cif.got.tgz:21248.got - 2010.04.10 19:12:36.
