data_PCOD8249059
_publ_section_title
;
Structure prediction by ZEFSAII (Michael W. Deem and Ramdas Pophale) SiO2 
 PCOD8249059
Probable space group: P B C A
;
_chemical_formula_sum "Si O2"
_cell_formula_units_Z 48
_cell_length_a 11.171697
_cell_length_b 16.028911
_cell_length_c 13.669609
_cell_angle_alpha 90.000000
_cell_angle_beta 90.000000
_cell_angle_gamma 90.000000
_cell_volume 2447.818755
_symmetry_space_group_name_H-M "P B C A"
_symmetry_group_IT_number 61
_symmetry_cell_setting 'orthorhombic'
loop_
_space_group_symop_operation_xyz
x,y,z
1/2-x,-y,1/2+z
1/2+x,1/2-y,-z
-x,1/2+y,1/2-z
-x,-y,-z
1/2+x,y,1/2-z
1/2-x,1/2+y,z
x,1/2-y,1/2+z
loop_
_atom_site_type_symbol
_atom_site_label
_atom_site_fract_x
_atom_site_fract_y
_atom_site_fract_z
Si Si1 0.414470 0.478147 0.644597
Si Si2 0.654841 0.472748 0.146024
Si Si3 0.945899 0.150433 0.861275
Si Si4 0.239981 0.413025 0.009957
Si Si5 0.104342 0.618432 0.854344
Si Si6 0.008814 0.178464 0.453439
O O1 0.345467 0.487275 0.746274
O O2 0.329970 0.509708 0.557604
O O3 0.537761 0.529456 0.642063
O O4 0.444274 0.382127 0.624282
O O5 0.528780 0.430168 0.120589
O O6 0.755238 0.400983 0.139582
O O7 0.674902 0.549972 0.073623
O O8 0.817278 0.134568 0.909046
O O9 0.927640 0.166531 0.745790
O O10 0.008254 0.229689 0.909786
O O11 0.147159 0.346255 0.966728
O O12 0.061223 0.676975 0.943067
#
# Coordination Sequence:
#
# PCOD8249059 Si02
#       6
#     8   8   8   8   8   8
#     4  10  20  39  65  88 114 169 215 239 299 385
#     4  11  21  40  67  90 125 164 209 257 296 373
#     4  11  26  38  60 100 127 153 206 267 317 345
#     4  11  21  41  65  89 121 169 209 249 302 378
#     4  10  20  42  65  84 123 168 206 244 312 373
#     4  11  23  41  64  91 123 165 205 256 315 367
#
# _framework density 19.609294999999999
#
# number of rings (size 3 to 8) (size 9 to 14) (size 15 to 20)
#    0.000    1.333    5.000    1.500    2.333    1.333 
#    0.000    1.667    0.000    0.000    0.000    0.000 
#    0.000    0.000    0.000    0.000    0.000    0.000 
#
# Total GULP energy -595486.777988 kJ/mol
# GULP energy per Si atom -12405.974541 kJ/mol
# Density = 1.956466 g / cm^3
# Si number density = 19.609295 Si / 1000 Ang^3
#
#
#
# Elastic Constant Matrix: (Units=GPa)
#
#
# Indices 1 2 3 4 5 6 
#
# 1 75.8750 25.1427 21.3553 0.0000 0.0000 0.0000
# 2 25.1427 65.4097 42.3209 0.0000 0.0000 0.0000
# 3 21.3553 42.3209 110.2016 0.0000 0.0000 0.0000
# 4 0.0000 0.0000 0.0000 31.7613 0.0000 0.0000
# 5 0.0000 0.0000 0.0000 0.0000 33.8596 0.0000
# 6 0.0000 0.0000 0.0000 0.0000 0.0000 21.3926
#
#
#
# Elastic Compliance Matrix: (Units=1/GPa)
#
#
# Indices 1 2 3 4 5 6 
#
# 1 0.015175 -0.005230 -0.000932 0.000000 0.000000 0.000000
# 2 -0.005230 0.022145 -0.007491 0.000000 0.000000 0.000000
# 3 -0.000932 -0.007491 0.012132 0.000000 0.000000 0.000000
# 4 0.000000 0.000000 0.000000 0.031485 0.000000 0.000000
# 5 0.000000 0.000000 0.000000 0.000000 0.029534 0.000000
# 6 0.000000 0.000000 0.000000 0.000000 0.000000 0.046745
#
#
# Mechanical properties :
#
#
# Convention : Reuss Voigt Hill
#
# Bulk Modulus (GPa) = 45.15547 47.68045 46.41796
# Shear Modulus (GPa) = 26.05469 28.24720 27.15095
#
# Velocity S-wave (km/s) = 3.64908 3.79951 3.72505
# Velocity P-wave (km/s) = 6.38999 6.60427 6.49801
#
# Compressibility (1/GPa) = 0.02214571
#
# Stress axis : x y z
#
# Youngs Moduli (GPa) = 65.89793 45.15619 82.42853
#
# Poissons Ratio (x) = 0.23616 0.07684
# Poissons Ratio (y) = 0.34464 0.61747
# Poissons Ratio (z) = 0.06143 0.33827
#
# Static dielectric constant tensor:
#      x y z
#    x 3.589080 0.000000 0.000000 
#    y 0.000000 3.170120 0.000000 
#    z 0.000000 0.000000 3.766780 
# 
# 
# High freq. dielectric constant tensor:
#      x y z
#    x 1.772360 0.000000 0.000000 
#    y 0.000000 1.736550 0.000000 
#    z 0.000000 0.000000 1.779490 
# 
# From -- ./inp_files/5242.got.cif
#   From: 2010.03.12/outbox.cif.g09.slc.cpg/sg61_3_cif.got.tgz:5242.got - 2010.04.10 19:05:03.
