data_PCOD8249327
_publ_section_title
;
Structure prediction by ZEFSAII (Michael W. Deem and Ramdas Pophale) SiO2 
 PCOD8249327
Probable space group: P B C A
;
_chemical_formula_sum "Si O2"
_cell_formula_units_Z 64
_cell_length_a 22.081588
_cell_length_b 13.974909
_cell_length_c 8.209673
_cell_angle_alpha 90.000000
_cell_angle_beta 90.000000
_cell_angle_gamma 90.000000
_cell_volume 2533.408073
_symmetry_space_group_name_H-M "P B C A"
_symmetry_group_IT_number 61
_symmetry_cell_setting 'orthorhombic'
loop_
_space_group_symop_operation_xyz
x,y,z
1/2-x,-y,1/2+z
1/2+x,1/2-y,-z
-x,1/2+y,1/2-z
-x,-y,-z
1/2+x,y,1/2-z
1/2-x,1/2+y,z
x,1/2-y,1/2+z
loop_
_atom_site_type_symbol
_atom_site_label
_atom_site_fract_x
_atom_site_fract_y
_atom_site_fract_z
Si Si1 0.133004 0.774405 0.384161
Si Si2 0.871089 0.975702 0.237356
Si Si3 0.406734 0.578016 0.410618
Si Si4 0.044937 0.890390 0.926307
Si Si5 0.443427 0.736084 0.596085
Si Si6 0.031103 0.590563 0.772831
Si Si7 0.341985 0.628705 0.100039
Si Si8 0.796922 0.354770 0.831429
O O1 0.100847 0.681261 0.460662
O O2 0.082452 0.828462 0.280992
O O3 0.157046 0.848652 0.517030
O O4 0.190642 0.739206 0.278284
O O5 0.871506 0.924550 0.414256
O O6 0.935089 0.035242 0.215679
O O7 0.813779 0.048108 0.236731
O O8 0.861066 0.910066 0.077863
O O9 0.440634 0.683550 0.414811
O O10 0.457174 0.494790 0.399868
O O11 0.361669 0.563496 0.256160
O O12 0.985103 0.829451 0.887304
O O13 0.033034 0.951896 0.090356
O O14 0.466282 0.645211 0.705685
O O15 0.375123 0.769794 0.632070
O O16 0.271033 0.645769 0.106269
#
# Coordination Sequence:
#
# PCOD8249327 Si02
#       8
#     8   8   8   8   8   8   8   8
#     4  10  21  42  73 109 139 192 255 302 362 428
#     4  11  27  49  76 109 144 196 257 298 369 441
#     4  12  27  49  73 110 147 196 247 302 373 448
#     4  10  22  46  75 104 147 189 248 312 360 446
#     4  11  28  45  74 112 150 197 244 303 388 443
#     4  11  21  45  79 104 148 195 246 310 362 448
#     4  12  30  51  72 108 157 199 239 316 380 439
#     4  11  25  45  76 109 148 196 250 309 365 444
#
# _framework density 25.262412999999999
#
# number of rings (size 3 to 8) (size 9 to 14) (size 15 to 20)
#    0.000    1.000    3.750    1.125    7.000    2.500 
#    0.000    0.000    0.000    0.000    0.000    0.000 
#    0.000    0.000    0.000    0.000    0.000    0.000 
#
# Total GULP energy -793125.338413 kJ/mol
# GULP energy per Si atom -12392.583413 kJ/mol
# Density = 2.520491 g / cm^3
# Si number density = 25.262413 Si / 1000 Ang^3
#
#
#
# Elastic Constant Matrix: (Units=GPa)
#
#
# Indices 1 2 3 4 5 6 
#
# 1 108.5486 20.5117 28.0723 0.0000 0.0000 0.0000
# 2 20.5117 86.4163 20.5743 0.0000 0.0000 0.0000
# 3 28.0723 20.5743 143.9207 0.0000 0.0000 0.0000
# 4 0.0000 0.0000 0.0000 33.5932 0.0000 0.0000
# 5 0.0000 0.0000 0.0000 0.0000 34.7719 0.0000
# 6 0.0000 0.0000 0.0000 0.0000 0.0000 27.2121
#
#
#
# Elastic Compliance Matrix: (Units=1/GPa)
#
#
# Indices 1 2 3 4 5 6 
#
# 1 0.010019 -0.001980 -0.001671 0.000000 0.000000 0.000000
# 2 -0.001980 0.012371 -0.001382 0.000000 0.000000 0.000000
# 3 -0.001671 -0.001382 0.007472 0.000000 0.000000 0.000000
# 4 0.000000 0.000000 0.000000 0.029768 0.000000 0.000000
# 5 0.000000 0.000000 0.000000 0.000000 0.028759 0.000000
# 6 0.000000 0.000000 0.000000 0.000000 0.000000 0.036748
#
#
# Mechanical properties :
#
#
# Convention : Reuss Voigt Hill
#
# Bulk Modulus (GPa) = 50.51910 53.02247 51.77078
# Shear Modulus (GPa) = 35.26041 37.09727 36.17884
#
# Velocity S-wave (km/s) = 3.74005 3.83623 3.78844
# Velocity P-wave (km/s) = 6.22027 6.37624 6.29874
#
# Compressibility (1/GPa) = 0.01979449
#
# Stress axis : x y z
#
# Youngs Moduli (GPa) = 99.81208 80.83415 133.83595
#
# Poissons Ratio (x) = 0.16007 0.22366
# Poissons Ratio (y) = 0.19765 0.18500
# Poissons Ratio (z) = 0.16680 0.11173
#
# Static dielectric constant tensor:
#      x y z
#    x 4.311710 0.000000 0.000000 
#    y 0.000000 4.737260 0.000000 
#    z 0.000000 0.000000 4.593950 
# 
# 
# High freq. dielectric constant tensor:
#      x y z
#    x 1.991470 0.000000 0.000000 
#    y 0.000000 2.022430 0.000000 
#    z 0.000000 0.000000 2.019570 
# 
# From -- ./inp_files/4321.got.cif
#   From: 2010.03.12/outbox.cif.g09.slc.cpg/sg61_3_cif.got.tgz:4321.got - 2010.04.10 19:05:03.
