data_PCOD8249824
_publ_section_title
;
Structure prediction by ZEFSAII (Michael W. Deem and Ramdas Pophale) SiO2 
 PCOD8249824
Probable space group: P B C A
;
_chemical_formula_sum "Si O2"
_cell_formula_units_Z 64
_cell_length_a 8.900366
_cell_length_b 22.168674
_cell_length_c 13.800981
_cell_angle_alpha 90.000000
_cell_angle_beta 90.000000
_cell_angle_gamma 90.000000
_cell_volume 2723.062071
_symmetry_space_group_name_H-M "P B C A"
_symmetry_group_IT_number 61
_symmetry_cell_setting 'orthorhombic'
loop_
_space_group_symop_operation_xyz
x,y,z
1/2-x,-y,1/2+z
1/2+x,1/2-y,-z
-x,1/2+y,1/2-z
-x,-y,-z
1/2+x,y,1/2-z
1/2-x,1/2+y,z
x,1/2-y,1/2+z
loop_
_atom_site_type_symbol
_atom_site_label
_atom_site_fract_x
_atom_site_fract_y
_atom_site_fract_z
Si Si1 0.938607 0.757479 0.387026
Si Si2 0.101549 0.115596 0.526375
Si Si3 0.793133 0.056799 0.514969
Si Si4 0.610107 0.033234 0.325136
Si Si5 0.226170 0.712288 0.781017
Si Si6 0.909478 0.833795 0.055576
Si Si7 0.655460 0.600595 0.829961
Si Si8 0.774183 0.441019 0.636136
O O1 0.951975 0.815747 0.457108
O O2 0.789408 0.760631 0.319914
O O3 0.930079 0.699018 0.453570
O O4 0.086141 0.749371 0.320409
O O5 0.178579 0.091658 0.625301
O O6 0.217796 0.111301 0.436324
O O7 0.969560 0.068784 0.501033
O O8 0.720264 0.033731 0.416161
O O9 0.724915 0.119682 0.547127
O O10 0.762716 0.007300 0.596418
O O11 0.453345 0.065646 0.349818
O O12 0.689636 0.068430 0.237856
O O13 0.582672 0.962770 0.298164
O O14 0.360620 0.712447 0.859392
O O15 0.165975 0.643696 0.763737
O O16 0.061132 0.867469 0.084778
#
# Coordination Sequence:
#
# PCOD8249824 Si02
#       8
#     8   8   8   8   8   8   8   8
#     4  11  27  47  77 108 141 190 243 301 368 437
#     4  11  25  43  71 101 144 186 239 298 357 427
#     4  12  24  47  70 106 144 186 242 292 367 434
#     4  12  26  42  71 106 143 192 236 295 370 433
#     4  11  24  46  72 111 134 184 249 299 360 429
#     4  12  25  47  72 105 149 188 241 307 369 437
#     4  11  24  43  72 103 143 188 240 298 356 435
#     4  12  25  44  69 105 146 188 239 301 362 435
#
# _framework density 23.502953000000002
#
# number of rings (size 3 to 8) (size 9 to 14) (size 15 to 20)
#    0.000    0.500    5.000    3.000    5.250    0.000 
#    2.250    0.000    0.000    0.000    0.000    0.000 
#    0.000    0.000    0.000    0.000    0.000    0.000 
#
# Total GULP energy -793931.597099 kJ/mol
# GULP energy per Si atom -12405.181205 kJ/mol
# Density = 2.344946 g / cm^3
# Si number density = 23.502953 Si / 1000 Ang^3
#
#
#
# Elastic Constant Matrix: (Units=GPa)
#
#
# Indices 1 2 3 4 5 6 
#
# 1 112.0638 15.1632 30.8238 0.0000 0.0000 0.0000
# 2 15.1632 42.4700 20.6823 0.0000 0.0000 0.0000
# 3 30.8238 20.6823 101.6138 0.0000 0.0000 0.0000
# 4 0.0000 0.0000 0.0000 23.8265 0.0000 0.0000
# 5 0.0000 0.0000 0.0000 0.0000 47.3964 0.0000
# 6 0.0000 0.0000 0.0000 0.0000 0.0000 20.3910
#
#
#
# Elastic Compliance Matrix: (Units=1/GPa)
#
#
# Indices 1 2 3 4 5 6 
#
# 1 0.009936 -0.002308 -0.002544 0.000000 0.000000 0.000000
# 2 -0.002308 0.026673 -0.004729 0.000000 0.000000 0.000000
# 3 -0.002544 -0.004729 0.011575 0.000000 0.000000 0.000000
# 4 0.000000 0.000000 0.000000 0.041970 0.000000 0.000000
# 5 0.000000 0.000000 0.000000 0.000000 0.021099 0.000000
# 6 0.000000 0.000000 0.000000 0.000000 0.000000 0.049041
#
#
# Mechanical properties :
#
#
# Convention : Reuss Voigt Hill
#
# Bulk Modulus (GPa) = 34.45708 43.27622 38.86665
# Shear Modulus (GPa) = 26.43680 30.95466 28.69573
#
# Velocity S-wave (km/s) = 3.35749 3.63306 3.49799
# Velocity P-wave (km/s) = 5.45187 6.00432 5.73475
#
# Compressibility (1/GPa) = 0.02902161
#
# Stress axis : x y z
#
# Youngs Moduli (GPa) = 100.64825 37.49105 86.39030
#
# Poissons Ratio (x) = 0.08655 0.21978
# Poissons Ratio (y) = 0.23234 0.40852
# Poissons Ratio (z) = 0.25605 0.17729
#
# Static dielectric constant tensor:
#      x y z
#    x 4.313120 0.000000 0.000000 
#    y 0.000000 3.917640 0.000000 
#    z 0.000000 0.000000 4.236480 
# 
# 
# High freq. dielectric constant tensor:
#      x y z
#    x 1.943590 0.000000 0.000000 
#    y 0.000000 1.906100 0.000000 
#    z 0.000000 0.000000 1.938080 
# 
# From -- ./inp_files/7245.got.cif
#   From: 2010.03.12/outbox.cif.g09.slc.cpg/sg61_4_cif.got.tgz:7245.got - 2010.04.10 19:05:03.
