data_PCOD8249154
_publ_section_title
;
Structure prediction by ZEFSAII (Michael W. Deem and Ramdas Pophale) SiO2 
 PCOD8249154
Probable space group: P B C A
;
_chemical_formula_sum "Si O2"
_cell_formula_units_Z 48
_cell_length_a 8.632642
_cell_length_b 8.504078
_cell_length_c 31.053844
_cell_angle_alpha 90.000000
_cell_angle_beta 90.000000
_cell_angle_gamma 90.000000
_cell_volume 2279.745320
_symmetry_space_group_name_H-M "P B C A"
_symmetry_group_IT_number 61
_symmetry_cell_setting 'orthorhombic'
loop_
_space_group_symop_operation_xyz
x,y,z
1/2-x,-y,1/2+z
1/2+x,1/2-y,-z
-x,1/2+y,1/2-z
-x,-y,-z
1/2+x,y,1/2-z
1/2-x,1/2+y,z
x,1/2-y,1/2+z
loop_
_atom_site_type_symbol
_atom_site_label
_atom_site_fract_x
_atom_site_fract_y
_atom_site_fract_z
Si Si1 0.461815 0.700614 0.374210
Si Si2 0.536688 0.205856 0.958446
Si Si3 0.639761 0.845687 0.125075
Si Si4 0.359493 0.150669 0.042461
Si Si5 0.136825 0.648820 0.211184
Si Si6 0.538027 0.289992 0.289926
O O1 0.386180 0.530288 0.376817
O O2 0.324002 0.825950 0.372795
O O3 0.569842 0.733702 0.415331
O O4 0.564744 0.721786 0.331890
O O5 0.428347 0.237775 0.917340
O O6 0.675023 0.330839 0.958298
O O7 0.610089 0.033750 0.957123
O O8 0.434089 0.232728 0.000803
O O9 0.557995 0.769408 0.166346
O O10 0.321311 0.667150 0.209070
O O11 0.100262 0.465822 0.216289
O O12 0.075232 0.748156 0.251172
#
# Coordination Sequence:
#
# PCOD8249154 Si02
#       6
#     8   8   8   8   8   8
#     4  10  22  38  57  83 113 146 185 229 276 329
#     4  10  21  37  57  83 113 145 184 227 273 327
#     4  10  22  38  57  83 113 146 185 229 276 329
#     4  10  21  37  57  83 113 145 184 227 273 327
#     4  11  23  39  59  84 114 148 188 232 280 333
#     4  11  23  39  59  84 114 148 188 232 280 333
#
# _framework density 21.054984000000001
#
# number of rings (size 3 to 8) (size 9 to 14) (size 15 to 20)
#    0.000    1.667    0.000    4.000    0.000    7.333 
#    0.000    0.000    0.000    0.000    0.000    0.000 
#    0.000    0.000    0.000    0.000    0.000    0.000 
#
# Total GULP energy -595559.915653 kJ/mol
# GULP energy per Si atom -12407.498243 kJ/mol
# Density = 2.100706 g / cm^3
# Si number density = 21.054984 Si / 1000 Ang^3
#
#
#
# Elastic Constant Matrix: (Units=GPa)
#
#
# Indices 1 2 3 4 5 6 
#
# 1 64.8867 -2.0871 16.0056 0.0000 0.0000 0.0000
# 2 -2.0871 19.2527 12.6158 0.0000 0.0000 0.0000
# 3 16.0056 12.6158 137.5074 0.0000 0.0000 0.0000
# 4 0.0000 0.0000 0.0000 26.1966 0.0000 0.0000
# 5 0.0000 0.0000 0.0000 0.0000 39.8900 0.0000
# 6 0.0000 0.0000 0.0000 0.0000 0.0000 38.8362
#
#
#
# Elastic Compliance Matrix: (Units=1/GPa)
#
#
# Indices 1 2 3 4 5 6 
#
# 1 0.016045 0.003153 -0.002157 0.000000 0.000000 0.000000
# 2 0.003153 0.055883 -0.005494 0.000000 0.000000 0.000000
# 3 -0.002157 -0.005494 0.008027 0.000000 0.000000 0.000000
# 4 0.000000 0.000000 0.000000 0.038173 0.000000 0.000000
# 5 0.000000 0.000000 0.000000 0.000000 0.025069 0.000000
# 6 0.000000 0.000000 0.000000 0.000000 0.000000 0.025749
#
#
# Mechanical properties :
#
#
# Convention : Reuss Voigt Hill
#
# Bulk Modulus (GPa) = 14.09269 30.52393 22.30831
# Shear Modulus (GPa) = 24.80217 33.99205 29.39711
#
# Velocity S-wave (km/s) = 3.43588 4.02237 3.74064
# Velocity P-wave (km/s) = 4.73795 6.00844 5.41062
#
# Compressibility (1/GPa) = 0.07095875
#
# Stress axis : x y z
#
# Youngs Moduli (GPa) = 62.32505 17.89464 124.57272
#
# Poissons Ratio (x) = -0.05642 0.26868
# Poissons Ratio (y) = -0.19649 0.68440
# Poissons Ratio (z) = 0.13443 0.09831
#
# Static dielectric constant tensor:
#      x y z
#    x 3.803810 0.000000 0.000000 
#    y 0.000000 3.527720 0.000000 
#    z 0.000000 0.000000 4.186790 
# 
# 
# High freq. dielectric constant tensor:
#      x y z
#    x 1.834900 0.000000 0.000000 
#    y 0.000000 1.812340 0.000000 
#    z 0.000000 0.000000 1.845520 
# 
# From -- ./inp_files/1842.got.cif
#   From: 2010.03.12/outbox.cif.g09.slc.cpg/sg61_1_cif.got.tgz:1842.got - 2010.04.10 19:05:03.
