data_PCOD8249199
_publ_section_title
;
Structure prediction by ZEFSAII (Michael W. Deem and Ramdas Pophale) SiO2 
 PCOD8249199
Probable space group: P B C A
;
_chemical_formula_sum "Si O2"
_cell_formula_units_Z 32
_cell_length_a 4.994857
_cell_length_b 17.455780
_cell_length_c 16.918228
_cell_angle_alpha 90.000000
_cell_angle_beta 90.000000
_cell_angle_gamma 90.000000
_cell_volume 1475.085495
_symmetry_space_group_name_H-M "P B C A"
_symmetry_group_IT_number 61
_symmetry_cell_setting 'orthorhombic'
loop_
_space_group_symop_operation_xyz
x,y,z
1/2-x,-y,1/2+z
1/2+x,1/2-y,-z
-x,1/2+y,1/2-z
-x,-y,-z
1/2+x,y,1/2-z
1/2-x,1/2+y,z
x,1/2-y,1/2+z
loop_
_atom_site_type_symbol
_atom_site_label
_atom_site_fract_x
_atom_site_fract_y
_atom_site_fract_z
Si Si1 0.385064 0.414906 0.702380
Si Si2 0.596301 0.291789 0.029074
Si Si3 0.750299 0.455203 0.968324
Si Si4 0.911358 0.265348 0.299247
O O1 0.684893 0.438637 0.726579
O O2 0.277768 0.458445 0.625945
O O3 0.393687 0.324785 0.685539
O O4 0.490907 0.304166 0.118107
O O5 0.337891 0.270544 0.974908
O O6 0.733661 0.368303 0.997267
O O7 0.500000 0.500000 0.000000
O O8 0.000000 0.500000 0.000000
O O9 0.121719 0.291546 0.231895
#
# Coordination Sequence:
#
# PCOD8249199 Si02
#       4
#     8   8   8   8
#     4  10  21  40  66  94 126 171 223 268 322 401
#     4  12  24  42  69  97 130 172 225 274 334 391
#     4  12  26  44  65 100 138 176 219 275 339 403
#     4  10  21  38  64  98 128 163 221 281 324 380
#
# _framework density 21.693657000000002
#
# number of rings (size 3 to 8) (size 9 to 14) (size 15 to 20)
#    0.000    1.000    2.500    4.500    7.000    0.000 
#    0.000    7.500    0.000    0.000    0.000    0.000 
#    0.000    0.000    0.000    0.000    0.000    0.000 
#
# Total GULP energy -396777.849403 kJ/mol
# GULP energy per Si atom -12399.307794 kJ/mol
# Density = 2.164428 g / cm^3
# Si number density = 21.693657 Si / 1000 Ang^3
#
#
#
# Elastic Constant Matrix: (Units=GPa)
#
#
# Indices 1 2 3 4 5 6 
#
# 1 142.5705 32.9704 33.4094 0.0000 0.0000 0.0000
# 2 32.9704 54.5663 34.5750 0.0000 0.0000 0.0000
# 3 33.4094 34.5750 132.6652 0.0000 0.0000 0.0000
# 4 0.0000 0.0000 0.0000 28.6686 0.0000 0.0000
# 5 0.0000 0.0000 0.0000 0.0000 39.4464 0.0000
# 6 0.0000 0.0000 0.0000 0.0000 0.0000 39.7704
#
#
#
# Elastic Compliance Matrix: (Units=1/GPa)
#
#
# Indices 1 2 3 4 5 6 
#
# 1 0.008249 -0.004393 -0.000932 0.000000 0.000000 0.000000
# 2 -0.004393 0.024291 -0.005224 0.000000 0.000000 0.000000
# 3 -0.000932 -0.005224 0.009134 0.000000 0.000000 0.000000
# 4 0.000000 0.000000 0.000000 0.034881 0.000000 0.000000
# 5 0.000000 0.000000 0.000000 0.000000 0.025351 0.000000
# 6 0.000000 0.000000 0.000000 0.000000 0.000000 0.025144
#
#
# Mechanical properties :
#
#
# Convention : Reuss Voigt Hill
#
# Bulk Modulus (GPa) = 48.60498 59.07906 53.84202
# Shear Modulus (GPa) = 32.25637 36.83356 34.54497
#
# Velocity S-wave (km/s) = 3.86022 4.12502 3.99482
# Velocity P-wave (km/s) = 6.50555 7.06967 6.79347
#
# Compressibility (1/GPa) = 0.02057402
#
# Stress axis : x y z
#
# Youngs Moduli (GPa) = 121.23409 41.16723 109.47973
#
# Poissons Ratio (x) = 0.18086 0.10207
# Poissons Ratio (y) = 0.53261 0.57196
# Poissons Ratio (z) = 0.11302 0.21507
#
# Static dielectric constant tensor:
#      x y z
#    x 4.226850 0.000000 0.000000 
#    y 0.000000 3.603010 0.000000 
#    z 0.000000 0.000000 4.031950 
# 
# 
# High freq. dielectric constant tensor:
#      x y z
#    x 1.879490 0.000000 0.000000 
#    y 0.000000 1.815440 0.000000 
#    z 0.000000 0.000000 1.862940 
# 
# From -- ./inp_files/335.got.cif
#   From: 2010.03.12/outbox.cif.g09.slc.cpg/sg61_1_cif.got.tgz:335.got - 2010.04.10 19:05:03.
