data_PCOD8249244
_publ_section_title
;
Structure prediction by ZEFSAII (Michael W. Deem and Ramdas Pophale) SiO2 
 PCOD8249244
Probable space group: P B C A
;
_chemical_formula_sum "Si O2"
_cell_formula_units_Z 40
_cell_length_a 13.651949
_cell_length_b 18.163353
_cell_length_c 6.677749
_cell_angle_alpha 90.000000
_cell_angle_beta 90.000000
_cell_angle_gamma 90.000000
_cell_volume 1655.849158
_symmetry_space_group_name_H-M "P B C A"
_symmetry_group_IT_number 61
_symmetry_cell_setting 'orthorhombic'
loop_
_space_group_symop_operation_xyz
x,y,z
1/2-x,-y,1/2+z
1/2+x,1/2-y,-z
-x,1/2+y,1/2-z
-x,-y,-z
1/2+x,y,1/2-z
1/2-x,1/2+y,z
x,1/2-y,1/2+z
loop_
_atom_site_type_symbol
_atom_site_label
_atom_site_fract_x
_atom_site_fract_y
_atom_site_fract_z
Si Si1 0.805857 0.854161 0.044982
Si Si2 0.450939 0.903725 0.770633
Si Si3 0.175426 0.534172 0.811340
Si Si4 0.834601 0.420996 0.629933
Si Si5 0.180711 0.313527 0.006310
O O1 0.702439 0.900897 0.024331
O O2 0.823522 0.853406 0.281695
O O3 0.797982 0.772001 0.957591
O O4 0.896101 0.897838 0.944535
O O5 0.566419 0.906801 0.750960
O O6 0.423915 0.830832 0.901064
O O7 0.408868 0.977253 0.883798
O O8 0.139000 0.568846 0.603517
O O9 0.278629 0.491240 0.777603
O O10 0.762033 0.349847 0.643320
#
# Coordination Sequence:
#
# PCOD8249244 Si02
#       5
#     8   8   8   8   8
#     4  11  21  42  66  91 132 174 209 274 331 386
#     4  11  22  44  65  93 136 166 226 269 323 403
#     4  10  21  39  66  90 126 170 211 268 323 378
#     4  10  22  42  65  96 127 175 212 270 328 384
#     4  10  23  43  63  94 132 171 218 267 334 389
#
# _framework density 24.156789
#
# number of rings (size 3 to 8) (size 9 to 14) (size 15 to 20)
#    0.000    1.600    4.000    0.600    0.000    0.000 
#   10.800    3.000    0.000    0.000    0.000    0.000 
#    0.000    0.000    0.000    0.000    0.000    0.000 
#
# Total GULP energy -495845.846093 kJ/mol
# GULP energy per Si atom -12396.146152 kJ/mol
# Density = 2.410181 g / cm^3
# Si number density = 24.156789 Si / 1000 Ang^3
#
#
#
# Elastic Constant Matrix: (Units=GPa)
#
#
# Indices 1 2 3 4 5 6 
#
# 1 131.9774 36.7966 24.4299 0.0000 0.0000 0.0000
# 2 36.7966 110.4299 5.6292 0.0000 0.0000 0.0000
# 3 24.4299 5.6292 25.7842 0.0000 0.0000 0.0000
# 4 0.0000 0.0000 0.0000 42.2937 0.0000 0.0000
# 5 0.0000 0.0000 0.0000 0.0000 36.9635 0.0000
# 6 0.0000 0.0000 0.0000 0.0000 0.0000 16.0339
#
#
#
# Elastic Compliance Matrix: (Units=1/GPa)
#
#
# Indices 1 2 3 4 5 6 
#
# 1 0.010024 -0.002888 -0.008867 0.000000 0.000000 0.000000
# 2 -0.002888 0.009990 0.000555 0.000000 0.000000 0.000000
# 3 -0.008867 0.000555 0.047063 0.000000 0.000000 0.000000
# 4 0.000000 0.000000 0.000000 0.023644 0.000000 0.000000
# 5 0.000000 0.000000 0.000000 0.000000 0.027054 0.000000
# 6 0.000000 0.000000 0.000000 0.000000 0.000000 0.062368
#
#
# Mechanical properties :
#
#
# Convention : Reuss Voigt Hill
#
# Bulk Modulus (GPa) = 22.38251 44.65589 33.51920
# Shear Modulus (GPa) = 22.99563 32.48062 27.73812
#
# Velocity S-wave (km/s) = 3.08869 3.67082 3.39227
# Velocity P-wave (km/s) = 4.69101 6.04091 5.40824
#
# Compressibility (1/GPa) = 0.04467775
#
# Stress axis : x y z
#
# Youngs Moduli (GPa) = 99.76545 100.10494 21.24812
#
# Poissons Ratio (x) = 0.28910 0.18840
# Poissons Ratio (y) = 0.28812 -0.01180
# Poissons Ratio (z) = 0.88457 -0.05560
#
# Static dielectric constant tensor:
#      x y z
#    x 3.881930 0.000000 0.000000 
#    y 0.000000 4.497820 0.000000 
#    z 0.000000 0.000000 4.533490 
# 
# 
# High freq. dielectric constant tensor:
#      x y z
#    x 1.921640 0.000000 0.000000 
#    y 0.000000 1.960850 0.000000 
#    z 0.000000 0.000000 1.988610 
# 
# From -- ./inp_files/2134.got.cif
#   From: 2010.03.12/outbox.cif.g09.slc.cpg/sg61_2_cif.got.tgz:2134.got - 2010.04.10 19:05:03.
