data_PCOD8249330
_publ_section_title
;
Structure prediction by ZEFSAII (Michael W. Deem and Ramdas Pophale) SiO2 
 PCOD8249330
Probable space group: P B C A
;
_chemical_formula_sum "Si O2"
_cell_formula_units_Z 48
_cell_length_a 17.919415
_cell_length_b 13.663441
_cell_length_c 8.996756
_cell_angle_alpha 90.000000
_cell_angle_beta 90.000000
_cell_angle_gamma 90.000000
_cell_volume 2202.773563
_symmetry_space_group_name_H-M "P B C A"
_symmetry_group_IT_number 61
_symmetry_cell_setting 'orthorhombic'
loop_
_space_group_symop_operation_xyz
x,y,z
1/2-x,-y,1/2+z
1/2+x,1/2-y,-z
-x,1/2+y,1/2-z
-x,-y,-z
1/2+x,y,1/2-z
1/2-x,1/2+y,z
x,1/2-y,1/2+z
loop_
_atom_site_type_symbol
_atom_site_label
_atom_site_fract_x
_atom_site_fract_y
_atom_site_fract_z
Si Si1 0.523703 0.644692 0.997172
Si Si2 0.618200 0.470608 0.067554
Si Si3 0.783151 0.831766 0.877447
Si Si4 0.491293 0.165638 0.157967
Si Si5 0.341865 0.850506 0.945158
Si Si6 0.853206 0.459020 0.880138
O O1 0.595849 0.575346 0.999007
O O2 0.497284 0.670456 0.164836
O O3 0.456213 0.593651 0.907916
O O4 0.549838 0.737782 0.902759
O O5 0.660389 0.486389 0.223060
O O6 0.671391 0.418987 0.951734
O O7 0.797494 0.830881 0.703605
O O8 0.696398 0.860825 0.899378
O O9 0.806468 0.725829 0.938253
O O10 0.570090 0.164769 0.074317
O O11 0.440213 0.073022 0.112249
O O12 0.330690 0.962442 0.995177
#
# Coordination Sequence:
#
# PCOD8249330 Si02
#       6
#     8   8   8   8   8   8
#     4  10  22  38  69  94 129 171 221 274 320 391
#     4  10  21  43  63  95 132 171 220 269 329 384
#     4  12  25  44  66  96 130 179 216 269 342 391
#     4  11  22  42  65 102 127 175 220 271 326 391
#     4  12  24  44  68  93 130 174 218 269 330 401
#     4  11  27  41  67  98 133 167 224 276 325 394
#
# _framework density 21.790709
#
# number of rings (size 3 to 8) (size 9 to 14) (size 15 to 20)
#    0.000    1.000    3.333    2.500    2.333    5.333 
#    0.000    0.000    0.000    0.000    0.000    0.000 
#    0.000    0.000    0.000    0.000    0.000    0.000 
#
# Total GULP energy -595278.448709 kJ/mol
# GULP energy per Si atom -12401.634348 kJ/mol
# Density = 2.174111 g / cm^3
# Si number density = 21.790709 Si / 1000 Ang^3
#
#
#
# Elastic Constant Matrix: (Units=GPa)
#
#
# Indices 1 2 3 4 5 6 
#
# 1 66.8240 28.5947 19.0790 0.0000 0.0000 0.0000
# 2 28.5947 122.9058 40.1324 0.0000 0.0000 0.0000
# 3 19.0790 40.1324 54.6542 0.0000 0.0000 0.0000
# 4 0.0000 0.0000 0.0000 43.4619 0.0000 0.0000
# 5 0.0000 0.0000 0.0000 0.0000 18.2736 0.0000
# 6 0.0000 0.0000 0.0000 0.0000 0.0000 37.1055
#
#
#
# Elastic Compliance Matrix: (Units=1/GPa)
#
#
# Indices 1 2 3 4 5 6 
#
# 1 0.017275 -0.002697 -0.004050 0.000000 0.000000 0.000000
# 2 -0.002697 0.011123 -0.007227 0.000000 0.000000 0.000000
# 3 -0.004050 -0.007227 0.025017 0.000000 0.000000 0.000000
# 4 0.000000 0.000000 0.000000 0.023009 0.000000 0.000000
# 5 0.000000 0.000000 0.000000 0.000000 0.054724 0.000000
# 6 0.000000 0.000000 0.000000 0.000000 0.000000 0.026950
#
#
# Mechanical properties :
#
#
# Convention : Reuss Voigt Hill
#
# Bulk Modulus (GPa) = 39.26397 46.66626 42.96511
# Shear Modulus (GPa) = 25.70234 30.20671 27.95452
#
# Velocity S-wave (km/s) = 3.43812 3.72724 3.58560
# Velocity P-wave (km/s) = 5.81539 6.32339 6.07470
#
# Compressibility (1/GPa) = 0.02546864
#
# Stress axis : x y z
#
# Youngs Moduli (GPa) = 57.88714 89.90096 39.97246
#
# Poissons Ratio (x) = 0.24242 0.16190
# Poissons Ratio (y) = 0.15610 0.28886
# Poissons Ratio (z) = 0.23447 0.64967
#
# Static dielectric constant tensor:
#      x y z
#    x 3.944230 0.000000 0.000000 
#    y 0.000000 4.093040 0.000000 
#    z 0.000000 0.000000 3.847360 
# 
# 
# High freq. dielectric constant tensor:
#      x y z
#    x 1.851350 0.000000 0.000000 
#    y 0.000000 1.865440 0.000000 
#    z 0.000000 0.000000 1.855380 
# 
# From -- ./inp_files/3428.got.cif
#   From: 2010.03.12/outbox.cif.g09.slc.cpg/sg61_2_cif.got.tgz:3428.got - 2010.04.10 19:05:03.
