data_PCOD8249502
_publ_section_title
;
Structure prediction by ZEFSAII (Michael W. Deem and Ramdas Pophale) SiO2 
 PCOD8249502
Probable space group: P B C A
;
_chemical_formula_sum "Si O2"
_cell_formula_units_Z 64
_cell_length_a 26.213897
_cell_length_b 12.388683
_cell_length_c 8.667462
_cell_angle_alpha 90.000000
_cell_angle_beta 90.000000
_cell_angle_gamma 90.000000
_cell_volume 2814.807343
_symmetry_space_group_name_H-M "P B C A"
_symmetry_group_IT_number 61
_symmetry_cell_setting 'orthorhombic'
loop_
_space_group_symop_operation_xyz
x,y,z
1/2-x,-y,1/2+z
1/2+x,1/2-y,-z
-x,1/2+y,1/2-z
-x,-y,-z
1/2+x,y,1/2-z
1/2-x,1/2+y,z
x,1/2-y,1/2+z
loop_
_atom_site_type_symbol
_atom_site_label
_atom_site_fract_x
_atom_site_fract_y
_atom_site_fract_z
Si Si1 0.061746 0.457501 0.835109
Si Si2 0.603459 0.261934 0.251914
Si Si3 0.357284 0.360146 0.342083
Si Si4 0.174761 0.216546 0.004308
Si Si5 0.804688 0.497627 0.613848
Si Si6 0.955853 0.965075 0.315617
Si Si7 0.878226 0.352661 0.804203
Si Si8 0.754449 0.130140 0.859904
O O1 0.067522 0.341688 0.757052
O O2 0.113568 0.527139 0.814855
O O3 0.014277 0.522532 0.758095
O O4 0.046524 0.427426 0.008548
O O5 0.622700 0.265862 0.426741
O O6 0.573348 0.373689 0.213450
O O7 0.659835 0.249597 0.170707
O O8 0.390712 0.264647 0.266450
O O9 0.350624 0.343735 0.527268
O O10 0.303389 0.351181 0.250309
O O11 0.227641 0.260336 0.076852
O O12 0.174767 0.085905 0.009220
O O13 0.845457 0.413770 0.675575
O O14 0.784146 0.559031 0.762736
O O15 0.763315 0.430406 0.520317
O O16 0.930963 0.083597 0.312246
#
# Coordination Sequence:
#
# PCOD8249502 Si02
#       8
#     8   8   8   8   8   8   8   8
#     4  10  24  44  74 103 142 184 233 290 358 426
#     4  12  23  45  74 102 142 182 237 294 350 427
#     4  11  26  45  71 101 145 184 236 292 357 419
#     4  12  26  45  68 103 136 184 238 291 356 415
#     4  12  27  44  69  98 139 185 237 291 351 420
#     4  10  22  45  72 105 139 186 228 290 362 423
#     4  11  24  46  69 100 144 183 231 294 350 426
#     4  12  28  42  69 100 138 188 235 292 352 425
#
# _framework density 22.736901
#
# number of rings (size 3 to 8) (size 9 to 14) (size 15 to 20)
#    0.000    0.750    3.750    2.250   12.250    0.000 
#    0.000    0.625    0.000    0.000    0.000    0.000 
#    0.000    0.000    0.000    0.000    0.000    0.000 
#
# Total GULP energy -792914.389115 kJ/mol
# GULP energy per Si atom -12389.287330 kJ/mol
# Density = 2.268515 g / cm^3
# Si number density = 22.736901 Si / 1000 Ang^3
#
#
#
# Elastic Constant Matrix: (Units=GPa)
#
#
# Indices 1 2 3 4 5 6 
#
# 1 94.5260 32.7437 23.8857 0.0000 0.0000 0.0000
# 2 32.7437 118.2722 34.4068 0.0000 0.0000 0.0000
# 3 23.8857 34.4068 66.1150 0.0000 0.0000 0.0000
# 4 0.0000 0.0000 0.0000 42.6264 0.0000 0.0000
# 5 0.0000 0.0000 0.0000 0.0000 24.0347 0.0000
# 6 0.0000 0.0000 0.0000 0.0000 0.0000 28.8960
#
#
#
# Elastic Compliance Matrix: (Units=1/GPa)
#
#
# Indices 1 2 3 4 5 6 
#
# 1 0.012227 -0.002475 -0.003130 0.000000 0.000000 0.000000
# 2 -0.002475 0.010464 -0.004552 0.000000 0.000000 0.000000
# 3 -0.003130 -0.004552 0.018625 0.000000 0.000000 0.000000
# 4 0.000000 0.000000 0.000000 0.023460 0.000000 0.000000
# 5 0.000000 0.000000 0.000000 0.000000 0.041606 0.000000
# 6 0.000000 0.000000 0.000000 0.000000 0.000000 0.034607
#
#
# Mechanical properties :
#
#
# Convention : Reuss Voigt Hill
#
# Bulk Modulus (GPa) = 47.60952 51.22065 49.41509
# Shear Modulus (GPa) = 29.70850 31.63656 30.67253
#
# Velocity S-wave (km/s) = 3.61864 3.73422 3.67689
# Velocity P-wave (km/s) = 6.20034 6.41631 6.30925
#
# Compressibility (1/GPa) = 0.02100420
#
# Stress axis : x y z
#
# Youngs Moduli (GPa) = 81.78546 95.56280 53.69271
#
# Poissons Ratio (x) = 0.23649 0.16803
# Poissons Ratio (y) = 0.20239 0.24439
# Poissons Ratio (z) = 0.25595 0.43497
#
# Static dielectric constant tensor:
#      x y z
#    x 3.995590 0.000000 0.000000 
#    y 0.000000 4.330980 0.000000 
#    z 0.000000 0.000000 4.233520 
# 
# 
# High freq. dielectric constant tensor:
#      x y z
#    x 1.885630 0.000000 0.000000 
#    y 0.000000 1.907760 0.000000 
#    z 0.000000 0.000000 1.901630 
# 
# From -- ./inp_files/4632.got.cif
#   From: 2010.03.12/outbox.cif.g09.slc.cpg/sg61_3_cif.got.tgz:4632.got - 2010.04.10 19:05:03.
