data_PCOD8249335
_publ_section_title
;
Structure prediction by ZEFSAII (Michael W. Deem and Ramdas Pophale) SiO2 
 PCOD8249335
Probable space group: P B C A
;
_chemical_formula_sum "Si O2"
_cell_formula_units_Z 48
_cell_length_a 8.107122
_cell_length_b 11.993254
_cell_length_c 22.209631
_cell_angle_alpha 90.000000
_cell_angle_beta 90.000000
_cell_angle_gamma 90.000000
_cell_volume 2159.459598
_symmetry_space_group_name_H-M "P B C A"
_symmetry_group_IT_number 61
_symmetry_cell_setting 'orthorhombic'
loop_
_space_group_symop_operation_xyz
x,y,z
1/2-x,-y,1/2+z
1/2+x,1/2-y,-z
-x,1/2+y,1/2-z
-x,-y,-z
1/2+x,y,1/2-z
1/2-x,1/2+y,z
x,1/2-y,1/2+z
loop_
_atom_site_type_symbol
_atom_site_label
_atom_site_fract_x
_atom_site_fract_y
_atom_site_fract_z
Si Si1 0.286551 0.302407 0.062643
Si Si2 0.529619 0.727822 0.744738
Si Si3 0.972240 0.511350 0.391193
Si Si4 0.242023 0.161279 0.174104
Si Si5 0.072751 0.751645 0.937790
Si Si6 0.280294 0.861814 0.335781
O O1 0.395102 0.414561 0.067739
O O2 0.331136 0.218322 0.117029
O O3 0.089365 0.328118 0.062074
O O4 0.335592 0.240844 0.001211
O O5 0.419104 0.763999 0.688915
O O6 0.641506 0.834386 0.766816
O O7 0.644833 0.627619 0.717898
O O8 0.441885 0.691438 0.805609
O O9 0.829052 0.538481 0.341099
O O10 0.006735 0.622277 0.429120
O O11 0.150564 0.477340 0.362845
O O12 0.206560 0.716138 0.887976
#
# Coordination Sequence:
#
# PCOD8249335 Si02
#       6
#     8   8   8   8   8   8
#     4  11  22  44  68  95 135 174 216 280 330 390
#     4  10  21  43  68  91 141 171 219 269 336 388
#     4  11  23  43  68 103 129 174 227 266 340 399
#     4  10  22  43  64  99 130 173 216 278 321 396
#     4  11  25  46  68  99 137 171 224 280 331 395
#     4  11  22  43  68  99 132 178 214 280 328 389
#
# _framework density 22.227782000000001
#
# number of rings (size 3 to 8) (size 9 to 14) (size 15 to 20)
#    0.000    1.333    5.000    1.500    0.000    2.667 
#    3.000    4.167    0.000    0.000    0.000    0.000 
#    0.000    0.000    0.000    0.000    0.000    0.000 
#
# Total GULP energy -594719.474053 kJ/mol
# GULP energy per Si atom -12389.989043 kJ/mol
# Density = 2.217719 g / cm^3
# Si number density = 22.227782 Si / 1000 Ang^3
#
#
#
# Elastic Constant Matrix: (Units=GPa)
#
#
# Indices 1 2 3 4 5 6 
#
# 1 107.7025 29.6226 53.9925 0.0000 0.0000 0.0000
# 2 29.6226 61.1127 24.9767 0.0000 0.0000 0.0000
# 3 53.9925 24.9767 124.4265 0.0000 0.0000 0.0000
# 4 0.0000 0.0000 0.0000 23.5784 0.0000 0.0000
# 5 0.0000 0.0000 0.0000 0.0000 44.9389 0.0000
# 6 0.0000 0.0000 0.0000 0.0000 0.0000 31.5409
#
#
#
# Elastic Compliance Matrix: (Units=1/GPa)
#
#
# Indices 1 2 3 4 5 6 
#
# 1 0.012823 -0.004294 -0.004702 0.000000 0.000000 0.000000
# 2 -0.004294 0.019263 -0.002004 0.000000 0.000000 0.000000
# 3 -0.004702 -0.002004 0.010480 0.000000 0.000000 0.000000
# 4 0.000000 0.000000 0.000000 0.042412 0.000000 0.000000
# 5 0.000000 0.000000 0.000000 0.000000 0.022252 0.000000
# 6 0.000000 0.000000 0.000000 0.000000 0.000000 0.031705
#
#
# Mechanical properties :
#
#
# Convention : Reuss Voigt Hill
#
# Bulk Modulus (GPa) = 48.62288 56.71392 52.66840
# Shear Modulus (GPa) = 29.79907 32.32164 31.06035
#
# Velocity S-wave (km/s) = 3.66542 3.81742 3.74219
# Velocity P-wave (km/s) = 6.31158 6.70824 6.51293
#
# Compressibility (1/GPa) = 0.02056645
#
# Stress axis : x y z
#
# Youngs Moduli (GPa) = 77.98365 51.91197 95.42337
#
# Poissons Ratio (x) = 0.22290 0.44873
# Poissons Ratio (y) = 0.33484 0.19119
# Poissons Ratio (z) = 0.36672 0.10401
#
# Static dielectric constant tensor:
#      x y z
#    x 4.281830 0.000000 0.000000 
#    y 0.000000 3.615220 0.000000 
#    z 0.000000 0.000000 4.080130 
# 
# 
# High freq. dielectric constant tensor:
#      x y z
#    x 1.892700 0.000000 0.000000 
#    y 0.000000 1.826380 0.000000 
#    z 0.000000 0.000000 1.894430 
# 
# From -- ./inp_files/6580.got.cif
#   From: 2010.03.12/outbox.cif.g09.slc.cpg/sg61_4_cif.got.tgz:6580.got - 2010.04.10 19:05:03.
