data_PCOD8249336
_publ_section_title
;
Structure prediction by ZEFSAII (Michael W. Deem and Ramdas Pophale) SiO2 
 PCOD8249336
Probable space group: P B C A
;
_chemical_formula_sum "Si O2"
_cell_formula_units_Z 40
_cell_length_a 13.984056
_cell_length_b 8.562096
_cell_length_c 14.222917
_cell_angle_alpha 90.000000
_cell_angle_beta 90.000000
_cell_angle_gamma 90.000000
_cell_volume 1702.950102
_symmetry_space_group_name_H-M "P B C A"
_symmetry_group_IT_number 61
_symmetry_cell_setting 'orthorhombic'
loop_
_space_group_symop_operation_xyz
x,y,z
1/2-x,-y,1/2+z
1/2+x,1/2-y,-z
-x,1/2+y,1/2-z
-x,-y,-z
1/2+x,y,1/2-z
1/2-x,1/2+y,z
x,1/2-y,1/2+z
loop_
_atom_site_type_symbol
_atom_site_label
_atom_site_fract_x
_atom_site_fract_y
_atom_site_fract_z
Si Si1 0.119284 0.790008 0.244295
Si Si2 0.974692 0.687581 0.591520
Si Si3 0.183515 0.315215 0.021877
Si Si4 0.760296 0.552632 0.344534
Si Si5 0.119581 0.631246 0.428862
O O1 0.202612 0.665439 0.223638
O O2 0.093723 0.768230 0.354055
O O3 0.020884 0.753626 0.188776
O O4 0.159792 0.961101 0.216813
O O5 0.911657 0.822300 0.541872
O O6 0.907604 0.537939 0.613621
O O7 0.064890 0.651443 0.526217
O O8 0.269457 0.352288 0.951506
O O9 0.187598 0.143738 0.070006
O O10 0.182437 0.439014 0.106738
#
# Coordination Sequence:
#
# PCOD8249336 Si02
#       5
#     8   8   8   8   8
#     4  11  25  44  70 106 139 187 239 293 355 423
#     4  11  23  47  70 102 143 184 240 293 346 429
#     4  11  21  44  73  97 139 192 226 293 365 415
#     4  10  21  43  68  99 140 182 236 287 348 422
#     4  11  24  45  70 101 143 190 227 294 364 409
#
# _framework density 23.488651999999998
#
# number of rings (size 3 to 8) (size 9 to 14) (size 15 to 20)
#    0.000    1.200    6.000    1.200    2.800    2.400 
#   10.800    0.000    0.000    0.000    0.000    0.000 
#    0.000    0.000    0.000    0.000    0.000    0.000 
#
# Total GULP energy -496046.354588 kJ/mol
# GULP energy per Si atom -12401.158865 kJ/mol
# Density = 2.343519 g / cm^3
# Si number density = 23.488652 Si / 1000 Ang^3
#
#
#
# Elastic Constant Matrix: (Units=GPa)
#
#
# Indices 1 2 3 4 5 6 
#
# 1 56.8306 4.2871 -5.5931 0.0000 0.0000 0.0000
# 2 4.2871 68.4245 18.6095 0.0000 0.0000 0.0000
# 3 -5.5931 18.6095 74.4814 0.0000 0.0000 0.0000
# 4 0.0000 0.0000 0.0000 29.0328 0.0000 0.0000
# 5 0.0000 0.0000 0.0000 0.0000 16.2719 0.0000
# 6 0.0000 0.0000 0.0000 0.0000 0.0000 38.5920
#
#
#
# Elastic Compliance Matrix: (Units=1/GPa)
#
#
# Indices 1 2 3 4 5 6 
#
# 1 0.017888 -0.001594 0.001742 0.000000 0.000000 0.000000
# 2 -0.001594 0.015822 -0.004073 0.000000 0.000000 0.000000
# 3 0.001742 -0.004073 0.014575 0.000000 0.000000 0.000000
# 4 0.000000 0.000000 0.000000 0.034444 0.000000 0.000000
# 5 0.000000 0.000000 0.000000 0.000000 0.061456 0.000000
# 6 0.000000 0.000000 0.000000 0.000000 0.000000 0.025912
#
#
# Mechanical properties :
#
#
# Convention : Reuss Voigt Hill
#
# Bulk Modulus (GPa) = 24.73217 26.03817 25.38517
# Shear Modulus (GPa) = 26.11981 28.94154 27.53068
#
# Velocity S-wave (km/s) = 3.33831 3.51401 3.42729
# Velocity P-wave (km/s) = 5.04097 5.25108 5.14710
#
# Compressibility (1/GPa) = 0.04043316
#
# Stress axis : x y z
#
# Youngs Moduli (GPa) = 55.90386 63.20196 68.61245
#
# Poissons Ratio (x) = 0.10077 -0.11950
# Poissons Ratio (y) = 0.08914 0.27946
# Poissons Ratio (z) = -0.09736 0.25742
#
# Static dielectric constant tensor:
#      x y z
#    x 4.066450 0.000000 0.000000 
#    y 0.000000 4.295810 0.000000 
#    z 0.000000 0.000000 4.148290 
# 
# 
# High freq. dielectric constant tensor:
#      x y z
#    x 1.923670 0.000000 0.000000 
#    y 0.000000 1.919840 0.000000 
#    z 0.000000 0.000000 1.930660 
# 
# From -- ./inp_files/2731.got.cif
#   From: 2010.03.12/outbox.cif.g09.slc.cpg/sg61_2_cif.got.tgz:2731.got - 2010.04.10 19:05:03.
