data_PCOD8249722
_publ_section_title
;
Structure prediction by ZEFSAII (Michael W. Deem and Ramdas Pophale) SiO2 
 PCOD8249722
Probable space group: P B C A
;
_chemical_formula_sum "Si O2"
_cell_formula_units_Z 40
_cell_length_a 21.061671
_cell_length_b 5.106506
_cell_length_c 18.285979
_cell_angle_alpha 90.000000
_cell_angle_beta 90.000000
_cell_angle_gamma 90.000000
_cell_volume 1966.685372
_symmetry_space_group_name_H-M "P B C A"
_symmetry_group_IT_number 61
_symmetry_cell_setting 'orthorhombic'
loop_
_space_group_symop_operation_xyz
x,y,z
1/2-x,-y,1/2+z
1/2+x,1/2-y,-z
-x,1/2+y,1/2-z
-x,-y,-z
1/2+x,y,1/2-z
1/2-x,1/2+y,z
x,1/2-y,1/2+z
loop_
_atom_site_type_symbol
_atom_site_label
_atom_site_fract_x
_atom_site_fract_y
_atom_site_fract_z
Si Si1 0.050748 0.340127 0.211020
Si Si2 0.606737 0.668067 0.864741
Si Si3 0.708245 0.709718 0.755878
Si Si4 0.084470 0.810924 0.826115
Si Si5 0.544130 0.744587 0.010012
O O1 0.064974 0.607068 0.169597
O O2 0.079761 0.387156 0.293801
O O3 0.974226 0.336737 0.214126
O O4 0.080376 0.110266 0.163000
O O5 0.680128 0.691987 0.838559
O O6 0.601219 0.711454 0.951693
O O7 0.759729 0.488173 0.742187
O O8 0.649990 0.676791 0.699039
O O9 0.078669 0.780015 0.912358
O O10 0.500000 0.500000 0.000000
O O11 0.500000 0.000000 0.000000
#
# Coordination Sequence:
#
# PCOD8249722 Si02
#       5
#     8   8   8   8   8
#     4  11  22  37  66  97 129 167 206 275 334 387
#     4  11  22  43  63  96 133 168 212 264 334 392
#     4  11  25  42  63  88 126 180 231 263 299 376
#     4  11  23  40  67  97 134 165 222 267 332 381
#     4  12  24  40  65 104 139 165 199 273 354 408
#
# _framework density 20.338791000000001
#
# number of rings (size 3 to 8) (size 9 to 14) (size 15 to 20)
#    0.000    0.800    4.000    4.800    0.000    6.400 
#    0.000    2.000    0.000    0.000    0.000    0.000 
#    0.000    0.000    0.000    0.000    0.000    0.000 
#
# Total GULP energy -495558.227812 kJ/mol
# GULP energy per Si atom -12388.955695 kJ/mol
# Density = 2.029250 g / cm^3
# Si number density = 20.338791 Si / 1000 Ang^3
#
#
#
# Elastic Constant Matrix: (Units=GPa)
#
#
# Indices 1 2 3 4 5 6 
#
# 1 108.2900 21.0633 45.9866 0.0000 0.0000 0.0000
# 2 21.0633 103.1709 35.3753 0.0000 0.0000 0.0000
# 3 45.9866 35.3753 179.9827 0.0000 0.0000 0.0000
# 4 0.0000 0.0000 0.0000 25.2194 0.0000 0.0000
# 5 0.0000 0.0000 0.0000 0.0000 31.2256 0.0000
# 6 0.0000 0.0000 0.0000 0.0000 0.0000 31.8800
#
#
#
# Elastic Compliance Matrix: (Units=1/GPa)
#
#
# Indices 1 2 3 4 5 6 
#
# 1 0.010522 -0.001315 -0.002430 0.000000 0.000000 0.000000
# 2 -0.001315 0.010557 -0.001739 0.000000 0.000000 0.000000
# 3 -0.002430 -0.001739 0.006519 0.000000 0.000000 0.000000
# 4 0.000000 0.000000 0.000000 0.039652 0.000000 0.000000
# 5 0.000000 0.000000 0.000000 0.000000 0.032025 0.000000
# 6 0.000000 0.000000 0.000000 0.000000 0.000000 0.031368
#
#
# Mechanical properties :
#
#
# Convention : Reuss Voigt Hill
#
# Bulk Modulus (GPa) = 60.13142 66.25489 63.19315
# Shear Modulus (GPa) = 33.97786 36.93288 35.45537
#
# Velocity S-wave (km/s) = 4.09172 4.26594 4.17974
# Velocity P-wave (km/s) = 7.20778 7.54392 7.37776
#
# Compressibility (1/GPa) = 0.01663024
#
# Stress axis : x y z
#
# Youngs Moduli (GPa) = 95.03740 94.72018 153.40290
#
# Poissons Ratio (x) = 0.12456 0.37277
# Poissons Ratio (y) = 0.12497 0.26678
# Poissons Ratio (z) = 0.23094 0.16472
#
# Static dielectric constant tensor:
#      x y z
#    x 3.652150 0.000000 0.000000 
#    y 0.000000 4.991060 0.000000 
#    z 0.000000 0.000000 2.480880 
# 
# 
# High freq. dielectric constant tensor:
#      x y z
#    x 1.776970 0.000000 0.000000 
#    y 0.000000 1.819000 0.000000 
#    z 0.000000 0.000000 1.790640 
# 
# From -- ./inp_files/9736.got.cif
#   From: 2010.03.12/outbox.cif.g09.slc.cpg/sg61_5_cif.got.tgz:9736.got - 2010.04.10 19:05:03.
