data_PCOD8249394
_publ_section_title
;
Structure prediction by ZEFSAII (Michael W. Deem and Ramdas Pophale) SiO2 
 PCOD8249394
Probable space group: P B C A
;
_chemical_formula_sum "Si O2"
_cell_formula_units_Z 48
_cell_length_a 8.739860
_cell_length_b 20.027255
_cell_length_c 12.856567
_cell_angle_alpha 90.000000
_cell_angle_beta 90.000000
_cell_angle_gamma 90.000000
_cell_volume 2250.354410
_symmetry_space_group_name_H-M "P B C A"
_symmetry_group_IT_number 61
_symmetry_cell_setting 'orthorhombic'
loop_
_space_group_symop_operation_xyz
x,y,z
1/2-x,-y,1/2+z
1/2+x,1/2-y,-z
-x,1/2+y,1/2-z
-x,-y,-z
1/2+x,y,1/2-z
1/2-x,1/2+y,z
x,1/2-y,1/2+z
loop_
_atom_site_type_symbol
_atom_site_label
_atom_site_fract_x
_atom_site_fract_y
_atom_site_fract_z
Si Si1 0.134338 0.061248 0.666858
Si Si2 0.092644 0.395599 0.504861
Si Si3 0.924036 0.355582 0.040743
Si Si4 0.256844 0.306421 0.264917
Si Si5 0.536993 0.502709 0.847561
Si Si6 0.509963 0.764630 0.397686
O O1 0.174786 0.124315 0.738523
O O2 0.046490 0.085447 0.562396
O O3 0.287600 0.023753 0.635376
O O4 0.021250 0.010775 0.729457
O O5 0.273365 0.383408 0.514604
O O6 0.027416 0.425392 0.613941
O O7 0.071862 0.451357 0.416952
O O8 0.004580 0.328075 0.474502
O O9 0.889795 0.321227 0.151888
O O10 0.999154 0.301737 0.964940
O O11 0.329144 0.271216 0.163657
O O12 0.130096 0.258912 0.316817
#
# Coordination Sequence:
#
# PCOD8249394 Si02
#       6
#     8   8   8   8   8   8
#     4  12  19  40  66  95 122 182 215 267 332 386
#     4  10  22  40  59  98 119 171 217 272 326 375
#     4  11  23  39  66  96 135 171 224 263 335 401
#     4  11  20  38  60  97 122 172 218 254 335 383
#     4  11  21  38  69  85 128 162 229 269 313 405
#     4  11  23  39  66  95 131 170 216 275 319 403
#
# _framework density 21.329974
#
# number of rings (size 3 to 8) (size 9 to 14) (size 15 to 20)
#    0.000    1.000    8.333    0.000    4.667    0.667 
#    0.000    3.333    0.000    0.000    0.000    0.000 
#    0.000    0.000    0.000    0.000    0.000    0.000 
#
# Total GULP energy -595200.586681 kJ/mol
# GULP energy per Si atom -12400.012223 kJ/mol
# Density = 2.128143 g / cm^3
# Si number density = 21.329974 Si / 1000 Ang^3
#
#
#
# Elastic Constant Matrix: (Units=GPa)
#
#
# Indices 1 2 3 4 5 6 
#
# 1 100.1517 48.4203 38.6223 0.0000 0.0000 0.0000
# 2 48.4203 82.6131 52.9228 0.0000 0.0000 0.0000
# 3 38.6223 52.9228 77.9889 0.0000 0.0000 0.0000
# 4 0.0000 0.0000 0.0000 44.2877 0.0000 0.0000
# 5 0.0000 0.0000 0.0000 0.0000 31.9311 0.0000
# 6 0.0000 0.0000 0.0000 0.0000 0.0000 24.6895
#
#
#
# Elastic Compliance Matrix: (Units=1/GPa)
#
#
# Indices 1 2 3 4 5 6 
#
# 1 0.014192 -0.006750 -0.002448 0.000000 0.000000 0.000000
# 2 -0.006750 0.024624 -0.013367 0.000000 0.000000 0.000000
# 3 -0.002448 -0.013367 0.023105 0.000000 0.000000 0.000000
# 4 0.000000 0.000000 0.000000 0.022580 0.000000 0.000000
# 5 0.000000 0.000000 0.000000 0.000000 0.031317 0.000000
# 6 0.000000 0.000000 0.000000 0.000000 0.000000 0.040503
#
#
# Mechanical properties :
#
#
# Convention : Reuss Voigt Hill
#
# Bulk Modulus (GPa) = 59.55251 60.07605 59.81428
# Shear Modulus (GPa) = 24.14900 28.23423 26.19161
#
# Velocity S-wave (km/s) = 3.36841 3.64220 3.50798
# Velocity P-wave (km/s) = 6.56571 6.77597 6.67167
#
# Compressibility (1/GPa) = 0.01679190
#
# Stress axis : x y z
#
# Youngs Moduli (GPa) = 70.46071 40.61112 43.28040
#
# Poissons Ratio (x) = 0.27413 0.10594
# Poissons Ratio (y) = 0.47562 0.57852
# Poissons Ratio (z) = 0.17248 0.54284
#
# Static dielectric constant tensor:
#      x y z
#    x 3.932550 0.000000 0.000000 
#    y 0.000000 3.680940 0.000000 
#    z 0.000000 0.000000 3.853410 
# 
# 
# High freq. dielectric constant tensor:
#      x y z
#    x 1.849180 0.000000 0.000000 
#    y 0.000000 1.809090 0.000000 
#    z 0.000000 0.000000 1.824420 
# 
# From -- ./inp_files/7046.got.cif
#   From: 2010.03.12/outbox.cif.g09.slc.cpg/sg61_4_cif.got.tgz:7046.got - 2010.04.10 19:05:03.
