data_PCOD8249729
_publ_section_title
;
Structure prediction by ZEFSAII (Michael W. Deem and Ramdas Pophale) SiO2 
 PCOD8249729
Probable space group: P B C A
;
_chemical_formula_sum "Si O2"
_cell_formula_units_Z 48
_cell_length_a 9.132736
_cell_length_b 18.593600
_cell_length_c 13.734749
_cell_angle_alpha 90.000000
_cell_angle_beta 90.000000
_cell_angle_gamma 90.000000
_cell_volume 2332.303772
_symmetry_space_group_name_H-M "P B C A"
_symmetry_group_IT_number 61
_symmetry_cell_setting 'orthorhombic'
loop_
_space_group_symop_operation_xyz
x,y,z
1/2-x,-y,1/2+z
1/2+x,1/2-y,-z
-x,1/2+y,1/2-z
-x,-y,-z
1/2+x,y,1/2-z
1/2-x,1/2+y,z
x,1/2-y,1/2+z
loop_
_atom_site_type_symbol
_atom_site_label
_atom_site_fract_x
_atom_site_fract_y
_atom_site_fract_z
Si Si1 0.378367 0.026716 0.857705
Si Si2 0.248221 0.654853 0.167776
Si Si3 0.423026 0.302355 0.859843
Si Si4 0.232686 0.101059 0.482942
Si Si5 0.570936 0.662685 0.522074
Si Si6 0.716908 0.012549 0.830188
O O1 0.366650 0.086111 0.941873
O O2 0.543479 0.016699 0.822999
O O3 0.281970 0.050326 0.765693
O O4 0.323671 0.951206 0.898424
O O5 0.173335 0.683369 0.265214
O O6 0.407475 0.689186 0.163273
O O7 0.268623 0.569422 0.166059
O O8 0.151307 0.682746 0.077865
O O9 0.375455 0.357069 0.945560
O O10 0.394771 0.221514 0.896115
O O11 0.279279 0.055835 0.577550
O O12 0.103547 0.157779 0.505736
#
# Coordination Sequence:
#
# PCOD8249729 Si02
#       6
#     8   8   8   8   8   8
#     4  11  22  40  67  93 125 171 217 269 312 382
#     4  12  23  43  66  94 129 172 211 265 324 385
#     4  12  27  39  68  95 134 169 214 262 328 392
#     4  11  22  44  66  95 127 173 216 267 318 380
#     4  11  24  45  64  93 132 171 212 267 324 381
#     4  11  22  40  69  94 125 165 222 266 318 375
#
# _framework density 20.580508999999999
#
# number of rings (size 3 to 8) (size 9 to 14) (size 15 to 20)
#    0.000    0.667    5.000    4.000    0.000    6.000 
#    0.000    0.000    0.000    0.000    0.000    0.000 
#    0.000    0.000    0.000    0.000    0.000    0.000 
#
# Total GULP energy -595530.516471 kJ/mol
# GULP energy per Si atom -12406.885760 kJ/mol
# Density = 2.053367 g / cm^3
# Si number density = 20.580509 Si / 1000 Ang^3
#
#
#
# Elastic Constant Matrix: (Units=GPa)
#
#
# Indices 1 2 3 4 5 6 
#
# 1 41.9572 29.6648 36.8280 0.0000 0.0000 0.0000
# 2 29.6648 84.8353 24.2306 0.0000 0.0000 0.0000
# 3 36.8280 24.2306 116.6839 0.0000 0.0000 0.0000
# 4 0.0000 0.0000 0.0000 59.2447 0.0000 0.0000
# 5 0.0000 0.0000 0.0000 0.0000 33.4590 0.0000
# 6 0.0000 0.0000 0.0000 0.0000 0.0000 23.1610
#
#
#
# Elastic Compliance Matrix: (Units=1/GPa)
#
#
# Indices 1 2 3 4 5 6 
#
# 1 0.041221 -0.011373 -0.010649 0.000000 0.000000 0.000000
# 2 -0.011373 0.015668 0.000336 0.000000 0.000000 0.000000
# 3 -0.010649 0.000336 0.011861 0.000000 0.000000 0.000000
# 4 0.000000 0.000000 0.000000 0.016879 0.000000 0.000000
# 5 0.000000 0.000000 0.000000 0.000000 0.029887 0.000000
# 6 0.000000 0.000000 0.000000 0.000000 0.000000 0.043176
#
#
# Mechanical properties :
#
#
# Convention : Reuss Voigt Hill
#
# Bulk Modulus (GPa) = 39.40110 47.21368 43.30739
# Shear Modulus (GPa) = 23.75013 33.35647 28.55330
#
# Velocity S-wave (km/s) = 3.40076 4.03026 3.72882
# Velocity P-wave (km/s) = 5.88274 6.68192 6.29503
#
# Compressibility (1/GPa) = 0.02538000
#
# Stress axis : x y z
#
# Youngs Moduli (GPa) = 24.25920 63.82276 84.30697
#
# Poissons Ratio (x) = 0.72583 0.89776
# Poissons Ratio (y) = 0.27589 -0.02831
# Poissons Ratio (z) = 0.25833 -0.02143
#
# Static dielectric constant tensor:
#      x y z
#    x 3.697410 0.000000 0.000000 
#    y 0.000000 3.736350 0.000000 
#    z 0.000000 0.000000 3.949530 
# 
# 
# High freq. dielectric constant tensor:
#      x y z
#    x 1.803540 0.000000 0.000000 
#    y 0.000000 1.802040 0.000000 
#    z 0.000000 0.000000 1.822410 
# 
# From -- ./inp_files/3839.got.cif
#   From: 2010.03.12/outbox.cif.g09.slc.cpg/sg61_2_cif.got.tgz:3839.got - 2010.04.10 19:05:03.
