data_PCOD8249413
_publ_section_title
;
Structure prediction by ZEFSAII (Michael W. Deem and Ramdas Pophale) SiO2 
 PCOD8249413
Probable space group: P B C A
;
_chemical_formula_sum "Si O2"
_cell_formula_units_Z 64
_cell_length_a 9.151707
_cell_length_b 22.885736
_cell_length_c 15.193340
_cell_angle_alpha 90.000000
_cell_angle_beta 90.000000
_cell_angle_gamma 90.000000
_cell_volume 3182.147071
_symmetry_space_group_name_H-M "P B C A"
_symmetry_group_IT_number 61
_symmetry_cell_setting 'orthorhombic'
loop_
_space_group_symop_operation_xyz
x,y,z
1/2-x,-y,1/2+z
1/2+x,1/2-y,-z
-x,1/2+y,1/2-z
-x,-y,-z
1/2+x,y,1/2-z
1/2-x,1/2+y,z
x,1/2-y,1/2+z
loop_
_atom_site_type_symbol
_atom_site_label
_atom_site_fract_x
_atom_site_fract_y
_atom_site_fract_z
Si Si1 0.217068 0.012891 0.003930
Si Si2 0.263316 0.652309 0.216596
Si Si3 0.236696 0.416195 0.882924
Si Si4 0.048072 0.594613 0.523602
Si Si5 0.082938 0.894007 0.556382
Si Si6 0.472911 0.231224 0.281244
Si Si7 0.467179 0.785210 0.404175
Si Si8 0.868128 0.211836 0.548226
O O1 0.367034 0.038493 0.043814
O O2 0.149696 0.958956 0.062656
O O3 0.107616 0.067337 0.001905
O O4 0.248945 0.985488 0.906329
O O5 0.256239 0.594754 0.278848
O O6 0.184611 0.637257 0.127235
O O7 0.427206 0.674240 0.199651
O O8 0.188365 0.707015 0.264422
O O9 0.084224 0.390288 0.916504
O O10 0.368371 0.382205 0.934953
O O11 0.022132 0.647472 0.590283
O O12 0.104262 0.857270 0.466703
O O13 0.527325 0.268579 0.198075
O O14 0.465302 0.271638 0.367223
O O15 0.303502 0.776266 0.439440
O O16 0.576500 0.745891 0.461541
#
# Coordination Sequence:
#
# PCOD8249413 Si02
#       8
#     8   8   8   8   8   8   8   8
#     4   9  21  41  67  96 121 176 219 270 334 400
#     4  12  23  41  63  98 132 172 226 278 327 400
#     4  10  22  40  65  96 132 165 228 280 327 391
#     4   9  21  39  68  90 131 171 216 269 340 391
#     4  12  23  41  68  99 131 180 224 279 346 396
#     4  12  26  41  62  98 138 171 223 273 338 410
#     4  12  24  43  64  99 130 179 217 273 340 405
#     4  12  26  41  68  97 137 174 220 277 342 403
#
# _framework density 20.112207999999999
#
# number of rings (size 3 to 8) (size 9 to 14) (size 15 to 20)
#    0.750    0.250    5.000    1.875    3.500    0.000 
#    0.000    1.250    2.750    0.000    0.000    0.000 
#    0.000    0.000    0.000    0.000    0.000    0.000 
#
# Total GULP energy -793171.161812 kJ/mol
# GULP energy per Si atom -12393.299403 kJ/mol
# Density = 2.006643 g / cm^3
# Si number density = 20.112208 Si / 1000 Ang^3
#
#
#
# Elastic Constant Matrix: (Units=GPa)
#
#
# Indices 1 2 3 4 5 6 
#
# 1 72.6437 41.7045 36.2047 0.0000 0.0000 0.0000
# 2 41.7045 88.6928 40.5138 0.0000 0.0000 0.0000
# 3 36.2047 40.5138 100.9212 0.0000 0.0000 0.0000
# 4 0.0000 0.0000 0.0000 33.7043 0.0000 0.0000
# 5 0.0000 0.0000 0.0000 0.0000 27.6487 0.0000
# 6 0.0000 0.0000 0.0000 0.0000 0.0000 21.8628
#
#
#
# Elastic Compliance Matrix: (Units=1/GPa)
#
#
# Indices 1 2 3 4 5 6 
#
# 1 0.020217 -0.007584 -0.004208 0.000000 0.000000 0.000000
# 2 -0.007584 0.016652 -0.003964 0.000000 0.000000 0.000000
# 3 -0.004208 -0.003964 0.013010 0.000000 0.000000 0.000000
# 4 0.000000 0.000000 0.000000 0.029670 0.000000 0.000000
# 5 0.000000 0.000000 0.000000 0.000000 0.036168 0.000000
# 6 0.000000 0.000000 0.000000 0.000000 0.000000 0.045740
#
#
# Mechanical properties :
#
#
# Convention : Reuss Voigt Hill
#
# Bulk Modulus (GPa) = 54.44822 55.45595 54.95209
# Shear Modulus (GPa) = 25.11421 26.23215 25.67318
#
# Velocity S-wave (km/s) = 3.53754 3.61541 3.57669
# Velocity P-wave (km/s) = 6.61941 6.71278 6.66626
#
# Compressibility (1/GPa) = 0.01836607
#
# Stress axis : x y z
#
# Youngs Moduli (GPa) = 49.46300 60.05399 76.86606
#
# Poissons Ratio (x) = 0.45546 0.32347
# Poissons Ratio (y) = 0.37513 0.30469
# Poissons Ratio (z) = 0.20815 0.23805
#
# Static dielectric constant tensor:
#      x y z
#    x 3.834230 0.000000 0.000000 
#    y 0.000000 3.666320 0.000000 
#    z 0.000000 0.000000 3.466630 
# 
# 
# High freq. dielectric constant tensor:
#      x y z
#    x 1.807580 0.000000 0.000000 
#    y 0.000000 1.780480 0.000000 
#    z 0.000000 0.000000 1.756730 
# 
# From -- ./inp_files/7254.got.cif
#   From: 2010.03.12/outbox.cif.g09.slc.cpg/sg61_4_cif.got.tgz:7254.got - 2010.04.10 19:05:03.
