data_PCOD8249636
_publ_section_title
;
Structure prediction by ZEFSAII (Michael W. Deem and Ramdas Pophale) SiO2 
 PCOD8249636
Probable space group: P B C A
;
_chemical_formula_sum "Si O2"
_cell_formula_units_Z 48
_cell_length_a 13.191439
_cell_length_b 17.340774
_cell_length_c 9.960671
_cell_angle_alpha 90.000000
_cell_angle_beta 90.000000
_cell_angle_gamma 90.000000
_cell_volume 2278.501125
_symmetry_space_group_name_H-M "P B C A"
_symmetry_group_IT_number 61
_symmetry_cell_setting 'orthorhombic'
loop_
_space_group_symop_operation_xyz
x,y,z
1/2-x,-y,1/2+z
1/2+x,1/2-y,-z
-x,1/2+y,1/2-z
-x,-y,-z
1/2+x,y,1/2-z
1/2-x,1/2+y,z
x,1/2-y,1/2+z
loop_
_atom_site_type_symbol
_atom_site_label
_atom_site_fract_x
_atom_site_fract_y
_atom_site_fract_z
Si Si1 0.520340 0.977800 0.216016
Si Si2 0.836927 0.914281 0.863252
Si Si3 0.290004 0.724710 0.317211
Si Si4 0.656646 0.738127 0.924126
Si Si5 0.451652 0.655973 0.892048
Si Si6 0.882437 0.414317 0.951020
O O1 0.448947 0.916045 0.290151
O O2 0.600378 0.010685 0.322779
O O3 0.451690 0.047691 0.163218
O O4 0.582024 0.938008 0.097651
O O5 0.815029 0.861228 0.733463
O O6 0.732545 0.942678 0.930205
O O7 0.897318 0.863431 0.969579
O O8 0.214211 0.768663 0.217064
O O9 0.236776 0.717897 0.460746
O O10 0.394209 0.772365 0.324549
O O11 0.567320 0.676361 0.925196
O O12 0.608768 0.822593 0.940921
#
# Coordination Sequence:
#
# PCOD8249636 Si02
#       6
#     8   8   8   8   8   8
#     4  11  26  43  70  97 141 184 220 288 346 420
#     4  11  26  43  67 100 138 175 232 277 345 412
#     4  11  24  45  68 103 135 180 228 293 337 406
#     4  11  25  43  74  99 138 174 232 289 338 403
#     4  12  26  42  72 100 134 180 237 274 356 409
#     4  10  24  46  67 100 137 180 229 283 347 410
#
# _framework density 21.066479000000001
#
# number of rings (size 3 to 8) (size 9 to 14) (size 15 to 20)
#    0.000    1.000    3.333    2.500   11.667    4.000 
#    0.000    0.000    0.000    0.000    0.000    0.000 
#    0.000    0.000    0.000    0.000    0.000    0.000 
#
# Total GULP energy -595559.045557 kJ/mol
# GULP energy per Si atom -12407.480116 kJ/mol
# Density = 2.101853 g / cm^3
# Si number density = 21.066479 Si / 1000 Ang^3
#
#
#
# Elastic Constant Matrix: (Units=GPa)
#
#
# Indices 1 2 3 4 5 6 
#
# 1 85.3766 24.7364 17.0627 0.0000 0.0000 0.0000
# 2 24.7364 63.9639 14.7384 0.0000 0.0000 0.0000
# 3 17.0627 14.7384 58.5975 0.0000 0.0000 0.0000
# 4 0.0000 0.0000 0.0000 17.1936 0.0000 0.0000
# 5 0.0000 0.0000 0.0000 0.0000 27.4576 0.0000
# 6 0.0000 0.0000 0.0000 0.0000 0.0000 27.9612
#
#
#
# Elastic Compliance Matrix: (Units=1/GPa)
#
#
# Indices 1 2 3 4 5 6 
#
# 1 0.013611 -0.004618 -0.002802 0.000000 0.000000 0.000000
# 2 -0.004618 0.018162 -0.003224 0.000000 0.000000 0.000000
# 3 -0.002802 -0.003224 0.018692 0.000000 0.000000 0.000000
# 4 0.000000 0.000000 0.000000 0.058161 0.000000 0.000000
# 5 0.000000 0.000000 0.000000 0.000000 0.036420 0.000000
# 6 0.000000 0.000000 0.000000 0.000000 0.000000 0.035764
#
#
# Mechanical properties :
#
#
# Convention : Reuss Voigt Hill
#
# Bulk Modulus (GPa) = 34.27139 35.66811 34.96975
# Shear Modulus (GPa) = 23.60461 24.61584 24.11023
#
# Velocity S-wave (km/s) = 3.35099 3.42202 3.38669
# Velocity P-wave (km/s) = 5.59247 5.70803 5.65054
#
# Compressibility (1/GPa) = 0.02917886
#
# Stress axis : x y z
#
# Youngs Moduli (GPa) = 73.47139 55.05850 53.49830
#
# Poissons Ratio (x) = 0.25426 0.14989
# Poissons Ratio (y) = 0.33929 0.17245
# Poissons Ratio (z) = 0.20585 0.17748
#
# Static dielectric constant tensor:
#      x y z
#    x 3.987250 0.000000 0.000000 
#    y 0.000000 3.759170 0.000000 
#    z 0.000000 0.000000 3.874750 
# 
# 
# High freq. dielectric constant tensor:
#      x y z
#    x 1.839510 0.000000 0.000000 
#    y 0.000000 1.824640 0.000000 
#    z 0.000000 0.000000 1.836170 
# 
# From -- ./inp_files/2842.got.cif
#   From: 2010.03.12/outbox.cif.g09.slc.cpg/sg61_2_cif.got.tgz:2842.got - 2010.04.10 19:05:03.
