data_PCOD8249088
_publ_section_title
;
Structure prediction by ZEFSAII (Michael W. Deem and Ramdas Pophale) SiO2 
 PCOD8249088
Probable space group: P B C A
;
_chemical_formula_sum "Si O2"
_cell_formula_units_Z 32
_cell_length_a 9.098968
_cell_length_b 15.430042
_cell_length_c 12.471164
_cell_angle_alpha 90.000000
_cell_angle_beta 90.000000
_cell_angle_gamma 90.000000
_cell_volume 1750.919729
_symmetry_space_group_name_H-M "P B C A"
_symmetry_group_IT_number 61
_symmetry_cell_setting 'orthorhombic'
loop_
_space_group_symop_operation_xyz
x,y,z
1/2-x,-y,1/2+z
1/2+x,1/2-y,-z
-x,1/2+y,1/2-z
-x,-y,-z
1/2+x,y,1/2-z
1/2-x,1/2+y,z
x,1/2-y,1/2+z
loop_
_atom_site_type_symbol
_atom_site_label
_atom_site_fract_x
_atom_site_fract_y
_atom_site_fract_z
Si Si1 0.639592 0.416742 0.097996
Si Si2 0.167290 0.601187 0.487565
Si Si3 0.657083 0.770950 0.142962
Si Si4 0.847019 0.659513 0.815894
O O1 0.500112 0.394557 0.025800
O O2 0.767536 0.346801 0.070758
O O3 0.598404 0.409067 0.224823
O O4 0.700364 0.512236 0.074367
O O5 0.198323 0.678693 0.405885
O O6 0.278086 0.606107 0.586917
O O7 0.482602 0.783133 0.143696
O O8 0.724667 0.776043 0.263650
#
# Coordination Sequence:
#
# PCOD8249088 Si02
#       4
#     8   8   8   8
#     4   9  21  40  57  88 118 151 193 244 286 346
#     4  11  20  40  63  83 119 158 190 242 300 336
#     4  10  21  39  58  88 116 157 191 239 291 344
#     4  10  20  41  56  85 124 141 203 241 273 361
#
# _framework density 18.276108000000001
#
# number of rings (size 3 to 8) (size 9 to 14) (size 15 to 20)
#    1.500    0.500    2.500    1.500    0.000    1.000 
#   18.000    0.000    0.000    0.000    0.000    0.000 
#    0.000    0.000    0.000    0.000    0.000    0.000 
#
# Total GULP energy -396662.015725 kJ/mol
# GULP energy per Si atom -12395.687991 kJ/mol
# Density = 1.823451 g / cm^3
# Si number density = 18.276108 Si / 1000 Ang^3
#
#
#
# Elastic Constant Matrix: (Units=GPa)
#
#
# Indices 1 2 3 4 5 6 
#
# 1 73.6566 29.6521 2.9782 0.0000 0.0000 0.0000
# 2 29.6521 127.5614 30.8055 0.0000 0.0000 0.0000
# 3 2.9782 30.8055 53.0654 0.0000 0.0000 0.0000
# 4 0.0000 0.0000 0.0000 26.3663 0.0000 0.0000
# 5 0.0000 0.0000 0.0000 0.0000 31.8947 0.0000
# 6 0.0000 0.0000 0.0000 0.0000 0.0000 23.4118
#
#
#
# Elastic Compliance Matrix: (Units=1/GPa)
#
#
# Indices 1 2 3 4 5 6 
#
# 1 0.015065 -0.003835 0.001381 0.000000 0.000000 0.000000
# 2 -0.003835 0.010094 -0.005645 0.000000 0.000000 0.000000
# 3 0.001381 -0.005645 0.022044 0.000000 0.000000 0.000000
# 4 0.000000 0.000000 0.000000 0.037927 0.000000 0.000000
# 5 0.000000 0.000000 0.000000 0.000000 0.031353 0.000000
# 6 0.000000 0.000000 0.000000 0.000000 0.000000 0.042714
#
#
# Mechanical properties :
#
#
# Convention : Reuss Voigt Hill
#
# Bulk Modulus (GPa) = 32.25296 42.35056 37.30176
# Shear Modulus (GPa) = 26.92091 29.05773 27.98932
#
# Velocity S-wave (km/s) = 3.84215 3.99172 3.91765
# Velocity P-wave (km/s) = 6.11299 6.66844 6.39675
#
# Compressibility (1/GPa) = 0.03100491
#
# Stress axis : x y z
#
# Youngs Moduli (GPa) = 66.38042 99.06839 45.36400
#
# Poissons Ratio (x) = 0.37996 -0.06265
# Poissons Ratio (y) = 0.25459 0.25606
# Poissons Ratio (z) = -0.09167 0.55920
#
# Static dielectric constant tensor:
#      x y z
#    x 3.253560 0.000000 0.000000 
#    y 0.000000 3.185750 0.000000 
#    z 0.000000 0.000000 3.241820 
# 
# 
# High freq. dielectric constant tensor:
#      x y z
#    x 1.711240 0.000000 0.000000 
#    y 0.000000 1.695540 0.000000 
#    z 0.000000 0.000000 1.701110 
# 
# From -- ./inp_files/2036.got.cif
#   From: 2010.03.12/outbox.cif.g09.slc.cpg/sg61_2_cif.got.tgz:2036.got - 2010.04.10 19:05:03.
