data_PCOD8249844
_publ_section_title
;
Structure prediction by ZEFSAII (Michael W. Deem and Ramdas Pophale) SiO2 
 PCOD8249844
Probable space group: P B C A
;
_chemical_formula_sum "Si O2"
_cell_formula_units_Z 56
_cell_length_a 7.689480
_cell_length_b 22.537494
_cell_length_c 14.780137
_cell_angle_alpha 90.000000
_cell_angle_beta 90.000000
_cell_angle_gamma 90.000000
_cell_volume 2561.421529
_symmetry_space_group_name_H-M "P B C A"
_symmetry_group_IT_number 61
_symmetry_cell_setting 'orthorhombic'
loop_
_space_group_symop_operation_xyz
x,y,z
1/2-x,-y,1/2+z
1/2+x,1/2-y,-z
-x,1/2+y,1/2-z
-x,-y,-z
1/2+x,y,1/2-z
1/2-x,1/2+y,z
x,1/2-y,1/2+z
loop_
_atom_site_type_symbol
_atom_site_label
_atom_site_fract_x
_atom_site_fract_y
_atom_site_fract_z
Si Si1 0.674772 0.071021 0.045211
Si Si2 0.423547 0.695777 0.417968
Si Si3 0.818697 0.715775 0.442420
Si Si4 0.516581 0.392602 0.038134
Si Si5 0.930137 0.362025 0.262515
Si Si6 0.126636 0.942860 0.405222
Si Si7 0.672017 0.269296 0.256290
O O1 0.645244 0.130047 0.104567
O O2 0.630017 0.014164 0.107025
O O3 0.547678 0.075007 0.958203
O O4 0.877613 0.068566 0.017446
O O5 0.625691 0.689944 0.442488
O O6 0.322434 0.721588 0.505027
O O7 0.382014 0.738199 0.335425
O O8 0.953301 0.671084 0.490485
O O9 0.878563 0.727368 0.339730
O O10 0.428166 0.386116 0.136180
O O11 0.701224 0.425722 0.038731
O O12 0.864135 0.411438 0.192233
O O13 0.874508 0.289917 0.254616
O O14 0.126243 0.341721 0.236141
#
# Coordination Sequence:
#
# PCOD8249844 Si02
#       7
#     8   8   8   8   8   8   8
#     4  11  26  44  69  99 140 189 228 296 354 419
#     4  12  24  42  64 104 143 181 232 283 367 423
#     4  12  24  41  68 101 142 184 221 298 354 428
#     4  12  24  45  73 105 139 184 236 294 362 417
#     4  12  22  42  69 102 134 177 240 292 333 424
#     4  11  24  47  70  96 138 185 246 289 339 424
#     4  12  25  39  66 103 139 178 229 287 355 423
#
# _framework density 21.862859
#
# number of rings (size 3 to 8) (size 9 to 14) (size 15 to 20)
#    0.000    0.286    5.714    3.857    4.000    0.000 
#    0.000    4.286    0.000    0.000    0.000    0.000 
#    0.000    0.000    0.000    0.000    0.000    0.000 
#
# Total GULP energy -694096.008011 kJ/mol
# GULP energy per Si atom -12394.571572 kJ/mol
# Density = 2.181310 g / cm^3
# Si number density = 21.862859 Si / 1000 Ang^3
#
#
#
# Elastic Constant Matrix: (Units=GPa)
#
#
# Indices 1 2 3 4 5 6 
#
# 1 68.7954 25.8071 29.0888 0.0000 0.0000 0.0000
# 2 25.8071 103.9544 22.6567 0.0000 0.0000 0.0000
# 3 29.0888 22.6567 92.0445 0.0000 0.0000 0.0000
# 4 0.0000 0.0000 0.0000 34.3517 0.0000 0.0000
# 5 0.0000 0.0000 0.0000 0.0000 30.4145 0.0000
# 6 0.0000 0.0000 0.0000 0.0000 0.0000 28.5188
#
#
#
# Elastic Compliance Matrix: (Units=1/GPa)
#
#
# Indices 1 2 3 4 5 6 
#
# 1 0.017835 -0.003381 -0.004804 0.000000 0.000000 0.000000
# 2 -0.003381 0.010806 -0.001591 0.000000 0.000000 0.000000
# 3 -0.004804 -0.001591 0.012774 0.000000 0.000000 0.000000
# 4 0.000000 0.000000 0.000000 0.029111 0.000000 0.000000
# 5 0.000000 0.000000 0.000000 0.000000 0.032879 0.000000
# 6 0.000000 0.000000 0.000000 0.000000 0.000000 0.035065
#
#
# Mechanical properties :
#
#
# Convention : Reuss Voigt Hill
#
# Bulk Modulus (GPa) = 45.74015 46.65550 46.19782
# Shear Modulus (GPa) = 30.24616 31.13979 30.69297
#
# Velocity S-wave (km/s) = 3.72351 3.77812 3.75091
# Velocity P-wave (km/s) = 6.28115 6.35756 6.31947
#
# Compressibility (1/GPa) = 0.02186263
#
# Stress axis : x y z
#
# Youngs Moduli (GPa) = 56.06802 92.54369 78.28176
#
# Poissons Ratio (x) = 0.31286 0.37610
# Poissons Ratio (y) = 0.18954 0.12458
# Poissons Ratio (z) = 0.26937 0.14728
#
# Static dielectric constant tensor:
#      x y z
#    x 4.438580 0.000000 0.000000 
#    y 0.000000 3.861990 0.000000 
#    z 0.000000 0.000000 3.553470 
# 
# 
# High freq. dielectric constant tensor:
#      x y z
#    x 1.901790 0.000000 0.000000 
#    y 0.000000 1.854990 0.000000 
#    z 0.000000 0.000000 1.837160 
# 
# From -- ./inp_files/7148.got.cif
#   From: 2010.03.12/outbox.cif.g09.slc.cpg/sg61_4_cif.got.tgz:7148.got - 2010.04.10 19:05:03.
