data_PCOD8249239
_publ_section_title
;
Structure prediction by ZEFSAII (Michael W. Deem and Ramdas Pophale) SiO2 
 PCOD8249239
Probable space group: P B C A
;
_chemical_formula_sum "Si O2"
_cell_formula_units_Z 48
_cell_length_a 9.119914
_cell_length_b 8.728747
_cell_length_c 28.198308
_cell_angle_alpha 90.000000
_cell_angle_beta 90.000000
_cell_angle_gamma 90.000000
_cell_volume 2244.738207
_symmetry_space_group_name_H-M "P B C A"
_symmetry_group_IT_number 61
_symmetry_cell_setting 'orthorhombic'
loop_
_space_group_symop_operation_xyz
x,y,z
1/2-x,-y,1/2+z
1/2+x,1/2-y,-z
-x,1/2+y,1/2-z
-x,-y,-z
1/2+x,y,1/2-z
1/2-x,1/2+y,z
x,1/2-y,1/2+z
loop_
_atom_site_type_symbol
_atom_site_label
_atom_site_fract_x
_atom_site_fract_y
_atom_site_fract_z
Si Si1 0.656646 0.073625 0.997988
Si Si2 0.899953 0.598115 0.534037
Si Si3 0.653441 0.261113 0.845518
Si Si4 0.847306 0.448783 0.404305
Si Si5 0.555287 0.590141 0.714099
Si Si6 0.793504 0.391358 0.752380
O O1 0.730796 0.043809 0.947041
O O2 0.646268 0.251465 0.006621
O O3 0.500000 0.000000 0.000000
O O4 0.750902 0.998578 0.041068
O O5 0.000000 0.500000 0.500000
O O6 0.995254 0.626495 0.581392
O O7 0.617809 0.378717 0.887632
O O8 0.786324 0.151754 0.861191
O O9 0.508275 0.155437 0.835889
O O10 0.700256 0.360073 0.799805
O O11 0.678861 0.455413 0.712053
O O12 0.412385 0.526357 0.741461
O O13 0.626676 0.734501 0.740123
#
# Coordination Sequence:
#
# PCOD8249239 Si02
#       6
#     8   8   8   8   8   8
#     4  11  21  40  69  92 128 174 220 264 320 400
#     4  10  21  39  64  94 125 173 221 257 318 410
#     4  12  23  40  68  97 134 171 218 288 343 380
#     4  11  23  41  64  97 131 168 219 273 336 391
#     4  12  23  43  69  97 131 178 232 271 335 414
#     4  12  23  43  71  97 130 180 233 271 331 421
#
# _framework density 21.38334
#
# number of rings (size 3 to 8) (size 9 to 14) (size 15 to 20)
#    0.000    0.667    5.000    5.000    0.000    0.000 
#    0.000    3.333    0.000    0.000    0.000    0.000 
#    0.000    0.000    0.000    0.000    0.000    0.000 
#
# Total GULP energy -594847.054664 kJ/mol
# GULP energy per Si atom -12392.646972 kJ/mol
# Density = 2.133467 g / cm^3
# Si number density = 21.383340 Si / 1000 Ang^3
#
#
#
# Elastic Constant Matrix: (Units=GPa)
#
#
# Indices 1 2 3 4 5 6 
#
# 1 151.8673 55.2795 41.4171 0.0000 0.0000 0.0000
# 2 55.2795 116.0785 29.9989 0.0000 0.0000 0.0000
# 3 41.4171 29.9989 63.3769 0.0000 0.0000 0.0000
# 4 0.0000 0.0000 0.0000 39.5486 0.0000 0.0000
# 5 0.0000 0.0000 0.0000 0.0000 45.9111 0.0000
# 6 0.0000 0.0000 0.0000 0.0000 0.0000 48.0670
#
#
#
# Elastic Compliance Matrix: (Units=1/GPa)
#
#
# Indices 1 2 3 4 5 6 
#
# 1 0.008904 -0.003118 -0.004343 0.000000 0.000000 0.000000
# 2 -0.003118 0.010907 -0.003125 0.000000 0.000000 0.000000
# 3 -0.004343 -0.003125 0.020096 0.000000 0.000000 0.000000
# 4 0.000000 0.000000 0.000000 0.025285 0.000000 0.000000
# 5 0.000000 0.000000 0.000000 0.000000 0.021781 0.000000
# 6 0.000000 0.000000 0.000000 0.000000 0.000000 0.020804
#
#
# Mechanical properties :
#
#
# Convention : Reuss Voigt Hill
#
# Bulk Modulus (GPa) = 53.37589 64.96821 59.17205
# Shear Modulus (GPa) = 36.98336 40.34717 38.66527
#
# Velocity S-wave (km/s) = 4.16329 4.34850 4.25690
# Velocity P-wave (km/s) = 6.93731 7.46064 7.20373
#
# Compressibility (1/GPa) = 0.01873505
#
# Stress axis : x y z
#
# Youngs Moduli (GPa) = 112.30864 91.68086 49.76084
#
# Poissons Ratio (x) = 0.28586 0.21611
# Poissons Ratio (y) = 0.35017 0.15552
# Poissons Ratio (z) = 0.48775 0.28653
#
# Static dielectric constant tensor:
#      x y z
#    x 5.587550 0.000000 0.000000 
#    y 0.000000 -1.569890 0.000000 
#    z 0.000000 0.000000 1.842720 
# 
# 
# High freq. dielectric constant tensor:
#      x y z
#    x 1.853400 0.000000 0.000000 
#    y 0.000000 1.864140 0.000000 
#    z 0.000000 0.000000 1.800500 
# 
# From -- ./inp_files/11676.got.cif
#   From: 2010.03.12/outbox.cif.g09.slc.cpg/sg61_6_cif.got.tgz:11676.got - 2010.04.10 19:05:03.
