data_PCOD8249025
_publ_section_title
;
Structure prediction by ZEFSAII (Michael W. Deem and Ramdas Pophale) SiO2 
 PCOD8249025
Probable space group: P B C A
;
_chemical_formula_sum "Si O2"
_cell_formula_units_Z 48
_cell_length_a 12.589714
_cell_length_b 20.225793
_cell_length_c 8.934390
_cell_angle_alpha 90.000000
_cell_angle_beta 90.000000
_cell_angle_gamma 90.000000
_cell_volume 2275.025813
_symmetry_space_group_name_H-M "P B C A"
_symmetry_group_IT_number 61
_symmetry_cell_setting 'orthorhombic'
loop_
_space_group_symop_operation_xyz
x,y,z
1/2-x,-y,1/2+z
1/2+x,1/2-y,-z
-x,1/2+y,1/2-z
-x,-y,-z
1/2+x,y,1/2-z
1/2-x,1/2+y,z
x,1/2-y,1/2+z
loop_
_atom_site_type_symbol
_atom_site_label
_atom_site_fract_x
_atom_site_fract_y
_atom_site_fract_z
Si Si1 0.171005 0.764432 0.649048
Si Si2 0.900306 0.157560 0.083268
Si Si3 0.359924 0.452055 0.288822
Si Si4 0.225437 0.536762 0.482534
Si Si5 0.242866 0.332120 0.377176
Si Si6 0.557837 0.425756 0.096034
O O1 0.104144 0.713970 0.545722
O O2 0.091430 0.809590 0.751493
O O3 0.249667 0.728182 0.763151
O O4 0.250298 0.807807 0.548208
O O5 0.795306 0.110651 0.080066
O O6 0.997266 0.108345 0.044462
O O7 0.335228 0.508845 0.412352
O O8 0.344568 0.380058 0.360357
O O9 0.478366 0.453174 0.223793
O O10 0.267275 0.460111 0.162436
O O11 0.124773 0.488305 0.457295
O O12 0.134160 0.369353 0.339088
#
# Coordination Sequence:
#
# PCOD8249025 Si02
#       6
#     8   8   8   8   8   8
#     4  10  21  38  62  84 119 168 196 247 303 361
#     4  10  20  38  62  86 118 159 202 243 306 355
#     4  10  20  39  61  86 120 158 194 255 300 355
#     4  10  21  37  66  86 123 157 201 254 306 354
#     4  10  21  39  60  88 123 156 204 247 305 358
#     4  10  21  39  65  89 124 156 204 255 303 360
#
# _framework density 21.098659000000001
#
# number of rings (size 3 to 8) (size 9 to 14) (size 15 to 20)
#    0.000    2.000    3.333    2.000    4.667    1.333 
#    0.000    3.333    7.333    0.000    0.000    0.000 
#    0.000    0.000    0.000    0.000    0.000    0.000 
#
# Total GULP energy -594817.416023 kJ/mol
# GULP energy per Si atom -12392.029500 kJ/mol
# Density = 2.105064 g / cm^3
# Si number density = 21.098659 Si / 1000 Ang^3
#
#
#
# Elastic Constant Matrix: (Units=GPa)
#
#
# Indices 1 2 3 4 5 6 
#
# 1 59.5234 14.7488 13.3130 0.0000 0.0000 0.0000
# 2 14.7488 94.5808 36.7613 0.0000 0.0000 0.0000
# 3 13.3130 36.7613 109.0151 0.0000 0.0000 0.0000
# 4 0.0000 0.0000 0.0000 41.4118 0.0000 0.0000
# 5 0.0000 0.0000 0.0000 0.0000 21.8740 0.0000
# 6 0.0000 0.0000 0.0000 0.0000 0.0000 26.5095
#
#
#
# Elastic Compliance Matrix: (Units=1/GPa)
#
#
# Indices 1 2 3 4 5 6 
#
# 1 0.017663 -0.002205 -0.001413 0.000000 0.000000 0.000000
# 2 -0.002205 0.012443 -0.003927 0.000000 0.000000 0.000000
# 3 -0.001413 -0.003927 0.010670 0.000000 0.000000 0.000000
# 4 0.000000 0.000000 0.000000 0.024148 0.000000 0.000000
# 5 0.000000 0.000000 0.000000 0.000000 0.045716 0.000000
# 6 0.000000 0.000000 0.000000 0.000000 0.000000 0.037722
#
#
# Mechanical properties :
#
#
# Convention : Reuss Voigt Hill
#
# Bulk Modulus (GPa) = 38.93278 43.64063 41.28671
# Shear Modulus (GPa) = 29.06748 31.17882 30.12315
#
# Velocity S-wave (km/s) = 3.71576 3.84834 3.78263
# Velocity P-wave (km/s) = 6.07469 6.36202 6.22001
#
# Compressibility (1/GPa) = 0.02568530
#
# Stress axis : x y z
#
# Youngs Moduli (GPa) = 56.61688 80.36643 93.72261
#
# Poissons Ratio (x) = 0.17720 0.13247
# Poissons Ratio (y) = 0.12484 0.36802
# Poissons Ratio (z) = 0.08002 0.31557
#
# Static dielectric constant tensor:
#      x y z
#    x 3.422930 0.000000 0.000000 
#    y 0.000000 4.165080 0.000000 
#    z 0.000000 0.000000 3.880440 
# 
# 
# High freq. dielectric constant tensor:
#      x y z
#    x 1.786350 0.000000 0.000000 
#    y 0.000000 1.849950 0.000000 
#    z 0.000000 0.000000 1.826290 
# 
# From -- ./inp_files/2913.got.cif
#   From: 2010.03.12/outbox.cif.g09.slc.cpg/sg61_2_cif.got.tgz:2913.got - 2010.04.10 19:05:03.
