data_PCOD8249471
_publ_section_title
;
Structure prediction by ZEFSAII (Michael W. Deem and Ramdas Pophale) SiO2 
 PCOD8249471
Probable space group: P B C A
;
_chemical_formula_sum "Si O2"
_cell_formula_units_Z 56
_cell_length_a 14.924236
_cell_length_b 9.282815
_cell_length_c 18.999680
_cell_angle_alpha 90.000000
_cell_angle_beta 90.000000
_cell_angle_gamma 90.000000
_cell_volume 2632.195182
_symmetry_space_group_name_H-M "P B C A"
_symmetry_group_IT_number 61
_symmetry_cell_setting 'orthorhombic'
loop_
_space_group_symop_operation_xyz
x,y,z
1/2-x,-y,1/2+z
1/2+x,1/2-y,-z
-x,1/2+y,1/2-z
-x,-y,-z
1/2+x,y,1/2-z
1/2-x,1/2+y,z
x,1/2-y,1/2+z
loop_
_atom_site_type_symbol
_atom_site_label
_atom_site_fract_x
_atom_site_fract_y
_atom_site_fract_z
Si Si1 0.274343 0.734817 0.220320
Si Si2 0.531937 0.814188 0.564675
Si Si3 0.455993 0.326099 0.575157
Si Si4 0.616011 0.530407 0.945717
Si Si5 0.052874 0.376173 0.793676
Si Si6 0.794979 0.506648 0.876168
Si Si7 0.908194 0.297707 0.212189
O O1 0.359599 0.707680 0.269347
O O2 0.306672 0.834463 0.155664
O O3 0.237293 0.587188 0.189432
O O4 0.196550 0.802081 0.268662
O O5 0.516553 0.685177 0.507385
O O6 0.593274 0.939906 0.528197
O O7 0.581686 0.748914 0.631136
O O8 0.437761 0.891140 0.584247
O O9 0.410242 0.173689 0.599362
O O10 0.544184 0.354005 0.622010
O O11 0.386997 0.456243 0.588590
O O12 0.721068 0.502353 0.937897
O O13 0.053750 0.543730 0.774601
O O14 0.962121 0.314842 0.759619
#
# Coordination Sequence:
#
# PCOD8249471 Si02
#       7
#     8   8   8   8   8   8   8
#     4  12  25  41  67 101 138 175 238 283 345 411
#     4   9  22  45  67  97 137 178 229 276 348 420
#     4  10  22  43  67  98 132 178 229 275 341 421
#     4   9  20  42  68  94 134 181 226 268 347 418
#     4  12  26  43  71  98 141 181 227 294 348 410
#     4  12  20  43  68 101 130 181 232 281 332 430
#     4  12  26  45  67 104 137 181 228 289 348 405
#
# _framework density 21.275017999999999
#
# number of rings (size 3 to 8) (size 9 to 14) (size 15 to 20)
#    0.857    0.286    4.286    1.714    2.000    0.571 
#    5.143    0.000    0.000    0.000    0.000    0.000 
#    0.000    0.000    0.000    0.000    0.000    0.000 
#
# Total GULP energy -694390.322760 kJ/mol
# GULP energy per Si atom -12399.827192 kJ/mol
# Density = 2.122660 g / cm^3
# Si number density = 21.275018 Si / 1000 Ang^3
#
#
#
# Elastic Constant Matrix: (Units=GPa)
#
#
# Indices 1 2 3 4 5 6 
#
# 1 103.5364 39.6660 30.3096 0.0000 0.0000 0.0000
# 2 39.6660 84.6902 27.0037 0.0000 0.0000 0.0000
# 3 30.3096 27.0037 81.3470 0.0000 0.0000 0.0000
# 4 0.0000 0.0000 0.0000 32.9820 0.0000 0.0000
# 5 0.0000 0.0000 0.0000 0.0000 36.5092 0.0000
# 6 0.0000 0.0000 0.0000 0.0000 0.0000 34.9908
#
#
#
# Elastic Compliance Matrix: (Units=1/GPa)
#
#
# Indices 1 2 3 4 5 6 
#
# 1 0.012396 -0.004846 -0.003010 0.000000 0.000000 0.000000
# 2 -0.004846 0.015100 -0.003207 0.000000 0.000000 0.000000
# 3 -0.003010 -0.003207 0.014479 0.000000 0.000000 0.000000
# 4 0.000000 0.000000 0.000000 0.030320 0.000000 0.000000
# 5 0.000000 0.000000 0.000000 0.000000 0.027390 0.000000
# 6 0.000000 0.000000 0.000000 0.000000 0.000000 0.028579
#
#
# Mechanical properties :
#
#
# Convention : Reuss Voigt Hill
#
# Bulk Modulus (GPa) = 50.38016 51.50359 50.94187
# Shear Modulus (GPa) = 31.84571 32.40268 32.12420
#
# Velocity S-wave (km/s) = 3.87312 3.90685 3.89002
# Velocity P-wave (km/s) = 6.61311 6.67924 6.64626
#
# Compressibility (1/GPa) = 0.01984908
#
# Stress axis : x y z
#
# Youngs Moduli (GPa) = 80.66952 66.22481 69.06503
#
# Poissons Ratio (x) = 0.32094 0.20789
# Poissons Ratio (y) = 0.39094 0.22148
# Poissons Ratio (z) = 0.24282 0.21238
#
# Static dielectric constant tensor:
#      x y z
#    x 3.743350 0.000000 0.000000 
#    y 0.000000 3.897630 0.000000 
#    z 0.000000 0.000000 3.687680 
# 
# 
# High freq. dielectric constant tensor:
#      x y z
#    x 1.826600 0.000000 0.000000 
#    y 0.000000 1.844650 0.000000 
#    z 0.000000 0.000000 1.824270 
# 
# From -- ./inp_files/10461.got.cif
#   From: 2010.03.12/outbox.cif.g09.slc.cpg/sg61_6_cif.got.tgz:10461.got - 2010.04.10 19:05:03.
