data_PCOD8249633
_publ_section_title
;
Structure prediction by ZEFSAII (Michael W. Deem and Ramdas Pophale) SiO2 
 PCOD8249633
Probable space group: P B C A
;
_chemical_formula_sum "Si O2"
_cell_formula_units_Z 40
_cell_length_a 10.065009
_cell_length_b 9.725789
_cell_length_c 18.318113
_cell_angle_alpha 90.000000
_cell_angle_beta 90.000000
_cell_angle_gamma 90.000000
_cell_volume 1793.162899
_symmetry_space_group_name_H-M "P B C A"
_symmetry_group_IT_number 61
_symmetry_cell_setting 'orthorhombic'
loop_
_space_group_symop_operation_xyz
x,y,z
1/2-x,-y,1/2+z
1/2+x,1/2-y,-z
-x,1/2+y,1/2-z
-x,-y,-z
1/2+x,y,1/2-z
1/2-x,1/2+y,z
x,1/2-y,1/2+z
loop_
_atom_site_type_symbol
_atom_site_label
_atom_site_fract_x
_atom_site_fract_y
_atom_site_fract_z
Si Si1 0.891091 0.994762 0.325495
Si Si2 0.358735 0.973217 0.593797
Si Si3 0.866580 0.550271 0.660800
Si Si4 0.870201 0.853702 0.619369
Si Si5 0.838502 0.823620 0.457060
O O1 0.924546 0.878561 0.387463
O O2 0.739550 0.049093 0.336463
O O3 0.907347 0.933695 0.245294
O O4 0.993087 0.120014 0.337243
O O5 0.510157 0.989008 0.616184
O O6 0.339120 0.841335 0.541749
O O7 0.310810 0.110761 0.550274
O O8 0.823792 0.698390 0.632024
O O9 0.743154 0.450601 0.651350
O O10 0.896799 0.877780 0.533438
#
# Coordination Sequence:
#
# PCOD8249633 Si02
#       5
#     8   8   8   8   8
#     4  10  26  44  71  99 144 182 231 283 351 412
#     4  10  24  45  71  99 138 184 230 291 347 410
#     4  12  28  43  73 104 145 181 238 289 351 417
#     4  12  27  46  72 106 138 184 236 287 350 419
#     4  10  24  45  74  97 142 181 233 284 350 413
#
# _framework density 22.306954000000001
#
# number of rings (size 3 to 8) (size 9 to 14) (size 15 to 20)
#    1.200    0.000    0.000    4.200    8.400    4.800 
#    0.000    0.000    0.000    0.000    0.000    0.000 
#    0.000    0.000    0.000    0.000    0.000    0.000 
#
# Total GULP energy -495914.665842 kJ/mol
# GULP energy per Si atom -12397.866646 kJ/mol
# Density = 2.225618 g / cm^3
# Si number density = 22.306954 Si / 1000 Ang^3
#
#
#
# Elastic Constant Matrix: (Units=GPa)
#
#
# Indices 1 2 3 4 5 6 
#
# 1 79.2325 43.4856 1.8805 0.0000 0.0000 0.0000
# 2 43.4856 129.1235 36.9209 0.0000 0.0000 0.0000
# 3 1.8805 36.9209 137.2953 0.0000 0.0000 0.0000
# 4 0.0000 0.0000 0.0000 32.1926 0.0000 0.0000
# 5 0.0000 0.0000 0.0000 0.0000 22.8086 0.0000
# 6 0.0000 0.0000 0.0000 0.0000 0.0000 37.5563
#
#
#
# Elastic Compliance Matrix: (Units=1/GPa)
#
#
# Indices 1 2 3 4 5 6 
#
# 1 0.015696 -0.005660 0.001307 0.000000 0.000000 0.000000
# 2 -0.005660 0.010430 -0.002727 0.000000 0.000000 0.000000
# 3 0.001307 -0.002727 0.007999 0.000000 0.000000 0.000000
# 4 0.000000 0.000000 0.000000 0.031063 0.000000 0.000000
# 5 0.000000 0.000000 0.000000 0.000000 0.043843 0.000000
# 6 0.000000 0.000000 0.000000 0.000000 0.000000 0.026627
#
#
# Mechanical properties :
#
#
# Convention : Reuss Voigt Hill
#
# Bulk Modulus (GPa) = 50.08637 56.69170 53.38904
# Shear Modulus (GPa) = 31.95410 36.06913 34.01162
#
# Velocity S-wave (km/s) = 3.78891 4.02549 3.90899
# Velocity P-wave (km/s) = 6.45315 6.86117 6.66028
#
# Compressibility (1/GPa) = 0.01996551
#
# Stress axis : x y z
#
# Youngs Moduli (GPa) = 63.70886 95.87284 125.01393
#
# Poissons Ratio (x) = 0.54263 -0.16340
# Poissons Ratio (y) = 0.36058 0.34096
# Poissons Ratio (z) = -0.08327 0.26148
#
# Static dielectric constant tensor:
#      x y z
#    x 3.787630 0.000000 0.000000 
#    y 0.000000 3.849310 0.000000 
#    z 0.000000 0.000000 3.955710 
# 
# 
# High freq. dielectric constant tensor:
#      x y z
#    x 1.869380 0.000000 0.000000 
#    y 0.000000 1.876190 0.000000 
#    z 0.000000 0.000000 1.884200 
# 
# From -- ./inp_files/9122.got.cif
#   From: 2010.03.12/outbox.cif.g09.slc.cpg/sg61_5_cif.got.tgz:9122.got - 2010.04.10 19:05:03.
