data_PCOD8249932
_publ_section_title
;
Structure prediction by ZEFSAII (Michael W. Deem and Ramdas Pophale) SiO2 
 PCOD8249932
Probable space group: P B C A
;
_chemical_formula_sum "Si O2"
_cell_formula_units_Z 24
_cell_length_a 19.211802
_cell_length_b 4.622884
_cell_length_c 7.986950
_cell_angle_alpha 90.000000
_cell_angle_beta 90.000000
_cell_angle_gamma 90.000000
_cell_volume 709.352435
_symmetry_space_group_name_H-M "P B C A"
_symmetry_group_IT_number 61
_symmetry_cell_setting 'orthorhombic'
loop_
_space_group_symop_operation_xyz
x,y,z
1/2-x,-y,1/2+z
1/2+x,1/2-y,-z
-x,1/2+y,1/2-z
-x,-y,-z
1/2+x,y,1/2-z
1/2-x,1/2+y,z
x,1/2-y,1/2+z
loop_
_atom_site_type_symbol
_atom_site_label
_atom_site_fract_x
_atom_site_fract_y
_atom_site_fract_z
Si Si1 0.540043 0.584061 0.330443
Si Si2 0.877432 0.549407 0.151510
Si Si3 0.297085 0.023193 0.164714
O O1 0.527605 0.291952 0.215448
O O2 0.553078 0.497517 0.528229
O O3 0.609653 0.787023 0.287764
O O4 0.810808 0.500668 0.033364
O O5 0.863422 0.862927 0.241481
O O6 0.224004 0.855805 0.206863
#
# Coordination Sequence:
#
# PCOD8249932 Si02
#       3
#     8   8   8
#     4  12  28  50  82 124 166 218 278 340 410 494
#     4  12  28  52  82 118 164 216 272 342 412 486
#     4  12  28  50  78 114 154 206 270 334 402 480
#
# _framework density 33.833674000000002
#
# number of rings (size 3 to 8) (size 9 to 14) (size 15 to 20)
#    0.000    0.000    0.000    8.000    0.000   18.667 
#    0.000    0.000    0.000    0.000    0.000    0.000 
#    0.000    0.000    0.000    0.000    0.000    0.000 
#
# Total GULP energy -297711.695991 kJ/mol
# GULP energy per Si atom -12404.654000 kJ/mol
# Density = 3.375667 g / cm^3
# Si number density = 33.833674 Si / 1000 Ang^3
#
#
#
# Elastic Constant Matrix: (Units=GPa)
#
#
# Indices 1 2 3 4 5 6 
#
# 1 229.8475 69.7876 47.9332 0.0000 0.0000 0.0000
# 2 69.7876 206.3938 48.8253 0.0000 0.0000 0.0000
# 3 47.9332 48.8253 196.6390 0.0000 0.0000 0.0000
# 4 0.0000 0.0000 0.0000 82.4646 0.0000 0.0000
# 5 0.0000 0.0000 0.0000 0.0000 36.2948 0.0000
# 6 0.0000 0.0000 0.0000 0.0000 0.0000 51.3723
#
#
#
# Elastic Compliance Matrix: (Units=1/GPa)
#
#
# Indices 1 2 3 4 5 6 
#
# 1 0.004977 -0.001483 -0.000845 0.000000 0.000000 0.000000
# 2 -0.001483 0.005589 -0.001026 0.000000 0.000000 0.000000
# 3 -0.000845 -0.001026 0.005546 0.000000 0.000000 0.000000
# 4 0.000000 0.000000 0.000000 0.012126 0.000000 0.000000
# 5 0.000000 0.000000 0.000000 0.000000 0.027552 0.000000
# 6 0.000000 0.000000 0.000000 0.000000 0.000000 0.019466
#
#
# Mechanical properties :
#
#
# Convention : Reuss Voigt Hill
#
# Bulk Modulus (GPa) = 106.33668 107.33026 106.83347
# Shear Modulus (GPa) = 58.75394 65.11527 61.93461
#
# Velocity S-wave (km/s) = 4.17172 4.39175 4.28315
# Velocity P-wave (km/s) = 7.39606 7.58343 7.49033
#
# Compressibility (1/GPa) = 0.00940409
#
# Stress axis : x y z
#
# Youngs Moduli (GPa) = 200.91521 178.91156 180.30097
#
# Poissons Ratio (x) = 0.26533 0.15236
# Poissons Ratio (y) = 0.29797 0.18505
# Poissons Ratio (z) = 0.16978 0.18362
#
# Static dielectric constant tensor:
#      x y z
#    x 7.768590 0.000000 0.000000 
#    y 0.000000 6.557000 0.000000 
#    z 0.000000 0.000000 6.177870 
# 
# 
# High freq. dielectric constant tensor:
#      x y z
#    x 2.591950 0.000000 0.000000 
#    y 0.000000 2.467550 0.000000 
#    z 0.000000 0.000000 2.422120 
# 
# From -- ./inp_files/4138.got.cif
#   From: 2010.03.12/outbox.cif.g09.slc.cpg/sg61_3_cif.got.tgz:4138.got - 2010.04.10 19:05:03.
