data_PCOD8249134
_publ_section_title
;
Structure prediction by ZEFSAII (Michael W. Deem and Ramdas Pophale) SiO2 
 PCOD8249134
Probable space group: P B C A
;
_chemical_formula_sum "Si O2"
_cell_formula_units_Z 64
_cell_length_a 20.958097
_cell_length_b 16.660290
_cell_length_c 9.964595
_cell_angle_alpha 90.000000
_cell_angle_beta 90.000000
_cell_angle_gamma 90.000000
_cell_volume 3479.317447
_symmetry_space_group_name_H-M "P B C A"
_symmetry_group_IT_number 61
_symmetry_cell_setting 'orthorhombic'
loop_
_space_group_symop_operation_xyz
x,y,z
1/2-x,-y,1/2+z
1/2+x,1/2-y,-z
-x,1/2+y,1/2-z
-x,-y,-z
1/2+x,y,1/2-z
1/2-x,1/2+y,z
x,1/2-y,1/2+z
loop_
_atom_site_type_symbol
_atom_site_label
_atom_site_fract_x
_atom_site_fract_y
_atom_site_fract_z
Si Si1 0.010689 0.598722 0.860817
Si Si2 0.869477 0.809748 0.000575
Si Si3 0.053708 0.574148 0.142247
Si Si4 0.120134 0.174003 0.693357
Si Si5 0.317763 0.997776 0.207450
Si Si6 0.798873 0.523489 0.485149
Si Si7 0.420502 0.443623 0.107932
Si Si8 0.009089 0.387649 0.602989
O O1 0.978312 0.512428 0.864039
O O2 0.955667 0.663860 0.832140
O O3 0.066085 0.600404 0.748711
O O4 0.047259 0.617935 0.999294
O O5 0.846334 0.732849 0.915110
O O6 0.825380 0.886331 0.971711
O O7 0.941294 0.822184 0.947647
O O8 0.869826 0.789557 0.158207
O O9 0.126519 0.563718 0.190514
O O10 0.015365 0.630310 0.246814
O O11 0.155565 0.090027 0.677319
O O12 0.289646 0.000904 0.358638
O O13 0.266657 0.019386 0.094560
O O14 0.845791 0.459591 0.413895
O O15 0.457697 0.526530 0.097286
O O16 0.446985 0.386038 0.991551
#
# Coordination Sequence:
#
# PCOD8249134 Si02
#       8
#     8   8   8   8   8   8   8   8
#     4   9  17  29  49  77 105 130 163 210 268 312
#     4  10  21  35  54  79 109 142 176 219 276 334
#     4   9  17  29  49  78 105 129 164 218 262 308
#     4  10  21  36  53  79 112 140 174 223 274 330
#     4  10  21  36  53  80 110 141 188 231 264 315
#     4  10  21  35  54  80 107 143 188 229 267 316
#     4   9  15  29  51  74 100 130 163 212 264 307
#     4   9  15  29  51  73 100 131 164 204 265 318
#
# _framework density 18.394413
#
# number of rings (size 3 to 8) (size 9 to 14) (size 15 to 20)
#    0.000    2.500    2.500    0.000    3.500    1.000 
#    0.000    0.000    0.000    3.000    0.000    0.000 
#    0.000    0.000    0.000    0.000    0.000    0.000 
#
# Total GULP energy -793298.821358 kJ/mol
# GULP energy per Si atom -12395.294084 kJ/mol
# Density = 1.835255 g / cm^3
# Si number density = 18.394413 Si / 1000 Ang^3
#
#
#
# Elastic Constant Matrix: (Units=GPa)
#
#
# Indices 1 2 3 4 5 6 
#
# 1 77.6488 12.9195 43.1108 0.0000 0.0000 0.0000
# 2 12.9195 37.6837 32.0868 0.0000 0.0000 0.0000
# 3 43.1108 32.0868 148.2574 0.0000 0.0000 0.0000
# 4 0.0000 0.0000 0.0000 24.2104 0.0000 0.0000
# 5 0.0000 0.0000 0.0000 0.0000 36.3726 0.0000
# 6 0.0000 0.0000 0.0000 0.0000 0.0000 11.8201
#
#
#
# Elastic Compliance Matrix: (Units=1/GPa)
#
#
# Indices 1 2 3 4 5 6 
#
# 1 0.015457 -0.001805 -0.004104 0.000000 0.000000 0.000000
# 2 -0.001805 0.032742 -0.006561 0.000000 0.000000 0.000000
# 3 -0.004104 -0.006561 0.009359 0.000000 0.000000 0.000000
# 4 0.000000 0.000000 0.000000 0.041305 0.000000 0.000000
# 5 0.000000 0.000000 0.000000 0.000000 0.027493 0.000000
# 6 0.000000 0.000000 0.000000 0.000000 0.000000 0.084602
#
#
# Mechanical properties :
#
#
# Convention : Reuss Voigt Hill
#
# Bulk Modulus (GPa) = 30.65851 48.86935 39.76393
# Shear Modulus (GPa) = 20.26169 26.17882 23.22025
#
# Velocity S-wave (km/s) = 3.32251 3.77662 3.55682
# Velocity P-wave (km/s) = 5.60555 6.75591 6.20743
#
# Compressibility (1/GPa) = 0.03261737
#
# Stress axis : x y z
#
# Youngs Moduli (GPa) = 64.69384 30.54144 106.85451
#
# Poissons Ratio (x) = 0.05512 0.43855
# Poissons Ratio (y) = 0.11676 0.70113
# Poissons Ratio (z) = 0.26551 0.20040
#
# Static dielectric constant tensor:
#      x y z
#    x 3.226900 0.000000 0.000000 
#    y 0.000000 3.043970 0.000000 
#    z 0.000000 0.000000 3.688540 
# 
# 
# High freq. dielectric constant tensor:
#      x y z
#    x 1.691220 0.000000 0.000000 
#    y 0.000000 1.674150 0.000000 
#    z 0.000000 0.000000 1.733690 
# 
# From -- ./inp_files/4386.got.cif
#   From: 2010.03.12/outbox.cif.g09.slc.cpg/sg61_3_cif.got.tgz:4386.got - 2010.04.10 19:05:03.
