data_PCOD8249318
_publ_section_title
;
Structure prediction by ZEFSAII (Michael W. Deem and Ramdas Pophale) SiO2 
 PCOD8249318
Probable space group: P B C A
;
_chemical_formula_sum "Si O2"
_cell_formula_units_Z 56
_cell_length_a 14.141122
_cell_length_b 18.485439
_cell_length_c 8.853505
_cell_angle_alpha 90.000000
_cell_angle_beta 90.000000
_cell_angle_gamma 90.000000
_cell_volume 2314.349130
_symmetry_space_group_name_H-M "P B C A"
_symmetry_group_IT_number 61
_symmetry_cell_setting 'orthorhombic'
loop_
_space_group_symop_operation_xyz
x,y,z
1/2-x,-y,1/2+z
1/2+x,1/2-y,-z
-x,1/2+y,1/2-z
-x,-y,-z
1/2+x,y,1/2-z
1/2-x,1/2+y,z
x,1/2-y,1/2+z
loop_
_atom_site_type_symbol
_atom_site_label
_atom_site_fract_x
_atom_site_fract_y
_atom_site_fract_z
Si Si1 0.311643 0.472310 0.865867
Si Si2 0.476629 0.267779 0.579701
Si Si3 0.031827 0.854017 0.874288
Si Si4 0.685626 0.203205 0.066212
Si Si5 0.312341 0.158709 0.935368
Si Si6 0.250481 0.918751 0.160107
Si Si7 0.825404 0.604051 0.329595
O O1 0.384832 0.408572 0.827810
O O2 0.332793 0.545639 0.769411
O O3 0.206877 0.456095 0.793777
O O4 0.304700 0.478689 0.050441
O O5 0.443485 0.185883 0.533919
O O6 0.470441 0.286163 0.757094
O O7 0.583786 0.266934 0.519005
O O8 0.417801 0.331992 0.498522
O O9 0.935504 0.901815 0.880043
O O10 0.765684 0.262702 0.054761
O O11 0.684829 0.180485 0.241844
O O12 0.703850 0.135490 0.957983
O O13 0.320721 0.126205 0.766920
O O14 0.247406 0.103138 0.030213
#
# Coordination Sequence:
#
# PCOD8249318 Si02
#       7
#     8   8   8   8   8   8   8
#     4  11  24  49  65 100 140 183 234 269 351 410
#     4  11  24  38  68 102 140 178 228 290 347 398
#     4  11  24  41  68 103 139 181 232 287 339 415
#     4  10  23  42  65 104 137 174 232 285 341 396
#     4  12  22  41  68  99 137 179 226 287 345 397
#     4  11  26  45  73  97 141 189 222 288 336 416
#     4  10  21  42  65  95 138 176 222 287 331 406
#
# _framework density 24.196867000000001
#
# number of rings (size 3 to 8) (size 9 to 14) (size 15 to 20)
#    0.000    1.143    2.857    3.429    6.000    0.000 
#    2.571    3.571    0.000    0.000    0.000    0.000 
#    0.000    0.000    0.000    0.000    0.000    0.000 
#
# Total GULP energy -693847.145156 kJ/mol
# GULP energy per Si atom -12390.127592 kJ/mol
# Density = 2.414179 g / cm^3
# Si number density = 24.196867 Si / 1000 Ang^3
#
#
#
# Elastic Constant Matrix: (Units=GPa)
#
#
# Indices 1 2 3 4 5 6 
#
# 1 82.4212 1.7542 25.6667 0.0000 0.0000 0.0000
# 2 1.7542 36.9985 25.5754 0.0000 0.0000 0.0000
# 3 25.6667 25.5754 132.9189 0.0000 0.0000 0.0000
# 4 0.0000 0.0000 0.0000 48.6824 0.0000 0.0000
# 5 0.0000 0.0000 0.0000 0.0000 27.3169 0.0000
# 6 0.0000 0.0000 0.0000 0.0000 0.0000 9.3756
#
#
#
# Elastic Compliance Matrix: (Units=1/GPa)
#
#
# Indices 1 2 3 4 5 6 
#
# 1 0.012962 0.001287 -0.002751 0.000000 0.000000 0.000000
# 2 0.001287 0.031302 -0.006271 0.000000 0.000000 0.000000
# 3 -0.002751 -0.006271 0.009261 0.000000 0.000000 0.000000
# 4 0.000000 0.000000 0.000000 0.020541 0.000000 0.000000
# 5 0.000000 0.000000 0.000000 0.000000 0.036607 0.000000
# 6 0.000000 0.000000 0.000000 0.000000 0.000000 0.106660
#
#
# Mechanical properties :
#
#
# Convention : Reuss Voigt Hill
#
# Bulk Modulus (GPa) = 26.27774 39.81457 33.04615
# Shear Modulus (GPa) = 20.36748 30.36448 25.36598
#
# Velocity S-wave (km/s) = 2.90442 3.54629 3.24128
# Velocity P-wave (km/s) = 4.70437 5.76701 5.26258
#
# Compressibility (1/GPa) = 0.03805502
#
# Stress axis : x y z
#
# Youngs Moduli (GPa) = 77.14885 31.94652 107.97701
#
# Poissons Ratio (x) = -0.04111 0.29700
# Poissons Ratio (y) = -0.09927 0.67717
# Poissons Ratio (z) = 0.21220 0.20035
#
# Static dielectric constant tensor:
#      x y z
#    x 4.226940 0.000000 0.000000 
#    y 0.000000 4.419320 0.000000 
#    z 0.000000 0.000000 4.873120 
# 
# 
# High freq. dielectric constant tensor:
#      x y z
#    x 1.936600 0.000000 0.000000 
#    y 0.000000 1.966390 0.000000 
#    z 0.000000 0.000000 1.982120 
# 
# From -- ./inp_files/3070.got.cif
#   From: 2010.03.12/outbox.cif.g09.slc.cpg/sg61_2_cif.got.tgz:3070.got - 2010.04.10 19:05:03.
