data_PCOD8249620
_publ_section_title
;
Structure prediction by ZEFSAII (Michael W. Deem and Ramdas Pophale) SiO2 
 PCOD8249620
Probable space group: P B C A
;
_chemical_formula_sum "Si O2"
_cell_formula_units_Z 40
_cell_length_a 9.000163
_cell_length_b 12.928214
_cell_length_c 13.764767
_cell_angle_alpha 90.000000
_cell_angle_beta 90.000000
_cell_angle_gamma 90.000000
_cell_volume 1601.613687
_symmetry_space_group_name_H-M "P B C A"
_symmetry_group_IT_number 61
_symmetry_cell_setting 'orthorhombic'
loop_
_space_group_symop_operation_xyz
x,y,z
1/2-x,-y,1/2+z
1/2+x,1/2-y,-z
-x,1/2+y,1/2-z
-x,-y,-z
1/2+x,y,1/2-z
1/2-x,1/2+y,z
x,1/2-y,1/2+z
loop_
_atom_site_type_symbol
_atom_site_label
_atom_site_fract_x
_atom_site_fract_y
_atom_site_fract_z
Si Si1 0.452135 0.267443 0.877165
Si Si2 0.521699 0.665534 0.815309
Si Si3 0.429553 0.606587 0.363928
Si Si4 0.266174 0.821779 0.035049
Si Si5 0.855417 0.466551 0.726603
O O1 0.412923 0.185168 0.792581
O O2 0.620627 0.253943 0.911773
O O3 0.444141 0.383832 0.838515
O O4 0.336350 0.251451 0.964786
O O5 0.443010 0.769617 0.853441
O O6 0.659013 0.627455 0.883277
O O7 0.393988 0.579581 0.812886
O O8 0.359152 0.591167 0.472166
O O9 0.586654 0.550287 0.339327
O O10 0.319222 0.556588 0.282759
#
# Coordination Sequence:
#
# PCOD8249620 Si02
#       5
#     8   8   8   8   8
#     4  10  25  42  73  97 141 183 232 294 344 416
#     4  11  25  45  74 101 144 188 230 286 366 405
#     4  10  24  44  69 104 140 184 235 292 347 413
#     4  11  23  45  69 102 140 189 231 296 344 416
#     4  10  25  43  72 102 140 184 231 288 350 421
#
# _framework density 24.974810999999999
#
# number of rings (size 3 to 8) (size 9 to 14) (size 15 to 20)
#    0.000    1.600    2.000    0.000   19.600    3.200 
#    3.600    1.000    0.000    0.000    0.000    0.000 
#    0.000    0.000    0.000    0.000    0.000    0.000 
#
# Total GULP energy -495725.509292 kJ/mol
# GULP energy per Si atom -12393.137732 kJ/mol
# Density = 2.491797 g / cm^3
# Si number density = 24.974811 Si / 1000 Ang^3
#
#
#
# Elastic Constant Matrix: (Units=GPa)
#
#
# Indices 1 2 3 4 5 6 
#
# 1 59.8356 -18.9054 26.9770 0.0000 0.0000 0.0000
# 2 -18.9054 25.1440 -2.7303 0.0000 0.0000 0.0000
# 3 26.9770 -2.7303 127.6649 0.0000 0.0000 0.0000
# 4 0.0000 0.0000 0.0000 6.0911 0.0000 0.0000
# 5 0.0000 0.0000 0.0000 0.0000 44.4130 0.0000
# 6 0.0000 0.0000 0.0000 0.0000 0.0000 24.7171
#
#
#
# Elastic Compliance Matrix: (Units=1/GPa)
#
#
# Indices 1 2 3 4 5 6 
#
# 1 0.024544 0.017933 -0.004803 0.000000 0.000000 0.000000
# 2 0.017933 0.052966 -0.002657 0.000000 0.000000 0.000000
# 3 -0.004803 -0.002657 0.008791 0.000000 0.000000 0.000000
# 4 0.000000 0.000000 0.000000 0.164174 0.000000 0.000000
# 5 0.000000 0.000000 0.000000 0.000000 0.022516 0.000000
# 6 0.000000 0.000000 0.000000 0.000000 0.000000 0.040458
#
#
# Mechanical properties :
#
#
# Convention : Reuss Voigt Hill
#
# Bulk Modulus (GPa) = 9.32429 24.81414 17.06922
# Shear Modulus (GPa) = 15.23227 28.86446 22.04837
#
# Velocity S-wave (km/s) = 2.47231 3.40331 2.97446
# Velocity P-wave (km/s) = 3.44838 5.03990 4.31810
#
# Compressibility (1/GPa) = 0.10724675
#
# Stress axis : x y z
#
# Youngs Moduli (GPa) = 40.74364 18.88012 113.75162
#
# Poissons Ratio (x) = -0.33857 0.54633
# Poissons Ratio (y) = -0.73064 0.30219
# Poissons Ratio (z) = 0.19569 0.05016
#
# Static dielectric constant tensor:
#      x y z
#    x 4.658070 0.000000 0.000000 
#    y 0.000000 4.067660 0.000000 
#    z 0.000000 0.000000 5.056050 
# 
# 
# High freq. dielectric constant tensor:
#      x y z
#    x 2.009770 0.000000 0.000000 
#    y 0.000000 1.963450 0.000000 
#    z 0.000000 0.000000 1.999250 
# 
# From -- ./inp_files/6975.got.cif
#   From: 2010.03.12/outbox.cif.g09.slc.cpg/sg61_4_cif.got.tgz:6975.got - 2010.04.10 19:05:03.
