data_PCOD8249300
_publ_section_title
;
Structure prediction by ZEFSAII (Michael W. Deem and Ramdas Pophale) SiO2 
 PCOD8249300
Probable space group: P B C A
;
_chemical_formula_sum "Si O2"
_cell_formula_units_Z 64
_cell_length_a 23.479977
_cell_length_b 14.529928
_cell_length_c 9.123516
_cell_angle_alpha 90.000000
_cell_angle_beta 90.000000
_cell_angle_gamma 90.000000
_cell_volume 3112.600389
_symmetry_space_group_name_H-M "P B C A"
_symmetry_group_IT_number 61
_symmetry_cell_setting 'orthorhombic'
loop_
_space_group_symop_operation_xyz
x,y,z
1/2-x,-y,1/2+z
1/2+x,1/2-y,-z
-x,1/2+y,1/2-z
-x,-y,-z
1/2+x,y,1/2-z
1/2-x,1/2+y,z
x,1/2-y,1/2+z
loop_
_atom_site_type_symbol
_atom_site_label
_atom_site_fract_x
_atom_site_fract_y
_atom_site_fract_z
Si Si1 0.502788 0.243355 0.499398
Si Si2 0.173605 0.984572 0.540186
Si Si3 0.806723 0.667741 0.142326
Si Si4 0.267044 0.841440 0.533270
Si Si5 0.084110 0.229769 0.752706
Si Si6 0.647811 0.052351 0.660796
Si Si7 0.044323 0.932379 0.565300
Si Si8 0.043679 0.560014 0.405583
O O1 0.563002 0.242830 0.409584
O O2 0.524328 0.228785 0.663556
O O3 0.465632 0.334732 0.488514
O O4 0.458295 0.163559 0.463116
O O5 0.207568 0.891876 0.495013
O O6 0.107206 0.964490 0.524043
O O7 0.192583 0.069218 0.437137
O O8 0.186743 0.007031 0.711954
O O9 0.771513 0.664755 0.292142
O O10 0.871148 0.697288 0.181667
O O11 0.773738 0.740199 0.037082
O O12 0.316391 0.905860 0.470280
O O13 0.110821 0.128273 0.751442
O O14 0.607339 0.979365 0.578698
O O15 0.028673 0.934487 0.735504
O O16 0.000000 0.000000 0.500000
O O17 0.000000 0.500000 0.500000
#
# Coordination Sequence:
#
# PCOD8249300 Si02
#       8
#     8   8   8   8   8   8   8   8
#     4  12  22  38  60  95 130 171 210 260 324 386
#     4  11  24  45  66  96 128 173 223 272 331 390
#     4  11  23  42  70  96 129 168 222 273 328 388
#     4  11  24  44  68  96 124 168 222 276 328 387
#     4  11  20  37  65  93 127 167 219 260 314 389
#     4  10  21  41  65  92 130 168 218 275 318 384
#     4  11  25  43  64  94 136 170 214 271 328 391
#     4  11  23  39  62  94 130 171 212 263 325 392
#
# _framework density 20.561585999999998
#
# number of rings (size 3 to 8) (size 9 to 14) (size 15 to 20)
#    0.000    1.000    2.500    6.750    0.000    0.000 
#    6.750    0.000    0.000    0.000    0.000    0.000 
#    0.000    0.000    0.000    0.000    0.000    0.000 
#
# Total GULP energy -793529.746843 kJ/mol
# GULP energy per Si atom -12398.902294 kJ/mol
# Density = 2.051479 g / cm^3
# Si number density = 20.561586 Si / 1000 Ang^3
#
#
#
# Elastic Constant Matrix: (Units=GPa)
#
#
# Indices 1 2 3 4 5 6 
#
# 1 79.5545 47.5287 41.4388 0.0000 0.0000 0.0000
# 2 47.5287 121.6870 47.3924 0.0000 0.0000 0.0000
# 3 41.4388 47.3924 89.4734 0.0000 0.0000 0.0000
# 4 0.0000 0.0000 0.0000 32.6230 0.0000 0.0000
# 5 0.0000 0.0000 0.0000 0.0000 30.9188 0.0000
# 6 0.0000 0.0000 0.0000 0.0000 0.0000 34.5469
#
#
#
# Elastic Compliance Matrix: (Units=1/GPa)
#
#
# Indices 1 2 3 4 5 6 
#
# 1 0.018661 -0.004942 -0.006025 0.000000 0.000000 0.000000
# 2 -0.004942 0.011663 -0.003889 0.000000 0.000000 0.000000
# 3 -0.006025 -0.003889 0.016027 0.000000 0.000000 0.000000
# 4 0.000000 0.000000 0.000000 0.030653 0.000000 0.000000
# 5 0.000000 0.000000 0.000000 0.000000 0.032343 0.000000
# 6 0.000000 0.000000 0.000000 0.000000 0.000000 0.028946
#
#
# Mechanical properties :
#
#
# Convention : Reuss Voigt Hill
#
# Bulk Modulus (GPa) = 60.10008 62.60388 61.35198
# Shear Modulus (GPa) = 28.81023 29.90806 29.35915
#
# Velocity S-wave (km/s) = 3.74728 3.81801 3.78281
# Velocity P-wave (km/s) = 6.92933 7.06748 6.99875
#
# Compressibility (1/GPa) = 0.01663891
#
# Stress axis : x y z
#
# Youngs Moduli (GPa) = 53.58812 85.74456 62.39656
#
# Poissons Ratio (x) = 0.42376 0.37593
# Poissons Ratio (y) = 0.26484 0.24263
# Poissons Ratio (z) = 0.32286 0.33342
#
# Static dielectric constant tensor:
#      x y z
#    x 3.616790 0.000000 0.000000 
#    y 0.000000 3.933680 0.000000 
#    z 0.000000 0.000000 3.791270 
# 
# 
# High freq. dielectric constant tensor:
#      x y z
#    x 1.788620 0.000000 0.000000 
#    y 0.000000 1.815040 0.000000 
#    z 0.000000 0.000000 1.816490 
# 
# From -- ./inp_files/4356.got.cif
#   From: 2010.03.12/outbox.cif.g09.slc.cpg/sg61_3_cif.got.tgz:4356.got - 2010.04.10 19:05:03.
