data_PCOD8249646
_publ_section_title
;
Structure prediction by ZEFSAII (Michael W. Deem and Ramdas Pophale) SiO2 
 PCOD8249646
Probable space group: P B C A
;
_chemical_formula_sum "Si O2"
_cell_formula_units_Z 32
_cell_length_a 10.177767
_cell_length_b 13.006563
_cell_length_c 12.705663
_cell_angle_alpha 90.000000
_cell_angle_beta 90.000000
_cell_angle_gamma 90.000000
_cell_volume 1681.947305
_symmetry_space_group_name_H-M "P B C A"
_symmetry_group_IT_number 61
_symmetry_cell_setting 'orthorhombic'
loop_
_space_group_symop_operation_xyz
x,y,z
1/2-x,-y,1/2+z
1/2+x,1/2-y,-z
-x,1/2+y,1/2-z
-x,-y,-z
1/2+x,y,1/2-z
1/2-x,1/2+y,z
x,1/2-y,1/2+z
loop_
_atom_site_type_symbol
_atom_site_label
_atom_site_fract_x
_atom_site_fract_y
_atom_site_fract_z
Si Si1 0.700709 0.303587 0.709302
Si Si2 0.854446 0.116326 0.027645
Si Si3 0.930695 0.186696 0.815435
Si Si4 0.902039 0.964506 0.860411
O O1 0.726617 0.348700 0.592410
O O2 0.816317 0.226373 0.739688
O O3 0.564039 0.244891 0.709368
O O4 0.698411 0.397255 0.792345
O O5 0.973680 0.105672 0.110081
O O6 0.889571 0.201744 0.938526
O O7 0.831135 0.006241 0.967914
O O8 0.949783 0.064395 0.793310
#
# Coordination Sequence:
#
# PCOD8249646 Si02
#       4
#     8   8   8   8
#     4  12  22  42  67  97 123 175 214 255 327 384
#     4   9  22  41  61  89 135 160 204 275 308 370
#     4  10  25  37  68  91 128 165 213 257 320 380
#     4   9  22  42  60  92 128 168 202 272 312 364
#
# _framework density 19.025566999999999
#
# number of rings (size 3 to 8) (size 9 to 14) (size 15 to 20)
#    1.500    0.500    2.500    0.000    7.000    0.000 
#    0.000    1.250    0.000    0.000    0.000    0.000 
#    0.000    0.000    0.000    0.000    0.000    0.000 
#
# Total GULP energy -396550.283196 kJ/mol
# GULP energy per Si atom -12392.196350 kJ/mol
# Density = 1.898226 g / cm^3
# Si number density = 19.025567 Si / 1000 Ang^3
#
#
#
# Elastic Constant Matrix: (Units=GPa)
#
#
# Indices 1 2 3 4 5 6 
#
# 1 85.6703 20.3481 37.3423 0.0000 0.0000 0.0000
# 2 20.3481 56.3373 29.0327 0.0000 0.0000 0.0000
# 3 37.3423 29.0327 74.5883 0.0000 0.0000 0.0000
# 4 0.0000 0.0000 0.0000 39.1473 0.0000 0.0000
# 5 0.0000 0.0000 0.0000 0.0000 33.2061 0.0000
# 6 0.0000 0.0000 0.0000 0.0000 0.0000 17.8337
#
#
#
# Elastic Compliance Matrix: (Units=1/GPa)
#
#
# Indices 1 2 3 4 5 6 
#
# 1 0.015100 -0.001949 -0.006801 0.000000 0.000000 0.000000
# 2 -0.001949 0.022456 -0.007765 0.000000 0.000000 0.000000
# 3 -0.006801 -0.007765 0.019834 0.000000 0.000000 0.000000
# 4 0.000000 0.000000 0.000000 0.025545 0.000000 0.000000
# 5 0.000000 0.000000 0.000000 0.000000 0.030115 0.000000
# 6 0.000000 0.000000 0.000000 0.000000 0.000000 0.056074
#
#
# Mechanical properties :
#
#
# Convention : Reuss Voigt Hill
#
# Bulk Modulus (GPa) = 41.05091 43.33800 42.19445
# Shear Modulus (GPa) = 23.77856 26.69559 25.23707
#
# Velocity S-wave (km/s) = 3.53912 3.74992 3.64604
# Velocity P-wave (km/s) = 6.19064 6.44806 6.32066
#
# Compressibility (1/GPa) = 0.02436000
#
# Stress axis : x y z
#
# Youngs Moduli (GPa) = 66.22474 44.53211 50.41768
#
# Poissons Ratio (x) = 0.08679 0.34290
# Poissons Ratio (y) = 0.12907 0.39149
# Poissons Ratio (z) = 0.45041 0.34579
#
# Static dielectric constant tensor:
#      x y z
#    x 3.225330 0.000000 0.000000 
#    y 0.000000 3.403000 0.000000 
#    z 0.000000 0.000000 3.450670 
# 
# 
# High freq. dielectric constant tensor:
#      x y z
#    x 1.718810 0.000000 0.000000 
#    y 0.000000 1.734450 0.000000 
#    z 0.000000 0.000000 1.738920 
# 
# From -- ./inp_files/1977.got.cif
#   From: 2010.03.12/outbox.cif.g09.slc.cpg/sg61_1_cif.got.tgz:1977.got - 2010.04.10 19:05:03.
