data_PCOD8249992
_publ_section_title
;
Structure prediction by ZEFSAII (Michael W. Deem and Ramdas Pophale) SiO2 
 PCOD8249992
Probable space group: P N M A
;
_chemical_formula_sum "Si O2"
_cell_formula_units_Z 64
_cell_length_a 20.933112
_cell_length_b 8.977554
_cell_length_c 18.894155
_cell_angle_alpha 90.000000
_cell_angle_beta 90.000000
_cell_angle_gamma 90.000000
_cell_volume 3550.743470
_symmetry_space_group_name_H-M "P N M A"
_symmetry_group_IT_number 62
_symmetry_cell_setting 'orthorhombic'
loop_
_space_group_symop_operation_xyz
x,y,z
1/2-x,-y,1/2+z
1/2+x,1/2-y,1/2-z
-x,1/2+y,-z
-x,-y,-z
1/2+x,y,1/2-z
1/2-x,1/2+y,1/2+z
x,1/2-y,z
loop_
_atom_site_type_symbol
_atom_site_label
_atom_site_fract_x
_atom_site_fract_y
_atom_site_fract_z
Si Si1 0.812867 0.574094 0.454288
Si Si2 0.187356 0.921643 0.691499
Si Si3 0.056606 0.927433 0.043470
Si Si4 0.944848 0.076603 0.795071
Si Si5 0.942018 0.075953 0.460243
Si Si6 0.814462 0.919678 0.958976
Si Si7 0.822179 0.913986 0.790510
Si Si8 0.451055 0.082888 0.206197
O O1 0.812529 0.750000 0.468535
O O2 0.813385 0.541447 0.370949
O O3 0.876574 0.500676 0.487734
O O4 0.749286 0.500478 0.488782
O O5 0.189930 0.750000 0.660959
O O6 0.250741 0.950835 0.739999
O O7 0.121591 0.939973 0.735459
O O8 0.055826 0.750000 0.035525
O O9 0.047068 0.980316 0.124682
O O10 0.123451 0.990893 0.013548
O O11 0.000000 0.000000 0.000000
O O12 0.942111 0.250000 0.793425
O O13 0.877291 0.022150 0.762364
O O14 0.003469 0.027624 0.747372
O O15 0.939209 0.250000 0.478618
O O16 0.951717 0.048516 0.376973
O O17 0.000000 0.000000 0.500000
O O18 0.817192 0.750000 0.986927
O O19 0.813216 0.925052 0.874480
O O20 0.843912 0.750000 0.767018
O O21 0.474853 0.250000 0.221338
#
# Coordination Sequence:
#
# PCOD8249992 Si02
#       8
#     8   8   8   8   8   8   8   8
#     4  10  17  26  44  70  97 125 157 196 239 284
#     4   8  15  28  45  67  92 120 157 199 238 279
#     4  10  20  33  49  72  99 128 162 202 245 292
#     4  10  20  31  46  71 100 126 158 197 237 283
#     4  10  20  34  51  73  99 128 162 201 242 287
#     4   9  16  28  46  68  94 124 158 200 242 281
#     4   8  14  26  45  66  90 120 154 193 239 281
#     4   9  18  32  50  71  97 127 159 194 237 287
#
# _framework density 18.024394999999998
#
# number of rings (size 3 to 8) (size 9 to 14) (size 15 to 20)
#    0.000    2.750    0.000    4.125    0.000    7.000 
#    0.000    0.000    0.000    1.500    0.000    1.750 
#    0.000    0.000    0.000    0.000    0.000    0.000 
#
# Total GULP energy -793141.035454 kJ/mol
# GULP energy per Si atom -12392.828679 kJ/mol
# Density = 1.798337 g / cm^3
# Si number density = 18.024395 Si / 1000 Ang^3
#
#
#
# Elastic Constant Matrix: (Units=GPa)
#
#
# Indices 1 2 3 4 5 6 
#
# 1 186.5977 64.0658 35.3430 0.0000 0.0000 0.0000
# 2 64.0658 94.9038 22.2623 0.0000 0.0000 0.0000
# 3 35.3430 22.2623 22.4966 0.0000 0.0000 0.0000
# 4 0.0000 0.0000 0.0000 19.6207 0.0000 0.0000
# 5 0.0000 0.0000 0.0000 0.0000 23.3636 0.0000
# 6 0.0000 0.0000 0.0000 0.0000 0.0000 36.1131
#
#
#
# Elastic Compliance Matrix: (Units=1/GPa)
#
#
# Indices 1 2 3 4 5 6 
#
# 1 0.008371 -0.003342 -0.009844 0.000000 0.000000 0.000000
# 2 -0.003342 0.015056 -0.009650 0.000000 0.000000 0.000000
# 3 -0.009844 -0.009650 0.069466 0.000000 0.000000 0.000000
# 4 0.000000 0.000000 0.000000 0.050967 0.000000 0.000000
# 5 0.000000 0.000000 0.000000 0.000000 0.042802 0.000000
# 6 0.000000 0.000000 0.000000 0.000000 0.000000 0.027691
#
#
# Mechanical properties :
#
#
# Convention : Reuss Voigt Hill
#
# Bulk Modulus (GPa) = 21.17651 60.81559 40.99605
# Shear Modulus (GPa) = 18.13141 27.97462 23.05301
#
# Velocity S-wave (km/s) = 3.17509 3.94387 3.58018
# Velocity P-wave (km/s) = 5.02155 7.38599 6.31541
#
# Compressibility (1/GPa) = 0.04722213
#
# Stress axis : x y z
#
# Youngs Moduli (GPa) = 119.45957 66.41677 14.39552
#
# Poissons Ratio (x) = 0.22194 0.14171
# Poissons Ratio (y) = 0.39920 0.13891
# Poissons Ratio (z) = 1.17600 0.64090
#
# Static dielectric constant tensor:
#      x y z
#    x 3.885340 0.000000 0.000000 
#    y 0.000000 3.378870 0.000000 
#    z 0.000000 0.000000 2.771680 
# 
# 
# High freq. dielectric constant tensor:
#      x y z
#    x 1.728430 0.000000 0.000000 
#    y 0.000000 1.706040 0.000000 
#    z 0.000000 0.000000 1.620690 
# 
# From -- ./inp_files/24746.got.cif
#   From: 2010.03.12/outbox.cif.g09.slc.cpg/sg62_13_cif.got.tgz:24746.got - 2010.04.10 19:12:36.
