data_PCOD8249832
_publ_section_title
;
Structure prediction by ZEFSAII (Michael W. Deem and Ramdas Pophale) SiO2 
 PCOD8249832
Probable space group: P B C A
;
_chemical_formula_sum "Si O2"
_cell_formula_units_Z 48
_cell_length_a 8.848296
_cell_length_b 13.756012
_cell_length_c 18.048629
_cell_angle_alpha 90.000000
_cell_angle_beta 90.000000
_cell_angle_gamma 90.000000
_cell_volume 2196.829776
_symmetry_space_group_name_H-M "P B C A"
_symmetry_group_IT_number 61
_symmetry_cell_setting 'orthorhombic'
loop_
_space_group_symop_operation_xyz
x,y,z
1/2-x,-y,1/2+z
1/2+x,1/2-y,-z
-x,1/2+y,1/2-z
-x,-y,-z
1/2+x,y,1/2-z
1/2-x,1/2+y,z
x,1/2-y,1/2+z
loop_
_atom_site_type_symbol
_atom_site_label
_atom_site_fract_x
_atom_site_fract_y
_atom_site_fract_z
Si Si1 0.578851 0.129918 0.651713
Si Si2 0.582681 0.336663 0.501834
Si Si3 0.287351 0.461226 0.096320
Si Si4 0.364297 0.651773 0.331707
Si Si5 0.770634 0.863901 0.005110
Si Si6 0.361554 0.459029 0.737698
O O1 0.422168 0.116157 0.606600
O O2 0.587593 0.237660 0.686117
O O3 0.714326 0.115953 0.592849
O O4 0.594165 0.054318 0.717169
O O5 0.640468 0.408283 0.437698
O O6 0.659143 0.364284 0.580450
O O7 0.628275 0.227594 0.480160
O O8 0.404092 0.345311 0.512265
O O9 0.256378 0.509529 0.175312
O O10 0.337468 0.546298 0.040804
O O11 0.208560 0.624151 0.290574
O O12 0.490736 0.580284 0.301553
#
# Coordination Sequence:
#
# PCOD8249832 Si02
#       6
#     8   8   8   8   8   8
#     4  11  27  46  70 105 138 184 234 284 352 421
#     4  11  24  45  71 103 137 184 235 290 356 413
#     4  12  25  43  72 100 141 180 236 287 350 414
#     4  11  26  47  67  99 140 183 231 284 348 412
#     4  11  24  44  72 100 139 180 232 295 347 416
#     4  12  26  45  69 100 141 184 229 281 347 415
#
# _framework density 21.849667
#
# number of rings (size 3 to 8) (size 9 to 14) (size 15 to 20)
#    0.000    0.667    3.333    4.000    4.667    2.667 
#    3.000    0.000    0.000    0.000    0.000    0.000 
#    0.000    0.000    0.000    0.000    0.000    0.000 
#
# Total GULP energy -595487.905609 kJ/mol
# GULP energy per Si atom -12405.998034 kJ/mol
# Density = 2.179994 g / cm^3
# Si number density = 21.849667 Si / 1000 Ang^3
#
#
#
# Elastic Constant Matrix: (Units=GPa)
#
#
# Indices 1 2 3 4 5 6 
#
# 1 31.0714 3.1096 2.9595 0.0000 0.0000 0.0000
# 2 3.1096 123.2529 44.9011 0.0000 0.0000 0.0000
# 3 2.9595 44.9011 88.0471 0.0000 0.0000 0.0000
# 4 0.0000 0.0000 0.0000 40.7271 0.0000 0.0000
# 5 0.0000 0.0000 0.0000 0.0000 27.7174 0.0000
# 6 0.0000 0.0000 0.0000 0.0000 0.0000 38.2278
#
#
#
# Elastic Compliance Matrix: (Units=1/GPa)
#
#
# Indices 1 2 3 4 5 6 
#
# 1 0.032314 -0.000515 -0.000823 0.000000 0.000000 0.000000
# 2 -0.000515 0.009973 -0.005069 0.000000 0.000000 0.000000
# 3 -0.000823 -0.005069 0.013970 0.000000 0.000000 0.000000
# 4 0.000000 0.000000 0.000000 0.024554 0.000000 0.000000
# 5 0.000000 0.000000 0.000000 0.000000 0.036078 0.000000
# 6 0.000000 0.000000 0.000000 0.000000 0.000000 0.026159
#
#
# Mechanical properties :
#
#
# Convention : Reuss Voigt Hill
#
# Bulk Modulus (GPa) = 23.01895 38.25687 30.63791
# Shear Modulus (GPa) = 29.35252 34.09454 31.72353
#
# Velocity S-wave (km/s) = 3.66920 3.95449 3.81451
# Velocity P-wave (km/s) = 5.33935 6.19660 5.78388
#
# Compressibility (1/GPa) = 0.04344247
#
# Stress axis : x y z
#
# Youngs Moduli (GPa) = 30.94636 100.27215 71.58193
#
# Poissons Ratio (x) = 0.05167 0.05894
# Poissons Ratio (y) = 0.01595 0.36281
# Poissons Ratio (z) = 0.02548 0.50823
#
# Static dielectric constant tensor:
#      x y z
#    x 3.846920 0.000000 0.000000 
#    y 0.000000 4.119450 0.000000 
#    z 0.000000 0.000000 4.084030 
# 
# 
# High freq. dielectric constant tensor:
#      x y z
#    x 1.857000 0.000000 0.000000 
#    y 0.000000 1.873010 0.000000 
#    z 0.000000 0.000000 1.867160 
# 
# From -- ./inp_files/8115.got.cif
#   From: 2010.03.12/outbox.cif.g09.slc.cpg/sg61_5_cif.got.tgz:8115.got - 2010.04.10 19:05:03.
