data_PCOD8249146
_publ_section_title
;
Structure prediction by ZEFSAII (Michael W. Deem and Ramdas Pophale) SiO2 
 PCOD8249146
Probable space group: P B C A
;
_chemical_formula_sum "Si O2"
_cell_formula_units_Z 64
_cell_length_a 23.405663
_cell_length_b 9.025086
_cell_length_c 14.498069
_cell_angle_alpha 90.000000
_cell_angle_beta 90.000000
_cell_angle_gamma 90.000000
_cell_volume 3062.544860
_symmetry_space_group_name_H-M "P B C A"
_symmetry_group_IT_number 61
_symmetry_cell_setting 'orthorhombic'
loop_
_space_group_symop_operation_xyz
x,y,z
1/2-x,-y,1/2+z
1/2+x,1/2-y,-z
-x,1/2+y,1/2-z
-x,-y,-z
1/2+x,y,1/2-z
1/2-x,1/2+y,z
x,1/2-y,1/2+z
loop_
_atom_site_type_symbol
_atom_site_label
_atom_site_fract_x
_atom_site_fract_y
_atom_site_fract_z
Si Si1 0.115849 0.423830 0.686954
Si Si2 0.673851 0.588938 0.660195
Si Si3 0.983555 0.425584 0.687182
Si Si4 0.442133 0.333988 0.431585
Si Si5 0.593205 0.196503 0.658655
Si Si6 0.995467 0.383073 0.887059
Si Si7 0.245446 0.661338 0.421180
Si Si8 0.322341 0.599504 0.994698
O O1 0.148929 0.561028 0.736789
O O2 0.120945 0.282047 0.754543
O O3 0.143455 0.386964 0.589170
O O4 0.049800 0.464123 0.668319
O O5 0.620707 0.608218 0.591093
O O6 0.711879 0.738595 0.655415
O O7 0.709498 0.443746 0.630669
O O8 0.955006 0.328725 0.607062
O O9 0.949622 0.576051 0.698637
O O10 0.976140 0.339650 0.784084
O O11 0.492647 0.440926 0.394627
O O12 0.447038 0.327286 0.542712
O O13 0.556765 0.306281 0.592964
O O14 0.641096 0.121538 0.597388
O O15 0.203360 0.564567 0.484459
O O16 0.274571 0.772627 0.494180
#
# Coordination Sequence:
#
# PCOD8249146 Si02
#       8
#     8   8   8   8   8   8   8   8
#     4  11  24  40  70  96 136 173 218 266 328 404
#     4  11  22  44  65  90 125 170 217 279 328 372
#     4  11  23  38  61 100 136 171 218 255 322 411
#     4  11  21  39  62  91 130 175 207 265 324 396
#     4  11  22  42  63  97 138 174 205 273 320 389
#     4  10  21  36  62  90 132 172 208 251 326 396
#     4  10  24  44  69  87 125 167 226 285 326 379
#     4  11  23  45  67  97 128 173 223 272 336 385
#
# _framework density 20.897652999999998
#
# number of rings (size 3 to 8) (size 9 to 14) (size 15 to 20)
#    0.000    1.250    3.750    3.000    0.000    7.000 
#    0.000    0.000    0.000    0.000    0.000    0.000 
#    0.000    0.000    0.000    0.000    0.000    0.000 
#
# Total GULP energy -793543.254884 kJ/mol
# GULP energy per Si atom -12399.113358 kJ/mol
# Density = 2.085009 g / cm^3
# Si number density = 20.897653 Si / 1000 Ang^3
#
#
#
# Elastic Constant Matrix: (Units=GPa)
#
#
# Indices 1 2 3 4 5 6 
#
# 1 115.6211 51.4752 62.1796 0.0000 0.0000 0.0000
# 2 51.4752 112.6563 40.1293 0.0000 0.0000 0.0000
# 3 62.1796 40.1293 93.7285 0.0000 0.0000 0.0000
# 4 0.0000 0.0000 0.0000 19.0965 0.0000 0.0000
# 5 0.0000 0.0000 0.0000 0.0000 27.0885 0.0000
# 6 0.0000 0.0000 0.0000 0.0000 0.0000 39.7188
#
#
#
# Elastic Compliance Matrix: (Units=1/GPa)
#
#
# Indices 1 2 3 4 5 6 
#
# 1 0.014727 -0.003834 -0.008129 0.000000 0.000000 0.000000
# 2 -0.003834 0.011472 -0.002368 0.000000 0.000000 0.000000
# 3 -0.008129 -0.002368 0.017076 0.000000 0.000000 0.000000
# 4 0.000000 0.000000 0.000000 0.052366 0.000000 0.000000
# 5 0.000000 0.000000 0.000000 0.000000 0.036916 0.000000
# 6 0.000000 0.000000 0.000000 0.000000 0.000000 0.025177
#
#
# Mechanical properties :
#
#
# Convention : Reuss Voigt Hill
#
# Bulk Modulus (GPa) = 68.43053 69.95266 69.19160
# Shear Modulus (GPa) = 26.14158 28.39554 27.26856
#
# Velocity S-wave (km/s) = 3.54069 3.69018 3.61621
# Velocity P-wave (km/s) = 7.03790 7.19049 7.11460
#
# Compressibility (1/GPa) = 0.01461336
#
# Stress axis : x y z
#
# Youngs Moduli (GPa) = 67.90144 87.16964 58.56280
#
# Poissons Ratio (x) = 0.33418 0.47604
# Poissons Ratio (y) = 0.26031 0.13870
# Poissons Ratio (z) = 0.55195 0.20645
#
# Static dielectric constant tensor:
#      x y z
#    x 3.888760 0.000000 0.000000 
#    y 0.000000 4.021280 0.000000 
#    z 0.000000 0.000000 3.601080 
# 
# 
# High freq. dielectric constant tensor:
#      x y z
#    x 1.820750 0.000000 0.000000 
#    y 0.000000 1.830800 0.000000 
#    z 0.000000 0.000000 1.801880 
# 
# From -- ./inp_files/8517.got.cif
#   From: 2010.03.12/outbox.cif.g09.slc.cpg/sg61_5_cif.got.tgz:8517.got - 2010.04.10 19:05:03.
