data_PCOD8249337
_publ_section_title
;
Structure prediction by ZEFSAII (Michael W. Deem and Ramdas Pophale) SiO2 
 PCOD8249337
Probable space group: P B C A
;
_chemical_formula_sum "Si O2"
_cell_formula_units_Z 64
_cell_length_a 12.824495
_cell_length_b 25.693898
_cell_length_c 9.737406
_cell_angle_alpha 90.000000
_cell_angle_beta 90.000000
_cell_angle_gamma 90.000000
_cell_volume 3208.584983
_symmetry_space_group_name_H-M "P B C A"
_symmetry_group_IT_number 61
_symmetry_cell_setting 'orthorhombic'
loop_
_space_group_symop_operation_xyz
x,y,z
1/2-x,-y,1/2+z
1/2+x,1/2-y,-z
-x,1/2+y,1/2-z
-x,-y,-z
1/2+x,y,1/2-z
1/2-x,1/2+y,z
x,1/2-y,1/2+z
loop_
_atom_site_type_symbol
_atom_site_label
_atom_site_fract_x
_atom_site_fract_y
_atom_site_fract_z
Si Si1 0.262706 0.074058 0.969436
Si Si2 0.000363 0.306255 0.097230
Si Si3 0.157681 0.777844 0.826707
Si Si4 0.124944 0.615309 0.718559
Si Si5 0.460602 0.542287 0.895743
Si Si6 0.593621 0.864403 0.859949
Si Si7 0.758825 0.795603 0.395686
Si Si8 0.573419 0.520134 0.379769
O O1 0.313292 0.075877 0.817926
O O2 0.138812 0.071168 0.961320
O O3 0.299953 0.126712 0.049443
O O4 0.309995 0.024225 0.053327
O O5 0.119760 0.298419 0.136066
O O6 0.943534 0.251027 0.113361
O O7 0.953891 0.348216 0.200029
O O8 0.986740 0.327454 0.942280
O O9 0.123174 0.835810 0.781290
O O10 0.207143 0.748365 0.698073
O O11 0.243501 0.781199 0.945576
O O12 0.208212 0.648370 0.633074
O O13 0.054655 0.582602 0.614628
O O14 0.428435 0.518456 0.748500
O O15 0.500000 0.500000 0.000000
O O16 0.540246 0.921025 0.832166
O O17 0.500000 0.500000 0.500000
#
# Coordination Sequence:
#
# PCOD8249337 Si02
#       8
#     8   8   8   8   8   8   8   8
#     4   9  22  42  66  88 134 171 209 274 331 390
#     4  10  21  44  67  92 126 177 213 267 326 395
#     4  11  23  43  63  99 132 165 223 270 326 403
#     4  10  22  42  64  93 130 168 221 261 334 401
#     4  12  25  41  65 103 129 169 227 280 328 395
#     4   9  21  43  62  97 128 171 217 269 331 401
#     4  11  25  39  68  93 128 175 214 273 329 392
#     4  10  21  43  69  90 131 179 216 274 340 391
#
# _framework density 19.946487999999999
#
# number of rings (size 3 to 8) (size 9 to 14) (size 15 to 20)
#    0.750    1.000    2.500    0.750    5.250    0.000 
#    4.500    0.000    0.000    0.000    0.000    0.000 
#    0.000    0.000    0.000    0.000    0.000    0.000 
#
# Total GULP energy -793438.836691 kJ/mol
# GULP energy per Si atom -12397.481823 kJ/mol
# Density = 1.990109 g / cm^3
# Si number density = 19.946488 Si / 1000 Ang^3
#
#
#
# Elastic Constant Matrix: (Units=GPa)
#
#
# Indices 1 2 3 4 5 6 
#
# 1 112.7854 30.3097 11.0853 0.0000 0.0000 0.0000
# 2 30.3097 80.7189 17.6098 0.0000 0.0000 0.0000
# 3 11.0853 17.6098 69.0739 0.0000 0.0000 0.0000
# 4 0.0000 0.0000 0.0000 34.0982 0.0000 0.0000
# 5 0.0000 0.0000 0.0000 0.0000 20.4614 0.0000
# 6 0.0000 0.0000 0.0000 0.0000 0.0000 24.4241
#
#
#
# Elastic Compliance Matrix: (Units=1/GPa)
#
#
# Indices 1 2 3 4 5 6 
#
# 1 0.009891 -0.003566 -0.000678 0.000000 0.000000 0.000000
# 2 -0.003566 0.014404 -0.003100 0.000000 0.000000 0.000000
# 3 -0.000678 -0.003100 0.015376 0.000000 0.000000 0.000000
# 4 0.000000 0.000000 0.000000 0.029327 0.000000 0.000000
# 5 0.000000 0.000000 0.000000 0.000000 0.048873 0.000000
# 6 0.000000 0.000000 0.000000 0.000000 0.000000 0.040943
#
#
# Mechanical properties :
#
#
# Convention : Reuss Voigt Hill
#
# Bulk Modulus (GPa) = 40.02694 42.28756 41.15725
# Shear Modulus (GPa) = 27.49805 29.36830 28.43317
#
# Velocity S-wave (km/s) = 3.71697 3.84129 3.77964
# Velocity P-wave (km/s) = 6.20740 6.39692 6.30287
#
# Compressibility (1/GPa) = 0.02498318
#
# Stress axis : x y z
#
# Youngs Moduli (GPa) = 101.09753 69.42491 65.03477
#
# Poissons Ratio (x) = 0.24759 0.04411
# Poissons Ratio (y) = 0.36054 0.20160
# Poissons Ratio (z) = 0.06857 0.21521
#
# Static dielectric constant tensor:
#      x y z
#    x 3.579430 0.000000 0.000000 
#    y 0.000000 3.688320 0.000000 
#    z 0.000000 0.000000 3.701260 
# 
# 
# High freq. dielectric constant tensor:
#      x y z
#    x 1.766540 0.000000 0.000000 
#    y 0.000000 1.777510 0.000000 
#    z 0.000000 0.000000 1.779450 
# 
# From -- ./inp_files/2471.got.cif
#   From: 2010.03.12/outbox.cif.g09.slc.cpg/sg61_2_cif.got.tgz:2471.got - 2010.04.10 19:05:03.
