data_PCOD8249662
_publ_section_title
;
Structure prediction by ZEFSAII (Michael W. Deem and Ramdas Pophale) SiO2 
 PCOD8249662
Probable space group: P B C A
;
_chemical_formula_sum "Si O2"
_cell_formula_units_Z 32
_cell_length_a 26.581234
_cell_length_b 4.622277
_cell_length_c 8.045532
_cell_angle_alpha 90.000000
_cell_angle_beta 90.000000
_cell_angle_gamma 90.000000
_cell_volume 988.520939
_symmetry_space_group_name_H-M "P B C A"
_symmetry_group_IT_number 61
_symmetry_cell_setting 'orthorhombic'
loop_
_space_group_symop_operation_xyz
x,y,z
1/2-x,-y,1/2+z
1/2+x,1/2-y,-z
-x,1/2+y,1/2-z
-x,-y,-z
1/2+x,y,1/2-z
1/2-x,1/2+y,z
x,1/2-y,1/2+z
loop_
_atom_site_type_symbol
_atom_site_label
_atom_site_fract_x
_atom_site_fract_y
_atom_site_fract_z
Si Si1 0.468494 0.500486 0.316351
Si Si2 0.153417 0.339261 0.858427
Si Si3 0.785150 0.076080 0.937127
Si Si4 0.089056 0.964034 0.639143
O O1 0.480586 0.822249 0.242698
O O2 0.459313 0.508801 0.515334
O O3 0.419447 0.342427 0.230056
O O4 0.188163 0.527870 0.739592
O O5 0.181010 0.043132 0.912412
O O6 0.100623 0.221041 0.775304
O O7 0.138816 0.539018 0.019973
O O8 0.730274 0.913141 0.949175
#
# Coordination Sequence:
#
# PCOD8249662 Si02
#       4
#     8   8   8   8
#     4  12  27  50  79 112 150 200 254 314 377 450
#     4  10  25  46  75 110 152 198 248 310 377 444
#     4  11  24  46  73 108 148 196 248 305 370 446
#     4  11  26  48  75 112 152 196 252 311 376 448
#
# _framework density 32.371595999999997
#
# number of rings (size 3 to 8) (size 9 to 14) (size 15 to 20)
#    0.000    1.000    0.000    4.500    0.000   16.000 
#    0.000    0.000    0.000    0.000    0.000    0.000 
#    0.000    0.000    0.000    0.000    0.000    0.000 
#
# Total GULP energy -397090.587021 kJ/mol
# GULP energy per Si atom -12409.080844 kJ/mol
# Density = 3.229792 g / cm^3
# Si number density = 32.371596 Si / 1000 Ang^3
#
#
#
# Elastic Constant Matrix: (Units=GPa)
#
#
# Indices 1 2 3 4 5 6 
#
# 1 147.1179 12.4206 16.9426 0.0000 0.0000 0.0000
# 2 12.4206 122.6425 55.1536 0.0000 0.0000 0.0000
# 3 16.9426 55.1536 190.5224 0.0000 0.0000 0.0000
# 4 0.0000 0.0000 0.0000 55.9366 0.0000 0.0000
# 5 0.0000 0.0000 0.0000 0.0000 55.7171 0.0000
# 6 0.0000 0.0000 0.0000 0.0000 0.0000 37.3210
#
#
#
# Elastic Compliance Matrix: (Units=1/GPa)
#
#
# Indices 1 2 3 4 5 6 
#
# 1 0.006893 -0.000486 -0.000472 0.000000 0.000000 0.000000
# 2 -0.000486 0.009408 -0.002680 0.000000 0.000000 0.000000
# 3 -0.000472 -0.002680 0.006067 0.000000 0.000000 0.000000
# 4 0.000000 0.000000 0.000000 0.017877 0.000000 0.000000
# 5 0.000000 0.000000 0.000000 0.000000 0.017948 0.000000
# 6 0.000000 0.000000 0.000000 0.000000 0.000000 0.026795
#
#
# Mechanical properties :
#
#
# Convention : Reuss Voigt Hill
#
# Bulk Modulus (GPa) = 66.26503 69.92404 68.09454
# Shear Modulus (GPa) = 51.39033 54.84601 53.11817
#
# Velocity S-wave (km/s) = 3.98868 4.12061 4.05518
# Velocity P-wave (km/s) = 6.45967 6.65481 6.55797
#
# Compressibility (1/GPa) = 0.01509091
#
# Stress axis : x y z
#
# Youngs Moduli (GPa) = 145.08168 106.28840 164.83507
#
# Poissons Ratio (x) = 0.05162 0.07786
# Poissons Ratio (y) = 0.07046 0.44182
# Poissons Ratio (z) = 0.06853 0.28490
#
# Static dielectric constant tensor:
#      x y z
#    x 6.933440 0.000000 0.000000 
#    y 0.000000 5.628060 0.000000 
#    z 0.000000 0.000000 6.129690 
# 
# 
# High freq. dielectric constant tensor:
#      x y z
#    x 2.435270 0.000000 0.000000 
#    y 0.000000 2.351430 0.000000 
#    z 0.000000 0.000000 2.358990 
# 
# From -- ./inp_files/4535.got.cif
#   From: 2010.03.12/outbox.cif.g09.slc.cpg/sg61_3_cif.got.tgz:4535.got - 2010.04.10 19:05:03.
