data_PCOD8249255
_publ_section_title
;
Structure prediction by ZEFSAII (Michael W. Deem and Ramdas Pophale) SiO2 
 PCOD8249255
Probable space group: P B C A
;
_chemical_formula_sum "Si O2"
_cell_formula_units_Z 64
_cell_length_a 16.924058
_cell_length_b 18.995502
_cell_length_c 9.789209
_cell_angle_alpha 90.000000
_cell_angle_beta 90.000000
_cell_angle_gamma 90.000000
_cell_volume 3147.044479
_symmetry_space_group_name_H-M "P B C A"
_symmetry_group_IT_number 61
_symmetry_cell_setting 'orthorhombic'
loop_
_space_group_symop_operation_xyz
x,y,z
1/2-x,-y,1/2+z
1/2+x,1/2-y,-z
-x,1/2+y,1/2-z
-x,-y,-z
1/2+x,y,1/2-z
1/2-x,1/2+y,z
x,1/2-y,1/2+z
loop_
_atom_site_type_symbol
_atom_site_label
_atom_site_fract_x
_atom_site_fract_y
_atom_site_fract_z
Si Si1 0.539933 0.700163 0.446999
Si Si2 0.217793 0.431583 0.876443
Si Si3 0.793692 0.780689 0.722909
Si Si4 0.039125 0.053120 0.400788
Si Si5 0.216809 0.041049 0.070763
Si Si6 0.960368 0.943735 0.901666
Si Si7 0.473054 0.711131 0.175626
Si Si8 0.719223 0.686950 0.500846
O O1 0.512072 0.622192 0.416724
O O2 0.534180 0.735160 0.295654
O O3 0.477999 0.733574 0.553406
O O4 0.626732 0.705323 0.512070
O O5 0.239481 0.349767 0.855447
O O6 0.130092 0.435539 0.937611
O O7 0.231007 0.471754 0.732149
O O8 0.272748 0.467888 0.990029
O O9 0.887095 0.789540 0.751494
O O10 0.768964 0.713541 0.632291
O O11 0.752261 0.773161 0.868679
O O12 0.034393 0.022010 0.248063
O O13 0.000000 0.000000 0.500000
O O14 0.128525 0.068345 0.048244
O O15 0.273048 0.102337 0.010925
O O16 0.996443 0.864848 0.891191
O O17 0.000000 0.000000 0.000000
#
# Coordination Sequence:
#
# PCOD8249255 Si02
#       8
#     8   8   8   8   8   8   8   8
#     4  11  23  39  65  93 126 164 214 267 314 377
#     4  10  21  40  62  89 118 171 204 251 315 378
#     4  11  22  42  66  86 132 169 209 254 321 381
#     4  10  21  40  60  87 126 161 207 256 314 374
#     4  10  22  40  60  88 129 157 210 260 308 378
#     4  10  22  40  62  90 121 167 211 256 313 377
#     4  11  22  43  64  90 130 169 211 262 316 382
#     4  11  23  40  63  95 125 163 210 266 314 370
#
# _framework density 20.336542000000001
#
# number of rings (size 3 to 8) (size 9 to 14) (size 15 to 20)
#    0.000    1.500    5.000    2.250    0.000    8.000 
#    0.000    2.500    0.000    0.000    0.000    0.000 
#    0.000    0.000    0.000    0.000    0.000    0.000 
#
# Total GULP energy -793315.294477 kJ/mol
# GULP energy per Si atom -12395.551476 kJ/mol
# Density = 2.029026 g / cm^3
# Si number density = 20.336542 Si / 1000 Ang^3
#
#
#
# Elastic Constant Matrix: (Units=GPa)
#
#
# Indices 1 2 3 4 5 6 
#
# 1 65.3265 29.3586 37.9985 0.0000 0.0000 0.0000
# 2 29.3586 53.3009 43.2920 0.0000 0.0000 0.0000
# 3 37.9985 43.2920 92.8298 0.0000 0.0000 0.0000
# 4 0.0000 0.0000 0.0000 45.7523 0.0000 0.0000
# 5 0.0000 0.0000 0.0000 0.0000 40.8868 0.0000
# 6 0.0000 0.0000 0.0000 0.0000 0.0000 30.5489
#
#
#
# Elastic Compliance Matrix: (Units=1/GPa)
#
#
# Indices 1 2 3 4 5 6 
#
# 1 0.021890 -0.007694 -0.005372 0.000000 0.000000 0.000000
# 2 -0.007694 0.032905 -0.012196 0.000000 0.000000 0.000000
# 3 -0.005372 -0.012196 0.018659 0.000000 0.000000 0.000000
# 4 0.000000 0.000000 0.000000 0.021857 0.000000 0.000000
# 5 0.000000 0.000000 0.000000 0.000000 0.024458 0.000000
# 6 0.000000 0.000000 0.000000 0.000000 0.000000 0.032734
#
#
# Mechanical properties :
#
#
# Convention : Reuss Voigt Hill
#
# Bulk Modulus (GPa) = 43.61110 48.08392 45.84751
# Shear Modulus (GPa) = 23.73349 30.15815 26.94582
#
# Velocity S-wave (km/s) = 3.41990 3.85509 3.64400
# Velocity P-wave (km/s) = 6.08979 6.59629 6.34809
#
# Compressibility (1/GPa) = 0.02292994
#
# Stress axis : x y z
#
# Youngs Moduli (GPa) = 45.68206 30.39014 53.59231
#
# Poissons Ratio (x) = 0.23382 0.28792
# Poissons Ratio (y) = 0.35147 0.65363
# Poissons Ratio (z) = 0.24542 0.37065
#
# Static dielectric constant tensor:
#      x y z
#    x 3.641010 0.000000 0.000000 
#    y 0.000000 3.558740 0.000000 
#    z 0.000000 0.000000 3.978220 
# 
# 
# High freq. dielectric constant tensor:
#      x y z
#    x 1.792880 0.000000 0.000000 
#    y 0.000000 1.782430 0.000000 
#    z 0.000000 0.000000 1.803280 
# 
# From -- ./inp_files/6341.got.cif
#   From: 2010.03.12/outbox.cif.g09.slc.cpg/sg61_4_cif.got.tgz:6341.got - 2010.04.10 19:05:03.
