data_PCOD8249740
_publ_section_title
;
Structure prediction by ZEFSAII (Michael W. Deem and Ramdas Pophale) SiO2 
 PCOD8249740
Probable space group: P B C A
;
_chemical_formula_sum "Si O2"
_cell_formula_units_Z 40
_cell_length_a 13.043770
_cell_length_b 14.947844
_cell_length_c 8.481043
_cell_angle_alpha 90.000000
_cell_angle_beta 90.000000
_cell_angle_gamma 90.000000
_cell_volume 1653.601868
_symmetry_space_group_name_H-M "P B C A"
_symmetry_group_IT_number 61
_symmetry_cell_setting 'orthorhombic'
loop_
_space_group_symop_operation_xyz
x,y,z
1/2-x,-y,1/2+z
1/2+x,1/2-y,-z
-x,1/2+y,1/2-z
-x,-y,-z
1/2+x,y,1/2-z
1/2-x,1/2+y,z
x,1/2-y,1/2+z
loop_
_atom_site_type_symbol
_atom_site_label
_atom_site_fract_x
_atom_site_fract_y
_atom_site_fract_z
Si Si1 0.227474 0.090660 0.787652
Si Si2 0.758707 0.212070 0.279515
Si Si3 0.420559 0.824255 0.498856
Si Si4 0.840956 0.933058 0.560845
Si Si5 0.018761 0.834661 0.681129
O O1 0.280827 0.188412 0.784859
O O2 0.128305 0.091371 0.905099
O O3 0.188144 0.056152 0.620070
O O4 0.314078 0.023884 0.848755
O O5 0.673521 0.224729 0.413408
O O6 0.719788 0.149387 0.138985
O O7 0.860615 0.167403 0.353905
O O8 0.469118 0.759984 0.367850
O O9 0.503590 0.852000 0.630653
O O10 0.963240 0.913885 0.582910
#
# Coordination Sequence:
#
# PCOD8249740 Si02
#       5
#     8   8   8   8   8
#     4  12  23  47  72  98 149 184 226 297 348 410
#     4  11  24  45  73 102 140 184 232 288 355 411
#     4  11  22  43  68  98 140 178 227 286 343 409
#     4  11  24  46  67 103 140 184 235 287 348 419
#     4  11  23  41  68 105 133 180 233 278 349 415
#
# _framework density 24.189619
#
# number of rings (size 3 to 8) (size 9 to 14) (size 15 to 20)
#    0.000    0.800    6.000    2.400    5.600    0.000 
#    3.600    4.000    0.000    0.000    0.000    0.000 
#    0.000    0.000    0.000    0.000    0.000    0.000 
#
# Total GULP energy -495980.459015 kJ/mol
# GULP energy per Si atom -12399.511475 kJ/mol
# Density = 2.413456 g / cm^3
# Si number density = 24.189619 Si / 1000 Ang^3
#
#
#
# Elastic Constant Matrix: (Units=GPa)
#
#
# Indices 1 2 3 4 5 6 
#
# 1 88.1854 -10.4633 2.0433 0.0000 0.0000 0.0000
# 2 -10.4633 82.0049 12.0260 0.0000 0.0000 0.0000
# 3 2.0433 12.0260 115.7072 0.0000 0.0000 0.0000
# 4 0.0000 0.0000 0.0000 37.3518 0.0000 0.0000
# 5 0.0000 0.0000 0.0000 0.0000 13.0198 0.0000
# 6 0.0000 0.0000 0.0000 0.0000 0.0000 19.5917
#
#
#
# Elastic Compliance Matrix: (Units=1/GPa)
#
#
# Indices 1 2 3 4 5 6 
#
# 1 0.011529 0.001524 -0.000362 0.000000 0.000000 0.000000
# 2 0.001524 0.012585 -0.001335 0.000000 0.000000 0.000000
# 3 -0.000362 -0.001335 0.008788 0.000000 0.000000 0.000000
# 4 0.000000 0.000000 0.000000 0.026772 0.000000 0.000000
# 5 0.000000 0.000000 0.000000 0.000000 0.076806 0.000000
# 6 0.000000 0.000000 0.000000 0.000000 0.000000 0.051042
#
#
# Mechanical properties :
#
#
# Convention : Reuss Voigt Hill
#
# Bulk Modulus (GPa) = 30.71662 32.56771 31.64217
# Shear Modulus (GPa) = 25.16111 32.81210 28.98660
#
# Velocity S-wave (km/s) = 3.22865 3.68700 3.46541
# Velocity P-wave (km/s) = 5.15992 5.62299 5.39642
#
# Compressibility (1/GPa) = 0.03255567
#
# Stress axis : x y z
#
# Youngs Moduli (GPa) = 86.73802 79.46204 113.79621
#
# Poissons Ratio (x) = -0.12111 0.04119
# Poissons Ratio (y) = -0.13220 0.15191
# Poissons Ratio (z) = 0.03140 0.10607
#
# Static dielectric constant tensor:
#      x y z
#    x 4.432520 0.000000 0.000000 
#    y 0.000000 4.164130 0.000000 
#    z 0.000000 0.000000 4.596520 
# 
# 
# High freq. dielectric constant tensor:
#      x y z
#    x 1.947480 0.000000 0.000000 
#    y 0.000000 1.944760 0.000000 
#    z 0.000000 0.000000 1.979670 
# 
# From -- ./inp_files/2655.got.cif
#   From: 2010.03.12/outbox.cif.g09.slc.cpg/sg61_2_cif.got.tgz:2655.got - 2010.04.10 19:05:03.
