data_PCOD8249823
_publ_section_title
;
Structure prediction by ZEFSAII (Michael W. Deem and Ramdas Pophale) SiO2 
 PCOD8249823
Probable space group: P B C A
;
_chemical_formula_sum "Si O2"
_cell_formula_units_Z 32
_cell_length_a 4.895102
_cell_length_b 10.469060
_cell_length_c 25.683845
_cell_angle_alpha 90.000000
_cell_angle_beta 90.000000
_cell_angle_gamma 90.000000
_cell_volume 1316.222998
_symmetry_space_group_name_H-M "P B C A"
_symmetry_group_IT_number 61
_symmetry_cell_setting 'orthorhombic'
loop_
_space_group_symop_operation_xyz
x,y,z
1/2-x,-y,1/2+z
1/2+x,1/2-y,-z
-x,1/2+y,1/2-z
-x,-y,-z
1/2+x,y,1/2-z
1/2-x,1/2+y,z
x,1/2-y,1/2+z
loop_
_atom_site_type_symbol
_atom_site_label
_atom_site_fract_x
_atom_site_fract_y
_atom_site_fract_z
Si Si1 0.737125 0.020774 0.148930
Si Si2 0.214007 0.494935 0.580474
Si Si3 0.637990 0.270507 0.214818
Si Si4 0.048458 0.322359 0.489897
O O1 0.515722 0.994454 0.103524
O O2 0.790063 0.886741 0.177128
O O3 0.018624 0.069528 0.123188
O O4 0.653445 0.131899 0.188178
O O5 0.217413 0.422704 0.525155
O O6 0.075543 0.631655 0.565608
O O7 0.328180 0.280763 0.234417
O O8 0.286524 0.221958 0.475886
#
# Coordination Sequence:
#
# PCOD8249823 Si02
#       4
#     8   8   8   8
#     4  12  26  44  76 103 141 184 238 293 343 444
#     4  11  26  43  66 109 135 190 238 285 355 412
#     4  12  26  48  72 104 140 182 230 296 370 420
#     4  11  24  43  70  96 150 187 234 295 348 419
#
# _framework density 24.311992
#
# number of rings (size 3 to 8) (size 9 to 14) (size 15 to 20)
#    0.000    0.500    0.000    7.500   10.500    4.000 
#    0.000    0.000    0.000    0.000    0.000    0.000 
#    0.000    0.000    0.000    0.000    0.000    0.000 
#
# Total GULP energy -396743.379809 kJ/mol
# GULP energy per Si atom -12398.230619 kJ/mol
# Density = 2.425666 g / cm^3
# Si number density = 24.311992 Si / 1000 Ang^3
#
#
#
# Elastic Constant Matrix: (Units=GPa)
#
#
# Indices 1 2 3 4 5 6 
#
# 1 94.3813 22.9595 9.3190 0.0000 0.0000 0.0000
# 2 22.9595 96.0967 33.0022 0.0000 0.0000 0.0000
# 3 9.3190 33.0022 84.9405 0.0000 0.0000 0.0000
# 4 0.0000 0.0000 0.0000 27.9115 0.0000 0.0000
# 5 0.0000 0.0000 0.0000 0.0000 46.9958 0.0000
# 6 0.0000 0.0000 0.0000 0.0000 0.0000 35.2304
#
#
#
# Elastic Compliance Matrix: (Units=1/GPa)
#
#
# Indices 1 2 3 4 5 6 
#
# 1 0.011253 -0.002613 -0.000219 0.000000 0.000000 0.000000
# 2 -0.002613 0.012615 -0.004615 0.000000 0.000000 0.000000
# 3 -0.000219 -0.004615 0.013590 0.000000 0.000000 0.000000
# 4 0.000000 0.000000 0.000000 0.035828 0.000000 0.000000
# 5 0.000000 0.000000 0.000000 0.000000 0.021278 0.000000
# 6 0.000000 0.000000 0.000000 0.000000 0.000000 0.028385
#
#
# Mechanical properties :
#
#
# Convention : Reuss Voigt Hill
#
# Bulk Modulus (GPa) = 44.31924 45.10890 44.71407
# Shear Modulus (GPa) = 34.39633 36.03672 35.21652
#
# Velocity S-wave (km/s) = 3.76545 3.85419 3.81008
# Velocity P-wave (km/s) = 6.09703 6.19684 6.14714
#
# Compressibility (1/GPa) = 0.02256356
#
# Stress axis : x y z
#
# Youngs Moduli (GPa) = 88.86780 79.26825 73.58349
#
# Poissons Ratio (x) = 0.20714 0.01613
# Poissons Ratio (y) = 0.23223 0.33957
# Poissons Ratio (z) = 0.01948 0.36581
#
# Static dielectric constant tensor:
#      x y z
#    x 4.608130 0.000000 0.000000 
#    y 0.000000 4.520310 0.000000 
#    z 0.000000 0.000000 4.217400 
# 
# 
# High freq. dielectric constant tensor:
#      x y z
#    x 1.988360 0.000000 0.000000 
#    y 0.000000 1.967690 0.000000 
#    z 0.000000 0.000000 1.964430 
# 
# From -- ./inp_files/161.got.cif
#   From: 2010.03.12/outbox.cif.g09.slc.cpg/sg61_1_cif.got.tgz:161.got - 2010.04.10 19:05:03.
