data_PCOD8249184
_publ_section_title
;
Structure prediction by ZEFSAII (Michael W. Deem and Ramdas Pophale) SiO2 
 PCOD8249184
Probable space group: P B C A
;
_chemical_formula_sum "Si O2"
_cell_formula_units_Z 64
_cell_length_a 12.927113
_cell_length_b 27.924543
_cell_length_c 9.177090
_cell_angle_alpha 90.000000
_cell_angle_beta 90.000000
_cell_angle_gamma 90.000000
_cell_volume 3312.780113
_symmetry_space_group_name_H-M "P B C A"
_symmetry_group_IT_number 61
_symmetry_cell_setting 'orthorhombic'
loop_
_space_group_symop_operation_xyz
x,y,z
1/2-x,-y,1/2+z
1/2+x,1/2-y,-z
-x,1/2+y,1/2-z
-x,-y,-z
1/2+x,y,1/2-z
1/2-x,1/2+y,z
x,1/2-y,1/2+z
loop_
_atom_site_type_symbol
_atom_site_label
_atom_site_fract_x
_atom_site_fract_y
_atom_site_fract_z
Si Si1 0.757057 0.683472 0.715832
Si Si2 0.934196 0.754837 0.101664
Si Si3 0.736254 0.180357 0.060305
Si Si4 0.086042 0.756984 0.847027
Si Si5 0.739606 0.574482 0.745452
Si Si6 0.625343 0.496456 0.098795
Si Si7 0.791750 0.929225 0.569015
Si Si8 0.923046 0.502491 0.271711
O O1 0.666169 0.712725 0.633645
O O2 0.730159 0.628293 0.689104
O O3 0.869500 0.697382 0.647304
O O4 0.758857 0.691687 0.888834
O O5 0.041684 0.746476 0.185369
O O6 0.856898 0.710795 0.127860
O O7 0.979303 0.756936 0.938959
O O8 0.847436 0.194777 0.128360
O O9 0.712374 0.126458 0.110419
O O10 0.794493 0.545905 0.619175
O O11 0.626790 0.550125 0.757367
O O12 0.805860 0.568505 0.894392
O O13 0.681346 0.547759 0.107092
O O14 0.546570 0.496601 0.237129
O O15 0.584994 0.481202 0.940154
O O16 0.881596 0.957650 0.657501
#
# Coordination Sequence:
#
# PCOD8249184 Si02
#       8
#     8   8   8   8   8   8   8   8
#     4  10  21  38  59  84 115 150 194 238 287 351
#     4  11  22  39  59  82 114 150 190 241 289 351
#     4  10  21  38  58  84 115 152 192 242 290 341
#     4  11  22  39  60  83 114 151 191 238 293 347
#     4   9  19  36  55  80 109 146 182 230 276 327
#     4   9  18  35  56  80 111 147 183 225 281 329
#     4   9  19  36  55  77 114 143 183 232 274 329
#     4   9  18  35  56  80 111 146 184 227 275 333
#
# _framework density 19.319120999999999
#
# number of rings (size 3 to 8) (size 9 to 14) (size 15 to 20)
#    0.000    2.250    2.500    0.000    0.000    2.500 
#    9.000    0.000    0.000    0.000    0.000    0.000 
#    0.000    0.000    0.000    0.000    0.000    0.000 
#
# Total GULP energy -792939.736937 kJ/mol
# GULP energy per Si atom -12389.683390 kJ/mol
# Density = 1.927515 g / cm^3
# Si number density = 19.319121 Si / 1000 Ang^3
#
#
#
# Elastic Constant Matrix: (Units=GPa)
#
#
# Indices 1 2 3 4 5 6 
#
# 1 75.3457 25.0998 7.8731 0.0000 0.0000 0.0000
# 2 25.0998 122.5923 22.2129 0.0000 0.0000 0.0000
# 3 7.8731 22.2129 34.0536 0.0000 0.0000 0.0000
# 4 0.0000 0.0000 0.0000 24.7627 0.0000 0.0000
# 5 0.0000 0.0000 0.0000 0.0000 31.0842 0.0000
# 6 0.0000 0.0000 0.0000 0.0000 0.0000 12.2073
#
#
#
# Elastic Compliance Matrix: (Units=1/GPa)
#
#
# Indices 1 2 3 4 5 6 
#
# 1 0.014319 -0.002644 -0.001586 0.000000 0.000000 0.000000
# 2 -0.002644 0.009739 -0.005741 0.000000 0.000000 0.000000
# 3 -0.001586 -0.005741 0.033477 0.000000 0.000000 0.000000
# 4 0.000000 0.000000 0.000000 0.040383 0.000000 0.000000
# 5 0.000000 0.000000 0.000000 0.000000 0.032171 0.000000
# 6 0.000000 0.000000 0.000000 0.000000 0.000000 0.081918
#
#
# Mechanical properties :
#
#
# Convention : Reuss Voigt Hill
#
# Bulk Modulus (GPa) = 26.60117 38.04036 32.32076
# Shear Modulus (GPa) = 20.45161 25.39790 22.92475
#
# Velocity S-wave (km/s) = 3.25717 3.62975 3.44849
# Velocity P-wave (km/s) = 5.28629 6.10737 5.71160
#
# Compressibility (1/GPa) = 0.03759234
#
# Stress axis : x y z
#
# Youngs Moduli (GPa) = 69.83854 102.68213 29.87123
#
# Poissons Ratio (x) = 0.27153 0.04736
# Poissons Ratio (y) = 0.18468 0.17150
# Poissons Ratio (z) = 0.11073 0.58952
#
# Static dielectric constant tensor:
#      x y z
#    x 3.651600 0.000000 0.000000 
#    y 0.000000 3.515230 0.000000 
#    z 0.000000 0.000000 3.453240 
# 
# 
# High freq. dielectric constant tensor:
#      x y z
#    x 1.756640 0.000000 0.000000 
#    y 0.000000 1.741990 0.000000 
#    z 0.000000 0.000000 1.748180 
# 
# From -- ./inp_files/5475.got.cif
#   From: 2010.03.12/outbox.cif.g09.slc.cpg/sg61_3_cif.got.tgz:5475.got - 2010.04.10 19:05:03.
