data_PCOD8249086
_publ_section_title
;
Structure prediction by ZEFSAII (Michael W. Deem and Ramdas Pophale) SiO2 
 PCOD8249086
Probable space group: P B C A
;
_chemical_formula_sum "Si O2"
_cell_formula_units_Z 48
_cell_length_a 12.094579
_cell_length_b 17.614707
_cell_length_c 8.729598
_cell_angle_alpha 90.000000
_cell_angle_beta 90.000000
_cell_angle_gamma 90.000000
_cell_volume 1859.775080
_symmetry_space_group_name_H-M "P B C A"
_symmetry_group_IT_number 61
_symmetry_cell_setting 'orthorhombic'
loop_
_space_group_symop_operation_xyz
x,y,z
1/2-x,-y,1/2+z
1/2+x,1/2-y,-z
-x,1/2+y,1/2-z
-x,-y,-z
1/2+x,y,1/2-z
1/2-x,1/2+y,z
x,1/2-y,1/2+z
loop_
_atom_site_type_symbol
_atom_site_label
_atom_site_fract_x
_atom_site_fract_y
_atom_site_fract_z
Si Si1 0.897737 0.509640 0.311637
Si Si2 0.625980 0.328834 0.429126
Si Si3 0.563513 0.664535 0.776561
Si Si4 0.558918 0.899201 0.855600
Si Si5 0.678719 0.726273 0.479518
Si Si6 0.790718 0.518324 0.003169
O O1 0.942838 0.425371 0.294106
O O2 0.001587 0.568683 0.300479
O O3 0.828861 0.520522 0.469309
O O4 0.803811 0.529049 0.184337
O O5 0.560228 0.309720 0.272518
O O6 0.534981 0.353424 0.552903
O O7 0.694559 0.253870 0.476259
O O8 0.710063 0.400453 0.413595
O O9 0.652640 0.690207 0.645443
O O10 0.596694 0.703748 0.937015
O O11 0.658664 0.837706 0.843023
O O12 0.602153 0.971034 0.950883
#
# Coordination Sequence:
#
# PCOD8249086 Si02
#       6
#     8   8   8   8   8   8
#     4  11  21  42  69  99 134 178 225 280 342 406
#     4  10  20  40  68  91 134 180 216 278 340 403
#     4  11  23  44  62  98 138 176 223 283 337 407
#     4  10  22  43  67  99 133 179 228 273 347 405
#     4  11  24  39  68  98 133 178 226 270 340 409
#     4  11  20  40  72  94 125 181 227 273 344 404
#
# _framework density 25.809573
#
# number of rings (size 3 to 8) (size 9 to 14) (size 15 to 20)
#    0.000    1.333    6.667    1.000    0.000    6.667 
#    0.000    0.833    0.000    0.000    0.000    0.000 
#    0.000    0.000    0.000    0.000    0.000    0.000 
#
# Total GULP energy -594713.985959 kJ/mol
# GULP energy per Si atom -12389.874707 kJ/mol
# Density = 2.575083 g / cm^3
# Si number density = 25.809573 Si / 1000 Ang^3
#
#
#
# Elastic Constant Matrix: (Units=GPa)
#
#
# Indices 1 2 3 4 5 6 
#
# 1 75.9970 50.4997 12.6153 0.0000 0.0000 0.0000
# 2 50.4997 112.6792 8.8771 0.0000 0.0000 0.0000
# 3 12.6153 8.8771 24.7105 0.0000 0.0000 0.0000
# 4 0.0000 0.0000 0.0000 18.9557 0.0000 0.0000
# 5 0.0000 0.0000 0.0000 0.0000 30.3094 0.0000
# 6 0.0000 0.0000 0.0000 0.0000 0.0000 63.5864
#
#
#
# Elastic Compliance Matrix: (Units=1/GPa)
#
#
# Indices 1 2 3 4 5 6 
#
# 1 0.019897 -0.008354 -0.007157 0.000000 0.000000 0.000000
# 2 -0.008354 0.012640 -0.000276 0.000000 0.000000 0.000000
# 3 -0.007157 -0.000276 0.044222 0.000000 0.000000 0.000000
# 4 0.000000 0.000000 0.000000 0.052755 0.000000 0.000000
# 5 0.000000 0.000000 0.000000 0.000000 0.032993 0.000000
# 6 0.000000 0.000000 0.000000 0.000000 0.000000 0.015727
#
#
# Mechanical properties :
#
#
# Convention : Reuss Voigt Hill
#
# Bulk Modulus (GPa) = 22.13094 39.70788 30.91941
# Shear Modulus (GPa) = 22.23508 31.99660 27.11584
#
# Velocity S-wave (km/s) = 2.93833 3.52478 3.24483
# Velocity P-wave (km/s) = 4.48386 5.65542 5.10337
#
# Compressibility (1/GPa) = 0.04518561
#
# Stress axis : x y z
#
# Youngs Moduli (GPa) = 50.25773 79.11158 22.61326
#
# Poissons Ratio (x) = 0.66087 0.16185
# Poissons Ratio (y) = 0.41983 0.00625
# Poissons Ratio (z) = 0.35970 0.02186
#
# Static dielectric constant tensor:
#      x y z
#    x 4.829600 0.000000 0.000000 
#    y 0.000000 5.095290 0.000000 
#    z 0.000000 0.000000 4.261390 
# 
# 
# High freq. dielectric constant tensor:
#      x y z
#    x 2.036560 0.000000 0.000000 
#    y 0.000000 2.041210 0.000000 
#    z 0.000000 0.000000 1.989070 
# 
# From -- ./inp_files/5226.got.cif
#   From: 2010.03.12/outbox.cif.g09.slc.cpg/sg61_3_cif.got.tgz:5226.got - 2010.04.10 19:05:03.
