data_PCOD8249752
_publ_section_title
;
Structure prediction by ZEFSAII (Michael W. Deem and Ramdas Pophale) SiO2 
 PCOD8249752
Probable space group: P B C A
;
_chemical_formula_sum "Si O2"
_cell_formula_units_Z 56
_cell_length_a 14.963498
_cell_length_b 11.064949
_cell_length_c 15.001552
_cell_angle_alpha 90.000000
_cell_angle_beta 90.000000
_cell_angle_gamma 90.000000
_cell_volume 2483.812099
_symmetry_space_group_name_H-M "P B C A"
_symmetry_group_IT_number 61
_symmetry_cell_setting 'orthorhombic'
loop_
_space_group_symop_operation_xyz
x,y,z
1/2-x,-y,1/2+z
1/2+x,1/2-y,-z
-x,1/2+y,1/2-z
-x,-y,-z
1/2+x,y,1/2-z
1/2-x,1/2+y,z
x,1/2-y,1/2+z
loop_
_atom_site_type_symbol
_atom_site_label
_atom_site_fract_x
_atom_site_fract_y
_atom_site_fract_z
Si Si1 0.696124 0.404615 0.453325
Si Si2 0.012689 0.572665 0.296720
Si Si3 0.835171 0.775761 0.790880
Si Si4 0.624501 0.235078 0.596254
Si Si5 0.160228 0.874447 0.653913
Si Si6 0.118362 0.526950 0.469841
Si Si7 0.442786 0.349808 0.131589
O O1 0.681481 0.331590 0.361171
O O2 0.640169 0.350216 0.534579
O O3 0.662734 0.541761 0.434184
O O4 0.796168 0.402096 0.491503
O O5 0.078262 0.584049 0.213932
O O6 0.080887 0.585126 0.379725
O O7 0.935344 0.672847 0.303103
O O8 0.965050 0.440023 0.286013
O O9 0.820404 0.730953 0.689064
O O10 0.760359 0.881130 0.804528
O O11 0.520993 0.247887 0.621891
O O12 0.644574 0.113366 0.540691
O O13 0.146982 0.729710 0.635484
O O14 0.048137 0.553595 0.549811
#
# Coordination Sequence:
#
# PCOD8249752 Si02
#       7
#     8   8   8   8   8   8   8
#     4  12  24  43  72 106 147 184 242 303 360 436
#     4  11  24  47  71  99 141 193 242 296 367 435
#     4  12  25  47  74 104 146 193 241 305 361 434
#     4  11  24  44  71 104 137 187 240 298 362 432
#     4  12  26  43  70 105 141 187 244 295 363 430
#     4  11  23  44  73 100 138 191 239 293 368 432
#     4  11  22  46  66  97 137 180 240 288 361 429
#
# _framework density 22.545988999999999
#
# number of rings (size 3 to 8) (size 9 to 14) (size 15 to 20)
#    0.000    0.571    2.857    7.714    0.000    0.571 
#    0.000    0.000    0.000    0.000    0.000    0.000 
#    0.000    0.000    0.000    0.000    0.000    0.000 
#
# Total GULP energy -693862.136418 kJ/mol
# GULP energy per Si atom -12390.395293 kJ/mol
# Density = 2.249467 g / cm^3
# Si number density = 22.545989 Si / 1000 Ang^3
#
#
#
# Elastic Constant Matrix: (Units=GPa)
#
#
# Indices 1 2 3 4 5 6 
#
# 1 88.6755 44.0830 36.7830 0.0000 0.0000 0.0000
# 2 44.0830 105.4035 56.8271 0.0000 0.0000 0.0000
# 3 36.7830 56.8271 115.7813 0.0000 0.0000 0.0000
# 4 0.0000 0.0000 0.0000 44.5645 0.0000 0.0000
# 5 0.0000 0.0000 0.0000 0.0000 22.2341 0.0000
# 6 0.0000 0.0000 0.0000 0.0000 0.0000 28.4781
#
#
#
# Elastic Compliance Matrix: (Units=1/GPa)
#
#
# Indices 1 2 3 4 5 6 
#
# 1 0.014652 -0.004920 -0.002240 0.000000 0.000000 0.000000
# 2 -0.004920 0.014554 -0.005580 0.000000 0.000000 0.000000
# 3 -0.002240 -0.005580 0.012087 0.000000 0.000000 0.000000
# 4 0.000000 0.000000 0.000000 0.022439 0.000000 0.000000
# 5 0.000000 0.000000 0.000000 0.000000 0.044976 0.000000
# 6 0.000000 0.000000 0.000000 0.000000 0.000000 0.035115
#
#
# Mechanical properties :
#
#
# Convention : Reuss Voigt Hill
#
# Bulk Modulus (GPa) = 63.24060 65.02739 64.13399
# Shear Modulus (GPa) = 28.64106 30.53316 29.58711
#
# Velocity S-wave (km/s) = 3.56805 3.68402 3.62650
# Velocity P-wave (km/s) = 6.71455 6.85571 6.78549
#
# Compressibility (1/GPa) = 0.01581263
#
# Stress axis : x y z
#
# Youngs Moduli (GPa) = 68.24880 68.71175 82.73154
#
# Poissons Ratio (x) = 0.33809 0.18531
# Poissons Ratio (y) = 0.33581 0.46163
# Poissons Ratio (z) = 0.15287 0.38341
#
# Static dielectric constant tensor:
#      x y z
#    x 4.293800 0.000000 0.000000 
#    y 0.000000 4.029450 0.000000 
#    z 0.000000 0.000000 4.136370 
# 
# 
# High freq. dielectric constant tensor:
#      x y z
#    x 1.907180 0.000000 0.000000 
#    y 0.000000 1.886010 0.000000 
#    z 0.000000 0.000000 1.884910 
# 
# From -- ./inp_files/7852.got.cif
#   From: 2010.03.12/outbox.cif.g09.slc.cpg/sg61_4_cif.got.tgz:7852.got - 2010.04.10 19:05:03.
