data_PCOD8249155
_publ_section_title
;
Structure prediction by ZEFSAII (Michael W. Deem and Ramdas Pophale) SiO2 
 PCOD8249155
Probable space group: P B C A
;
_chemical_formula_sum "Si O2"
_cell_formula_units_Z 64
_cell_length_a 20.108481
_cell_length_b 5.244133
_cell_length_c 27.402249
_cell_angle_alpha 90.000000
_cell_angle_beta 90.000000
_cell_angle_gamma 90.000000
_cell_volume 2889.609597
_symmetry_space_group_name_H-M "P B C A"
_symmetry_group_IT_number 61
_symmetry_cell_setting 'orthorhombic'
loop_
_space_group_symop_operation_xyz
x,y,z
1/2-x,-y,1/2+z
1/2+x,1/2-y,-z
-x,1/2+y,1/2-z
-x,-y,-z
1/2+x,y,1/2-z
1/2-x,1/2+y,z
x,1/2-y,1/2+z
loop_
_atom_site_type_symbol
_atom_site_label
_atom_site_fract_x
_atom_site_fract_y
_atom_site_fract_z
Si Si1 0.082204 0.650493 0.229118
Si Si2 0.903182 0.924035 0.965199
Si Si3 0.218851 0.515920 0.589957
Si Si4 0.605783 0.305082 0.602199
Si Si5 0.224020 0.550285 0.198003
Si Si6 0.046779 0.807579 0.943255
Si Si7 0.566269 0.347594 0.709363
Si Si8 0.708002 0.222987 0.027079
O O1 0.145402 0.610061 0.193027
O O2 0.084157 0.424521 0.268142
O O3 0.013390 0.635979 0.199032
O O4 0.089156 0.922520 0.255697
O O5 0.860186 0.035308 0.919473
O O6 0.967135 0.787250 0.943088
O O7 0.858977 0.716514 0.994329
O O8 0.925043 0.148875 0.002186
O O9 0.253500 0.759101 0.564086
O O10 0.239334 0.514825 0.646565
O O11 0.570344 0.536449 0.574895
O O12 0.606189 0.367526 0.659268
O O13 0.682110 0.289652 0.583285
O O14 0.568329 0.038251 0.592308
O O15 0.238040 0.282318 0.226030
O O16 0.742544 0.493362 0.016232
#
# Coordination Sequence:
#
# PCOD8249155 Si02
#       8
#     8   8   8   8   8   8   8   8
#     4  10  21  40  63  92 120 156 200 245 316 380
#     4  10  22  40  60  89 124 165 208 242 307 362
#     4  10  22  36  56  86 122 162 200 239 291 370
#     4  11  23  42  61  90 119 153 207 256 306 352
#     4  10  21  37  57  88 127 158 191 242 301 370
#     4  10  24  38  62  90 124 161 202 262 297 351
#     4  10  22  40  67  88 117 158 201 258 308 371
#     4  11  23  39  60  82 117 161 203 250 292 350
#
# _framework density 22.148320999999999
#
# number of rings (size 3 to 8) (size 9 to 14) (size 15 to 20)
#    0.000    1.750    0.000    3.750    0.000   12.500 
#    0.000    3.750    0.000    0.000    0.000    0.000 
#    0.000    0.000    0.000    0.000    0.000    0.000 
#
# Total GULP energy -793323.763824 kJ/mol
# GULP energy per Si atom -12395.683810 kJ/mol
# Density = 2.209791 g / cm^3
# Si number density = 22.148321 Si / 1000 Ang^3
#
#
#
# Elastic Constant Matrix: (Units=GPa)
#
#
# Indices 1 2 3 4 5 6 
#
# 1 117.5591 27.3834 16.9058 0.0000 0.0000 0.0000
# 2 27.3834 122.0794 -2.1825 0.0000 0.0000 0.0000
# 3 16.9058 -2.1825 52.3926 0.0000 0.0000 0.0000
# 4 0.0000 0.0000 0.0000 19.4645 0.0000 0.0000
# 5 0.0000 0.0000 0.0000 0.0000 40.0788 0.0000
# 6 0.0000 0.0000 0.0000 0.0000 0.0000 22.6785
#
#
#
# Elastic Compliance Matrix: (Units=1/GPa)
#
#
# Indices 1 2 3 4 5 6 
#
# 1 0.009466 -0.002180 -0.003145 0.000000 0.000000 0.000000
# 2 -0.002180 0.008699 0.001066 0.000000 0.000000 0.000000
# 3 -0.003145 0.001066 0.020146 0.000000 0.000000 0.000000
# 4 0.000000 0.000000 0.000000 0.051376 0.000000 0.000000
# 5 0.000000 0.000000 0.000000 0.000000 0.024951 0.000000
# 6 0.000000 0.000000 0.000000 0.000000 0.000000 0.044095
#
#
# Mechanical properties :
#
#
# Convention : Reuss Voigt Hill
#
# Bulk Modulus (GPa) = 33.56476 41.80496 37.68486
# Shear Modulus (GPa) = 28.21951 33.10599 30.66275
#
# Velocity S-wave (km/s) = 3.57335 3.87038 3.72483
# Velocity P-wave (km/s) = 5.67561 6.23611 5.96245
#
# Compressibility (1/GPa) = 0.02979315
#
# Stress axis : x y z
#
# Youngs Moduli (GPa) = 105.63690 114.95111 49.63762
#
# Poissons Ratio (x) = 0.25055 0.15613
# Poissons Ratio (y) = 0.23025 -0.05290
# Poissons Ratio (z) = 0.33227 -0.12250
#
# Static dielectric constant tensor:
#      x y z
#    x 4.289350 0.000000 0.000000 
#    y 0.000000 4.708810 0.000000 
#    z 0.000000 0.000000 3.784310 
# 
# 
# High freq. dielectric constant tensor:
#      x y z
#    x 1.874880 0.000000 0.000000 
#    y 0.000000 1.895240 0.000000 
#    z 0.000000 0.000000 1.844790 
# 
# From -- ./inp_files/11841.got.cif
#   From: 2010.03.12/outbox.cif.g09.slc.cpg/sg61_6_cif.got.tgz:11841.got - 2010.04.10 19:05:03.
