data_PCOD8249169
_publ_section_title
;
Structure prediction by ZEFSAII (Michael W. Deem and Ramdas Pophale) SiO2 
 PCOD8249169
Probable space group: P B C A
;
_chemical_formula_sum "Si O2"
_cell_formula_units_Z 64
_cell_length_a 23.142116
_cell_length_b 17.330502
_cell_length_c 7.370717
_cell_angle_alpha 90.000000
_cell_angle_beta 90.000000
_cell_angle_gamma 90.000000
_cell_volume 2956.132837
_symmetry_space_group_name_H-M "P B C A"
_symmetry_group_IT_number 61
_symmetry_cell_setting 'orthorhombic'
loop_
_space_group_symop_operation_xyz
x,y,z
1/2-x,-y,1/2+z
1/2+x,1/2-y,-z
-x,1/2+y,1/2-z
-x,-y,-z
1/2+x,y,1/2-z
1/2-x,1/2+y,z
x,1/2-y,1/2+z
loop_
_atom_site_type_symbol
_atom_site_label
_atom_site_fract_x
_atom_site_fract_y
_atom_site_fract_z
Si Si1 0.594852 0.666538 0.535743
Si Si2 0.813521 0.048207 0.530277
Si Si3 0.552126 0.676903 0.912967
Si Si4 0.072788 0.202273 0.863694
Si Si5 0.814499 0.969731 0.896599
Si Si6 0.021247 0.921802 0.746711
Si Si7 0.885755 0.956430 0.253313
Si Si8 0.097130 0.360205 0.745040
O O1 0.656556 0.629589 0.478622
O O2 0.587673 0.641705 0.745440
O O3 0.592097 0.758807 0.512205
O O4 0.545498 0.631792 0.410382
O O5 0.749155 0.052570 0.457046
O O6 0.812770 0.038045 0.748705
O O7 0.848776 0.978386 0.431684
O O8 0.494788 0.711977 0.812362
O O9 0.537101 0.609916 0.054064
O O10 0.106500 0.136468 0.746634
O O11 0.104411 0.285524 0.873088
O O12 0.069656 0.177241 0.068823
O O13 0.840640 0.896680 0.788884
O O14 0.853375 0.988866 0.072857
O O15 0.951979 0.924488 0.703222
O O16 0.049922 0.006727 0.737674
#
# Coordination Sequence:
#
# PCOD8249169 Si02
#       8
#     8   8   8   8   8   8   8   8
#     4  11  21  35  61  91 118 168 198 239 306 367
#     4  11  24  42  65  87 119 159 213 255 305 354
#     4  11  19  36  61  88 134 162 190 246 308 362
#     4  10  21  37  60  92 129 164 196 245 310 366
#     4  11  23  44  65  87 119 164 206 262 306 351
#     4  10  21  38  61  96 127 157 201 250 302 369
#     4  10  23  41  66  92 123 161 208 255 301 368
#     4  10  22  37  63  92 126 163 202 247 311 373
#
# _framework density 21.649906999999999
#
# number of rings (size 3 to 8) (size 9 to 14) (size 15 to 20)
#    0.000    1.500    3.750    1.500    1.750    5.500 
#    0.000    5.000    0.000    0.000    0.000    0.000 
#    0.000    0.000    0.000    0.000    0.000    0.000 
#
# Total GULP energy -793193.440851 kJ/mol
# GULP energy per Si atom -12393.647513 kJ/mol
# Density = 2.160063 g / cm^3
# Si number density = 21.649907 Si / 1000 Ang^3
#
#
#
# Elastic Constant Matrix: (Units=GPa)
#
#
# Indices 1 2 3 4 5 6 
#
# 1 103.3723 36.4984 14.7972 0.0000 0.0000 0.0000
# 2 36.4984 20.5152 13.4740 0.0000 0.0000 0.0000
# 3 14.7972 13.4740 80.0610 0.0000 0.0000 0.0000
# 4 0.0000 0.0000 0.0000 9.2482 0.0000 0.0000
# 5 0.0000 0.0000 0.0000 0.0000 23.8078 0.0000
# 6 0.0000 0.0000 0.0000 0.0000 0.0000 17.1047
#
#
#
# Elastic Compliance Matrix: (Units=1/GPa)
#
#
# Indices 1 2 3 4 5 6 
#
# 1 0.026841 -0.050024 0.003458 0.000000 0.000000 0.000000
# 2 -0.050024 0.148032 -0.015668 0.000000 0.000000 0.000000
# 3 0.003458 -0.015668 0.014488 0.000000 0.000000 0.000000
# 4 0.000000 0.000000 0.000000 0.108129 0.000000 0.000000
# 5 0.000000 0.000000 0.000000 0.000000 0.042003 0.000000
# 6 0.000000 0.000000 0.000000 0.000000 0.000000 0.058464
#
#
# Mechanical properties :
#
#
# Convention : Reuss Voigt Hill
#
# Bulk Modulus (GPa) = 15.40978 37.05418 26.23198
# Shear Modulus (GPa) = 9.19025 19.31073 14.25049
#
# Velocity S-wave (km/s) = 2.06256 2.98980 2.56837
# Velocity P-wave (km/s) = 3.57846 5.39174 4.57582
#
# Compressibility (1/GPa) = 0.06489386
#
# Stress axis : x y z
#
# Youngs Moduli (GPa) = 37.25634 6.75531 69.02189
#
# Poissons Ratio (x) = 0.33793 -0.23868
# Poissons Ratio (y) = 1.86371 1.08141
# Poissons Ratio (z) = -0.12883 0.10584
#
# Static dielectric constant tensor:
#      x y z
#    x 3.737990 0.000000 0.000000 
#    y 0.000000 4.435030 0.000000 
#    z 0.000000 0.000000 4.122220 
# 
# 
# High freq. dielectric constant tensor:
#      x y z
#    x 1.828800 0.000000 0.000000 
#    y 0.000000 1.834600 0.000000 
#    z 0.000000 0.000000 1.869820 
# 
# From -- ./inp_files/4358.got.cif
#   From: 2010.03.12/outbox.cif.g09.slc.cpg/sg61_3_cif.got.tgz:4358.got - 2010.04.10 19:05:03.
