data_PCOD8249947
_publ_section_title
;
Structure prediction by ZEFSAII (Michael W. Deem and Ramdas Pophale) SiO2 
 PCOD8249947
Probable space group: P N M A
;
_chemical_formula_sum "Si O2"
_cell_formula_units_Z 64
_cell_length_a 5.398105
_cell_length_b 27.642164
_cell_length_c 19.296975
_cell_angle_alpha 90.000000
_cell_angle_beta 90.000000
_cell_angle_gamma 90.000000
_cell_volume 2879.403985
_symmetry_space_group_name_H-M "P N M A"
_symmetry_group_IT_number 62
_symmetry_cell_setting 'orthorhombic'
loop_
_space_group_symop_operation_xyz
x,y,z
1/2-x,-y,1/2+z
1/2+x,1/2-y,1/2-z
-x,1/2+y,-z
-x,-y,-z
1/2+x,y,1/2-z
1/2-x,1/2+y,1/2+z
x,1/2-y,z
loop_
_atom_site_type_symbol
_atom_site_label
_atom_site_fract_x
_atom_site_fract_y
_atom_site_fract_z
Si Si1 0.803033 0.551614 0.634607
Si Si2 0.732026 0.037260 0.970363
Si Si3 0.772038 0.933467 0.012322
Si Si4 0.151827 0.696968 0.206499
Si Si5 0.932404 0.446401 0.675318
Si Si6 0.561336 0.593191 0.330384
Si Si7 0.127508 0.195784 0.208756
Si Si8 0.706638 0.395141 0.373399
O O1 0.821616 0.544104 0.552233
O O2 0.838950 0.501663 0.677005
O O3 0.535344 0.574680 0.652797
O O4 0.035983 0.584795 0.659228
O O5 0.467037 0.056472 0.938321
O O6 0.966047 0.070174 0.945965
O O7 0.795428 0.980861 0.959646
O O8 0.760706 0.890541 0.957281
O O9 0.419789 0.693437 0.241804
O O10 0.136461 0.750000 0.168393
O O11 0.132242 0.649738 0.157590
O O12 0.984261 0.422784 0.750346
O O13 0.713238 0.415357 0.636564
O O14 0.212399 0.441132 0.639880
O O15 0.353073 0.186328 0.261668
O O16 0.146350 0.250000 0.179505
O O17 0.166855 0.160229 0.145149
#
# Coordination Sequence:
#
# PCOD8249947 Si02
#       8
#     8   8   8   8   8   8   8   8
#     4  10  19  30  43  65  93 117 150 180 211 260
#     4   8  14  25  41  62  87 116 135 164 211 249
#     4   8  14  25  44  63  86 111 135 169 212 249
#     4  10  16  25  41  56  68  89 126 176 215 235
#     4  10  18  28  38  51  78 117 139 167 203 248
#     4  10  17  30  38  51  78 108 141 170 210 239
#     4  10  21  38  53  66  88 121 154 196 251 289
#     4  10  19  33  47  68  88 109 151 194 215 263
#
# _framework density 22.226824000000001
#
# number of rings (size 3 to 8) (size 9 to 14) (size 15 to 20)
#    0.000    2.500    2.500    1.500    0.000    0.000 
#   13.500    0.000    0.000    0.000    0.000    0.000 
#    0.000    3.000    0.000    0.000    0.000    0.000 
#
# Total GULP energy -792928.191853 kJ/mol
# GULP energy per Si atom -12389.502998 kJ/mol
# Density = 2.217624 g / cm^3
# Si number density = 22.226824 Si / 1000 Ang^3
#
#
#
# Elastic Constant Matrix: (Units=GPa)
#
#
# Indices 1 2 3 4 5 6 
#
# 1 185.3415 31.2211 22.8533 0.0000 0.0000 0.0000
# 2 31.2211 103.8200 23.2110 0.0000 0.0000 0.0000
# 3 22.8533 23.2110 44.8611 0.0000 0.0000 0.0000
# 4 0.0000 0.0000 0.0000 25.0298 0.0000 0.0000
# 5 0.0000 0.0000 0.0000 0.0000 31.1535 0.0000
# 6 0.0000 0.0000 0.0000 0.0000 0.0000 22.1367
#
#
#
# Elastic Compliance Matrix: (Units=1/GPa)
#
#
# Indices 1 2 3 4 5 6 
#
# 1 0.005896 -0.001246 -0.002359 0.000000 0.000000 0.000000
# 2 -0.001246 0.011155 -0.005137 0.000000 0.000000 0.000000
# 3 -0.002359 -0.005137 0.026151 0.000000 0.000000 0.000000
# 4 0.000000 0.000000 0.000000 0.039952 0.000000 0.000000
# 5 0.000000 0.000000 0.000000 0.000000 0.032099 0.000000
# 6 0.000000 0.000000 0.000000 0.000000 0.000000 0.045174
#
#
# Mechanical properties :
#
#
# Convention : Reuss Voigt Hill
#
# Bulk Modulus (GPa) = 38.88283 54.28817 46.58550
# Shear Modulus (GPa) = 26.81197 32.77981 29.79589
#
# Velocity S-wave (km/s) = 3.47693 3.84446 3.66531
# Velocity P-wave (km/s) = 5.80090 6.64712 6.23837
#
# Compressibility (1/GPa) = 0.02571829
#
# Stress axis : x y z
#
# Youngs Moduli (GPa) = 169.60148 89.64460 38.23982
#
# Poissons Ratio (x) = 0.11167 0.09021
# Poissons Ratio (y) = 0.21127 0.19644
# Poissons Ratio (z) = 0.40011 0.46051
#
# Static dielectric constant tensor:
#      x y z
#    x 5.234950 0.000000 0.000000 
#    y 0.000000 4.339690 0.000000 
#    z 0.000000 0.000000 4.073210 
# 
# 
# High freq. dielectric constant tensor:
#      x y z
#    x 1.946990 0.000000 0.000000 
#    y 0.000000 1.836310 0.000000 
#    z 0.000000 0.000000 1.874850 
# 
# From -- ./inp_files/28446.got.cif
#   From: 2010.03.12/outbox.cif.g09.slc.cpg/sg62_15_cif.got.tgz:28446.got - 2010.04.10 19:12:36.
