data_PCOD8249953
_publ_section_title
;
Structure prediction by ZEFSAII (Michael W. Deem and Ramdas Pophale) SiO2 
 PCOD8249953
Probable space group: P N M A
;
_chemical_formula_sum "Si O2"
_cell_formula_units_Z 56
_cell_length_a 9.165353
_cell_length_b 21.579700
_cell_length_c 17.740794
_cell_angle_alpha 90.000000
_cell_angle_beta 90.000000
_cell_angle_gamma 90.000000
_cell_volume 3508.873020
_symmetry_space_group_name_H-M "P N M A"
_symmetry_group_IT_number 62
_symmetry_cell_setting 'orthorhombic'
loop_
_space_group_symop_operation_xyz
x,y,z
1/2-x,-y,1/2+z
1/2+x,1/2-y,1/2-z
-x,1/2+y,-z
-x,-y,-z
1/2+x,y,1/2-z
1/2-x,1/2+y,1/2+z
x,1/2-y,z
loop_
_atom_site_type_symbol
_atom_site_label
_atom_site_fract_x
_atom_site_fract_y
_atom_site_fract_z
Si Si1 0.915041 0.936357 0.992790
Si Si2 0.307009 0.975547 0.657041
Si Si3 0.994763 0.502022 0.289617
Si Si4 0.581241 0.179349 0.882122
Si Si5 0.670161 0.590072 0.110940
Si Si6 0.631755 0.613915 0.401207
Si Si7 0.593585 0.128203 0.720246
O O1 0.863601 0.927072 0.906591
O O2 0.771297 0.934405 0.044362
O O3 0.030021 0.885605 0.023799
O O4 0.000000 0.000000 0.000000
O O5 0.407373 0.963680 0.730357
O O6 0.318426 0.045441 0.624829
O O7 0.137228 0.960698 0.676094
O O8 0.097999 0.528090 0.355375
O O9 0.915541 0.557487 0.246354
O O10 0.552236 0.250000 0.904482
O O11 0.453549 0.137363 0.917824
O O12 0.730574 0.156257 0.920224
O O13 0.594691 0.173624 0.791424
O O14 0.755372 0.630228 0.174249
O O15 0.542346 0.645571 0.332922
#
# Coordination Sequence:
#
# PCOD8249953 Si02
#       7
#     8   8   8   8   8   8   8
#     4   9  20  32  46  63  87 124 169 187 224 286
#     4  10  17  29  45  66  88 123 160 185 226 284
#     4  10  16  26  45  65  92 121 152 188 230 271
#     4  11  20  29  44  67  90 122 168 206 231 257
#     4  10  18  31  44  64  96 128 160 201 228 265
#     4   9  17  31  43  59  91 123 156 199 226 265
#     4   9  16  28  43  58  88 129 158 194 228 254
#
# _framework density 15.959541
#
# number of rings (size 3 to 8) (size 9 to 14) (size 15 to 20)
#    0.000    2.286    4.286    2.571    0.000    2.857 
#    0.000    2.143    0.000    0.000    0.000    0.000 
#    0.000    0.000    0.000   12.857    0.000    0.000 
#
# Total GULP energy -694057.421829 kJ/mol
# GULP energy per Si atom -12393.882533 kJ/mol
# Density = 1.592322 g / cm^3
# Si number density = 15.959541 Si / 1000 Ang^3
#
#
#
# Elastic Constant Matrix: (Units=GPa)
#
#
# Indices 1 2 3 4 5 6 
#
# 1 132.5352 28.2365 58.7701 0.0000 0.0000 0.0000
# 2 28.2365 30.8762 31.5383 0.0000 0.0000 0.0000
# 3 58.7701 31.5383 79.1026 0.0000 0.0000 0.0000
# 4 0.0000 0.0000 0.0000 9.9011 0.0000 0.0000
# 5 0.0000 0.0000 0.0000 0.0000 22.6596 0.0000
# 6 0.0000 0.0000 0.0000 0.0000 0.0000 12.0503
#
#
#
# Elastic Compliance Matrix: (Units=1/GPa)
#
#
# Indices 1 2 3 4 5 6 
#
# 1 0.011414 -0.002997 -0.007286 0.000000 0.000000 0.000000
# 2 -0.002997 0.055426 -0.019872 0.000000 0.000000 0.000000
# 3 -0.007286 -0.019872 0.025978 0.000000 0.000000 0.000000
# 4 0.000000 0.000000 0.000000 0.100998 0.000000 0.000000
# 5 0.000000 0.000000 0.000000 0.000000 0.044131 0.000000
# 6 0.000000 0.000000 0.000000 0.000000 0.000000 0.082985
#
#
# Mechanical properties :
#
#
# Convention : Reuss Voigt Hill
#
# Bulk Modulus (GPa) = 30.76025 53.28930 42.02478
# Shear Modulus (GPa) = 12.75256 17.18682 14.96969
#
# Velocity S-wave (km/s) = 2.82982 3.28517 3.06596
# Velocity P-wave (km/s) = 5.47658 6.91755 6.23881
#
# Compressibility (1/GPa) = 0.03250949
#
# Stress axis : x y z
#
# Youngs Moduli (GPa) = 87.60997 18.04209 38.49456
#
# Poissons Ratio (x) = 0.05406 0.28045
# Poissons Ratio (y) = 0.26253 0.76496
# Poissons Ratio (z) = 0.63829 0.35853
#
# Static dielectric constant tensor:
#      x y z
#    x 3.351450 0.000000 0.000000 
#    y 0.000000 2.468840 0.000000 
#    z 0.000000 0.000000 3.200040 
# 
# 
# High freq. dielectric constant tensor:
#      x y z
#    x 1.643870 0.000000 0.000000 
#    y 0.000000 1.535810 0.000000 
#    z 0.000000 0.000000 1.591540 
# 
# From -- ./inp_files/22513.got.cif
#   From: 2010.03.12/outbox.cif.g09.slc.cpg/sg62_12_cif.got.tgz:22513.got - 2010.04.10 19:12:36.
