data_PCOD8249962
_publ_section_title
;
Structure prediction by ZEFSAII (Michael W. Deem and Ramdas Pophale) SiO2 
 PCOD8249962
Probable space group: P N M A
;
_chemical_formula_sum "Si O2"
_cell_formula_units_Z 64
_cell_length_a 14.154874
_cell_length_b 17.678942
_cell_length_c 14.175659
_cell_angle_alpha 90.000000
_cell_angle_beta 90.000000
_cell_angle_gamma 90.000000
_cell_volume 3547.362220
_symmetry_space_group_name_H-M "P N M A"
_symmetry_group_IT_number 62
_symmetry_cell_setting 'orthorhombic'
loop_
_space_group_symop_operation_xyz
x,y,z
1/2-x,-y,1/2+z
1/2+x,1/2-y,1/2-z
-x,1/2+y,-z
-x,-y,-z
1/2+x,y,1/2-z
1/2-x,1/2+y,1/2+z
x,1/2-y,z
loop_
_atom_site_type_symbol
_atom_site_label
_atom_site_fract_x
_atom_site_fract_y
_atom_site_fract_z
Si Si1 0.254154 0.334851 0.815110
Si Si2 0.441895 0.416018 0.609508
Si Si3 0.538548 0.661575 0.194613
Si Si4 0.111169 0.521511 0.858844
Si Si5 0.316106 0.833401 0.515166
Si Si6 0.725765 0.004202 0.460383
Si Si7 0.141999 0.432397 0.675634
Si Si8 0.469680 0.334051 0.426705
O O1 0.261721 0.250000 0.778712
O O2 0.359546 0.358655 0.851972
O O3 0.179648 0.343857 0.900835
O O4 0.219450 0.378186 0.722916
O O5 0.450309 0.361321 0.697388
O O6 0.536886 0.464234 0.593204
O O7 0.356111 0.475925 0.611253
O O8 0.422178 0.359111 0.524145
O O9 0.511987 0.750000 0.184916
O O10 0.454989 0.611202 0.150120
O O11 0.130411 0.500188 0.750885
O O12 0.067752 0.605933 0.849832
O O13 0.202357 0.516198 0.929446
O O14 0.269650 0.750000 0.536613
O O15 0.418310 0.835489 0.561232
O O16 0.258923 0.905293 0.554979
O O17 0.821829 0.964261 0.424758
O O18 0.435502 0.250000 0.398146
#
# Coordination Sequence:
#
# PCOD8249962 Si02
#       8
#     8   8   8   8   8   8   8   8
#     4  10  19  33  52  77 110 140 173 219 266 313
#     4  10  16  29  50  76 106 132 163 210 271 321
#     4  10  20  33  49  78 113 141 171 214 269 331
#     4  10  19  33  49  75 108 135 171 225 266 310
#     4  10  18  31  53  77 101 134 177 224 265 307
#     4  11  18  32  51  77 107 134 175 219 265 317
#     4  11  21  33  53  77 105 146 178 216 271 324
#     4  10  17  27  47  75  99 130 163 210 271 316
#
# _framework density 18.041575000000002
#
# number of rings (size 3 to 8) (size 9 to 14) (size 15 to 20)
#    0.000    1.750    5.000    2.250    0.000    1.000 
#    0.000    1.875    0.000    0.000    0.000    0.000 
#    0.000    0.000    0.000    0.000    0.000    0.000 
#
# Total GULP energy -792962.693451 kJ/mol
# GULP energy per Si atom -12390.042085 kJ/mol
# Density = 1.800051 g / cm^3
# Si number density = 18.041575 Si / 1000 Ang^3
#
#
#
# Elastic Constant Matrix: (Units=GPa)
#
#
# Indices 1 2 3 4 5 6 
#
# 1 54.5158 39.7997 6.0654 0.0000 0.0000 0.0000
# 2 39.7997 121.6014 12.9922 0.0000 0.0000 0.0000
# 3 6.0654 12.9922 22.1203 0.0000 0.0000 0.0000
# 4 0.0000 0.0000 0.0000 21.9019 0.0000 0.0000
# 5 0.0000 0.0000 0.0000 0.0000 24.0497 0.0000
# 6 0.0000 0.0000 0.0000 0.0000 0.0000 26.0800
#
#
#
# Elastic Compliance Matrix: (Units=1/GPa)
#
#
# Indices 1 2 3 4 5 6 
#
# 1 0.024195 -0.007693 -0.002116 0.000000 0.000000 0.000000
# 2 -0.007693 0.011220 -0.004481 0.000000 0.000000 0.000000
# 3 -0.002116 -0.004481 0.048419 0.000000 0.000000 0.000000
# 4 0.000000 0.000000 0.000000 0.045658 0.000000 0.000000
# 5 0.000000 0.000000 0.000000 0.000000 0.041580 0.000000
# 6 0.000000 0.000000 0.000000 0.000000 0.000000 0.038344
#
#
# Mechanical properties :
#
#
# Convention : Reuss Voigt Hill
#
# Bulk Modulus (GPa) = 18.09776 35.10578 26.60177
# Shear Modulus (GPa) = 19.49972 23.69835 21.59903
#
# Velocity S-wave (km/s) = 3.29115 3.62821 3.46378
# Velocity P-wave (km/s) = 4.94926 6.08707 5.54741
#
# Compressibility (1/GPa) = 0.05525545
#
# Stress axis : x y z
#
# Youngs Moduli (GPa) = 41.33097 89.12530 20.65291
#
# Poissons Ratio (x) = 0.68563 0.04370
# Poissons Ratio (y) = 0.31795 0.09254
# Poissons Ratio (z) = 0.08745 0.39934
#
# Static dielectric constant tensor:
#      x y z
#    x 3.447950 0.000000 0.000000 
#    y 0.000000 3.749410 0.000000 
#    z 0.000000 0.000000 2.908980 
# 
# 
# High freq. dielectric constant tensor:
#      x y z
#    x 1.683910 0.000000 0.000000 
#    y 0.000000 1.714380 0.000000 
#    z 0.000000 0.000000 1.647860 
# 
# From -- ./inp_files/19239.got.cif
#   From: 2010.03.12/outbox.cif.g09.slc.cpg/sg62_10_cif.got.tgz:19239.got - 2010.04.10 19:12:36.
