data_PCOD8249762
_publ_section_title
;
Structure prediction by ZEFSAII (Michael W. Deem and Ramdas Pophale) SiO2 
 PCOD8249762
Probable space group: P B C A
;
_chemical_formula_sum "Si O2"
_cell_formula_units_Z 48
_cell_length_a 7.640323
_cell_length_b 18.716140
_cell_length_c 12.752006
_cell_angle_alpha 90.000000
_cell_angle_beta 90.000000
_cell_angle_gamma 90.000000
_cell_volume 1823.503128
_symmetry_space_group_name_H-M "P B C A"
_symmetry_group_IT_number 61
_symmetry_cell_setting 'orthorhombic'
loop_
_space_group_symop_operation_xyz
x,y,z
1/2-x,-y,1/2+z
1/2+x,1/2-y,-z
-x,1/2+y,1/2-z
-x,-y,-z
1/2+x,y,1/2-z
1/2-x,1/2+y,z
x,1/2-y,1/2+z
loop_
_atom_site_type_symbol
_atom_site_label
_atom_site_fract_x
_atom_site_fract_y
_atom_site_fract_z
Si Si1 0.515841 0.435244 0.580020
Si Si2 0.167768 0.801747 0.087482
Si Si3 0.171947 0.234120 0.780085
Si Si4 0.653238 0.831272 0.045681
Si Si5 0.476506 0.918299 0.528776
Si Si6 0.684252 0.605289 0.221169
O O1 0.500000 0.500000 0.500000
O O2 0.526635 0.363550 0.503651
O O3 0.688652 0.444177 0.650068
O O4 0.353737 0.427574 0.663545
O O5 0.341173 0.798923 0.161636
O O6 0.009909 0.769879 0.159401
O O7 0.203598 0.746976 0.994682
O O8 0.126197 0.878621 0.040209
O O9 0.321028 0.181271 0.830771
O O10 0.237117 0.315585 0.771869
O O11 0.787262 0.892103 0.005731
O O12 0.503060 0.898135 0.652697
O O13 0.500000 0.000000 0.500000
#
# Coordination Sequence:
#
# PCOD8249762 Si02
#       6
#     8   8   8   8   8   8
#     4  12  27  46  74 111 151 203 261 317 391 475
#     4  11  24  42  72 107 140 192 255 313 373 466
#     4  11  23  40  72 106 139 185 254 314 385 449
#     4  11  23  44  70 105 139 192 258 316 374 468
#     4  11  26  46  71 106 153 199 251 317 395 459
#     4  12  23  44  73 101 150 199 248 316 395 450
#
# _framework density 26.322960999999999
#
# number of rings (size 3 to 8) (size 9 to 14) (size 15 to 20)
#    0.000    0.667    5.000    2.000    2.333    2.667 
#    0.000    5.000    0.000    0.000    0.000    0.000 
#    0.000    0.000    0.000    0.000    0.000    0.000 
#
# Total GULP energy -594907.043669 kJ/mol
# GULP energy per Si atom -12393.896743 kJ/mol
# Density = 2.626305 g / cm^3
# Si number density = 26.322961 Si / 1000 Ang^3
#
#
#
# Elastic Constant Matrix: (Units=GPa)
#
#
# Indices 1 2 3 4 5 6 
#
# 1 26.2011 -2.1706 -36.6758 0.0000 0.0000 0.0000
# 2 -2.1706 165.2562 46.4344 0.0000 0.0000 0.0000
# 3 -36.6758 46.4344 115.7478 0.0000 0.0000 0.0000
# 4 0.0000 0.0000 0.0000 56.4092 0.0000 0.0000
# 5 0.0000 0.0000 0.0000 0.0000 35.5652 0.0000
# 6 0.0000 0.0000 0.0000 0.0000 0.0000 32.6556
#
#
#
# Elastic Compliance Matrix: (Units=1/GPa)
#
#
# Indices 1 2 3 4 5 6 
#
# 1 0.074035 -0.006333 0.025999 0.000000 0.000000 0.000000
# 2 -0.006333 0.007362 -0.004960 0.000000 0.000000 0.000000
# 3 0.025999 -0.004960 0.018867 0.000000 0.000000 0.000000
# 4 0.000000 0.000000 0.000000 0.017728 0.000000 0.000000
# 5 0.000000 0.000000 0.000000 0.000000 0.028117 0.000000
# 6 0.000000 0.000000 0.000000 0.000000 0.000000 0.030623
#
#
# Mechanical properties :
#
#
# Convention : Reuss Voigt Hill
#
# Bulk Modulus (GPa) = 7.71147 35.82013 21.76580
# Shear Modulus (GPa) = 26.24056 44.90047 35.57052
#
# Velocity S-wave (km/s) = 3.16075 4.13456 3.68001
# Velocity P-wave (km/s) = 4.03192 6.03575 5.13257
#
# Compressibility (1/GPa) = 0.12967703
#
# Stress axis : x y z
#
# Youngs Moduli (GPa) = 13.50710 135.83821 53.00149
#
# Poissons Ratio (x) = 0.86026 -1.37800
# Poissons Ratio (y) = 0.08554 0.26288
# Poissons Ratio (z) = -0.35118 0.67375
#
# Static dielectric constant tensor:
#      x y z
#    x 5.451850 0.000000 0.000000 
#    y 0.000000 4.352420 0.000000 
#    z 0.000000 0.000000 5.368350 
# 
# 
# High freq. dielectric constant tensor:
#      x y z
#    x 2.078970 0.000000 0.000000 
#    y 0.000000 2.029280 0.000000 
#    z 0.000000 0.000000 2.087820 
# 
# From -- ./inp_files/7050.got.cif
#   From: 2010.03.12/outbox.cif.g09.slc.cpg/sg61_4_cif.got.tgz:7050.got - 2010.04.10 19:05:03.
