data_PCOD8249559
_publ_section_title
;
Structure prediction by ZEFSAII (Michael W. Deem and Ramdas Pophale) SiO2 
 PCOD8249559
Probable space group: P B C A
;
_chemical_formula_sum "Si O2"
_cell_formula_units_Z 64
_cell_length_a 21.632799
_cell_length_b 8.700699
_cell_length_c 14.851032
_cell_angle_alpha 90.000000
_cell_angle_beta 90.000000
_cell_angle_gamma 90.000000
_cell_volume 2795.268262
_symmetry_space_group_name_H-M "P B C A"
_symmetry_group_IT_number 61
_symmetry_cell_setting 'orthorhombic'
loop_
_space_group_symop_operation_xyz
x,y,z
1/2-x,-y,1/2+z
1/2+x,1/2-y,-z
-x,1/2+y,1/2-z
-x,-y,-z
1/2+x,y,1/2-z
1/2-x,1/2+y,z
x,1/2-y,1/2+z
loop_
_atom_site_type_symbol
_atom_site_label
_atom_site_fract_x
_atom_site_fract_y
_atom_site_fract_z
Si Si1 0.561945 0.016287 0.246993
Si Si2 0.065006 0.267174 0.530690
Si Si3 0.163153 0.632916 0.258897
Si Si4 0.668040 0.097974 0.358445
Si Si5 0.595084 0.916930 0.927052
Si Si6 0.742563 0.372606 0.292399
Si Si7 0.930724 0.231449 0.603252
Si Si8 0.489032 0.725986 0.851263
O O1 0.555253 0.926992 0.154123
O O2 0.525254 0.927539 0.325793
O O3 0.634118 0.031762 0.269524
O O4 0.537203 0.192263 0.239097
O O5 0.114832 0.392312 0.566045
O O6 0.997166 0.301794 0.573818
O O7 0.064128 0.308339 0.424433
O O8 0.090238 0.097075 0.551248
O O9 0.141212 0.621062 0.154693
O O10 0.208820 0.777685 0.267667
O O11 0.203095 0.479022 0.277042
O O12 0.106402 0.651616 0.329433
O O13 0.695380 0.266523 0.346039
O O14 0.723811 0.976139 0.370573
O O15 0.528247 0.859747 0.898004
O O16 0.611416 0.815946 0.016634
#
# Coordination Sequence:
#
# PCOD8249559 Si02
#       8
#     8   8   8   8   8   8   8   8
#     4  12  22  39  65 100 139 185 218 270 346 416
#     4  11  22  39  66 105 144 177 223 283 351 423
#     4  11  22  43  70  95 133 186 229 287 343 398
#     4  11  23  41  70  94 128 180 231 281 343 402
#     4  11  20  38  67 102 137 185 217 276 349 411
#     4  10  23  43  69  93 127 181 241 286 333 397
#     4  11  21  39  66 105 141 179 222 274 348 419
#     4  11  23  39  65 101 150 177 218 275 342 429
#
# _framework density 22.895834000000001
#
# number of rings (size 3 to 8) (size 9 to 14) (size 15 to 20)
#    0.000    1.000    6.250    1.500    0.000    0.500 
#    0.000    2.500   11.000    0.000    0.000    0.000 
#    0.000    0.000    0.000    0.000    0.000    0.000 
#
# Total GULP energy -793031.005491 kJ/mol
# GULP energy per Si atom -12391.109461 kJ/mol
# Density = 2.284372 g / cm^3
# Si number density = 22.895834 Si / 1000 Ang^3
#
#
#
# Elastic Constant Matrix: (Units=GPa)
#
#
# Indices 1 2 3 4 5 6 
#
# 1 97.3790 48.5168 33.1022 0.0000 0.0000 0.0000
# 2 48.5168 91.6316 34.5300 0.0000 0.0000 0.0000
# 3 33.1022 34.5300 99.3923 0.0000 0.0000 0.0000
# 4 0.0000 0.0000 0.0000 15.5085 0.0000 0.0000
# 5 0.0000 0.0000 0.0000 0.0000 19.7487 0.0000
# 6 0.0000 0.0000 0.0000 0.0000 0.0000 43.4702
#
#
#
# Elastic Compliance Matrix: (Units=1/GPa)
#
#
# Indices 1 2 3 4 5 6 
#
# 1 0.014462 -0.006722 -0.002481 0.000000 0.000000 0.000000
# 2 -0.006722 0.015682 -0.003209 0.000000 0.000000 0.000000
# 3 -0.002481 -0.003209 0.012002 0.000000 0.000000 0.000000
# 4 0.000000 0.000000 0.000000 0.064481 0.000000 0.000000
# 5 0.000000 0.000000 0.000000 0.000000 0.050636 0.000000
# 6 0.000000 0.000000 0.000000 0.000000 0.000000 0.023004
#
#
# Mechanical properties :
#
#
# Convention : Reuss Voigt Hill
#
# Bulk Modulus (GPa) = 57.73351 57.85565 57.79458
# Shear Modulus (GPa) = 23.71174 27.22908 25.47041
#
# Velocity S-wave (km/s) = 3.22162 3.45230 3.33896
# Velocity P-wave (km/s) = 6.25371 6.41990 6.33735
#
# Compressibility (1/GPa) = 0.01732096
#
# Stress axis : x y z
#
# Youngs Moduli (GPa) = 69.14804 63.76786 83.31684
#
# Poissons Ratio (x) = 0.42866 0.20671
# Poissons Ratio (y) = 0.46483 0.26738
# Poissons Ratio (z) = 0.17156 0.20465
#
# Static dielectric constant tensor:
#      x y z
#    x 4.167670 0.000000 0.000000 
#    y 0.000000 4.195090 0.000000 
#    z 0.000000 0.000000 4.147840 
# 
# 
# High freq. dielectric constant tensor:
#      x y z
#    x 1.900030 0.000000 0.000000 
#    y 0.000000 1.917860 0.000000 
#    z 0.000000 0.000000 1.878080 
# 
# From -- ./inp_files/8538.got.cif
#   From: 2010.03.12/outbox.cif.g09.slc.cpg/sg61_5_cif.got.tgz:8538.got - 2010.04.10 19:05:03.
