data_PCOD8249879
_publ_section_title
;
Structure prediction by ZEFSAII (Michael W. Deem and Ramdas Pophale) SiO2 
 PCOD8249879
Probable space group: P B C A
;
_chemical_formula_sum "Si O2"
_cell_formula_units_Z 40
_cell_length_a 27.209967
_cell_length_b 11.536162
_cell_length_c 4.944433
_cell_angle_alpha 90.000000
_cell_angle_beta 90.000000
_cell_angle_gamma 90.000000
_cell_volume 1552.050534
_symmetry_space_group_name_H-M "P B C A"
_symmetry_group_IT_number 61
_symmetry_cell_setting 'orthorhombic'
loop_
_space_group_symop_operation_xyz
x,y,z
1/2-x,-y,1/2+z
1/2+x,1/2-y,-z
-x,1/2+y,1/2-z
-x,-y,-z
1/2+x,y,1/2-z
1/2-x,1/2+y,z
x,1/2-y,1/2+z
loop_
_atom_site_type_symbol
_atom_site_label
_atom_site_fract_x
_atom_site_fract_y
_atom_site_fract_z
Si Si1 0.251567 0.076706 0.668538
Si Si2 0.352172 0.822876 0.256758
Si Si3 0.857623 0.324220 0.319945
Si Si4 0.501938 0.670480 0.301791
Si Si5 0.080478 0.002569 0.482165
O O1 0.205950 0.157830 0.739257
O O2 0.300466 0.149423 0.719449
O O3 0.248633 0.036714 0.358260
O O4 0.366888 0.781731 0.555391
O O5 0.380893 0.940945 0.190778
O O6 0.870839 0.282785 0.621043
O O7 0.890099 0.436463 0.253480
O O8 0.504528 0.782572 0.496401
O O9 0.547163 0.584708 0.346365
O O10 0.451210 0.602608 0.340588
#
# Coordination Sequence:
#
# PCOD8249879 Si02
#       5
#     8   8   8   8   8
#     4  12  24  46  70 100 146 196 236 292 350 412
#     4  12  26  44  70 104 142 188 237 288 350 415
#     4  12  26  44  70 104 142 188 237 288 350 415
#     4  11  26  49  74 106 140 183 233 294 366 426
#     4  11  26  46  76 104 144 184 236 301 348 430
#
# _framework density 25.772359000000002
#
# number of rings (size 3 to 8) (size 9 to 14) (size 15 to 20)
#    0.000    0.400    2.000    6.000    0.000    6.400 
#    0.000    0.000    0.000    0.000    0.000    0.000 
#    0.000    0.000    0.000    0.000    0.000    0.000 
#
# Total GULP energy -496466.932806 kJ/mol
# GULP energy per Si atom -12411.673320 kJ/mol
# Density = 2.571370 g / cm^3
# Si number density = 25.772359 Si / 1000 Ang^3
#
#
#
# Elastic Constant Matrix: (Units=GPa)
#
#
# Indices 1 2 3 4 5 6 
#
# 1 90.6786 8.4827 -9.8576 0.0000 0.0000 0.0000
# 2 8.4827 83.3880 -1.7432 0.0000 0.0000 0.0000
# 3 -9.8576 -1.7432 66.9751 0.0000 0.0000 0.0000
# 4 0.0000 0.0000 0.0000 25.3345 0.0000 0.0000
# 5 0.0000 0.0000 0.0000 0.0000 26.2408 0.0000
# 6 0.0000 0.0000 0.0000 0.0000 0.0000 43.1293
#
#
#
# Elastic Compliance Matrix: (Units=1/GPa)
#
#
# Indices 1 2 3 4 5 6 
#
# 1 0.011310 -0.001116 0.001636 0.000000 0.000000 0.000000
# 2 -0.001116 0.012109 0.000151 0.000000 0.000000 0.000000
# 3 0.001636 0.000151 0.015176 0.000000 0.000000 0.000000
# 4 0.000000 0.000000 0.000000 0.039472 0.000000 0.000000
# 5 0.000000 0.000000 0.000000 0.000000 0.038109 0.000000
# 6 0.000000 0.000000 0.000000 0.000000 0.000000 0.023186
#
#
# Mechanical properties :
#
#
# Convention : Reuss Voigt Hill
#
# Bulk Modulus (GPa) = 25.04076 26.08949 25.56513
# Shear Modulus (GPa) = 33.03982 35.21825 34.12903
#
# Velocity S-wave (km/s) = 3.58437 3.70065 3.64297
# Velocity P-wave (km/s) = 5.18339 5.32961 5.25701
#
# Compressibility (1/GPa) = 0.03993489
#
# Stress axis : x y z
#
# Youngs Moduli (GPa) = 88.41576 82.58429 65.89533
#
# Poissons Ratio (x) = 0.09219 -0.10778
# Poissons Ratio (y) = 0.09870 -0.00994
# Poissons Ratio (z) = -0.14461 -0.01246
#
# Static dielectric constant tensor:
#      x y z
#    x 4.916860 0.000000 0.000000 
#    y 0.000000 4.612750 0.000000 
#    z 0.000000 0.000000 4.533260 
# 
# 
# High freq. dielectric constant tensor:
#      x y z
#    x 2.052800 0.000000 0.000000 
#    y 0.000000 2.039410 0.000000 
#    z 0.000000 0.000000 2.029310 
# 
# From -- ./inp_files/1291.got.cif
#   From: 2010.03.12/outbox.cif.g09.slc.cpg/sg61_1_cif.got.tgz:1291.got - 2010.04.10 19:05:03.
