data_PCOD8249632
_publ_section_title
;
Structure prediction by ZEFSAII (Michael W. Deem and Ramdas Pophale) SiO2 
 PCOD8249632
Probable space group: P B C A
;
_chemical_formula_sum "Si O2"
_cell_formula_units_Z 56
_cell_length_a 15.162109
_cell_length_b 12.149976
_cell_length_c 13.587171
_cell_angle_alpha 90.000000
_cell_angle_beta 90.000000
_cell_angle_gamma 90.000000
_cell_volume 2503.018593
_symmetry_space_group_name_H-M "P B C A"
_symmetry_group_IT_number 61
_symmetry_cell_setting 'orthorhombic'
loop_
_space_group_symop_operation_xyz
x,y,z
1/2-x,-y,1/2+z
1/2+x,1/2-y,-z
-x,1/2+y,1/2-z
-x,-y,-z
1/2+x,y,1/2-z
1/2-x,1/2+y,z
x,1/2-y,1/2+z
loop_
_atom_site_type_symbol
_atom_site_label
_atom_site_fract_x
_atom_site_fract_y
_atom_site_fract_z
Si Si1 0.141606 0.298427 0.435179
Si Si2 0.167928 0.743562 0.371520
Si Si3 0.450232 0.236266 0.061359
Si Si4 0.401929 0.866262 0.227259
Si Si5 0.153505 0.906178 0.699649
Si Si6 0.907466 0.406049 0.276095
Si Si7 0.155844 0.364801 0.645555
O O1 0.233164 0.231566 0.417136
O O2 0.122069 0.371737 0.341471
O O3 0.147291 0.379917 0.528542
O O4 0.055856 0.221058 0.453399
O O5 0.097616 0.764804 0.456770
O O6 0.138810 0.632129 0.313446
O O7 0.165497 0.844322 0.291840
O O8 0.424656 0.133783 0.129312
O O9 0.421593 0.347347 0.118662
O O10 0.502656 0.903282 0.213625
O O11 0.391051 0.747327 0.179340
O O12 0.340241 0.962271 0.182609
O O13 0.242272 0.847144 0.666778
O O14 0.881547 0.532243 0.294512
#
# Coordination Sequence:
#
# PCOD8249632 Si02
#       7
#     8   8   8   8   8   8   8
#     4  11  24  43  73 102 138 186 237 290 355 422
#     4  11  22  47  70 104 141 189 233 291 365 419
#     4  10  24  45  70 107 136 180 244 290 351 424
#     4  11  26  46  68 108 140 188 237 290 361 420
#     4  11  25  43  73  98 146 184 233 294 352 425
#     4  10  26  43  74  98 146 184 236 296 354 420
#     4  12  25  46  69 105 143 183 239 290 356 428
#
# _framework density 22.372983999999999
#
# number of rings (size 3 to 8) (size 9 to 14) (size 15 to 20)
#    0.000    1.143    2.857    1.714   12.000    1.143 
#    2.571    1.429    0.000    0.000    0.000    0.000 
#    0.000    0.000    0.000    0.000    0.000    0.000 
#
# Total GULP energy -694167.993191 kJ/mol
# GULP energy per Si atom -12395.857021 kJ/mol
# Density = 2.232206 g / cm^3
# Si number density = 22.372984 Si / 1000 Ang^3
#
#
#
# Elastic Constant Matrix: (Units=GPa)
#
#
# Indices 1 2 3 4 5 6 
#
# 1 80.6824 10.4526 46.2136 0.0000 0.0000 0.0000
# 2 10.4526 129.3039 33.3895 0.0000 0.0000 0.0000
# 3 46.2136 33.3895 109.0787 0.0000 0.0000 0.0000
# 4 0.0000 0.0000 0.0000 17.5560 0.0000 0.0000
# 5 0.0000 0.0000 0.0000 0.0000 33.1050 0.0000
# 6 0.0000 0.0000 0.0000 0.0000 0.0000 20.2684
#
#
#
# Elastic Compliance Matrix: (Units=1/GPa)
#
#
# Indices 1 2 3 4 5 6 
#
# 1 0.016397 0.000509 -0.007102 0.000000 0.000000 0.000000
# 2 0.000509 0.008413 -0.002791 0.000000 0.000000 0.000000
# 3 -0.007102 -0.002791 0.013031 0.000000 0.000000 0.000000
# 4 0.000000 0.000000 0.000000 0.056961 0.000000 0.000000
# 5 0.000000 0.000000 0.000000 0.000000 0.030207 0.000000
# 6 0.000000 0.000000 0.000000 0.000000 0.000000 0.049338
#
#
# Mechanical properties :
#
#
# Convention : Reuss Voigt Hill
#
# Bulk Modulus (GPa) = 52.43413 55.46404 53.94908
# Shear Modulus (GPa) = 25.06607 29.45316 27.25961
#
# Velocity S-wave (km/s) = 3.35083 3.63224 3.49437
# Velocity P-wave (km/s) = 6.20145 6.51424 6.35977
#
# Compressibility (1/GPa) = 0.01907155
#
# Stress axis : x y z
#
# Youngs Moduli (GPa) = 60.98847 118.85990 76.73961
#
# Poissons Ratio (x) = -0.06045 0.54504
# Poissons Ratio (y) = -0.03102 0.21417
# Poissons Ratio (z) = 0.43317 0.33172
#
# Static dielectric constant tensor:
#      x y z
#    x 4.342970 0.000000 0.000000 
#    y 0.000000 3.683370 0.000000 
#    z 0.000000 0.000000 4.182330 
# 
# 
# High freq. dielectric constant tensor:
#      x y z
#    x 1.899370 0.000000 0.000000 
#    y 0.000000 1.857390 0.000000 
#    z 0.000000 0.000000 1.888720 
# 
# From -- ./inp_files/7837.got.cif
#   From: 2010.03.12/outbox.cif.g09.slc.cpg/sg61_4_cif.got.tgz:7837.got - 2010.04.10 19:05:03.
