data_PCOD8249353
_publ_section_title
;
Structure prediction by ZEFSAII (Michael W. Deem and Ramdas Pophale) SiO2 
 PCOD8249353
Probable space group: P B C A
;
_chemical_formula_sum "Si O2"
_cell_formula_units_Z 64
_cell_length_a 27.381080
_cell_length_b 8.803310
_cell_length_c 12.607463
_cell_angle_alpha 90.000000
_cell_angle_beta 90.000000
_cell_angle_gamma 90.000000
_cell_volume 3038.955018
_symmetry_space_group_name_H-M "P B C A"
_symmetry_group_IT_number 61
_symmetry_cell_setting 'orthorhombic'
loop_
_space_group_symop_operation_xyz
x,y,z
1/2-x,-y,1/2+z
1/2+x,1/2-y,-z
-x,1/2+y,1/2-z
-x,-y,-z
1/2+x,y,1/2-z
1/2-x,1/2+y,z
x,1/2-y,1/2+z
loop_
_atom_site_type_symbol
_atom_site_label
_atom_site_fract_x
_atom_site_fract_y
_atom_site_fract_z
Si Si1 0.104419 0.285253 0.488122
Si Si2 0.951611 0.200060 0.033867
Si Si3 0.180217 0.050210 0.843078
Si Si4 0.031579 0.478249 0.631781
Si Si5 0.761892 0.405983 0.987800
Si Si6 0.426558 0.008377 0.864919
Si Si7 0.305601 0.808523 0.117694
Si Si8 0.849841 0.257799 0.097416
O O1 0.133171 0.380214 0.400226
O O2 0.064596 0.384628 0.548724
O O3 0.140140 0.222278 0.577935
O O4 0.077867 0.146339 0.429136
O O5 0.960870 0.377511 0.065046
O O6 0.893165 0.172134 0.033511
O O7 0.977814 0.096454 0.124624
O O8 0.970347 0.151046 0.915966
O O9 0.228966 0.076404 0.909067
O O10 0.190045 0.138257 0.736328
O O11 0.171457 0.869610 0.821509
O O12 0.049860 0.475235 0.751215
O O13 0.808216 0.300663 0.013701
O O14 0.780703 0.569980 0.958010
O O15 0.729624 0.338433 0.890999
O O16 0.373445 0.092320 0.845701
#
# Coordination Sequence:
#
# PCOD8249353 Si02
#       8
#     8   8   8   8   8   8   8   8
#     4  11  22  43  63  97 135 163 231 271 325 405
#     4   9  23  44  64  98 131 170 226 273 329 409
#     4  11  24  42  63  94 132 175 214 279 329 394
#     4  11  22  43  70  97 134 181 213 282 349 387
#     4  11  23  42  61  92 134 160 229 265 323 403
#     4  10  23  41  68  97 131 176 223 277 330 408
#     4  11  24  39  63  94 124 178 208 270 336 384
#     4  10  21  46  62  91 133 169 214 284 318 400
#
# _framework density 21.059871999999999
#
# number of rings (size 3 to 8) (size 9 to 14) (size 15 to 20)
#    0.750    0.750    3.750    0.750    1.750    4.500 
#    6.750    0.000    0.000    0.000    0.000    0.000 
#    0.000    0.000    0.000    0.000    0.000    0.000 
#
# Total GULP energy -793100.843295 kJ/mol
# GULP energy per Si atom -12392.200676 kJ/mol
# Density = 2.101194 g / cm^3
# Si number density = 21.059872 Si / 1000 Ang^3
#
#
#
# Elastic Constant Matrix: (Units=GPa)
#
#
# Indices 1 2 3 4 5 6 
#
# 1 76.0668 25.5763 16.4984 0.0000 0.0000 0.0000
# 2 25.5763 82.3721 25.3651 0.0000 0.0000 0.0000
# 3 16.4984 25.3651 61.3929 0.0000 0.0000 0.0000
# 4 0.0000 0.0000 0.0000 14.9542 0.0000 0.0000
# 5 0.0000 0.0000 0.0000 0.0000 17.5641 0.0000
# 6 0.0000 0.0000 0.0000 0.0000 0.0000 8.5008
#
#
#
# Elastic Compliance Matrix: (Units=1/GPa)
#
#
# Indices 1 2 3 4 5 6 
#
# 1 0.014984 -0.003910 -0.002411 0.000000 0.000000 0.000000
# 2 -0.003910 0.014930 -0.005118 0.000000 0.000000 0.000000
# 3 -0.002411 -0.005118 0.019051 0.000000 0.000000 0.000000
# 4 0.000000 0.000000 0.000000 0.066871 0.000000 0.000000
# 5 0.000000 0.000000 0.000000 0.000000 0.056934 0.000000
# 6 0.000000 0.000000 0.000000 0.000000 0.000000 0.117636
#
#
# Mechanical properties :
#
#
# Convention : Reuss Voigt Hill
#
# Bulk Modulus (GPa) = 38.33330 39.41239 38.87284
# Shear Modulus (GPa) = 15.52892 18.36329 16.94611
#
# Velocity S-wave (km/s) = 2.71840 2.95609 2.83974
# Velocity P-wave (km/s) = 5.30043 5.51420 5.40837
#
# Compressibility (1/GPa) = 0.02608698
#
# Stress axis : x y z
#
# Youngs Moduli (GPa) = 66.73787 66.97930 52.49081
#
# Poissons Ratio (x) = 0.26189 0.12657
# Poissons Ratio (y) = 0.26094 0.26863
# Poissons Ratio (z) = 0.16092 0.34278
#
# Static dielectric constant tensor:
#      x y z
#    x 3.982370 0.000000 0.000000 
#    y 0.000000 4.023260 0.000000 
#    z 0.000000 0.000000 3.422880 
# 
# 
# High freq. dielectric constant tensor:
#      x y z
#    x 1.838140 0.000000 0.000000 
#    y 0.000000 1.840130 0.000000 
#    z 0.000000 0.000000 1.797160 
# 
# From -- ./inp_files/6782.got.cif
#   From: 2010.03.12/outbox.cif.g09.slc.cpg/sg61_4_cif.got.tgz:6782.got - 2010.04.10 19:05:03.
