data_PCOD8249235
_publ_section_title
;
Structure prediction by ZEFSAII (Michael W. Deem and Ramdas Pophale) SiO2 
 PCOD8249235
Probable space group: P B C A
;
_chemical_formula_sum "Si O2"
_cell_formula_units_Z 56
_cell_length_a 9.192451
_cell_length_b 19.894567
_cell_length_c 13.383349
_cell_angle_alpha 90.000000
_cell_angle_beta 90.000000
_cell_angle_gamma 90.000000
_cell_volume 2447.544621
_symmetry_space_group_name_H-M "P B C A"
_symmetry_group_IT_number 61
_symmetry_cell_setting 'orthorhombic'
loop_
_space_group_symop_operation_xyz
x,y,z
1/2-x,-y,1/2+z
1/2+x,1/2-y,-z
-x,1/2+y,1/2-z
-x,-y,-z
1/2+x,y,1/2-z
1/2-x,1/2+y,z
x,1/2-y,1/2+z
loop_
_atom_site_type_symbol
_atom_site_label
_atom_site_fract_x
_atom_site_fract_y
_atom_site_fract_z
Si Si1 0.994322 0.804511 0.120392
Si Si2 0.656990 0.510329 0.112313
Si Si3 0.987895 0.155495 0.379357
Si Si4 0.269462 0.132090 0.955988
Si Si5 0.476533 0.889731 0.182428
Si Si6 0.427030 0.529565 0.261247
Si Si7 0.251965 0.629437 0.524254
O O1 0.022052 0.730542 0.166572
O O2 0.979893 0.860781 0.206174
O O3 0.121587 0.818616 0.040530
O O4 0.845592 0.807567 0.056454
O O5 0.686990 0.437576 0.066447
O O6 0.486598 0.517923 0.147318
O O7 0.754223 0.524728 0.213563
O O8 0.690593 0.561466 0.023730
O O9 0.837291 0.133703 0.432924
O O10 0.014869 0.102783 0.291853
O O11 0.122171 0.158571 0.455250
O O12 0.399475 0.147888 0.879602
O O13 0.316818 0.881820 0.135239
O O14 0.503481 0.969454 0.174393
#
# Coordination Sequence:
#
# PCOD8249235 Si02
#       7
#     8   8   8   8   8   8   8
#     4  12  22  38  63  93 124 168 218 258 317 391
#     4  10  21  40  65  95 125 169 211 276 316 370
#     4  10  23  43  58  92 131 174 202 266 334 377
#     4  10  21  39  64  90 125 169 214 263 322 384
#     4  10  21  41  65  88 125 168 211 267 317 380
#     4  10  21  40  63  92 125 159 219 261 317 370
#     4  10  23  41  62  90 128 166 211 262 323 378
#
# _framework density 22.880071999999998
#
# number of rings (size 3 to 8) (size 9 to 14) (size 15 to 20)
#    0.000    1.714    1.429    2.571    2.000    5.143 
#   15.429    0.000    0.000    0.000    0.000    0.000 
#    0.000    0.000    0.000    0.000    0.000    0.000 
#
# Total GULP energy -694050.350897 kJ/mol
# GULP energy per Si atom -12393.756266 kJ/mol
# Density = 2.282800 g / cm^3
# Si number density = 22.880072 Si / 1000 Ang^3
#
#
#
# Elastic Constant Matrix: (Units=GPa)
#
#
# Indices 1 2 3 4 5 6 
#
# 1 81.1723 17.4738 13.9003 0.0000 0.0000 0.0000
# 2 17.4738 120.1429 9.5806 0.0000 0.0000 0.0000
# 3 13.9003 9.5806 46.0083 0.0000 0.0000 0.0000
# 4 0.0000 0.0000 0.0000 29.6962 0.0000 0.0000
# 5 0.0000 0.0000 0.0000 0.0000 27.1219 0.0000
# 6 0.0000 0.0000 0.0000 0.0000 0.0000 22.6308
#
#
#
# Elastic Compliance Matrix: (Units=1/GPa)
#
#
# Indices 1 2 3 4 5 6 
#
# 1 0.013303 -0.001642 -0.003677 0.000000 0.000000 0.000000
# 2 -0.001642 0.008667 -0.001309 0.000000 0.000000 0.000000
# 3 -0.003677 -0.001309 0.023119 0.000000 0.000000 0.000000
# 4 0.000000 0.000000 0.000000 0.033674 0.000000 0.000000
# 5 0.000000 0.000000 0.000000 0.000000 0.036871 0.000000
# 6 0.000000 0.000000 0.000000 0.000000 0.000000 0.044188
#
#
# Mechanical properties :
#
#
# Convention : Reuss Voigt Hill
#
# Bulk Modulus (GPa) = 31.41411 36.58145 33.99778
# Shear Modulus (GPa) = 27.22036 29.64772 28.43404
#
# Velocity S-wave (km/s) = 3.45294 3.60361 3.52908
# Velocity P-wave (km/s) = 5.44580 5.77388 5.61224
#
# Compressibility (1/GPa) = 0.03183283
#
# Stress axis : x y z
#
# Youngs Moduli (GPa) = 75.17365 115.38649 43.25503
#
# Poissons Ratio (x) = 0.18941 0.15906
# Poissons Ratio (y) = 0.12340 0.05661
# Poissons Ratio (z) = 0.27643 0.15101
#
# Static dielectric constant tensor:
#      x y z
#    x 4.394840 0.000000 0.000000 
#    y 0.000000 3.955740 0.000000 
#    z 0.000000 0.000000 3.835100 
# 
# 
# High freq. dielectric constant tensor:
#      x y z
#    x 1.917010 0.000000 0.000000 
#    y 0.000000 1.900760 0.000000 
#    z 0.000000 0.000000 1.878140 
# 
# From -- ./inp_files/7150.got.cif
#   From: 2010.03.12/outbox.cif.g09.slc.cpg/sg61_4_cif.got.tgz:7150.got - 2010.04.10 19:05:03.
