data_PCOD8249883
_publ_section_title
;
Structure prediction by ZEFSAII (Michael W. Deem and Ramdas Pophale) SiO2 
 PCOD8249883
Probable space group: P B C A
;
_chemical_formula_sum "Si O2"
_cell_formula_units_Z 24
_cell_length_a 9.540489
_cell_length_b 19.216918
_cell_length_c 4.686966
_cell_angle_alpha 90.000000
_cell_angle_beta 90.000000
_cell_angle_gamma 90.000000
_cell_volume 859.302698
_symmetry_space_group_name_H-M "P B C A"
_symmetry_group_IT_number 61
_symmetry_cell_setting 'orthorhombic'
loop_
_space_group_symop_operation_xyz
x,y,z
1/2-x,-y,1/2+z
1/2+x,1/2-y,-z
-x,1/2+y,1/2-z
-x,-y,-z
1/2+x,y,1/2-z
1/2-x,1/2+y,z
x,1/2-y,1/2+z
loop_
_atom_site_type_symbol
_atom_site_label
_atom_site_fract_x
_atom_site_fract_y
_atom_site_fract_z
Si Si1 0.037105 0.890393 0.346896
Si Si2 0.846957 0.488438 0.697005
Si Si3 0.726190 0.298774 0.337976
O O1 0.914897 0.837453 0.430555
O O2 0.105744 0.918116 0.641477
O O3 0.143534 0.851460 0.133527
O O4 0.974357 0.955505 0.161745
O O5 0.774180 0.473501 0.391050
O O6 0.734938 0.227240 0.512667
#
# Coordination Sequence:
#
# PCOD8249883 Si02
#       3
#     8   8   8
#     4  11  26  50  76 110 148 194 254 306 380 440
#     4  11  26  47  78 113 150 195 244 325 378 447
#     4  12  28  48  74 106 150 200 250 302 364 450
#
# _framework density 27.929621999999998
#
# number of rings (size 3 to 8) (size 9 to 14) (size 15 to 20)
#    0.000    0.667    3.333    2.000    4.667   10.667 
#    0.000    0.000    0.000    0.000    0.000    0.000 
#    0.000    0.000    0.000    0.000    0.000    0.000 
#
# Total GULP energy -297813.025028 kJ/mol
# GULP energy per Si atom -12408.876043 kJ/mol
# Density = 2.786605 g / cm^3
# Si number density = 27.929622 Si / 1000 Ang^3
#
#
#
# Elastic Constant Matrix: (Units=GPa)
#
#
# Indices 1 2 3 4 5 6 
#
# 1 179.8985 59.4030 19.8621 0.0000 0.0000 0.0000
# 2 59.4030 137.8515 25.6216 0.0000 0.0000 0.0000
# 3 19.8621 25.6216 80.8670 0.0000 0.0000 0.0000
# 4 0.0000 0.0000 0.0000 51.2531 0.0000 0.0000
# 5 0.0000 0.0000 0.0000 0.0000 23.3326 0.0000
# 6 0.0000 0.0000 0.0000 0.0000 0.0000 47.6248
#
#
#
# Elastic Compliance Matrix: (Units=1/GPa)
#
#
# Indices 1 2 3 4 5 6 
#
# 1 0.006524 -0.002671 -0.000756 0.000000 0.000000 0.000000
# 2 -0.002671 0.008801 -0.002133 0.000000 0.000000 0.000000
# 3 -0.000756 -0.002133 0.013227 0.000000 0.000000 0.000000
# 4 0.000000 0.000000 0.000000 0.019511 0.000000 0.000000
# 5 0.000000 0.000000 0.000000 0.000000 0.042858 0.000000
# 6 0.000000 0.000000 0.000000 0.000000 0.000000 0.020997
#
#
# Mechanical properties :
#
#
# Convention : Reuss Voigt Hill
#
# Bulk Modulus (GPa) = 57.36024 67.59892 62.47958
# Shear Modulus (GPa) = 38.80469 44.02413 41.41441
#
# Velocity S-wave (km/s) = 3.73147 3.97451 3.85491
# Velocity P-wave (km/s) = 6.25677 6.73188 6.49867
#
# Compressibility (1/GPa) = 0.01743368
#
# Stress axis : x y z
#
# Youngs Moduli (GPa) = 153.27810 113.61742 75.60054
#
# Poissons Ratio (x) = 0.30345 0.05717
# Poissons Ratio (y) = 0.40938 0.16123
# Poissons Ratio (z) = 0.11591 0.24231
#
# Static dielectric constant tensor:
#      x y z
#    x 5.574880 0.000000 0.000000 
#    y 0.000000 5.002350 0.000000 
#    z 0.000000 0.000000 4.654460 
# 
# 
# High freq. dielectric constant tensor:
#      x y z
#    x 2.162980 0.000000 0.000000 
#    y 0.000000 2.147060 0.000000 
#    z 0.000000 0.000000 2.129420 
# 
# From -- ./inp_files/51.got.cif
#   From: 2010.03.12/outbox.cif.g09.slc.cpg/sg61_1_cif.got.tgz:51.got - 2010.04.10 19:05:03.
