data_PCOD8249500
_publ_section_title
;
Structure prediction by ZEFSAII (Michael W. Deem and Ramdas Pophale) SiO2 
 PCOD8249500
Probable space group: P B C A
;
_chemical_formula_sum "Si O2"
_cell_formula_units_Z 56
_cell_length_a 9.248390
_cell_length_b 20.481328
_cell_length_c 12.760586
_cell_angle_alpha 90.000000
_cell_angle_beta 90.000000
_cell_angle_gamma 90.000000
_cell_volume 2417.101383
_symmetry_space_group_name_H-M "P B C A"
_symmetry_group_IT_number 61
_symmetry_cell_setting 'orthorhombic'
loop_
_space_group_symop_operation_xyz
x,y,z
1/2-x,-y,1/2+z
1/2+x,1/2-y,-z
-x,1/2+y,1/2-z
-x,-y,-z
1/2+x,y,1/2-z
1/2-x,1/2+y,z
x,1/2-y,1/2+z
loop_
_atom_site_type_symbol
_atom_site_label
_atom_site_fract_x
_atom_site_fract_y
_atom_site_fract_z
Si Si1 0.099216 0.922797 0.183067
Si Si2 0.629979 0.159332 0.808361
Si Si3 0.462327 0.600944 0.189662
Si Si4 0.476710 0.268925 0.925980
Si Si5 0.305484 0.699057 0.907243
Si Si6 0.348057 0.939115 0.472209
Si Si7 0.759749 0.534397 0.181078
O O1 0.223600 0.872466 0.146135
O O2 0.985355 0.892828 0.265377
O O3 0.009324 0.944990 0.079808
O O4 0.183758 0.981631 0.236307
O O5 0.557390 0.202386 0.897352
O O6 0.674428 0.209460 0.715936
O O7 0.505093 0.675268 0.162769
O O8 0.600762 0.557050 0.212733
O O9 0.368313 0.596154 0.298723
O O10 0.365689 0.568653 0.096366
O O11 0.310153 0.251589 0.947848
O O12 0.540849 0.293263 0.035337
O O13 0.260263 0.623492 0.926685
O O14 0.251082 0.002498 0.436180
#
# Coordination Sequence:
#
# PCOD8249500 Si02
#       7
#     8   8   8   8   8   8   8
#     4  11  20  38  72  94 117 168 228 272 317 382
#     4  11  21  39  66  95 124 162 224 278 318 384
#     4  11  27  41  64  97 137 176 211 274 340 399
#     4  11  25  42  63  96 138 168 217 269 340 396
#     4  10  23  41  66  96 126 174 221 274 323 395
#     4  10  22  45  69  94 130 169 233 269 332 389
#     4  12  21  42  67  92 131 175 215 269 330 394
#
# _framework density 23.168247000000001
#
# number of rings (size 3 to 8) (size 9 to 14) (size 15 to 20)
#    0.000    1.143    5.714    0.429    8.000    0.000 
#    2.571    0.714    3.143    0.000    0.000    0.000 
#    0.000    0.000    0.000    0.000    0.000    0.000 
#
# Total GULP energy -693961.809486 kJ/mol
# GULP energy per Si atom -12392.175169 kJ/mol
# Density = 2.311552 g / cm^3
# Si number density = 23.168247 Si / 1000 Ang^3
#
#
#
# Elastic Constant Matrix: (Units=GPa)
#
#
# Indices 1 2 3 4 5 6 
#
# 1 102.7655 39.2822 19.8069 0.0000 0.0000 0.0000
# 2 39.2822 64.9092 13.4271 0.0000 0.0000 0.0000
# 3 19.8069 13.4271 30.6758 0.0000 0.0000 0.0000
# 4 0.0000 0.0000 0.0000 25.9961 0.0000 0.0000
# 5 0.0000 0.0000 0.0000 0.0000 32.1853 0.0000
# 6 0.0000 0.0000 0.0000 0.0000 0.0000 46.6844
#
#
#
# Elastic Compliance Matrix: (Units=1/GPa)
#
#
# Indices 1 2 3 4 5 6 
#
# 1 0.013495 -0.006998 -0.005650 0.000000 0.000000 0.000000
# 2 -0.006998 0.020569 -0.004485 0.000000 0.000000 0.000000
# 3 -0.005650 -0.004485 0.038210 0.000000 0.000000 0.000000
# 4 0.000000 0.000000 0.000000 0.038467 0.000000 0.000000
# 5 0.000000 0.000000 0.000000 0.000000 0.031070 0.000000
# 6 0.000000 0.000000 0.000000 0.000000 0.000000 0.021420
#
#
# Mechanical properties :
#
#
# Convention : Reuss Voigt Hill
#
# Bulk Modulus (GPa) = 26.31028 38.15366 32.23197
# Shear Modulus (GPa) = 23.79054 29.36213 26.57633
#
# Velocity S-wave (km/s) = 3.20794 3.56384 3.39056
# Velocity P-wave (km/s) = 5.01019 5.78260 5.41020
#
# Compressibility (1/GPa) = 0.03800796
#
# Stress axis : x y z
#
# Youngs Moduli (GPa) = 74.10152 48.61683 26.17099
#
# Poissons Ratio (x) = 0.34023 0.14788
# Poissons Ratio (y) = 0.51857 0.11737
# Poissons Ratio (z) = 0.41870 0.21803
#
# Static dielectric constant tensor:
#      x y z
#    x 4.357070 0.000000 0.000000 
#    y 0.000000 4.485310 0.000000 
#    z 0.000000 0.000000 4.069640 
# 
# 
# High freq. dielectric constant tensor:
#      x y z
#    x 1.915420 0.000000 0.000000 
#    y 0.000000 1.926850 0.000000 
#    z 0.000000 0.000000 1.888910 
# 
# From -- ./inp_files/7165.got.cif
#   From: 2010.03.12/outbox.cif.g09.slc.cpg/sg61_4_cif.got.tgz:7165.got - 2010.04.10 19:05:03.
