data_PCOD8249225
_publ_section_title
;
Structure prediction by ZEFSAII (Michael W. Deem and Ramdas Pophale) SiO2 
 PCOD8249225
Probable space group: P B C A
;
_chemical_formula_sum "Si O2"
_cell_formula_units_Z 56
_cell_length_a 14.517773
_cell_length_b 18.046486
_cell_length_c 7.451755
_cell_angle_alpha 90.000000
_cell_angle_beta 90.000000
_cell_angle_gamma 90.000000
_cell_volume 1952.320965
_symmetry_space_group_name_H-M "P B C A"
_symmetry_group_IT_number 61
_symmetry_cell_setting 'orthorhombic'
loop_
_space_group_symop_operation_xyz
x,y,z
1/2-x,-y,1/2+z
1/2+x,1/2-y,-z
-x,1/2+y,1/2-z
-x,-y,-z
1/2+x,y,1/2-z
1/2-x,1/2+y,z
x,1/2-y,1/2+z
loop_
_atom_site_type_symbol
_atom_site_label
_atom_site_fract_x
_atom_site_fract_y
_atom_site_fract_z
Si Si1 0.027390 0.913122 0.547588
Si Si2 0.657524 0.474424 0.684585
Si Si3 0.308580 0.264942 0.910199
Si Si4 0.066195 0.150728 0.773852
Si Si5 0.729324 0.625189 0.405901
Si Si6 0.249476 0.603841 0.638225
Si Si7 0.010400 0.202508 0.147191
O O1 0.949688 0.976541 0.609910
O O2 0.012495 0.889548 0.342487
O O3 0.137242 0.928667 0.586248
O O4 0.998003 0.846061 0.675548
O O5 0.678896 0.423049 0.862038
O O6 0.731031 0.442744 0.542972
O O7 0.678744 0.559581 0.732977
O O8 0.276995 0.310267 0.739926
O O9 0.262806 0.180813 0.919078
O O10 0.288385 0.314810 0.087915
O O11 0.417934 0.253420 0.904770
O O12 0.157975 0.103937 0.753703
O O13 0.039476 0.150924 0.982285
O O14 0.084291 0.234171 0.697574
#
# Coordination Sequence:
#
# PCOD8249225 Si02
#       7
#     8   8   8   8   8   8   8
#     4  10  22  41  63  90 128 167 208 267 321 376
#     4  10  24  46  60  90 133 170 218 260 319 391
#     4  10  21  39  62  95 126 157 216 266 324 382
#     4  11  21  37  63  95 125 160 216 256 328 389
#     4  10  21  40  65  93 124 167 209 268 324 380
#     4  10  25  42  61  91 128 171 215 264 315 393
#     4  11  20  37  63  93 127 159 204 272 324 380
#
# _framework density 28.683810999999999
#
# number of rings (size 3 to 8) (size 9 to 14) (size 15 to 20)
#    0.000    1.714    2.857    0.857    4.000    2.286 
#    2.571    3.571    0.000    0.000    0.000    0.000 
#    0.000    0.000    0.000    0.000    0.000    0.000 
#
# Total GULP energy -694222.249877 kJ/mol
# GULP energy per Si atom -12396.825891 kJ/mol
# Density = 2.861852 g / cm^3
# Si number density = 28.683811 Si / 1000 Ang^3
#
#
#
# Elastic Constant Matrix: (Units=GPa)
#
#
# Indices 1 2 3 4 5 6 
#
# 1 106.0603 41.1518 32.9783 0.0000 0.0000 0.0000
# 2 41.1518 120.1401 16.9373 0.0000 0.0000 0.0000
# 3 32.9783 16.9373 92.0175 0.0000 0.0000 0.0000
# 4 0.0000 0.0000 0.0000 18.3879 0.0000 0.0000
# 5 0.0000 0.0000 0.0000 0.0000 42.5053 0.0000
# 6 0.0000 0.0000 0.0000 0.0000 0.0000 51.4192
#
#
#
# Elastic Compliance Matrix: (Units=1/GPa)
#
#
# Indices 1 2 3 4 5 6 
#
# 1 0.011944 -0.003581 -0.003622 0.000000 0.000000 0.000000
# 2 -0.003581 0.009619 -0.000487 0.000000 0.000000 0.000000
# 3 -0.003622 -0.000487 0.012255 0.000000 0.000000 0.000000
# 4 0.000000 0.000000 0.000000 0.054384 0.000000 0.000000
# 5 0.000000 0.000000 0.000000 0.000000 0.023526 0.000000
# 6 0.000000 0.000000 0.000000 0.000000 0.000000 0.019448
#
#
# Mechanical properties :
#
#
# Convention : Reuss Voigt Hill
#
# Bulk Modulus (GPa) = 54.23267 55.59475 54.91371
# Shear Modulus (GPa) = 32.74369 37.60584 35.17477
#
# Velocity S-wave (km/s) = 3.38233 3.62477 3.50565
# Velocity P-wave (km/s) = 5.84822 6.07804 5.96424
#
# Compressibility (1/GPa) = 0.01843907
#
# Stress axis : x y z
#
# Youngs Moduli (GPa) = 83.72423 103.96326 81.59856
#
# Poissons Ratio (x) = 0.37225 0.29551
# Poissons Ratio (y) = 0.29979 0.03976
# Poissons Ratio (z) = 0.30321 0.05065
#
# Static dielectric constant tensor:
#      x y z
#    x 5.270970 0.000000 0.000000 
#    y 0.000000 5.691530 0.000000 
#    z 0.000000 0.000000 6.255810 
# 
# 
# High freq. dielectric constant tensor:
#      x y z
#    x 2.149820 0.000000 0.000000 
#    y 0.000000 2.189900 0.000000 
#    z 0.000000 0.000000 2.198230 
# 
# From -- ./inp_files/3663.got.cif
#   From: 2010.03.12/outbox.cif.g09.slc.cpg/sg61_2_cif.got.tgz:3663.got - 2010.04.10 19:05:03.
