data_PCOD8249406
_publ_section_title
;
Structure prediction by ZEFSAII (Michael W. Deem and Ramdas Pophale) SiO2 
 PCOD8249406
Probable space group: P B C A
;
_chemical_formula_sum "Si O2"
_cell_formula_units_Z 64
_cell_length_a 8.333947
_cell_length_b 24.319608
_cell_length_c 13.240385
_cell_angle_alpha 90.000000
_cell_angle_beta 90.000000
_cell_angle_gamma 90.000000
_cell_volume 2683.539043
_symmetry_space_group_name_H-M "P B C A"
_symmetry_group_IT_number 61
_symmetry_cell_setting 'orthorhombic'
loop_
_space_group_symop_operation_xyz
x,y,z
1/2-x,-y,1/2+z
1/2+x,1/2-y,-z
-x,1/2+y,1/2-z
-x,-y,-z
1/2+x,y,1/2-z
1/2-x,1/2+y,z
x,1/2-y,1/2+z
loop_
_atom_site_type_symbol
_atom_site_label
_atom_site_fract_x
_atom_site_fract_y
_atom_site_fract_z
Si Si1 0.307285 0.541529 0.718442
Si Si2 0.473487 0.724812 0.199132
Si Si3 0.812992 0.766974 0.602675
Si Si4 0.472227 0.093261 0.995734
Si Si5 0.309309 0.672602 0.605179
Si Si6 0.167165 0.157413 0.024925
Si Si7 0.891171 0.992948 0.618608
Si Si8 0.521532 0.895125 0.362027
O O1 0.431280 0.506660 0.656739
O O2 0.152649 0.556070 0.648883
O O3 0.383368 0.595672 0.776854
O O4 0.248588 0.496889 0.800547
O O5 0.456145 0.715636 0.320110
O O6 0.657401 0.732052 0.172588
O O7 0.382322 0.781127 0.174644
O O8 0.399890 0.674390 0.134185
O O9 0.798822 0.810568 0.512796
O O10 0.841416 0.707387 0.554868
O O11 0.601919 0.069486 0.076378
O O12 0.574515 0.118147 0.900275
O O13 0.352217 0.139286 0.039936
O O14 0.361880 0.041366 0.963286
O O15 0.132748 0.659767 0.650806
O O16 0.061055 0.108909 0.972907
#
# Coordination Sequence:
#
# PCOD8249406 Si02
#       8
#     8   8   8   8   8   8   8   8
#     4  10  22  40  64 102 126 166 218 278 316 382
#     4  11  26  41  63  94 132 169 216 272 323 386
#     4  11  26  41  63  94 132 169 216 272 323 386
#     4  11  22  43  65  90 126 177 206 262 325 386
#     4  11  24  43  64  93 130 173 218 263 326 392
#     4  11  24  43  64  93 130 173 218 263 326 392
#     4  10  22  41  65  92 129 160 216 267 320 375
#     4  11  22  38  67  96 131 165 222 271 319 387
#
# _framework density 23.849105000000002
#
# number of rings (size 3 to 8) (size 9 to 14) (size 15 to 20)
#    0.000    1.250    5.000    0.000    5.250    0.000 
#    2.250    3.750    0.000    0.000    0.000    0.000 
#    0.000    0.000    0.000    0.000    0.000    0.000 
#
# Total GULP energy -793130.582996 kJ/mol
# GULP energy per Si atom -12392.665359 kJ/mol
# Density = 2.379482 g / cm^3
# Si number density = 23.849105 Si / 1000 Ang^3
#
#
#
# Elastic Constant Matrix: (Units=GPa)
#
#
# Indices 1 2 3 4 5 6 
#
# 1 62.0354 8.0058 -3.6584 0.0000 0.0000 0.0000
# 2 8.0058 55.3395 19.7333 0.0000 0.0000 0.0000
# 3 -3.6584 19.7333 86.2508 0.0000 0.0000 0.0000
# 4 0.0000 0.0000 0.0000 21.4820 0.0000 0.0000
# 5 0.0000 0.0000 0.0000 0.0000 36.9650 0.0000
# 6 0.0000 0.0000 0.0000 0.0000 0.0000 23.8468
#
#
#
# Elastic Compliance Matrix: (Units=1/GPa)
#
#
# Indices 1 2 3 4 5 6 
#
# 1 0.016572 -0.002883 0.001363 0.000000 0.000000 0.000000
# 2 -0.002883 0.020177 -0.004739 0.000000 0.000000 0.000000
# 3 0.001363 -0.004739 0.012736 0.000000 0.000000 0.000000
# 4 0.000000 0.000000 0.000000 0.046551 0.000000 0.000000
# 5 0.000000 0.000000 0.000000 0.000000 0.027053 0.000000
# 6 0.000000 0.000000 0.000000 0.000000 0.000000 0.041934
#
#
# Mechanical properties :
#
#
# Convention : Reuss Voigt Hill
#
# Bulk Modulus (GPa) = 27.05134 27.97634 27.51384
# Shear Modulus (GPa) = 26.33468 28.42845 27.38156
#
# Velocity S-wave (km/s) = 3.32659 3.45630 3.39206
# Velocity P-wave (km/s) = 5.11099 5.26156 5.18682
#
# Compressibility (1/GPa) = 0.03696674
#
# Stress axis : x y z
#
# Youngs Moduli (GPa) = 60.34169 49.56113 78.51738
#
# Poissons Ratio (x) = 0.14290 -0.10699
# Poissons Ratio (y) = 0.17399 0.37206
# Poissons Ratio (z) = -0.08222 0.23485
#
# Static dielectric constant tensor:
#      x y z
#    x 4.383310 0.000000 0.000000 
#    y 0.000000 4.204730 0.000000 
#    z 0.000000 0.000000 4.346480 
# 
# 
# High freq. dielectric constant tensor:
#      x y z
#    x 1.953710 0.000000 0.000000 
#    y 0.000000 1.923010 0.000000 
#    z 0.000000 0.000000 1.942160 
# 
# From -- ./inp_files/7227.got.cif
#   From: 2010.03.12/outbox.cif.g09.slc.cpg/sg61_4_cif.got.tgz:7227.got - 2010.04.10 19:05:03.
