data_PCOD8249897
_publ_section_title
;
Structure prediction by ZEFSAII (Michael W. Deem and Ramdas Pophale) SiO2 
 PCOD8249897
Probable space group: P B C A
;
_chemical_formula_sum "Si O2"
_cell_formula_units_Z 16
_cell_length_a 14.212000
_cell_length_b 4.988481
_cell_length_c 10.017995
_cell_angle_alpha 90.000000
_cell_angle_beta 90.000000
_cell_angle_gamma 90.000000
_cell_volume 710.238698
_symmetry_space_group_name_H-M "P B C A"
_symmetry_group_IT_number 61
_symmetry_cell_setting 'orthorhombic'
loop_
_space_group_symop_operation_xyz
x,y,z
1/2-x,-y,1/2+z
1/2+x,1/2-y,-z
-x,1/2+y,1/2-z
-x,-y,-z
1/2+x,y,1/2-z
1/2-x,1/2+y,z
x,1/2-y,1/2+z
loop_
_atom_site_type_symbol
_atom_site_label
_atom_site_fract_x
_atom_site_fract_y
_atom_site_fract_z
Si Si1 0.312583 0.219899 0.514952
Si Si2 0.937464 0.246811 0.235377
O O1 0.275526 0.521630 0.499476
O O2 0.358256 0.168619 0.658881
O O3 0.390078 0.160911 0.403013
O O4 0.005769 0.495188 0.206895
#
# Coordination Sequence:
#
# PCOD8249897 Si02
#       2
#     8   8
#     4  12  24  42  64  92 124 162 204 252 304 362
#     4  12  24  42  64  92 124 162 204 252 304 362
#
# _framework density 22.527636000000001
#
# number of rings (size 3 to 8) (size 9 to 14) (size 15 to 20)
#    0.000    0.000    0.000   12.000    0.000    0.000 
#    0.000    0.000    0.000    0.000    0.000    0.000 
#    0.000    0.000    0.000    0.000    0.000    0.000 
#
# Total GULP energy -198635.272579 kJ/mol
# GULP energy per Si atom -12414.704536 kJ/mol
# Density = 2.247636 g / cm^3
# Si number density = 22.527636 Si / 1000 Ang^3
#
#
#
# Elastic Constant Matrix: (Units=GPa)
#
#
# Indices 1 2 3 4 5 6 
#
# 1 84.2417 30.5917 18.2792 0.0000 0.0000 0.0000
# 2 30.5917 88.3101 16.6486 0.0000 0.0000 0.0000
# 3 18.2792 16.6486 82.7794 0.0000 0.0000 0.0000
# 4 0.0000 0.0000 0.0000 29.7747 0.0000 0.0000
# 5 0.0000 0.0000 0.0000 0.0000 26.3829 0.0000
# 6 0.0000 0.0000 0.0000 0.0000 0.0000 42.2017
#
#
#
# Elastic Compliance Matrix: (Units=1/GPa)
#
#
# Indices 1 2 3 4 5 6 
#
# 1 0.013951 -0.004420 -0.002192 0.000000 0.000000 0.000000
# 2 -0.004420 0.013170 -0.001673 0.000000 0.000000 0.000000
# 3 -0.002192 -0.001673 0.012901 0.000000 0.000000 0.000000
# 4 0.000000 0.000000 0.000000 0.033586 0.000000 0.000000
# 5 0.000000 0.000000 0.000000 0.000000 0.037903 0.000000
# 6 0.000000 0.000000 0.000000 0.000000 0.000000 0.023696
#
#
# Mechanical properties :
#
#
# Convention : Reuss Voigt Hill
#
# Bulk Modulus (GPa) = 42.63763 42.93002 42.78383
# Shear Modulus (GPa) = 31.32971 32.32598 31.82784
#
# Velocity S-wave (km/s) = 3.73329 3.79218 3.76285
# Velocity P-wave (km/s) = 6.12790 6.18645 6.15724
#
# Compressibility (1/GPa) = 0.02345346
#
# Stress axis : x y z
#
# Youngs Moduli (GPa) = 71.67866 75.92941 77.51499
#
# Poissons Ratio (x) = 0.33558 0.16990
# Poissons Ratio (y) = 0.31679 0.12967
# Poissons Ratio (z) = 0.15711 0.12702
#
# Static dielectric constant tensor:
#      x y z
#    x 4.032630 0.000000 0.000000 
#    y 0.000000 4.053320 0.000000 
#    z 0.000000 0.000000 3.940140 
# 
# 
# High freq. dielectric constant tensor:
#      x y z
#    x 1.900550 0.000000 0.000000 
#    y 0.000000 1.898300 0.000000 
#    z 0.000000 0.000000 1.898390 
# 
# From -- ./inp_files/1.got.cif
#   From: 2010.03.12/outbox.cif.g09.slc.cpg/sg61_1_cif.got.tgz:1.got - 2010.04.10 19:05:03.
