data_PCOD8249913
_publ_section_title
;
Structure prediction by ZEFSAII (Michael W. Deem and Ramdas Pophale) SiO2 
 PCOD8249913
Probable space group: P B C A
;
_chemical_formula_sum "Si O2"
_cell_formula_units_Z 48
_cell_length_a 9.267840
_cell_length_b 8.544649
_cell_length_c 26.611099
_cell_angle_alpha 90.000000
_cell_angle_beta 90.000000
_cell_angle_gamma 90.000000
_cell_volume 2107.344633
_symmetry_space_group_name_H-M "P B C A"
_symmetry_group_IT_number 61
_symmetry_cell_setting 'orthorhombic'
loop_
_space_group_symop_operation_xyz
x,y,z
1/2-x,-y,1/2+z
1/2+x,1/2-y,-z
-x,1/2+y,1/2-z
-x,-y,-z
1/2+x,y,1/2-z
1/2-x,1/2+y,z
x,1/2-y,1/2+z
loop_
_atom_site_type_symbol
_atom_site_label
_atom_site_fract_x
_atom_site_fract_y
_atom_site_fract_z
Si Si1 0.635771 0.633216 0.618764
Si Si2 0.069583 0.506474 0.362445
Si Si3 0.936825 0.504938 0.803788
Si Si4 0.642147 0.907581 0.001930
Si Si5 0.098580 0.924081 0.040400
Si Si6 0.879095 0.136939 0.781684
O O1 0.497119 0.531284 0.638772
O O2 0.681959 0.607560 0.560539
O O3 0.781912 0.585654 0.647213
O O4 0.601056 0.813573 0.627123
O O5 0.969307 0.434450 0.405190
O O6 0.976709 0.483501 0.312840
O O7 0.912794 0.320244 0.793130
O O8 0.789538 0.600290 0.792167
O O9 0.070085 0.588618 0.774124
O O10 0.617229 0.751870 0.972935
O O11 0.500000 0.000000 0.000000
O O12 0.749500 0.993680 0.964577
O O13 0.000000 0.000000 0.000000
#
# Coordination Sequence:
#
# PCOD8249913 Si02
#       6
#     8   8   8   8   8   8
#     4  12  25  46  70 104 140 190 238 292 357 421
#     4  12  27  45  74 103 146 190 243 296 359 427
#     4  12  27  49  77 108 146 185 239 291 364 425
#     4  12  27  43  71  99 145 189 239 298 351 424
#     4  12  25  46  68 103 141 191 242 290 356 418
#     4  12  27  49  76 108 144 186 234 298 353 431
#
# _framework density 22.777480000000001
#
# number of rings (size 3 to 8) (size 9 to 14) (size 15 to 20)
#    0.000    0.000    3.333    6.000    7.000    0.000 
#    0.000    0.000    0.000    0.000    0.000    0.000 
#    0.000    0.000    0.000    0.000    0.000    0.000 
#
# Total GULP energy -594924.053314 kJ/mol
# GULP energy per Si atom -12394.251111 kJ/mol
# Density = 2.272564 g / cm^3
# Si number density = 22.777480 Si / 1000 Ang^3
#
#
#
# Elastic Constant Matrix: (Units=GPa)
#
#
# Indices 1 2 3 4 5 6 
#
# 1 162.4746 45.9211 23.6292 0.0000 0.0000 0.0000
# 2 45.9211 136.6020 20.3815 0.0000 0.0000 0.0000
# 3 23.6292 20.3815 61.3006 0.0000 0.0000 0.0000
# 4 0.0000 0.0000 0.0000 35.2119 0.0000 0.0000
# 5 0.0000 0.0000 0.0000 0.0000 52.3252 0.0000
# 6 0.0000 0.0000 0.0000 0.0000 0.0000 51.1376
#
#
#
# Elastic Compliance Matrix: (Units=1/GPa)
#
#
# Indices 1 2 3 4 5 6 
#
# 1 0.007032 -0.002062 -0.002025 0.000000 0.000000 0.000000
# 2 -0.002062 0.008307 -0.001967 0.000000 0.000000 0.000000
# 3 -0.002025 -0.001967 0.017748 0.000000 0.000000 0.000000
# 4 0.000000 0.000000 0.000000 0.028399 0.000000 0.000000
# 5 0.000000 0.000000 0.000000 0.000000 0.019111 0.000000
# 6 0.000000 0.000000 0.000000 0.000000 0.000000 0.019555
#
#
# Mechanical properties :
#
#
# Convention : Reuss Voigt Hill
#
# Bulk Modulus (GPa) = 47.66747 60.02677 53.84712
# Shear Modulus (GPa) = 41.92733 45.76463 43.84598
#
# Velocity S-wave (km/s) = 4.29503 4.48728 4.39221
# Velocity P-wave (km/s) = 6.75050 7.29783 7.02950
#
# Compressibility (1/GPa) = 0.02097867
#
# Stress axis : x y z
#
# Youngs Moduli (GPa) = 142.20578 120.37803 56.34521
#
# Poissons Ratio (x) = 0.24819 0.11410
# Poissons Ratio (y) = 0.29320 0.11085
# Poissons Ratio (z) = 0.28798 0.23681
#
# Static dielectric constant tensor:
#      x y z
#    x 4.274560 0.000000 0.000000 
#    y 0.000000 4.223270 0.000000 
#    z 0.000000 0.000000 4.355510 
# 
# 
# High freq. dielectric constant tensor:
#      x y z
#    x 1.919460 0.000000 0.000000 
#    y 0.000000 1.915790 0.000000 
#    z 0.000000 0.000000 1.910180 
# 
# From -- ./inp_files/11671.got.cif
#   From: 2010.03.12/outbox.cif.g09.slc.cpg/sg61_6_cif.got.tgz:11671.got - 2010.04.10 19:05:03.
