data_PCOD8249966
_publ_section_title
;
Structure prediction by ZEFSAII (Michael W. Deem and Ramdas Pophale) SiO2 
 PCOD8249966
Probable space group: P N M A
;
_chemical_formula_sum "Si O2"
_cell_formula_units_Z 48
_cell_length_a 17.470616
_cell_length_b 27.165971
_cell_length_c 5.191058
_cell_angle_alpha 90.000000
_cell_angle_beta 90.000000
_cell_angle_gamma 90.000000
_cell_volume 2463.708558
_symmetry_space_group_name_H-M "P N M A"
_symmetry_group_IT_number 62
_symmetry_cell_setting 'orthorhombic'
loop_
_space_group_symop_operation_xyz
x,y,z
1/2-x,-y,1/2+z
1/2+x,1/2-y,1/2-z
-x,1/2+y,-z
-x,-y,-z
1/2+x,y,1/2-z
1/2-x,1/2+y,1/2+z
x,1/2-y,z
loop_
_atom_site_type_symbol
_atom_site_label
_atom_site_fract_x
_atom_site_fract_y
_atom_site_fract_z
Si Si1 0.602702 0.563026 0.671956
Si Si2 0.851115 0.693176 0.825420
Si Si3 0.791744 0.982178 0.133554
Si Si4 0.074182 0.613034 0.335341
Si Si5 0.552263 0.193111 0.829243
Si Si6 0.269401 0.114104 0.056082
O O1 0.621316 0.504574 0.638529
O O2 0.557476 0.583943 0.427527
O O3 0.553411 0.575704 0.928237
O O4 0.687190 0.588557 0.701871
O O5 0.826730 0.750000 0.825243
O O6 0.890965 0.678059 0.558866
O O7 0.908093 0.681488 0.058836
O O8 0.773416 0.662688 0.851635
O O9 0.791842 0.923988 0.069522
O O10 0.755499 0.989263 0.414097
O O11 0.163963 0.628432 0.350183
O O12 0.024979 0.662218 0.351151
O O13 0.528399 0.250000 0.852953
#
# Coordination Sequence:
#
# PCOD8249966 Si02
#       6
#     8   8   8   8   8   8
#     4   9  18  31  52  83 105 132 172 221 261 300
#     4  10  22  38  55  76 107 141 176 216 266 318
#     4  10  16  30  50  81 108 136 168 210 262 322
#     4  10  19  33  55  79 104 135 177 221 256 303
#     4  10  22  39  55  73 105 149 178 207 268 331
#     4   9  21  31  59  82 105 135 178 222 260 296
#
# _framework density 19.482821999999999
#
# number of rings (size 3 to 8) (size 9 to 14) (size 15 to 20)
#    1.000    1.333    1.667    1.000    2.333    0.667 
#    0.000    0.833    0.000    6.000    0.000    0.000 
#    0.000    0.000    0.000    0.000    0.000    0.000 
#
# Total GULP energy -594797.669679 kJ/mol
# GULP energy per Si atom -12391.618118 kJ/mol
# Density = 1.943848 g / cm^3
# Si number density = 19.482822 Si / 1000 Ang^3
#
#
#
# Elastic Constant Matrix: (Units=GPa)
#
#
# Indices 1 2 3 4 5 6 
#
# 1 25.9785 20.1371 -3.8752 0.0000 0.0000 0.0000
# 2 20.1371 54.0104 -1.8350 0.0000 0.0000 0.0000
# 3 -3.8752 -1.8350 86.5735 0.0000 0.0000 0.0000
# 4 0.0000 0.0000 0.0000 18.8187 0.0000 0.0000
# 5 0.0000 0.0000 0.0000 0.0000 14.8753 0.0000
# 6 0.0000 0.0000 0.0000 0.0000 0.0000 14.7314
#
#
#
# Elastic Compliance Matrix: (Units=1/GPa)
#
#
# Indices 1 2 3 4 5 6 
#
# 1 0.054487 -0.020247 0.002010 0.000000 0.000000 0.000000
# 2 -0.020247 0.026052 -0.000354 0.000000 0.000000 0.000000
# 3 0.002010 -0.000354 0.011633 0.000000 0.000000 0.000000
# 4 0.000000 0.000000 0.000000 0.053138 0.000000 0.000000
# 5 0.000000 0.000000 0.000000 0.000000 0.067225 0.000000
# 6 0.000000 0.000000 0.000000 0.000000 0.000000 0.067882
#
#
# Mechanical properties :
#
#
# Convention : Reuss Voigt Hill
#
# Bulk Modulus (GPa) = 18.18498 21.71291 19.94894
# Shear Modulus (GPa) = 14.88404 19.82746 17.35575
#
# Velocity S-wave (km/s) = 2.76698 3.19359 2.98790
# Velocity P-wave (km/s) = 4.42293 4.97669 4.70796
#
# Compressibility (1/GPa) = 0.05499045
#
# Stress axis : x y z
#
# Youngs Moduli (GPa) = 18.35294 38.38537 85.95985
#
# Poissons Ratio (x) = 0.77717 -0.17277
# Poissons Ratio (y) = 0.37158 0.03044
# Poissons Ratio (z) = -0.03689 0.01359
#
# Static dielectric constant tensor:
#      x y z
#    x 3.051600 0.000000 0.000000 
#    y 0.000000 3.511980 0.000000 
#    z 0.000000 0.000000 3.667500 
# 
# 
# High freq. dielectric constant tensor:
#      x y z
#    x 1.718820 0.000000 0.000000 
#    y 0.000000 1.750230 0.000000 
#    z 0.000000 0.000000 1.775450 
# 
# From -- ./inp_files/1766.got.cif
#   From: 2010.03.12/outbox.cif.g09.slc.cpg/sg62_1_cif.got.tgz:1766.got - 2010.04.10 19:12:36.
