data_PCOD8249215
_publ_section_title
;
Structure prediction by ZEFSAII (Michael W. Deem and Ramdas Pophale) SiO2 
 PCOD8249215
Probable space group: P B C A
;
_chemical_formula_sum "Si O2"
_cell_formula_units_Z 64
_cell_length_a 15.502682
_cell_length_b 34.682104
_cell_length_c 5.216688
_cell_angle_alpha 90.000000
_cell_angle_beta 90.000000
_cell_angle_gamma 90.000000
_cell_volume 2804.833837
_symmetry_space_group_name_H-M "P B C A"
_symmetry_group_IT_number 61
_symmetry_cell_setting 'orthorhombic'
loop_
_space_group_symop_operation_xyz
x,y,z
1/2-x,-y,1/2+z
1/2+x,1/2-y,-z
-x,1/2+y,1/2-z
-x,-y,-z
1/2+x,y,1/2-z
1/2-x,1/2+y,z
x,1/2-y,1/2+z
loop_
_atom_site_type_symbol
_atom_site_label
_atom_site_fract_x
_atom_site_fract_y
_atom_site_fract_z
Si Si1 0.294586 0.583176 0.029513
Si Si2 0.746717 0.773692 0.624546
Si Si3 0.487590 0.148679 0.182397
Si Si4 0.800907 0.998363 0.928442
Si Si5 0.694440 0.638931 0.165243
Si Si6 0.949656 0.729102 0.136430
Si Si7 0.369029 0.424945 0.219220
Si Si8 0.043782 0.389645 0.295859
O O1 0.335887 0.544365 0.160561
O O2 0.196202 0.571399 0.957215
O O3 0.358839 0.593839 0.795985
O O4 0.281599 0.620215 0.214936
O O5 0.715369 0.747317 0.385859
O O6 0.709628 0.816773 0.585529
O O7 0.848472 0.778827 0.646264
O O8 0.386774 0.138472 0.137004
O O9 0.496757 0.193346 0.244565
O O10 0.526221 0.124325 0.416380
O O11 0.541954 0.142904 0.921347
O O12 0.773293 0.991597 0.223310
O O13 0.867592 0.034109 0.932922
O O14 0.665468 0.612935 0.926864
O O15 0.975963 0.761549 0.344628
O O16 0.469756 0.420071 0.292233
#
# Coordination Sequence:
#
# PCOD8249215 Si02
#       8
#     8   8   8   8   8   8   8   8
#     4  11  23  40  69  95 128 182 216 264 339 381
#     4  10  24  39  60  93 123 160 214 266 315 385
#     4  11  24  42  60  94 128 163 218 274 318 390
#     4  10  21  39  66  94 133 171 218 267 322 388
#     4  11  23  41  67  90 131 173 216 268 330 391
#     4  10  21  39  60  84 122 162 203 264 327 380
#     4  10  23  43  64  97 137 168 221 272 322 385
#     4  11  25  39  64  96 130 168 223 268 318 390
#
# _framework density 22.817748999999999
#
# number of rings (size 3 to 8) (size 9 to 14) (size 15 to 20)
#    0.000    1.500    2.500    1.500    5.250    2.500 
#    0.000    0.000    0.000    6.000    0.000    0.000 
#    0.000    0.000    0.000    0.000    0.000    0.000 
#
# Total GULP energy -792892.619529 kJ/mol
# GULP energy per Si atom -12388.947180 kJ/mol
# Density = 2.276581 g / cm^3
# Si number density = 22.817749 Si / 1000 Ang^3
#
#
#
# Elastic Constant Matrix: (Units=GPa)
#
#
# Indices 1 2 3 4 5 6 
#
# 1 50.7941 7.1027 11.8056 0.0000 0.0000 0.0000
# 2 7.1027 143.8387 21.7263 0.0000 0.0000 0.0000
# 3 11.8056 21.7263 92.7594 0.0000 0.0000 0.0000
# 4 0.0000 0.0000 0.0000 24.9423 0.0000 0.0000
# 5 0.0000 0.0000 0.0000 0.0000 22.6202 0.0000
# 6 0.0000 0.0000 0.0000 0.0000 0.0000 20.0171
#
#
#
# Elastic Compliance Matrix: (Units=1/GPa)
#
#
# Indices 1 2 3 4 5 6 
#
# 1 0.020343 -0.000636 -0.002440 0.000000 0.000000 0.000000
# 2 -0.000636 0.007227 -0.001612 0.000000 0.000000 0.000000
# 3 -0.002440 -0.001612 0.011469 0.000000 0.000000 0.000000
# 4 0.000000 0.000000 0.000000 0.040093 0.000000 0.000000
# 5 0.000000 0.000000 0.000000 0.000000 0.044208 0.000000
# 6 0.000000 0.000000 0.000000 0.000000 0.000000 0.049957
#
#
# Mechanical properties :
#
#
# Convention : Reuss Voigt Hill
#
# Bulk Modulus (GPa) = 33.71172 40.96237 37.33705
# Shear Modulus (GPa) = 25.96581 29.96642 27.96612
#
# Velocity S-wave (km/s) = 3.37703 3.62787 3.50470
# Velocity P-wave (km/s) = 5.47834 5.96151 5.72502
#
# Compressibility (1/GPa) = 0.02966327
#
# Stress axis : x y z
#
# Youngs Moduli (GPa) = 49.15594 138.36819 87.19411
#
# Poissons Ratio (x) = 0.08800 0.21277
# Poissons Ratio (y) = 0.03126 0.14054
# Poissons Ratio (z) = 0.11995 0.22302
#
# Static dielectric constant tensor:
#      x y z
#    x 4.092350 0.000000 0.000000 
#    y 0.000000 4.442190 0.000000 
#    z 0.000000 0.000000 3.886450 
# 
# 
# High freq. dielectric constant tensor:
#      x y z
#    x 1.882100 0.000000 0.000000 
#    y 0.000000 1.915210 0.000000 
#    z 0.000000 0.000000 1.892090 
# 
# From -- ./inp_files/862.got.cif
#   From: 2010.03.12/outbox.cif.g09.slc.cpg/sg61_1_cif.got.tgz:862.got - 2010.04.10 19:05:03.
