data_PCOD8249138
_publ_section_title
;
Structure prediction by ZEFSAII (Michael W. Deem and Ramdas Pophale) SiO2 
 PCOD8249138
Probable space group: P B C A
;
_chemical_formula_sum "Si O2"
_cell_formula_units_Z 48
_cell_length_a 13.983979
_cell_length_b 13.714614
_cell_length_c 12.809247
_cell_angle_alpha 90.000000
_cell_angle_beta 90.000000
_cell_angle_gamma 90.000000
_cell_volume 2456.619824
_symmetry_space_group_name_H-M "P B C A"
_symmetry_group_IT_number 61
_symmetry_cell_setting 'orthorhombic'
loop_
_space_group_symop_operation_xyz
x,y,z
1/2-x,-y,1/2+z
1/2+x,1/2-y,-z
-x,1/2+y,1/2-z
-x,-y,-z
1/2+x,y,1/2-z
1/2-x,1/2+y,z
x,1/2-y,1/2+z
loop_
_atom_site_type_symbol
_atom_site_label
_atom_site_fract_x
_atom_site_fract_y
_atom_site_fract_z
Si Si1 0.668421 0.311319 0.654646
Si Si2 0.819864 0.856743 0.416897
Si Si3 0.059465 0.002431 0.339825
Si Si4 0.828737 0.264609 0.806184
Si Si5 0.878265 0.066992 0.453277
Si Si6 0.974442 0.821738 0.256912
O O1 0.686490 0.316503 0.532717
O O2 0.623573 0.410220 0.705894
O O3 0.770497 0.306545 0.709332
O O4 0.602955 0.214389 0.671849
O O5 0.725529 0.830060 0.350718
O O6 0.918459 0.812131 0.367750
O O7 0.819620 0.973227 0.414299
O O8 0.118924 0.930730 0.419283
O O9 0.009682 0.935751 0.249565
O O10 0.985886 0.062162 0.411336
O O11 0.829810 0.337805 0.904789
O O12 0.932645 0.244919 0.757674
#
# Coordination Sequence:
#
# PCOD8249138 Si02
#       6
#     8   8   8   8   8   8
#     4  10  21  39  56  84 116 147 187 239 281 338
#     4   9  22  39  55  84 118 148 187 238 285 334
#     4   9  18  36  59  77 109 149 185 228 281 337
#     4  11  22  33  60  87 111 146 196 234 278 337
#     4   9  18  36  58  78 108 151 188 225 281 344
#     4  10  21  35  59  83 106 151 190 229 276 338
#
# _framework density 19.539042999999999
#
# number of rings (size 3 to 8) (size 9 to 14) (size 15 to 20)
#    0.000    2.333    1.667    1.000    4.667    0.000 
#    0.000    0.000    0.000    2.000    0.000    0.000 
#    0.000    0.000    0.000    0.000    0.000    0.000 
#
# Total GULP energy -594661.156750 kJ/mol
# GULP energy per Si atom -12388.774099 kJ/mol
# Density = 1.949457 g / cm^3
# Si number density = 19.539043 Si / 1000 Ang^3
#
#
#
# Elastic Constant Matrix: (Units=GPa)
#
#
# Indices 1 2 3 4 5 6 
#
# 1 75.7841 6.4026 6.6621 0.0000 0.0000 0.0000
# 2 6.4026 53.4431 7.1431 0.0000 0.0000 0.0000
# 3 6.6621 7.1431 34.3975 0.0000 0.0000 0.0000
# 4 0.0000 0.0000 0.0000 31.5080 0.0000 0.0000
# 5 0.0000 0.0000 0.0000 0.0000 21.6364 0.0000
# 6 0.0000 0.0000 0.0000 0.0000 0.0000 27.6438
#
#
#
# Elastic Compliance Matrix: (Units=1/GPa)
#
#
# Indices 1 2 3 4 5 6 
#
# 1 0.013512 -0.001305 -0.002346 0.000000 0.000000 0.000000
# 2 -0.001305 0.019372 -0.003770 0.000000 0.000000 0.000000
# 3 -0.002346 -0.003770 0.030309 0.000000 0.000000 0.000000
# 4 0.000000 0.000000 0.000000 0.031738 0.000000 0.000000
# 5 0.000000 0.000000 0.000000 0.000000 0.046218 0.000000
# 6 0.000000 0.000000 0.000000 0.000000 0.000000 0.036175
#
#
# Mechanical properties :
#
#
# Convention : Reuss Voigt Hill
#
# Bulk Modulus (GPa) = 20.68230 22.67112 21.67671
# Shear Modulus (GPa) = 24.00583 25.71877 24.86230
#
# Velocity S-wave (km/s) = 3.50895 3.63199 3.57100
# Velocity P-wave (km/s) = 5.19857 5.40524 5.30291
#
# Compressibility (1/GPa) = 0.04835053
#
# Stress axis : x y z
#
# Youngs Moduli (GPa) = 74.00895 51.62162 32.99332
#
# Poissons Ratio (x) = 0.06738 0.07740
# Poissons Ratio (y) = 0.09660 0.12439
# Poissons Ratio (z) = 0.17362 0.19461
#
# Static dielectric constant tensor:
#      x y z
#    x 3.547900 0.000000 0.000000 
#    y 0.000000 3.632210 0.000000 
#    z 0.000000 0.000000 3.448530 
# 
# 
# High freq. dielectric constant tensor:
#      x y z
#    x 1.762480 0.000000 0.000000 
#    y 0.000000 1.754530 0.000000 
#    z 0.000000 0.000000 1.740360 
# 
# From -- ./inp_files/5730.got.cif
#   From: 2010.03.12/outbox.cif.g09.slc.cpg/sg61_3_cif.got.tgz:5730.got - 2010.04.10 19:05:03.
