data_PCOD8249635
_publ_section_title
;
Structure prediction by ZEFSAII (Michael W. Deem and Ramdas Pophale) SiO2 
 PCOD8249635
Probable space group: P B C A
;
_chemical_formula_sum "Si O2"
_cell_formula_units_Z 40
_cell_length_a 11.228905
_cell_length_b 8.812565
_cell_length_c 18.643247
_cell_angle_alpha 90.000000
_cell_angle_beta 90.000000
_cell_angle_gamma 90.000000
_cell_volume 1844.850993
_symmetry_space_group_name_H-M "P B C A"
_symmetry_group_IT_number 61
_symmetry_cell_setting 'orthorhombic'
loop_
_space_group_symop_operation_xyz
x,y,z
1/2-x,-y,1/2+z
1/2+x,1/2-y,-z
-x,1/2+y,1/2-z
-x,-y,-z
1/2+x,y,1/2-z
1/2-x,1/2+y,z
x,1/2-y,1/2+z
loop_
_atom_site_type_symbol
_atom_site_label
_atom_site_fract_x
_atom_site_fract_y
_atom_site_fract_z
Si Si1 0.130287 0.144057 0.358089
Si Si2 0.405387 0.299642 0.547576
Si Si3 0.122768 0.702879 0.884000
Si Si4 0.899009 0.795849 0.804003
Si Si5 0.246461 0.952521 0.118772
O O1 0.253734 0.209397 0.386245
O O2 0.095142 0.211895 0.281381
O O3 0.031668 0.198287 0.413903
O O4 0.139974 0.963731 0.352005
O O5 0.432246 0.304241 0.463390
O O6 0.336804 0.146249 0.567497
O O7 0.327616 0.445641 0.567599
O O8 0.033171 0.796392 0.833519
O O9 0.830561 0.647590 0.831164
O O10 0.833509 0.947879 0.828491
#
# Coordination Sequence:
#
# PCOD8249635 Si02
#       5
#     8   8   8   8   8
#     4  12  28  44  72 100 144 179 236 280 348 409
#     4  11  25  46  71 101 140 183 231 287 342 407
#     4  12  28  46  71 104 140 183 232 283 345 413
#     4  11  26  45  70 101 139 182 232 284 345 407
#     4  10  24  45  73  96 141 183 232 284 345 403
#
# _framework density 21.681968999999999
#
# number of rings (size 3 to 8) (size 9 to 14) (size 15 to 20)
#    0.000    0.800    2.000    3.000   16.800    0.800 
#    0.000    0.000    0.000    0.000    0.000    0.000 
#    0.000    0.000    0.000    0.000    0.000    0.000 
#
# Total GULP energy -496411.347600 kJ/mol
# GULP energy per Si atom -12410.283690 kJ/mol
# Density = 2.163262 g / cm^3
# Si number density = 21.681969 Si / 1000 Ang^3
#
#
#
# Elastic Constant Matrix: (Units=GPa)
#
#
# Indices 1 2 3 4 5 6 
#
# 1 143.7453 41.3140 26.1496 0.0000 0.0000 0.0000
# 2 41.3140 92.0007 21.4632 0.0000 0.0000 0.0000
# 3 26.1496 21.4632 115.2925 0.0000 0.0000 0.0000
# 4 0.0000 0.0000 0.0000 28.9093 0.0000 0.0000
# 5 0.0000 0.0000 0.0000 0.0000 38.8205 0.0000
# 6 0.0000 0.0000 0.0000 0.0000 0.0000 81.8494
#
#
#
# Elastic Compliance Matrix: (Units=1/GPa)
#
#
# Indices 1 2 3 4 5 6 
#
# 1 0.008149 -0.003375 -0.001220 0.000000 0.000000 0.000000
# 2 -0.003375 0.012761 -0.001610 0.000000 0.000000 0.000000
# 3 -0.001220 -0.001610 0.009250 0.000000 0.000000 0.000000
# 4 0.000000 0.000000 0.000000 0.034591 0.000000 0.000000
# 5 0.000000 0.000000 0.000000 0.000000 0.025760 0.000000
# 6 0.000000 0.000000 0.000000 0.000000 0.000000 0.012218
#
#
# Mechanical properties :
#
#
# Convention : Reuss Voigt Hill
#
# Bulk Modulus (GPa) = 56.33889 58.76580 57.55235
# Shear Modulus (GPa) = 41.30415 47.38995 44.34705
#
# Velocity S-wave (km/s) = 4.36937 4.68020 4.52745
# Velocity P-wave (km/s) = 7.17605 7.50787 7.34384
#
# Compressibility (1/GPa) = 0.01774973
#
# Stress axis : x y z
#
# Youngs Moduli (GPa) = 122.72077 78.36669 108.10759
#
# Poissons Ratio (x) = 0.26446 0.13189
# Poissons Ratio (y) = 0.41413 0.17407
# Poissons Ratio (z) = 0.14971 0.12618
#
# Static dielectric constant tensor:
#      x y z
#    x 4.095470 0.000000 0.000000 
#    y 0.000000 4.174000 0.000000 
#    z 0.000000 0.000000 3.906550 
# 
# 
# High freq. dielectric constant tensor:
#      x y z
#    x 1.867620 0.000000 0.000000 
#    y 0.000000 1.865000 0.000000 
#    z 0.000000 0.000000 1.861960 
# 
# From -- ./inp_files/3274.got.cif
#   From: 2010.03.12/outbox.cif.g09.slc.cpg/sg61_2_cif.got.tgz:3274.got - 2010.04.10 19:05:03.
