data_PCOD8249175
_publ_section_title
;
Structure prediction by ZEFSAII (Michael W. Deem and Ramdas Pophale) SiO2 
 PCOD8249175
Probable space group: P B C A
;
_chemical_formula_sum "Si O2"
_cell_formula_units_Z 56
_cell_length_a 4.944914
_cell_length_b 17.215393
_cell_length_c 30.086348
_cell_angle_alpha 90.000000
_cell_angle_beta 90.000000
_cell_angle_gamma 90.000000
_cell_volume 2561.209823
_symmetry_space_group_name_H-M "P B C A"
_symmetry_group_IT_number 61
_symmetry_cell_setting 'orthorhombic'
loop_
_space_group_symop_operation_xyz
x,y,z
1/2-x,-y,1/2+z
1/2+x,1/2-y,-z
-x,1/2+y,1/2-z
-x,-y,-z
1/2+x,y,1/2-z
1/2-x,1/2+y,z
x,1/2-y,1/2+z
loop_
_atom_site_type_symbol
_atom_site_label
_atom_site_fract_x
_atom_site_fract_y
_atom_site_fract_z
Si Si1 0.359149 0.963744 0.376713
Si Si2 0.302691 0.865138 0.902929
Si Si3 0.503692 0.997163 0.720962
Si Si4 0.352377 0.880069 0.088963
Si Si5 0.513362 0.684167 0.222514
Si Si6 0.366183 0.804197 0.997593
Si Si7 0.202960 0.279811 0.631104
O O1 0.433336 0.958286 0.324585
O O2 0.630977 0.947958 0.404930
O O3 0.133455 0.899512 0.386927
O O4 0.236330 0.045451 0.391358
O O5 0.410869 0.853691 0.952826
O O6 0.523901 0.831202 0.868345
O O7 0.020575 0.820343 0.899542
O O8 0.213281 0.020642 0.740357
O O9 0.502696 0.906174 0.709483
O O10 0.224583 0.803459 0.111075
O O11 0.410917 0.865651 0.037146
O O12 0.817953 0.705315 0.236186
O O13 0.416167 0.732454 0.180246
O O14 0.568612 0.731837 0.999591
#
# Coordination Sequence:
#
# PCOD8249175 Si02
#       7
#     8   8   8   8   8   8   8
#     4  12  26  43  64 105 136 175 221 279 344 397
#     4  12  24  42  73  96 133 175 229 274 322 407
#     4  10  21  39  65  93 129 176 222 269 320 400
#     4  12  26  43  68  97 143 175 216 283 344 399
#     4  10  21  37  64  99 127 162 227 285 315 381
#     4  12  23  45  70 101 129 175 233 271 334 407
#     4  12  23  43  68  99 127 182 220 272 337 396
#
# _framework density 21.864664999999999
#
# number of rings (size 3 to 8) (size 9 to 14) (size 15 to 20)
#    0.000    0.571    4.286    4.286    4.000    1.143 
#    0.000    4.286    0.000    0.000    0.000    0.000 
#    0.000    0.000    0.000    0.000    0.000    0.000 
#
# Total GULP energy -694784.888191 kJ/mol
# GULP energy per Si atom -12406.873003 kJ/mol
# Density = 2.181490 g / cm^3
# Si number density = 21.864665 Si / 1000 Ang^3
#
#
#
# Elastic Constant Matrix: (Units=GPa)
#
#
# Indices 1 2 3 4 5 6 
#
# 1 94.3956 14.6597 3.2092 0.0000 0.0000 0.0000
# 2 14.6597 56.4745 30.3343 0.0000 0.0000 0.0000
# 3 3.2092 30.3343 111.3383 0.0000 0.0000 0.0000
# 4 0.0000 0.0000 0.0000 33.7731 0.0000 0.0000
# 5 0.0000 0.0000 0.0000 0.0000 34.6583 0.0000
# 6 0.0000 0.0000 0.0000 0.0000 0.0000 38.6025
#
#
#
# Elastic Compliance Matrix: (Units=1/GPa)
#
#
# Indices 1 2 3 4 5 6 
#
# 1 0.011067 -0.003164 0.000543 0.000000 0.000000 0.000000
# 2 -0.003164 0.021647 -0.005807 0.000000 0.000000 0.000000
# 3 0.000543 -0.005807 0.010548 0.000000 0.000000 0.000000
# 4 0.000000 0.000000 0.000000 0.029609 0.000000 0.000000
# 5 0.000000 0.000000 0.000000 0.000000 0.028853 0.000000
# 6 0.000000 0.000000 0.000000 0.000000 0.000000 0.025905
#
#
# Mechanical properties :
#
#
# Convention : Reuss Voigt Hill
#
# Bulk Modulus (GPa) = 37.86979 39.84610 38.85794
# Shear Modulus (GPa) = 32.61838 35.67379 34.14609
#
# Velocity S-wave (km/s) = 3.86661 4.04366 3.95612
# Velocity P-wave (km/s) = 6.10671 6.32970 6.21920
#
# Compressibility (1/GPa) = 0.02640627
#
# Stress axis : x y z
#
# Youngs Moduli (GPa) = 90.36123 46.19472 94.80454
#
# Poissons Ratio (x) = 0.14618 -0.05150
# Poissons Ratio (y) = 0.28594 0.55050
# Poissons Ratio (z) = -0.04908 0.26824
#
# Static dielectric constant tensor:
#      x y z
#    x 4.075550 0.000000 0.000000 
#    y 0.000000 3.692610 0.000000 
#    z 0.000000 0.000000 4.008600 
# 
# 
# High freq. dielectric constant tensor:
#      x y z
#    x 1.878850 0.000000 0.000000 
#    y 0.000000 1.833670 0.000000 
#    z 0.000000 0.000000 1.870000 
# 
# From -- ./inp_files/11590.got.cif
#   From: 2010.03.12/outbox.cif.g09.slc.cpg/sg61_6_cif.got.tgz:11590.got - 2010.04.10 19:05:03.
