data_PCOD8249150
_publ_section_title
;
Structure prediction by ZEFSAII (Michael W. Deem and Ramdas Pophale) SiO2 
 PCOD8249150
Probable space group: P B C A
;
_chemical_formula_sum "Si O2"
_cell_formula_units_Z 40
_cell_length_a 9.559867
_cell_length_b 14.618728
_cell_length_c 13.653478
_cell_angle_alpha 90.000000
_cell_angle_beta 90.000000
_cell_angle_gamma 90.000000
_cell_volume 1908.115813
_symmetry_space_group_name_H-M "P B C A"
_symmetry_group_IT_number 61
_symmetry_cell_setting 'orthorhombic'
loop_
_space_group_symop_operation_xyz
x,y,z
1/2-x,-y,1/2+z
1/2+x,1/2-y,-z
-x,1/2+y,1/2-z
-x,-y,-z
1/2+x,y,1/2-z
1/2-x,1/2+y,z
x,1/2-y,1/2+z
loop_
_atom_site_type_symbol
_atom_site_label
_atom_site_fract_x
_atom_site_fract_y
_atom_site_fract_z
Si Si1 0.485204 0.371166 0.830645
Si Si2 0.686088 0.430514 0.354928
Si Si3 0.627587 0.691170 0.968237
Si Si4 0.483843 0.076657 0.692081
Si Si5 0.689289 0.635893 0.356374
O O1 0.452395 0.479309 0.842142
O O2 0.649917 0.351369 0.824808
O O3 0.409162 0.334000 0.733761
O O4 0.415740 0.317776 0.920312
O O5 0.726439 0.364474 0.445951
O O6 0.560577 0.387970 0.290391
O O7 0.652735 0.533154 0.392461
O O8 0.820054 0.436714 0.281537
O O9 0.504611 0.648454 0.898378
O O10 0.652173 0.797694 0.946291
#
# Coordination Sequence:
#
# PCOD8249150 Si02
#       5
#     8   8   8   8   8
#     4  10  21  41  59  86 120 155 196 247 292 350
#     4   8  18  35  57  86 116 154 190 237 289 342
#     4  10  21  36  64  86 114 161 197 231 302 357
#     4   8  17  34  60  82 115 154 190 236 292 344
#     4  10  22  36  61  87 119 149 198 249 288 342
#
# _framework density 20.963087999999999
#
# number of rings (size 3 to 8) (size 9 to 14) (size 15 to 20)
#    1.200    1.600    0.000    0.600    2.800    1.600 
#    0.000    0.000    4.400    6.000    0.000    0.000 
#    0.000    0.000    0.000    0.000    0.000    0.000 
#
# Total GULP energy -495673.188338 kJ/mol
# GULP energy per Si atom -12391.829708 kJ/mol
# Density = 2.091538 g / cm^3
# Si number density = 20.963088 Si / 1000 Ang^3
#
#
#
# Elastic Constant Matrix: (Units=GPa)
#
#
# Indices 1 2 3 4 5 6 
#
# 1 41.0363 -9.8796 -3.8521 0.0000 0.0000 0.0000
# 2 -9.8796 47.8786 4.4372 0.0000 0.0000 0.0000
# 3 -3.8521 4.4372 23.3367 0.0000 0.0000 0.0000
# 4 0.0000 0.0000 0.0000 25.0131 0.0000 0.0000
# 5 0.0000 0.0000 0.0000 0.0000 27.3200 0.0000
# 6 0.0000 0.0000 0.0000 0.0000 0.0000 21.7736
#
#
#
# Elastic Compliance Matrix: (Units=1/GPa)
#
#
# Indices 1 2 3 4 5 6 
#
# 1 0.025892 0.005035 0.003316 0.000000 0.000000 0.000000
# 2 0.005035 0.022240 -0.003398 0.000000 0.000000 0.000000
# 3 0.003316 -0.003398 0.044044 0.000000 0.000000 0.000000
# 4 0.000000 0.000000 0.000000 0.039979 0.000000 0.000000
# 5 0.000000 0.000000 0.000000 0.000000 0.036603 0.000000
# 6 0.000000 0.000000 0.000000 0.000000 0.000000 0.045927
#
#
# Mechanical properties :
#
#
# Convention : Reuss Voigt Hill
#
# Bulk Modulus (GPa) = 9.79573 10.40698 10.10136
# Shear Modulus (GPa) = 20.93750 22.92440 21.93095
#
# Velocity S-wave (km/s) = 3.16378 3.31049 3.23796
# Velocity P-wave (km/s) = 4.24605 4.42580 4.33686
#
# Compressibility (1/GPa) = 0.10208528
#
# Stress axis : x y z
#
# Youngs Moduli (GPa) = 38.62159 44.96388 22.70441
#
# Poissons Ratio (x) = -0.22641 -0.07530
# Poissons Ratio (y) = -0.19448 0.07714
# Poissons Ratio (z) = -0.12809 0.15277
#
# Static dielectric constant tensor:
#      x y z
#    x 3.726290 0.000000 0.000000 
#    y 0.000000 3.742340 0.000000 
#    z 0.000000 0.000000 3.279750 
# 
# 
# High freq. dielectric constant tensor:
#      x y z
#    x 1.809750 0.000000 0.000000 
#    y 0.000000 1.826190 0.000000 
#    z 0.000000 0.000000 1.783170 
# 
# From -- ./inp_files/3355.got.cif
#   From: 2010.03.12/outbox.cif.g09.slc.cpg/sg61_2_cif.got.tgz:3355.got - 2010.04.10 19:05:03.
