data_PCOD8249694
_publ_section_title
;
Structure prediction by ZEFSAII (Michael W. Deem and Ramdas Pophale) SiO2 
 PCOD8249694
Probable space group: P B C A
;
_chemical_formula_sum "Si O2"
_cell_formula_units_Z 40
_cell_length_a 13.290810
_cell_length_b 18.157501
_cell_length_c 8.959980
_cell_angle_alpha 90.000000
_cell_angle_beta 90.000000
_cell_angle_gamma 90.000000
_cell_volume 2162.293120
_symmetry_space_group_name_H-M "P B C A"
_symmetry_group_IT_number 61
_symmetry_cell_setting 'orthorhombic'
loop_
_space_group_symop_operation_xyz
x,y,z
1/2-x,-y,1/2+z
1/2+x,1/2-y,-z
-x,1/2+y,1/2-z
-x,-y,-z
1/2+x,y,1/2-z
1/2-x,1/2+y,z
x,1/2-y,1/2+z
loop_
_atom_site_type_symbol
_atom_site_label
_atom_site_fract_x
_atom_site_fract_y
_atom_site_fract_z
Si Si1 0.999260 0.089447 0.346898
Si Si2 0.417329 0.677290 0.593565
Si Si3 0.689231 0.820587 0.317286
Si Si4 0.921091 0.203028 0.123589
Si Si5 0.572020 0.934325 0.157740
O O1 0.080022 0.145592 0.423093
O O2 0.940473 0.128065 0.213343
O O3 0.918547 0.064938 0.475771
O O4 0.055583 0.017141 0.282752
O O5 0.306182 0.688221 0.651778
O O6 0.473757 0.755530 0.595538
O O7 0.477106 0.619037 0.699852
O O8 0.626148 0.819624 0.467801
O O9 0.657721 0.753656 0.211285
O O10 0.670626 0.898830 0.233784
#
# Coordination Sequence:
#
# PCOD8249694 Si02
#       5
#     8   8   8   8   8
#     4   9  18  41  57  74 118 152 174 235 293 313
#     4   9  20  36  58  79 112 150 180 232 282 328
#     4  11  21  34  58  86 109 147 196 223 276 342
#     4  11  21  36  57  84 117 142 187 238 272 335
#     4   8  19  39  58  76 113 151 178 232 282 331
#
# _framework density 18.498881000000001
#
# number of rings (size 3 to 8) (size 9 to 14) (size 15 to 20)
#    1.200    1.200    2.000    0.000    2.800    0.800 
#    3.600    0.000    0.000    0.000    0.000    0.000 
#    0.000    0.000    0.000    0.000    0.000    0.000 
#
# Total GULP energy -495707.095801 kJ/mol
# GULP energy per Si atom -12392.677395 kJ/mol
# Density = 1.845678 g / cm^3
# Si number density = 18.498881 Si / 1000 Ang^3
#
#
#
# Elastic Constant Matrix: (Units=GPa)
#
#
# Indices 1 2 3 4 5 6 
#
# 1 94.2482 10.1860 9.7567 0.0000 0.0000 0.0000
# 2 10.1860 75.8865 12.5899 0.0000 0.0000 0.0000
# 3 9.7567 12.5899 54.8480 0.0000 0.0000 0.0000
# 4 0.0000 0.0000 0.0000 31.2415 0.0000 0.0000
# 5 0.0000 0.0000 0.0000 0.0000 17.3031 0.0000
# 6 0.0000 0.0000 0.0000 0.0000 0.0000 12.1094
#
#
#
# Elastic Compliance Matrix: (Units=1/GPa)
#
#
# Indices 1 2 3 4 5 6 
#
# 1 0.010911 -0.001188 -0.001668 0.000000 0.000000 0.000000
# 2 -0.001188 0.013829 -0.002963 0.000000 0.000000 0.000000
# 3 -0.001668 -0.002963 0.019209 0.000000 0.000000 0.000000
# 4 0.000000 0.000000 0.000000 0.032009 0.000000 0.000000
# 5 0.000000 0.000000 0.000000 0.000000 0.057793 0.000000
# 6 0.000000 0.000000 0.000000 0.000000 0.000000 0.082581
#
#
# Mechanical properties :
#
#
# Convention : Reuss Voigt Hill
#
# Bulk Modulus (GPa) = 30.94935 32.22756 31.58845
# Shear Modulus (GPa) = 20.94328 24.96079 22.95203
#
# Velocity S-wave (km/s) = 3.36838 3.67729 3.52621
# Velocity P-wave (km/s) = 5.64753 5.95727 5.80447
#
# Compressibility (1/GPa) = 0.03231086
#
# Stress axis : x y z
#
# Youngs Moduli (GPa) = 91.64753 72.31406 52.05867
#
# Poissons Ratio (x) = 0.08590 0.08685
# Poissons Ratio (y) = 0.10886 0.15425
# Poissons Ratio (z) = 0.15290 0.21426
#
# Static dielectric constant tensor:
#      x y z
#    x 3.067730 0.000000 0.000000 
#    y 0.000000 3.400080 0.000000 
#    z 0.000000 0.000000 3.328590 
# 
# 
# High freq. dielectric constant tensor:
#      x y z
#    x 1.686000 0.000000 0.000000 
#    y 0.000000 1.722610 0.000000 
#    z 0.000000 0.000000 1.708170 
# 
# From -- ./inp_files/2114.got.cif
#   From: 2010.03.12/outbox.cif.g09.slc.cpg/sg61_2_cif.got.tgz:2114.got - 2010.04.10 19:05:03.
