data_PCOD8249814
_publ_section_title
;
Structure prediction by ZEFSAII (Michael W. Deem and Ramdas Pophale) SiO2 
 PCOD8249814
Probable space group: P B C A
;
_chemical_formula_sum "Si O2"
_cell_formula_units_Z 40
_cell_length_a 4.670007
_cell_length_b 9.893416
_cell_length_c 30.749560
_cell_angle_alpha 90.000000
_cell_angle_beta 90.000000
_cell_angle_gamma 90.000000
_cell_volume 1420.701072
_symmetry_space_group_name_H-M "P B C A"
_symmetry_group_IT_number 61
_symmetry_cell_setting 'orthorhombic'
loop_
_space_group_symop_operation_xyz
x,y,z
1/2-x,-y,1/2+z
1/2+x,1/2-y,-z
-x,1/2+y,1/2-z
-x,-y,-z
1/2+x,y,1/2-z
1/2-x,1/2+y,z
x,1/2-y,1/2+z
loop_
_atom_site_type_symbol
_atom_site_label
_atom_site_fract_x
_atom_site_fract_y
_atom_site_fract_z
Si Si1 0.401597 0.225830 0.027778
Si Si2 0.219985 0.404297 0.104716
Si Si3 0.834178 0.511379 0.219466
Si Si4 0.723399 0.583134 0.091131
Si Si5 0.348264 0.724407 0.835494
O O1 0.222869 0.294978 0.066457
O O2 0.600271 0.104557 0.046345
O O3 0.644232 0.321509 0.004374
O O4 0.402547 0.531031 0.085084
O O5 0.357829 0.349347 0.149645
O O6 0.902738 0.462942 0.115794
O O7 0.506723 0.508289 0.235460
O O8 0.922753 0.645620 0.193558
O O9 0.864591 0.376047 0.190262
O O10 0.693617 0.719561 0.120353
#
# Coordination Sequence:
#
# PCOD8249814 Si02
#       5
#     8   8   8   8   8
#     4  11  24  42  66 104 148 192 246 307 364 430
#     4  11  25  44  72 104 144 199 246 300 369 436
#     4  12  28  48  76 110 148 190 240 302 374 438
#     4  11  25  44  72 104 144 199 246 300 369 436
#     4  11  26  50  76 108 150 192 246 303 362 452
#
# _framework density 28.155114000000001
#
# number of rings (size 3 to 8) (size 9 to 14) (size 15 to 20)
#    0.000    0.800    2.000    3.600    2.800   12.800 
#    0.000    0.000    0.000    0.000    0.000    0.000 
#    0.000    0.000    0.000    0.000    0.000    0.000 
#
# Total GULP energy -495957.140467 kJ/mol
# GULP energy per Si atom -12398.928512 kJ/mol
# Density = 2.809103 g / cm^3
# Si number density = 28.155114 Si / 1000 Ang^3
#
#
#
# Elastic Constant Matrix: (Units=GPa)
#
#
# Indices 1 2 3 4 5 6 
#
# 1 80.3094 -0.8604 18.7631 0.0000 0.0000 0.0000
# 2 -0.8604 118.7178 16.5898 0.0000 0.0000 0.0000
# 3 18.7631 16.5898 97.2709 0.0000 0.0000 0.0000
# 4 0.0000 0.0000 0.0000 20.8465 0.0000 0.0000
# 5 0.0000 0.0000 0.0000 0.0000 42.8011 0.0000
# 6 0.0000 0.0000 0.0000 0.0000 0.0000 27.4263
#
#
#
# Elastic Compliance Matrix: (Units=1/GPa)
#
#
# Indices 1 2 3 4 5 6 
#
# 1 0.013064 0.000458 -0.002598 0.000000 0.000000 0.000000
# 2 0.000458 0.008645 -0.001563 0.000000 0.000000 0.000000
# 3 -0.002598 -0.001563 0.011048 0.000000 0.000000 0.000000
# 4 0.000000 0.000000 0.000000 0.047970 0.000000 0.000000
# 5 0.000000 0.000000 0.000000 0.000000 0.023364 0.000000
# 6 0.000000 0.000000 0.000000 0.000000 0.000000 0.036461
#
#
# Mechanical properties :
#
#
# Convention : Reuss Voigt Hill
#
# Bulk Modulus (GPa) = 39.44620 40.58704 40.01662
# Shear Modulus (GPa) = 31.96760 35.66847 33.81803
#
# Velocity S-wave (km/s) = 3.37324 3.56315 3.46950
# Velocity P-wave (km/s) = 5.40485 5.60133 5.50397
#
# Compressibility (1/GPa) = 0.02535098
#
# Stress axis : x y z
#
# Youngs Moduli (GPa) = 76.54785 115.67339 90.51220
#
# Poissons Ratio (x) = -0.05295 0.23515
# Poissons Ratio (y) = -0.03504 0.14145
# Poissons Ratio (z) = 0.19887 0.18077
#
# Static dielectric constant tensor:
#      x y z
#    x 4.909870 0.000000 0.000000 
#    y 0.000000 5.064280 0.000000 
#    z 0.000000 0.000000 5.183550 
# 
# 
# High freq. dielectric constant tensor:
#      x y z
#    x 2.149090 0.000000 0.000000 
#    y 0.000000 2.142120 0.000000 
#    z 0.000000 0.000000 2.146880 
# 
# From -- ./inp_files/11566.got.cif
#   From: 2010.03.12/outbox.cif.g09.slc.cpg/sg61_6_cif.got.tgz:11566.got - 2010.04.10 19:05:03.
