data_PCOD8249181
_publ_section_title
;
Structure prediction by ZEFSAII (Michael W. Deem and Ramdas Pophale) SiO2 
 PCOD8249181
Probable space group: P B C A
;
_chemical_formula_sum "Si O2"
_cell_formula_units_Z 56
_cell_length_a 16.555798
_cell_length_b 8.405823
_cell_length_c 19.404057
_cell_angle_alpha 90.000000
_cell_angle_beta 90.000000
_cell_angle_gamma 90.000000
_cell_volume 2700.367681
_symmetry_space_group_name_H-M "P B C A"
_symmetry_group_IT_number 61
_symmetry_cell_setting 'orthorhombic'
loop_
_space_group_symop_operation_xyz
x,y,z
1/2-x,-y,1/2+z
1/2+x,1/2-y,-z
-x,1/2+y,1/2-z
-x,-y,-z
1/2+x,y,1/2-z
1/2-x,1/2+y,z
x,1/2-y,1/2+z
loop_
_atom_site_type_symbol
_atom_site_label
_atom_site_fract_x
_atom_site_fract_y
_atom_site_fract_z
Si Si1 0.495408 0.094009 0.836521
Si Si2 0.858651 0.113737 0.554446
Si Si3 0.781930 0.410717 0.614080
Si Si4 0.069394 0.113809 0.215284
Si Si5 0.309644 0.825295 0.289583
Si Si6 0.705501 0.905174 0.341069
Si Si7 0.351255 0.071952 0.101578
O O1 0.430932 0.057632 0.896195
O O2 0.502960 0.286753 0.828641
O O3 0.467059 0.020490 0.764158
O O4 0.580642 0.016233 0.854880
O O5 0.837796 0.299013 0.567159
O O6 0.884426 0.095358 0.475415
O O7 0.781802 0.001852 0.566307
O O8 0.835516 0.539537 0.655483
O O9 0.737961 0.312145 0.672512
O O10 0.108599 0.256151 0.259423
O O11 0.134223 0.035048 0.164020
O O12 0.249413 0.896003 0.232409
O O13 0.667223 0.739417 0.362972
O O14 0.769898 0.965517 0.397826
#
# Coordination Sequence:
#
# PCOD8249181 Si02
#       7
#     8   8   8   8   8   8   8
#     4  12  26  42  62  98 135 169 205 270 340 381
#     4  11  24  43  60  94 129 176 220 253 317 389
#     4  10  21  37  67  89 121 161 214 271 310 374
#     4  12  24  41  66  97 130 161 210 274 332 376
#     4  11  18  37  64  94 119 149 205 278 319 355
#     4  12  22  42  68 100 120 169 225 266 319 378
#     4  12  24  42  66  88 135 175 214 262 310 396
#
# _framework density 20.737916999999999
#
# number of rings (size 3 to 8) (size 9 to 14) (size 15 to 20)
#    0.000    0.571    5.714    3.000    2.000    0.000 
#    0.000    0.714    0.000    0.000    0.000    0.000 
#    0.000    0.000    0.000    0.000    0.000    0.000 
#
# Total GULP energy -694546.755664 kJ/mol
# GULP energy per Si atom -12402.620637 kJ/mol
# Density = 2.069072 g / cm^3
# Si number density = 20.737917 Si / 1000 Ang^3
#
#
#
# Elastic Constant Matrix: (Units=GPa)
#
#
# Indices 1 2 3 4 5 6 
#
# 1 66.5139 38.7833 26.3407 0.0000 0.0000 0.0000
# 2 38.7833 98.3049 7.2698 0.0000 0.0000 0.0000
# 3 26.3407 7.2698 63.3230 0.0000 0.0000 0.0000
# 4 0.0000 0.0000 0.0000 18.7225 0.0000 0.0000
# 5 0.0000 0.0000 0.0000 0.0000 34.2991 0.0000
# 6 0.0000 0.0000 0.0000 0.0000 0.0000 56.5663
#
#
#
# Elastic Compliance Matrix: (Units=1/GPa)
#
#
# Indices 1 2 3 4 5 6 
#
# 1 0.023564 -0.008645 -0.008809 0.000000 0.000000 0.000000
# 2 -0.008645 0.013431 0.002054 0.000000 0.000000 0.000000
# 3 -0.008809 0.002054 0.019221 0.000000 0.000000 0.000000
# 4 0.000000 0.000000 0.000000 0.053412 0.000000 0.000000
# 5 0.000000 0.000000 0.000000 0.000000 0.029155 0.000000
# 6 0.000000 0.000000 0.000000 0.000000 0.000000 0.017678
#
#
# Mechanical properties :
#
#
# Convention : Reuss Voigt Hill
#
# Bulk Modulus (GPa) = 39.34664 41.43659 40.39162
# Shear Modulus (GPa) = 25.54493 32.30078 28.92286
#
# Velocity S-wave (km/s) = 3.51351 3.95089 3.73860
# Velocity P-wave (km/s) = 5.95601 6.39040 6.17702
#
# Compressibility (1/GPa) = 0.02541513
#
# Stress axis : x y z
#
# Youngs Moduli (GPa) = 42.43778 74.45389 52.02715
#
# Poissons Ratio (x) = 0.64365 0.45833
# Poissons Ratio (y) = 0.36687 -0.10687
# Poissons Ratio (z) = 0.37385 -0.15294
#
# Static dielectric constant tensor:
#      x y z
#    x 3.455660 0.000000 0.000000 
#    y 0.000000 4.052680 0.000000 
#    z 0.000000 0.000000 3.662600 
# 
# 
# High freq. dielectric constant tensor:
#      x y z
#    x 1.804530 0.000000 0.000000 
#    y 0.000000 1.830500 0.000000 
#    z 0.000000 0.000000 1.802490 
# 
# From -- ./inp_files/7167.got.cif
#   From: 2010.03.12/outbox.cif.g09.slc.cpg/sg61_4_cif.got.tgz:7167.got - 2010.04.10 19:05:03.
