data_PCOD8249627
_publ_section_title
;
Structure prediction by ZEFSAII (Michael W. Deem and Ramdas Pophale) SiO2 
 PCOD8249627
Probable space group: P B C A
;
_chemical_formula_sum "Si O2"
_cell_formula_units_Z 56
_cell_length_a 13.689314
_cell_length_b 19.620293
_cell_length_c 9.169785
_cell_angle_alpha 90.000000
_cell_angle_beta 90.000000
_cell_angle_gamma 90.000000
_cell_volume 2462.897438
_symmetry_space_group_name_H-M "P B C A"
_symmetry_group_IT_number 61
_symmetry_cell_setting 'orthorhombic'
loop_
_space_group_symop_operation_xyz
x,y,z
1/2-x,-y,1/2+z
1/2+x,1/2-y,-z
-x,1/2+y,1/2-z
-x,-y,-z
1/2+x,y,1/2-z
1/2-x,1/2+y,z
x,1/2-y,1/2+z
loop_
_atom_site_type_symbol
_atom_site_label
_atom_site_fract_x
_atom_site_fract_y
_atom_site_fract_z
Si Si1 0.305285 0.428034 0.494631
Si Si2 0.510455 0.393606 0.597835
Si Si3 0.222982 0.696090 0.797475
Si Si4 0.657945 0.483493 0.773077
Si Si5 0.431129 0.300600 0.830349
Si Si6 0.076068 0.884031 0.107075
Si Si7 0.069117 0.176760 0.677165
O O1 0.419819 0.437961 0.535200
O O2 0.282266 0.351256 0.441508
O O3 0.285694 0.479599 0.360298
O O4 0.238184 0.442989 0.633662
O O5 0.575401 0.433017 0.714616
O O6 0.460732 0.327612 0.671678
O O7 0.581454 0.370440 0.465865
O O8 0.179335 0.770933 0.831336
O O9 0.162109 0.662727 0.667756
O O10 0.331283 0.706740 0.738845
O O11 0.604551 0.536991 0.879918
O O12 0.502085 0.239103 0.874169
O O13 0.440511 0.364177 0.939754
O O14 0.977898 0.869803 0.197343
#
# Coordination Sequence:
#
# PCOD8249627 Si02
#       7
#     8   8   8   8   8   8   8
#     4  11  26  49  71 107 142 192 241 299 363 425
#     4  12  26  47  74 105 149 191 240 298 363 428
#     4  10  24  44  76  99 144 186 238 298 365 424
#     4  11  27  46  74 105 144 196 244 298 356 436
#     4  11  25  46  69 107 143 182 239 300 357 433
#     4  10  24  45  67 104 144 186 236 301 352 419
#     4  11  23  45  74 102 142 192 238 292 368 429
#
# _framework density 22.737449000000002
#
# number of rings (size 3 to 8) (size 9 to 14) (size 15 to 20)
#    0.000    1.143    4.286    2.143    8.000    4.000 
#    0.000    0.000    0.000    0.000    0.000    0.000 
#    0.000    0.000    0.000    0.000    0.000    0.000 
#
# Total GULP energy -694598.731326 kJ/mol
# GULP energy per Si atom -12403.548774 kJ/mol
# Density = 2.268570 g / cm^3
# Si number density = 22.737449 Si / 1000 Ang^3
#
#
#
# Elastic Constant Matrix: (Units=GPa)
#
#
# Indices 1 2 3 4 5 6 
#
# 1 123.8093 35.5028 56.3790 0.0000 0.0000 0.0000
# 2 35.5028 78.9740 38.9675 0.0000 0.0000 0.0000
# 3 56.3790 38.9675 121.3491 0.0000 0.0000 0.0000
# 4 0.0000 0.0000 0.0000 39.7928 0.0000 0.0000
# 5 0.0000 0.0000 0.0000 0.0000 41.1946 0.0000
# 6 0.0000 0.0000 0.0000 0.0000 0.0000 25.2073
#
#
#
# Elastic Compliance Matrix: (Units=1/GPa)
#
#
# Indices 1 2 3 4 5 6 
#
# 1 0.010746 -0.002813 -0.004089 0.000000 0.000000 0.000000
# 2 -0.002813 0.015783 -0.003761 0.000000 0.000000 0.000000
# 3 -0.004089 -0.003761 0.011348 0.000000 0.000000 0.000000
# 4 0.000000 0.000000 0.000000 0.025130 0.000000 0.000000
# 5 0.000000 0.000000 0.000000 0.000000 0.024275 0.000000
# 6 0.000000 0.000000 0.000000 0.000000 0.000000 0.039671
#
#
# Mechanical properties :
#
#
# Convention : Reuss Voigt Hill
#
# Bulk Modulus (GPa) = 60.42287 65.09232 62.75760
# Shear Modulus (GPa) = 32.51046 34.12446 33.31746
#
# Velocity S-wave (km/s) = 3.78540 3.87822 3.83209
# Velocity P-wave (km/s) = 6.76295 6.98170 6.87320
#
# Compressibility (1/GPa) = 0.01655002
#
# Stress axis : x y z
#
# Youngs Moduli (GPa) = 93.06084 63.35979 88.11888
#
# Poissons Ratio (x) = 0.17823 0.36033
# Poissons Ratio (y) = 0.26178 0.33144
# Poissons Ratio (z) = 0.38054 0.23831
#
# Static dielectric constant tensor:
#      x y z
#    x 4.043420 0.000000 0.000000 
#    y 0.000000 4.036180 0.000000 
#    z 0.000000 0.000000 4.047930 
# 
# 
# High freq. dielectric constant tensor:
#      x y z
#    x 1.891250 0.000000 0.000000 
#    y 0.000000 1.893240 0.000000 
#    z 0.000000 0.000000 1.906560 
# 
# From -- ./inp_files/3063.got.cif
#   From: 2010.03.12/outbox.cif.g09.slc.cpg/sg61_2_cif.got.tgz:3063.got - 2010.04.10 19:05:03.
