data_PCOD8249241
_publ_section_title
;
Structure prediction by ZEFSAII (Michael W. Deem and Ramdas Pophale) SiO2 
 PCOD8249241
Probable space group: P B C A
;
_chemical_formula_sum "Si O2"
_cell_formula_units_Z 64
_cell_length_a 21.458987
_cell_length_b 14.629796
_cell_length_c 9.326846
_cell_angle_alpha 90.000000
_cell_angle_beta 90.000000
_cell_angle_gamma 90.000000
_cell_volume 2928.075650
_symmetry_space_group_name_H-M "P B C A"
_symmetry_group_IT_number 61
_symmetry_cell_setting 'orthorhombic'
loop_
_space_group_symop_operation_xyz
x,y,z
1/2-x,-y,1/2+z
1/2+x,1/2-y,-z
-x,1/2+y,1/2-z
-x,-y,-z
1/2+x,y,1/2-z
1/2-x,1/2+y,z
x,1/2-y,1/2+z
loop_
_atom_site_type_symbol
_atom_site_label
_atom_site_fract_x
_atom_site_fract_y
_atom_site_fract_z
Si Si1 0.327143 0.750863 0.407752
Si Si2 0.495372 0.911277 0.629649
Si Si3 0.734580 0.902895 0.185900
Si Si4 0.998800 0.894291 0.194033
Si Si5 0.415353 0.745446 0.662952
Si Si6 0.874908 0.288716 0.317050
Si Si7 0.133847 0.864597 0.887899
Si Si8 0.257797 0.568601 0.495055
O O1 0.283597 0.840991 0.404267
O O2 0.391027 0.755845 0.500626
O O3 0.351605 0.735904 0.247687
O O4 0.286342 0.665452 0.454205
O O5 0.470114 0.904883 0.466272
O O6 0.467143 0.821742 0.705809
O O7 0.569530 0.917968 0.613338
O O8 0.477383 0.001268 0.724703
O O9 0.673516 0.849815 0.231719
O O10 0.763413 0.943666 0.333741
O O11 0.709486 0.983161 0.081875
O O12 0.055716 0.824473 0.213465
O O13 0.944786 0.854741 0.299946
O O14 0.864114 0.287416 0.487203
O O15 0.862304 0.185570 0.265086
O O16 0.188145 0.935912 0.925979
#
# Coordination Sequence:
#
# PCOD8249241 Si02
#       8
#     8   8   8   8   8   8   8   8
#     4  12  26  43  67  97 140 178 227 279 344 405
#     4  10  22  40  67  96 131 177 217 275 334 401
#     4  11  26  44  68  99 132 178 222 279 338 402
#     4  10  22  41  66  98 131 172 224 269 333 406
#     4  12  24  42  69  96 135 181 222 279 341 408
#     4  10  21  40  65  92 126 166 217 265 325 391
#     4  10  21  39  65  90 124 168 217 263 326 389
#     4  11  26  43  67  99 132 174 227 276 336 404
#
# _framework density 21.857358000000001
#
# number of rings (size 3 to 8) (size 9 to 14) (size 15 to 20)
#    0.000    1.250    5.000    0.000    5.250    2.000 
#    0.000    0.625    0.000    0.000    0.000    0.000 
#    0.000    0.000    0.000    0.000    0.000    0.000 
#
# Total GULP energy -793060.740081 kJ/mol
# GULP energy per Si atom -12391.574064 kJ/mol
# Density = 2.180761 g / cm^3
# Si number density = 21.857358 Si / 1000 Ang^3
#
#
#
# Elastic Constant Matrix: (Units=GPa)
#
#
# Indices 1 2 3 4 5 6 
#
# 1 63.6953 5.9955 5.5602 0.0000 0.0000 0.0000
# 2 5.9955 99.4426 28.2541 0.0000 0.0000 0.0000
# 3 5.5602 28.2541 54.5411 0.0000 0.0000 0.0000
# 4 0.0000 0.0000 0.0000 37.6444 0.0000 0.0000
# 5 0.0000 0.0000 0.0000 0.0000 37.0555 0.0000
# 6 0.0000 0.0000 0.0000 0.0000 0.0000 12.4991
#
#
#
# Elastic Compliance Matrix: (Units=1/GPa)
#
#
# Indices 1 2 3 4 5 6 
#
# 1 0.015869 -0.000583 -0.001316 0.000000 0.000000 0.000000
# 2 -0.000583 0.011813 -0.006060 0.000000 0.000000 0.000000
# 3 -0.001316 -0.006060 0.021608 0.000000 0.000000 0.000000
# 4 0.000000 0.000000 0.000000 0.026564 0.000000 0.000000
# 5 0.000000 0.000000 0.000000 0.000000 0.026987 0.000000
# 6 0.000000 0.000000 0.000000 0.000000 0.000000 0.080006
#
#
# Mechanical properties :
#
#
# Convention : Reuss Voigt Hill
#
# Bulk Modulus (GPa) = 29.96432 33.03318 31.49875
# Shear Modulus (GPa) = 23.82205 29.29775 26.55990
#
# Velocity S-wave (km/s) = 3.30492 3.66513 3.48968
# Velocity P-wave (km/s) = 5.31998 5.74950 5.53890
#
# Compressibility (1/GPa) = 0.03337302
#
# Stress axis : x y z
#
# Youngs Moduli (GPa) = 63.01405 84.65234 46.27857
#
# Poissons Ratio (x) = 0.04935 0.06090
# Poissons Ratio (y) = 0.03673 0.28045
# Poissons Ratio (z) = 0.08292 0.51300
#
# Static dielectric constant tensor:
#      x y z
#    x 3.911020 0.000000 0.000000 
#    y 0.000000 3.829720 0.000000 
#    z 0.000000 0.000000 4.167050 
# 
# 
# High freq. dielectric constant tensor:
#      x y z
#    x 1.863340 0.000000 0.000000 
#    y 0.000000 1.854410 0.000000 
#    z 0.000000 0.000000 1.848470 
# 
# From -- ./inp_files/4329.got.cif
#   From: 2010.03.12/outbox.cif.g09.slc.cpg/sg61_3_cif.got.tgz:4329.got - 2010.04.10 19:05:03.
