data_PCOD8249431
_publ_section_title
;
Structure prediction by ZEFSAII (Michael W. Deem and Ramdas Pophale) SiO2 
 PCOD8249431
Probable space group: P B C A
;
_chemical_formula_sum "Si O2"
_cell_formula_units_Z 56
_cell_length_a 7.739034
_cell_length_b 16.489919
_cell_length_c 19.799025
_cell_angle_alpha 90.000000
_cell_angle_beta 90.000000
_cell_angle_gamma 90.000000
_cell_volume 2526.673242
_symmetry_space_group_name_H-M "P B C A"
_symmetry_group_IT_number 61
_symmetry_cell_setting 'orthorhombic'
loop_
_space_group_symop_operation_xyz
x,y,z
1/2-x,-y,1/2+z
1/2+x,1/2-y,-z
-x,1/2+y,1/2-z
-x,-y,-z
1/2+x,y,1/2-z
1/2-x,1/2+y,z
x,1/2-y,1/2+z
loop_
_atom_site_type_symbol
_atom_site_label
_atom_site_fract_x
_atom_site_fract_y
_atom_site_fract_z
Si Si1 0.448866 0.215703 0.906672
Si Si2 0.172961 0.888360 0.668852
Si Si3 0.427751 0.140411 0.314803
Si Si4 0.687314 0.725884 0.450287
Si Si5 0.900696 0.095629 0.952569
Si Si6 0.686670 0.979485 0.584994
Si Si7 0.048709 0.041513 0.606660
O O1 0.368822 0.275707 0.850897
O O2 0.611960 0.261216 0.938378
O O3 0.495619 0.131703 0.868050
O O4 0.328592 0.197056 0.971770
O O5 0.098904 0.845509 0.735422
O O6 0.377987 0.885974 0.670448
O O7 0.108874 0.840906 0.601251
O O8 0.100638 0.980547 0.667281
O O9 0.309051 0.066743 0.342801
O O10 0.591396 0.810250 0.434668
O O11 0.720098 0.049889 0.937904
O O12 0.907511 0.083000 0.033404
O O13 0.063335 0.058373 0.912812
O O14 0.882994 0.004798 0.566615
#
# Coordination Sequence:
#
# PCOD8249431 Si02
#       7
#     8   8   8   8   8   8   8
#     4  10  24  41  67  98 139 170 226 279 340 400
#     4  11  25  43  67  93 134 179 226 282 339 412
#     4  11  23  48  64  93 134 181 223 277 348 410
#     4  10  23  39  64  98 131 176 216 282 336 399
#     4  10  22  41  63  97 135 164 219 274 325 398
#     4  11  22  38  69  92 129 175 212 273 331 392
#     4  11  24  41  64 103 130 171 223 274 330 399
#
# _framework density 22.163529
#
# number of rings (size 3 to 8) (size 9 to 14) (size 15 to 20)
#    0.000    1.429    2.857    1.286    8.000    1.143 
#    2.571    1.429    0.000    0.000    0.000    0.000 
#    0.000    0.000    0.000    0.000    0.000    0.000 
#
# Total GULP energy -694161.493388 kJ/mol
# GULP energy per Si atom -12395.740953 kJ/mol
# Density = 2.211308 g / cm^3
# Si number density = 22.163529 Si / 1000 Ang^3
#
#
#
# Elastic Constant Matrix: (Units=GPa)
#
#
# Indices 1 2 3 4 5 6 
#
# 1 78.7242 39.5486 14.3780 0.0000 0.0000 0.0000
# 2 39.5486 111.9688 66.0538 0.0000 0.0000 0.0000
# 3 14.3780 66.0538 118.0059 0.0000 0.0000 0.0000
# 4 0.0000 0.0000 0.0000 31.7428 0.0000 0.0000
# 5 0.0000 0.0000 0.0000 0.0000 27.0790 0.0000
# 6 0.0000 0.0000 0.0000 0.0000 0.0000 26.8654
#
#
#
# Elastic Compliance Matrix: (Units=1/GPa)
#
#
# Indices 1 2 3 4 5 6 
#
# 1 0.015688 -0.006590 0.001777 0.000000 0.000000 0.000000
# 2 -0.006590 0.016102 -0.008210 0.000000 0.000000 0.000000
# 3 0.001777 -0.008210 0.012853 0.000000 0.000000 0.000000
# 4 0.000000 0.000000 0.000000 0.031503 0.000000 0.000000
# 5 0.000000 0.000000 0.000000 0.000000 0.036929 0.000000
# 6 0.000000 0.000000 0.000000 0.000000 0.000000 0.037223
#
#
# Mechanical properties :
#
#
# Convention : Reuss Voigt Hill
#
# Bulk Modulus (GPa) = 53.76879 60.96219 57.36549
# Shear Modulus (GPa) = 27.39070 29.71869 28.55469
#
# Velocity S-wave (km/s) = 3.51927 3.66578 3.59327
# Velocity P-wave (km/s) = 6.38956 6.74408 6.56921
#
# Compressibility (1/GPa) = 0.01859815
#
# Stress axis : x y z
#
# Youngs Moduli (GPa) = 63.74105 62.10375 77.80099
#
# Poissons Ratio (x) = 0.40924 -0.13826
# Poissons Ratio (y) = 0.42003 0.63876
# Poissons Ratio (z) = -0.11327 0.50989
#
# Static dielectric constant tensor:
#      x y z
#    x 4.011940 0.000000 0.000000 
#    y 0.000000 4.138050 0.000000 
#    z 0.000000 0.000000 3.847870 
# 
# 
# High freq. dielectric constant tensor:
#      x y z
#    x 1.880960 0.000000 0.000000 
#    y 0.000000 1.881680 0.000000 
#    z 0.000000 0.000000 1.838560 
# 
# From -- ./inp_files/10125.got.cif
#   From: 2010.03.12/outbox.cif.g09.slc.cpg/sg61_6_cif.got.tgz:10125.got - 2010.04.10 19:05:03.
