data_PCOD8249736
_publ_section_title
;
Structure prediction by ZEFSAII (Michael W. Deem and Ramdas Pophale) SiO2 
 PCOD8249736
Probable space group: P B C A
;
_chemical_formula_sum "Si O2"
_cell_formula_units_Z 48
_cell_length_a 8.534586
_cell_length_b 18.133186
_cell_length_c 12.657034
_cell_angle_alpha 90.000000
_cell_angle_beta 90.000000
_cell_angle_gamma 90.000000
_cell_volume 1958.792904
_symmetry_space_group_name_H-M "P B C A"
_symmetry_group_IT_number 61
_symmetry_cell_setting 'orthorhombic'
loop_
_space_group_symop_operation_xyz
x,y,z
1/2-x,-y,1/2+z
1/2+x,1/2-y,-z
-x,1/2+y,1/2-z
-x,-y,-z
1/2+x,y,1/2-z
1/2-x,1/2+y,z
x,1/2-y,1/2+z
loop_
_atom_site_type_symbol
_atom_site_label
_atom_site_fract_x
_atom_site_fract_y
_atom_site_fract_z
Si Si1 0.867145 0.413639 0.095381
Si Si2 0.496960 0.543621 0.280871
Si Si3 0.847742 0.207945 0.773968
Si Si4 0.300100 0.627066 0.540653
Si Si5 0.693983 0.476744 0.910127
Si Si6 0.372158 0.699973 0.338219
O O1 0.872634 0.487738 0.165026
O O2 0.857364 0.341312 0.168168
O O3 0.027428 0.407907 0.029688
O O4 0.729977 0.418692 0.005604
O O5 0.672015 0.523738 0.317849
O O6 0.469427 0.537366 0.152697
O O7 0.462584 0.626896 0.309760
O O8 0.727380 0.166972 0.849378
O O9 0.768779 0.285679 0.743067
O O10 0.011121 0.228514 0.832129
O O11 0.181234 0.557660 0.535369
O O12 0.285372 0.689292 0.450599
#
# Coordination Sequence:
#
# PCOD8249736 Si02
#       6
#     8   8   8   8   8   8
#     4  11  22  47  71  99 138 192 229 290 356 419
#     4  11  22  42  73 101 135 184 243 287 349 418
#     4  12  27  44  71 103 147 183 233 299 359 425
#     4  11  23  45  69 101 135 188 236 285 360 418
#     4  11  22  44  76  99 139 187 238 298 349 419
#     4  12  26  43  69 104 141 186 233 294 358 431
#
# _framework density 24.504888999999999
#
# number of rings (size 3 to 8) (size 9 to 14) (size 15 to 20)
#    0.000    0.667    6.667    2.000    2.333    0.000 
#    0.000    2.500    0.000    0.000    0.000    0.000 
#    0.000    0.000    0.000    0.000    0.000    0.000 
#
# Total GULP energy -594854.608416 kJ/mol
# GULP energy per Si atom -12392.804342 kJ/mol
# Density = 2.444911 g / cm^3
# Si number density = 24.504889 Si / 1000 Ang^3
#
#
#
# Elastic Constant Matrix: (Units=GPa)
#
#
# Indices 1 2 3 4 5 6 
#
# 1 35.3643 7.1171 15.1790 0.0000 0.0000 0.0000
# 2 7.1171 97.8772 31.5477 0.0000 0.0000 0.0000
# 3 15.1790 31.5477 92.1462 0.0000 0.0000 0.0000
# 4 0.0000 0.0000 0.0000 53.6224 0.0000 0.0000
# 5 0.0000 0.0000 0.0000 0.0000 40.9030 0.0000
# 6 0.0000 0.0000 0.0000 0.0000 0.0000 12.4387
#
#
#
# Elastic Compliance Matrix: (Units=1/GPa)
#
#
# Indices 1 2 3 4 5 6 
#
# 1 0.030468 -0.000672 -0.004789 0.000000 0.000000 0.000000
# 2 -0.000672 0.011499 -0.003826 0.000000 0.000000 0.000000
# 3 -0.004789 -0.003826 0.012951 0.000000 0.000000 0.000000
# 4 0.000000 0.000000 0.000000 0.018649 0.000000 0.000000
# 5 0.000000 0.000000 0.000000 0.000000 0.024448 0.000000
# 6 0.000000 0.000000 0.000000 0.000000 0.000000 0.080394
#
#
# Mechanical properties :
#
#
# Convention : Reuss Voigt Hill
#
# Bulk Modulus (GPa) = 27.51484 37.00837 32.26160
# Shear Modulus (GPa) = 23.91227 32.82909 28.37068
#
# Velocity S-wave (km/s) = 3.12719 3.66416 3.40627
# Velocity P-wave (km/s) = 4.92867 5.74775 5.35390
#
# Compressibility (1/GPa) = 0.03634403
#
# Stress axis : x y z
#
# Youngs Moduli (GPa) = 32.82159 86.96416 77.21332
#
# Poissons Ratio (x) = 0.05843 0.36976
# Poissons Ratio (y) = 0.02205 0.29543
# Poissons Ratio (z) = 0.15718 0.33274
#
# Static dielectric constant tensor:
#      x y z
#    x 4.219240 0.000000 0.000000 
#    y 0.000000 4.424100 0.000000 
#    z 0.000000 0.000000 4.674350 
# 
# 
# High freq. dielectric constant tensor:
#      x y z
#    x 1.952910 0.000000 0.000000 
#    y 0.000000 1.975000 0.000000 
#    z 0.000000 0.000000 1.982710 
# 
# From -- ./inp_files/7067.got.cif
#   From: 2010.03.12/outbox.cif.g09.slc.cpg/sg61_4_cif.got.tgz:7067.got - 2010.04.10 19:05:03.
