data_PCOD8249212
_publ_section_title
;
Structure prediction by ZEFSAII (Michael W. Deem and Ramdas Pophale) SiO2 
 PCOD8249212
Probable space group: P B C A
;
_chemical_formula_sum "Si O2"
_cell_formula_units_Z 32
_cell_length_a 16.471530
_cell_length_b 4.946951
_cell_length_c 17.696995
_cell_angle_alpha 90.000000
_cell_angle_beta 90.000000
_cell_angle_gamma 90.000000
_cell_volume 1442.019318
_symmetry_space_group_name_H-M "P B C A"
_symmetry_group_IT_number 61
_symmetry_cell_setting 'orthorhombic'
loop_
_space_group_symop_operation_xyz
x,y,z
1/2-x,-y,1/2+z
1/2+x,1/2-y,-z
-x,1/2+y,1/2-z
-x,-y,-z
1/2+x,y,1/2-z
1/2-x,1/2+y,z
x,1/2-y,1/2+z
loop_
_atom_site_type_symbol
_atom_site_label
_atom_site_fract_x
_atom_site_fract_y
_atom_site_fract_z
Si Si1 0.073769 0.243886 0.926700
Si Si2 0.606887 0.756393 0.983625
Si Si3 0.551845 0.050070 0.736495
Si Si4 0.697848 0.657440 0.336758
O O1 0.090759 0.160959 0.840725
O O2 0.977568 0.249885 0.938706
O O3 0.107838 0.540290 0.945104
O O4 0.121139 0.040506 0.982521
O O5 0.676102 0.847325 0.925526
O O6 0.511390 0.305223 0.779989
O O7 0.620343 0.919837 0.788165
O O8 0.772240 0.458406 0.317549
#
# Coordination Sequence:
#
# PCOD8249212 Si02
#       4
#     8   8   8   8
#     4  10  21  38  68  97 122 160 226 280 317 371
#     4  10  21  40  63  96 126 164 218 274 323 393
#     4  12  24  42  68 100 131 176 227 281 328 399
#     4  12  26  44  64  96 139 179 214 272 351 408
#
# _framework density 22.191102999999998
#
# number of rings (size 3 to 8) (size 9 to 14) (size 15 to 20)
#    0.000    1.000    2.500    4.500    7.000    0.000 
#    0.000    7.500    0.000    0.000    0.000    0.000 
#    0.000    0.000    0.000    0.000    0.000    0.000 
#
# Total GULP energy -396864.964904 kJ/mol
# GULP energy per Si atom -12402.030153 kJ/mol
# Density = 2.214060 g / cm^3
# Si number density = 22.191103 Si / 1000 Ang^3
#
#
#
# Elastic Constant Matrix: (Units=GPa)
#
#
# Indices 1 2 3 4 5 6 
#
# 1 50.1955 26.5292 32.4929 0.0000 0.0000 0.0000
# 2 26.5292 114.8593 20.0757 0.0000 0.0000 0.0000
# 3 32.4929 20.0757 97.2665 0.0000 0.0000 0.0000
# 4 0.0000 0.0000 0.0000 36.6537 0.0000 0.0000
# 5 0.0000 0.0000 0.0000 0.0000 22.9939 0.0000
# 6 0.0000 0.0000 0.0000 0.0000 0.0000 41.2699
#
#
#
# Elastic Compliance Matrix: (Units=1/GPa)
#
#
# Indices 1 2 3 4 5 6 
#
# 1 0.027939 -0.005002 -0.008301 0.000000 0.000000 0.000000
# 2 -0.005002 0.009928 -0.000378 0.000000 0.000000 0.000000
# 3 -0.008301 -0.000378 0.013132 0.000000 0.000000 0.000000
# 4 0.000000 0.000000 0.000000 0.027282 0.000000 0.000000
# 5 0.000000 0.000000 0.000000 0.000000 0.043490 0.000000
# 6 0.000000 0.000000 0.000000 0.000000 0.000000 0.024231
#
#
# Mechanical properties :
#
#
# Convention : Reuss Voigt Hill
#
# Bulk Modulus (GPa) = 42.30720 46.72411 44.51565
# Shear Modulus (GPa) = 27.58719 32.39841 29.99280
#
# Velocity S-wave (km/s) = 3.52968 3.82510 3.68036
# Velocity P-wave (km/s) = 5.97644 6.37257 6.17768
#
# Compressibility (1/GPa) = 0.02363664
#
# Stress axis : x y z
#
# Youngs Moduli (GPa) = 35.79176 100.72768 76.14939
#
# Poissons Ratio (x) = 0.50387 0.63212
# Poissons Ratio (y) = 0.17904 0.02878
# Poissons Ratio (z) = 0.29711 0.03807
#
# Static dielectric constant tensor:
#      x y z
#    x 3.780360 0.000000 0.000000 
#    y 0.000000 4.350480 0.000000 
#    z 0.000000 0.000000 3.854640 
# 
# 
# High freq. dielectric constant tensor:
#      x y z
#    x 1.843990 0.000000 0.000000 
#    y 0.000000 1.898030 0.000000 
#    z 0.000000 0.000000 1.870030 
# 
# From -- ./inp_files/675.got.cif
#   From: 2010.03.12/outbox.cif.g09.slc.cpg/sg61_1_cif.got.tgz:675.got - 2010.04.10 19:05:03.
