data_PCOD8249672
_publ_section_title
;
Structure prediction by ZEFSAII (Michael W. Deem and Ramdas Pophale) SiO2 
 PCOD8249672
Probable space group: P B C A
;
_chemical_formula_sum "Si O2"
_cell_formula_units_Z 64
_cell_length_a 8.990009
_cell_length_b 22.161465
_cell_length_c 16.229335
_cell_angle_alpha 90.000000
_cell_angle_beta 90.000000
_cell_angle_gamma 90.000000
_cell_volume 3233.399135
_symmetry_space_group_name_H-M "P B C A"
_symmetry_group_IT_number 61
_symmetry_cell_setting 'orthorhombic'
loop_
_space_group_symop_operation_xyz
x,y,z
1/2-x,-y,1/2+z
1/2+x,1/2-y,-z
-x,1/2+y,1/2-z
-x,-y,-z
1/2+x,y,1/2-z
1/2-x,1/2+y,z
x,1/2-y,1/2+z
loop_
_atom_site_type_symbol
_atom_site_label
_atom_site_fract_x
_atom_site_fract_y
_atom_site_fract_z
Si Si1 0.238396 0.545515 0.071135
Si Si2 0.523793 0.520748 0.821223
Si Si3 0.022715 0.424465 0.814440
Si Si4 0.026077 0.813275 0.810149
Si Si5 0.498816 0.873842 0.520611
Si Si6 0.988237 0.340910 0.338866
Si Si7 0.227666 0.268576 0.243142
Si Si8 0.726499 0.966238 0.571911
O O1 0.329636 0.504101 0.134384
O O2 0.107064 0.578985 0.118663
O O3 0.336429 0.599255 0.034760
O O4 0.178164 0.506141 0.993175
O O5 0.508297 0.487235 0.734069
O O6 0.534906 0.591736 0.804591
O O7 0.376362 0.510476 0.874724
O O8 0.014738 0.368086 0.752180
O O9 0.175985 0.425190 0.866398
O O10 0.045644 0.833849 0.902770
O O11 0.184106 0.783823 0.790203
O O12 0.896658 0.763723 0.811875
O O13 0.500394 0.835962 0.437180
O O14 0.620913 0.926432 0.513451
O O15 0.842392 0.303912 0.314129
O O16 0.142163 0.313591 0.304739
#
# Coordination Sequence:
#
# PCOD8249672 Si02
#       8
#     8   8   8   8   8   8   8   8
#     4  11  21  38  57 101 133 166 200 259 329 386
#     4  11  22  37  64  92 127 166 206 246 331 396
#     4  12  24  35  68  99 127 168 211 265 320 371
#     4  11  22  44  64  91 125 163 225 268 300 378
#     4  11  21  39  70  86 129 169 204 265 328 370
#     4  11  24  44  64  92 124 170 209 259 325 385
#     4  10  26  44  64  88 124 170 222 264 304 374
#     4  11  21  38  57 101 133 166 200 259 329 386
#
# _framework density 19.793410000000002
#
# number of rings (size 3 to 8) (size 9 to 14) (size 15 to 20)
#    0.000    1.000    5.000    3.375    3.500    1.000 
#    0.000    2.500    0.000    0.000    0.000    0.000 
#    0.000    0.000    0.000    0.000    0.000    0.000 
#
# Total GULP energy -793633.083748 kJ/mol
# GULP energy per Si atom -12400.516934 kJ/mol
# Density = 1.974836 g / cm^3
# Si number density = 19.793410 Si / 1000 Ang^3
#
#
#
# Elastic Constant Matrix: (Units=GPa)
#
#
# Indices 1 2 3 4 5 6 
#
# 1 60.2981 10.1241 11.7103 0.0000 0.0000 0.0000
# 2 10.1241 75.6939 21.3190 0.0000 0.0000 0.0000
# 3 11.7103 21.3190 97.5214 0.0000 0.0000 0.0000
# 4 0.0000 0.0000 0.0000 24.1995 0.0000 0.0000
# 5 0.0000 0.0000 0.0000 0.0000 23.5117 0.0000
# 6 0.0000 0.0000 0.0000 0.0000 0.0000 19.8144
#
#
#
# Elastic Compliance Matrix: (Units=1/GPa)
#
#
# Indices 1 2 3 4 5 6 
#
# 1 0.017216 -0.001833 -0.001666 0.000000 0.000000 0.000000
# 2 -0.001833 0.014273 -0.002900 0.000000 0.000000 0.000000
# 3 -0.001666 -0.002900 0.011088 0.000000 0.000000 0.000000
# 4 0.000000 0.000000 0.000000 0.041323 0.000000 0.000000
# 5 0.000000 0.000000 0.000000 0.000000 0.042532 0.000000
# 6 0.000000 0.000000 0.000000 0.000000 0.000000 0.050468
#
#
# Mechanical properties :
#
#
# Convention : Reuss Voigt Hill
#
# Bulk Modulus (GPa) = 33.58247 35.53557 34.55902
# Shear Modulus (GPa) = 25.04683 26.19578 25.62130
#
# Velocity S-wave (km/s) = 3.56112 3.64189 3.60173
# Velocity P-wave (km/s) = 5.82341 5.97299 5.89868
#
# Compressibility (1/GPa) = 0.02977744
#
# Stress axis : x y z
#
# Youngs Moduli (GPa) = 58.08642 70.06180 90.18550
#
# Poissons Ratio (x) = 0.12844 0.15029
# Poissons Ratio (y) = 0.10649 0.26155
# Poissons Ratio (z) = 0.09680 0.20319
#
# Static dielectric constant tensor:
#      x y z
#    x 3.645300 0.000000 0.000000 
#    y 0.000000 3.630830 0.000000 
#    z 0.000000 0.000000 3.626100 
# 
# 
# High freq. dielectric constant tensor:
#      x y z
#    x 1.776680 0.000000 0.000000 
#    y 0.000000 1.767500 0.000000 
#    z 0.000000 0.000000 1.776870 
# 
# From -- ./inp_files/7265.got.cif
#   From: 2010.03.12/outbox.cif.g09.slc.cpg/sg61_4_cif.got.tgz:7265.got - 2010.04.10 19:05:03.
