data_PCOD8249595
_publ_section_title
;
Structure prediction by ZEFSAII (Michael W. Deem and Ramdas Pophale) SiO2 
 PCOD8249595
Probable space group: P B C A
;
_chemical_formula_sum "Si O2"
_cell_formula_units_Z 32
_cell_length_a 14.338438
_cell_length_b 10.700101
_cell_length_c 8.867784
_cell_angle_alpha 90.000000
_cell_angle_beta 90.000000
_cell_angle_gamma 90.000000
_cell_volume 1360.519673
_symmetry_space_group_name_H-M "P B C A"
_symmetry_group_IT_number 61
_symmetry_cell_setting 'orthorhombic'
loop_
_space_group_symop_operation_xyz
x,y,z
1/2-x,-y,1/2+z
1/2+x,1/2-y,-z
-x,1/2+y,1/2-z
-x,-y,-z
1/2+x,y,1/2-z
1/2-x,1/2+y,z
x,1/2-y,1/2+z
loop_
_atom_site_type_symbol
_atom_site_label
_atom_site_fract_x
_atom_site_fract_y
_atom_site_fract_z
Si Si1 0.175403 0.417625 0.898231
Si Si2 0.108020 0.260490 0.636413
Si Si3 0.619257 0.507478 0.049724
Si Si4 0.034446 0.914324 0.236282
O O1 0.172512 0.308763 0.772679
O O2 0.276268 0.480717 0.892543
O O3 0.097565 0.522492 0.865323
O O4 0.157554 0.359923 0.062698
O O5 0.096938 0.368713 0.514163
O O6 0.006922 0.215610 0.700484
O O7 0.548340 0.513707 0.191581
O O8 0.596789 0.607147 0.916180
#
# Coordination Sequence:
#
# PCOD8249595 Si02
#       4
#     8   8   8   8
#     4  11  25  46  73 106 149 190 243 300 356 443
#     4  11  23  47  71 107 144 187 248 287 370 429
#     4  10  24  48  68 110 149 185 245 301 359 442
#     4  10  23  47  71 102 148 182 245 304 355 431
#
# _framework density 23.520423000000001
#
# number of rings (size 3 to 8) (size 9 to 14) (size 15 to 20)
#    0.000    1.500    2.500    0.750    7.000    0.000 
#   27.000    0.000    0.000    0.000    0.000    0.000 
#    0.000    0.000    0.000    0.000    0.000    0.000 
#
# Total GULP energy -396630.068072 kJ/mol
# GULP energy per Si atom -12394.689627 kJ/mol
# Density = 2.346689 g / cm^3
# Si number density = 23.520423 Si / 1000 Ang^3
#
#
#
# Elastic Constant Matrix: (Units=GPa)
#
#
# Indices 1 2 3 4 5 6 
#
# 1 191.2379 73.7378 58.9127 0.0000 0.0000 0.0000
# 2 73.7378 86.2243 48.8782 0.0000 0.0000 0.0000
# 3 58.9127 48.8782 73.9653 0.0000 0.0000 0.0000
# 4 0.0000 0.0000 0.0000 47.3784 0.0000 0.0000
# 5 0.0000 0.0000 0.0000 0.0000 43.5483 0.0000
# 6 0.0000 0.0000 0.0000 0.0000 0.0000 38.5960
#
#
#
# Elastic Compliance Matrix: (Units=1/GPa)
#
#
# Indices 1 2 3 4 5 6 
#
# 1 0.008207 -0.005297 -0.003036 0.000000 0.000000 0.000000
# 2 -0.005297 0.021964 -0.010295 0.000000 0.000000 0.000000
# 3 -0.003036 -0.010295 0.022741 0.000000 0.000000 0.000000
# 4 0.000000 0.000000 0.000000 0.021107 0.000000 0.000000
# 5 0.000000 0.000000 0.000000 0.000000 0.022963 0.000000
# 6 0.000000 0.000000 0.000000 0.000000 0.000000 0.025909
#
#
# Mechanical properties :
#
#
# Convention : Reuss Voigt Hill
#
# Bulk Modulus (GPa) = 63.87675 79.38721 71.63198
# Shear Modulus (GPa) = 30.23587 37.23113 33.73350
#
# Velocity S-wave (km/s) = 3.58930 3.98292 3.79122
# Velocity P-wave (km/s) = 6.66291 7.41466 7.04882
#
# Compressibility (1/GPa) = 0.01565515
#
# Stress axis : x y z
#
# Youngs Moduli (GPa) = 121.84759 45.52937 43.97294
#
# Poissons Ratio (x) = 0.24119 0.13351
# Poissons Ratio (y) = 0.64548 0.45270
# Poissons Ratio (z) = 0.36994 0.46872
#
# Static dielectric constant tensor:
#      x y z
#    x 4.126960 0.000000 0.000000 
#    y 0.000000 4.077640 0.000000 
#    z 0.000000 0.000000 4.523660 
# 
# 
# High freq. dielectric constant tensor:
#      x y z
#    x 1.926760 0.000000 0.000000 
#    y 0.000000 1.909250 0.000000 
#    z 0.000000 0.000000 1.943400 
# 
# From -- ./inp_files/2050.got.cif
#   From: 2010.03.12/outbox.cif.g09.slc.cpg/sg61_2_cif.got.tgz:2050.got - 2010.04.10 19:05:03.
