data_PCOD8249451
_publ_section_title
;
Structure prediction by ZEFSAII (Michael W. Deem and Ramdas Pophale) SiO2 
 PCOD8249451
Probable space group: P B C A
;
_chemical_formula_sum "Si O2"
_cell_formula_units_Z 40
_cell_length_a 14.719153
_cell_length_b 10.313634
_cell_length_c 11.818478
_cell_angle_alpha 90.000000
_cell_angle_beta 90.000000
_cell_angle_gamma 90.000000
_cell_volume 1794.138998
_symmetry_space_group_name_H-M "P B C A"
_symmetry_group_IT_number 61
_symmetry_cell_setting 'orthorhombic'
loop_
_space_group_symop_operation_xyz
x,y,z
1/2-x,-y,1/2+z
1/2+x,1/2-y,-z
-x,1/2+y,1/2-z
-x,-y,-z
1/2+x,y,1/2-z
1/2-x,1/2+y,z
x,1/2-y,1/2+z
loop_
_atom_site_type_symbol
_atom_site_label
_atom_site_fract_x
_atom_site_fract_y
_atom_site_fract_z
Si Si1 0.149150 0.130389 0.507429
Si Si2 0.791879 0.267032 0.647343
Si Si3 0.754495 0.518424 0.786008
Si Si4 0.933544 0.542610 0.222025
Si Si5 0.995215 0.284038 0.158206
O O1 0.230988 0.222361 0.465556
O O2 0.189265 0.028866 0.598122
O O3 0.109191 0.048552 0.403607
O O4 0.069056 0.219895 0.558421
O O5 0.798250 0.404613 0.711269
O O6 0.743054 0.158692 0.724647
O O7 0.893350 0.228630 0.609548
O O8 0.648839 0.482132 0.810147
O O9 0.003366 0.421898 0.223879
O O10 0.986630 0.672502 0.250977
#
# Coordination Sequence:
#
# PCOD8249451 Si02
#       5
#     8   8   8   8   8
#     4  11  22  41  67  92 124 169 210 253 314 374
#     4  10  24  41  62  96 129 163 210 259 309 368
#     4  10  22  42  64  89 129 165 204 261 312 368
#     4  10  24  41  62  94 126 165 210 254 311 372
#     4  11  23  41  64  91 127 164 206 261 311 368
#
# _framework density 22.294817999999999
#
# number of rings (size 3 to 8) (size 9 to 14) (size 15 to 20)
#    0.000    1.600    0.000    4.200    0.000   12.800 
#    0.000    3.000    0.000    0.000    0.000    0.000 
#    0.000    0.000    0.000    0.000    0.000    0.000 
#
# Total GULP energy -495996.759892 kJ/mol
# GULP energy per Si atom -12399.918997 kJ/mol
# Density = 2.224407 g / cm^3
# Si number density = 22.294818 Si / 1000 Ang^3
#
#
#
# Elastic Constant Matrix: (Units=GPa)
#
#
# Indices 1 2 3 4 5 6 
#
# 1 115.5549 66.3836 59.1930 0.0000 0.0000 0.0000
# 2 66.3836 160.2361 60.0294 0.0000 0.0000 0.0000
# 3 59.1930 60.0294 69.6439 0.0000 0.0000 0.0000
# 4 0.0000 0.0000 0.0000 17.6768 0.0000 0.0000
# 5 0.0000 0.0000 0.0000 0.0000 34.3920 0.0000
# 6 0.0000 0.0000 0.0000 0.0000 0.0000 40.2198
#
#
#
# Elastic Compliance Matrix: (Units=1/GPa)
#
#
# Indices 1 2 3 4 5 6 
#
# 1 0.015856 -0.002245 -0.011541 0.000000 0.000000 0.000000
# 2 -0.002245 0.009535 -0.006310 0.000000 0.000000 0.000000
# 3 -0.011541 -0.006310 0.029607 0.000000 0.000000 0.000000
# 4 0.000000 0.000000 0.000000 0.056571 0.000000 0.000000
# 5 0.000000 0.000000 0.000000 0.000000 0.029077 0.000000
# 6 0.000000 0.000000 0.000000 0.000000 0.000000 0.024863
#
#
# Mechanical properties :
#
#
# Convention : Reuss Voigt Hill
#
# Bulk Modulus (GPa) = 67.54698 79.62742 73.58720
# Shear Modulus (GPa) = 23.73747 29.11298 26.42523
#
# Velocity S-wave (km/s) = 3.26653 3.61753 3.44650
# Velocity P-wave (km/s) = 6.67756 7.29671 6.99399
#
# Compressibility (1/GPa) = 0.01480451
#
# Stress axis : x y z
#
# Youngs Moduli (GPa) = 63.06919 104.87671 33.77539
#
# Poissons Ratio (x) = 0.23546 0.38981
# Poissons Ratio (y) = 0.14160 0.21314
# Poissons Ratio (z) = 0.72789 0.66182
#
# Static dielectric constant tensor:
#      x y z
#    x 4.289650 0.000000 0.000000 
#    y 0.000000 4.126990 0.000000 
#    z 0.000000 0.000000 3.699990 
# 
# 
# High freq. dielectric constant tensor:
#      x y z
#    x 1.896190 0.000000 0.000000 
#    y 0.000000 1.891240 0.000000 
#    z 0.000000 0.000000 1.847470 
# 
# From -- ./inp_files/5124.got.cif
#   From: 2010.03.12/outbox.cif.g09.slc.cpg/sg61_3_cif.got.tgz:5124.got - 2010.04.10 19:05:03.
