data_PCOD8249075
_publ_section_title
;
Structure prediction by ZEFSAII (Michael W. Deem and Ramdas Pophale) SiO2 
 PCOD8249075
Probable space group: P B C A
;
_chemical_formula_sum "Si O2"
_cell_formula_units_Z 56
_cell_length_a 13.231498
_cell_length_b 12.454387
_cell_length_c 17.023509
_cell_angle_alpha 90.000000
_cell_angle_beta 90.000000
_cell_angle_gamma 90.000000
_cell_volume 2805.307396
_symmetry_space_group_name_H-M "P B C A"
_symmetry_group_IT_number 61
_symmetry_cell_setting 'orthorhombic'
loop_
_space_group_symop_operation_xyz
x,y,z
1/2-x,-y,1/2+z
1/2+x,1/2-y,-z
-x,1/2+y,1/2-z
-x,-y,-z
1/2+x,y,1/2-z
1/2-x,1/2+y,z
x,1/2-y,1/2+z
loop_
_atom_site_type_symbol
_atom_site_label
_atom_site_fract_x
_atom_site_fract_y
_atom_site_fract_z
Si Si1 0.334020 0.954399 0.332099
Si Si2 0.671607 0.574674 0.792689
Si Si3 0.760906 0.600547 0.041216
Si Si4 0.485596 0.051488 0.224873
Si Si5 0.926653 0.766234 0.629349
Si Si6 0.175884 0.968685 0.598736
Si Si7 0.867256 0.235821 0.928348
O O1 0.249549 0.900925 0.276925
O O2 0.408341 0.856949 0.350249
O O3 0.285292 0.002763 0.409879
O O4 0.398583 0.051339 0.291866
O O5 0.571357 0.530470 0.751696
O O6 0.723022 0.488740 0.850655
O O7 0.648956 0.681581 0.842626
O O8 0.826722 0.677453 0.096146
O O9 0.831543 0.550039 0.974174
O O10 0.669027 0.665541 0.001662
O O11 0.533825 0.168433 0.206746
O O12 0.428946 0.011742 0.145557
O O13 0.013742 0.762310 0.562751
O O14 0.192794 0.847339 0.570103
#
# Coordination Sequence:
#
# PCOD8249075 Si02
#       7
#     8   8   8   8   8   8   8
#     4  11  23  40  65  96 123 162 211 257 319 370
#     4  10  20  40  62  87 125 156 201 268 306 367
#     4  11  23  43  60  93 128 168 205 260 307 376
#     4  10  21  41  62  91 120 160 205 261 307 371
#     4  11  23  40  64  92 126 163 214 254 314 373
#     4   9  22  40  61  87 124 162 208 248 314 371
#     4  10  22  41  63  89 125 164 209 255 315 372
#
# _framework density 19.962161999999999
#
# number of rings (size 3 to 8) (size 9 to 14) (size 15 to 20)
#    0.000    1.714    2.857    0.857    2.000    4.000 
#    5.143    0.000    0.000    0.000    0.000    0.000 
#    0.000    0.000    0.000    0.000    0.000    0.000 
#
# Total GULP energy -694214.950034 kJ/mol
# GULP energy per Si atom -12396.695536 kJ/mol
# Density = 1.991673 g / cm^3
# Si number density = 19.962162 Si / 1000 Ang^3
#
#
#
# Elastic Constant Matrix: (Units=GPa)
#
#
# Indices 1 2 3 4 5 6 
#
# 1 86.2800 26.4311 28.5565 0.0000 0.0000 0.0000
# 2 26.4311 87.7877 30.5056 0.0000 0.0000 0.0000
# 3 28.5565 30.5056 82.8049 0.0000 0.0000 0.0000
# 4 0.0000 0.0000 0.0000 25.5870 0.0000 0.0000
# 5 0.0000 0.0000 0.0000 0.0000 25.9388 0.0000
# 6 0.0000 0.0000 0.0000 0.0000 0.0000 35.9457
#
#
#
# Elastic Compliance Matrix: (Units=1/GPa)
#
#
# Indices 1 2 3 4 5 6 
#
# 1 0.013675 -0.002842 -0.003669 0.000000 0.000000 0.000000
# 2 -0.002842 0.013654 -0.004050 0.000000 0.000000 0.000000
# 3 -0.003669 -0.004050 0.014834 0.000000 0.000000 0.000000
# 4 0.000000 0.000000 0.000000 0.039082 0.000000 0.000000
# 5 0.000000 0.000000 0.000000 0.000000 0.038552 0.000000
# 6 0.000000 0.000000 0.000000 0.000000 0.000000 0.027820
#
#
# Mechanical properties :
#
#
# Convention : Reuss Voigt Hill
#
# Bulk Modulus (GPa) = 47.52707 47.53990 47.53348
# Shear Modulus (GPa) = 28.44883 28.91959 28.68421
#
# Velocity S-wave (km/s) = 3.77919 3.81033 3.79480
# Velocity P-wave (km/s) = 6.55007 6.57457 6.56233
#
# Compressibility (1/GPa) = 0.02104064
#
# Stress axis : x y z
#
# Youngs Moduli (GPa) = 73.12477 73.23719 67.41304
#
# Poissons Ratio (x) = 0.20817 0.24734
# Poissons Ratio (y) = 0.20785 0.27303
# Poissons Ratio (z) = 0.26829 0.29661
#
# Static dielectric constant tensor:
#      x y z
#    x 3.767920 0.000000 0.000000 
#    y 0.000000 3.557410 0.000000 
#    z 0.000000 0.000000 3.622150 
# 
# 
# High freq. dielectric constant tensor:
#      x y z
#    x 1.790160 0.000000 0.000000 
#    y 0.000000 1.775630 0.000000 
#    z 0.000000 0.000000 1.771340 
# 
# From -- ./inp_files/5822.got.cif
#   From: 2010.03.12/outbox.cif.g09.slc.cpg/sg61_3_cif.got.tgz:5822.got - 2010.04.10 19:05:03.
