data_PCOD8249356
_publ_section_title
;
Structure prediction by ZEFSAII (Michael W. Deem and Ramdas Pophale) SiO2 
 PCOD8249356
Probable space group: P B C A
;
_chemical_formula_sum "Si O2"
_cell_formula_units_Z 64
_cell_length_a 17.630103
_cell_length_b 12.270024
_cell_length_c 15.307974
_cell_angle_alpha 90.000000
_cell_angle_beta 90.000000
_cell_angle_gamma 90.000000
_cell_volume 3311.448290
_symmetry_space_group_name_H-M "P B C A"
_symmetry_group_IT_number 61
_symmetry_cell_setting 'orthorhombic'
loop_
_space_group_symop_operation_xyz
x,y,z
1/2-x,-y,1/2+z
1/2+x,1/2-y,-z
-x,1/2+y,1/2-z
-x,-y,-z
1/2+x,y,1/2-z
1/2-x,1/2+y,z
x,1/2-y,1/2+z
loop_
_atom_site_type_symbol
_atom_site_label
_atom_site_fract_x
_atom_site_fract_y
_atom_site_fract_z
Si Si1 0.937462 0.278474 0.331491
Si Si2 0.390650 0.983520 0.657681
Si Si3 0.204231 0.719333 0.071729
Si Si4 0.053509 0.601906 0.320826
Si Si5 0.700077 0.848814 0.597544
Si Si6 0.099635 0.360843 0.341952
Si Si7 0.303075 0.943082 0.488881
Si Si8 0.798331 0.794872 0.761393
O O1 0.902081 0.395846 0.300048
O O2 0.884738 0.226624 0.407117
O O3 0.943241 0.185545 0.258992
O O4 0.020310 0.304600 0.368985
O O5 0.468002 0.914119 0.646852
O O6 0.358585 0.999614 0.559920
O O7 0.334250 0.913395 0.718493
O O8 0.254769 0.754657 0.154985
O O9 0.227696 0.788577 0.988292
O O10 0.230026 0.599443 0.041659
O O11 0.107997 0.654503 0.394684
O O12 0.087942 0.481476 0.300425
O O13 0.736708 0.803550 0.685195
O O14 0.727796 0.972035 0.582313
O O15 0.148773 0.356293 0.431320
O O16 0.137307 0.290376 0.265209
#
# Coordination Sequence:
#
# PCOD8249356 Si02
#       8
#     8   8   8   8   8   8   8   8
#     4  11  21  39  61  91 122 158 206 255 300 365
#     4  10  22  38  62  90 120 161 204 254 305 365
#     4  11  23  37  61  91 121 159 203 248 304 358
#     4  10  22  37  60  89 119 160 204 250 305 356
#     4  11  22  38  60  91 124 158 202 249 305 363
#     4  10  22  38  63  86 125 157 202 250 307 365
#     4  10  22  39  60  91 120 162 203 253 306 361
#     4  11  22  40  62  89 127 159 199 254 308 369
#
# _framework density 19.326891
#
# number of rings (size 3 to 8) (size 9 to 14) (size 15 to 20)
#    0.000    1.500    5.000    0.000    1.750    5.500 
#    0.000    0.000    0.000    0.750    0.000    0.000 
#    0.000    0.000    0.000    0.000    0.000    0.000 
#
# Total GULP energy -792986.458605 kJ/mol
# GULP energy per Si atom -12390.413416 kJ/mol
# Density = 1.928290 g / cm^3
# Si number density = 19.326891 Si / 1000 Ang^3
#
#
#
# Elastic Constant Matrix: (Units=GPa)
#
#
# Indices 1 2 3 4 5 6 
#
# 1 88.8775 38.4752 36.4295 0.0000 0.0000 0.0000
# 2 38.4752 78.7181 37.5977 0.0000 0.0000 0.0000
# 3 36.4295 37.5977 97.0446 0.0000 0.0000 0.0000
# 4 0.0000 0.0000 0.0000 36.2372 0.0000 0.0000
# 5 0.0000 0.0000 0.0000 0.0000 26.2362 0.0000
# 6 0.0000 0.0000 0.0000 0.0000 0.0000 29.7006
#
#
#
# Elastic Compliance Matrix: (Units=1/GPa)
#
#
# Indices 1 2 3 4 5 6 
#
# 1 0.015163 -0.005758 -0.003461 0.000000 0.000000 0.000000
# 2 -0.005758 0.017775 -0.004725 0.000000 0.000000 0.000000
# 3 -0.003461 -0.004725 0.013434 0.000000 0.000000 0.000000
# 4 0.000000 0.000000 0.000000 0.027596 0.000000 0.000000
# 5 0.000000 0.000000 0.000000 0.000000 0.038115 0.000000
# 6 0.000000 0.000000 0.000000 0.000000 0.000000 0.033669
#
#
# Mechanical properties :
#
#
# Convention : Reuss Voigt Hill
#
# Bulk Modulus (GPa) = 54.10168 54.40499 54.25334
# Shear Modulus (GPa) = 27.80842 28.57730 28.19286
#
# Velocity S-wave (km/s) = 3.79733 3.84947 3.82349
# Velocity P-wave (km/s) = 6.87604 6.92596 6.90105
#
# Compressibility (1/GPa) = 0.01848371
#
# Stress axis : x y z
#
# Youngs Moduli (GPa) = 65.95114 56.25999 74.43604
#
# Poissons Ratio (x) = 0.32394 0.25763
# Poissons Ratio (y) = 0.37975 0.35170
# Poissons Ratio (z) = 0.22826 0.26582
#
# Static dielectric constant tensor:
#      x y z
#    x 3.798810 0.000000 0.000000 
#    y 0.000000 3.632400 0.000000 
#    z 0.000000 0.000000 3.451350 
# 
# 
# High freq. dielectric constant tensor:
#      x y z
#    x 1.758360 0.000000 0.000000 
#    y 0.000000 1.751560 0.000000 
#    z 0.000000 0.000000 1.742940 
# 
# From -- ./inp_files/8204.got.cif
#   From: 2010.03.12/outbox.cif.g09.slc.cpg/sg61_5_cif.got.tgz:8204.got - 2010.04.10 19:05:03.
