data_PCOD8249369
_publ_section_title
;
Structure prediction by ZEFSAII (Michael W. Deem and Ramdas Pophale) SiO2 
 PCOD8249369
Probable space group: P B C A
;
_chemical_formula_sum "Si O2"
_cell_formula_units_Z 64
_cell_length_a 11.268839
_cell_length_b 16.570668
_cell_length_c 17.489333
_cell_angle_alpha 90.000000
_cell_angle_beta 90.000000
_cell_angle_gamma 90.000000
_cell_volume 3265.821449
_symmetry_space_group_name_H-M "P B C A"
_symmetry_group_IT_number 61
_symmetry_cell_setting 'orthorhombic'
loop_
_space_group_symop_operation_xyz
x,y,z
1/2-x,-y,1/2+z
1/2+x,1/2-y,-z
-x,1/2+y,1/2-z
-x,-y,-z
1/2+x,y,1/2-z
1/2-x,1/2+y,z
x,1/2-y,1/2+z
loop_
_atom_site_type_symbol
_atom_site_label
_atom_site_fract_x
_atom_site_fract_y
_atom_site_fract_z
Si Si1 0.323394 0.716333 0.591692
Si Si2 0.224323 0.693816 0.948246
Si Si3 0.542955 0.111138 0.573627
Si Si4 0.935619 0.219161 0.160769
Si Si5 0.418762 0.066440 0.426042
Si Si6 0.822579 0.947600 0.480921
Si Si7 0.059146 0.896371 0.555110
Si Si8 0.086819 0.746439 0.163749
O O1 0.292139 0.747577 0.506849
O O2 0.449629 0.747929 0.617612
O O3 0.317519 0.619563 0.585326
O O4 0.228010 0.746025 0.653724
O O5 0.316352 0.625942 0.921410
O O6 0.183710 0.742201 0.873731
O O7 0.105222 0.657161 0.984460
O O8 0.498974 0.116730 0.486188
O O9 0.474783 0.175813 0.625470
O O10 0.521503 0.018226 0.600152
O O11 0.916956 0.122818 0.149033
O O12 0.947614 0.243368 0.248312
O O13 0.293987 0.048599 0.467024
O O14 0.930459 0.932339 0.539016
O O15 0.844842 0.031373 0.434903
O O16 0.046316 0.838931 0.628442
#
# Coordination Sequence:
#
# PCOD8249369 Si02
#       8
#     8   8   8   8   8   8   8   8
#     4  11  22  41  65  90 124 169 215 264 310 383
#     4  11  20  37  64  90 118 166 219 263 307 381
#     4  11  22  40  65  93 122 164 216 271 313 374
#     4  12  25  41  63  95 129 174 211 262 332 393
#     4  11  22  39  69  97 118 164 226 272 306 373
#     4  11  19  38  67  96 121 156 223 272 316 356
#     4  10  22  38  63  95 124 165 211 274 314 376
#     4  11  26  42  59  90 137 175 204 255 339 392
#
# _framework density 19.596907000000002
#
# number of rings (size 3 to 8) (size 9 to 14) (size 15 to 20)
#    0.000    1.000    6.250    1.500    1.750    0.000 
#    2.250    0.000    0.000    0.000    0.000    0.000 
#    0.000    0.000    0.000    0.000    0.000    0.000 
#
# Total GULP energy -793511.952559 kJ/mol
# GULP energy per Si atom -12398.624259 kJ/mol
# Density = 1.955230 g / cm^3
# Si number density = 19.596907 Si / 1000 Ang^3
#
#
#
# Elastic Constant Matrix: (Units=GPa)
#
#
# Indices 1 2 3 4 5 6 
#
# 1 86.7975 26.3385 30.4009 0.0000 0.0000 0.0000
# 2 26.3385 141.4993 62.8882 0.0000 0.0000 0.0000
# 3 30.4009 62.8882 95.2710 0.0000 0.0000 0.0000
# 4 0.0000 0.0000 0.0000 20.5140 0.0000 0.0000
# 5 0.0000 0.0000 0.0000 0.0000 16.2343 0.0000
# 6 0.0000 0.0000 0.0000 0.0000 0.0000 33.9012
#
#
#
# Elastic Compliance Matrix: (Units=1/GPa)
#
#
# Indices 1 2 3 4 5 6 
#
# 1 0.013037 -0.000818 -0.003620 0.000000 0.000000 0.000000
# 2 -0.000818 0.010053 -0.006375 0.000000 0.000000 0.000000
# 3 -0.003620 -0.006375 0.015860 0.000000 0.000000 0.000000
# 4 0.000000 0.000000 0.000000 0.048747 0.000000 0.000000
# 5 0.000000 0.000000 0.000000 0.000000 0.061598 0.000000
# 6 0.000000 0.000000 0.000000 0.000000 0.000000 0.029497
#
#
# Mechanical properties :
#
#
# Convention : Reuss Voigt Hill
#
# Bulk Modulus (GPa) = 57.72434 62.53588 60.13011
# Shear Modulus (GPa) = 24.24921 27.72592 25.98757
#
# Velocity S-wave (km/s) = 3.52149 3.76548 3.64552
# Velocity P-wave (km/s) = 6.78633 7.13341 6.96203
#
# Compressibility (1/GPa) = 0.01732371
#
# Stress axis : x y z
#
# Youngs Moduli (GPa) = 76.70330 99.47679 63.05313
#
# Poissons Ratio (x) = 0.08134 0.22828
# Poissons Ratio (y) = 0.06272 0.40195
# Poissons Ratio (z) = 0.27770 0.63414
#
# Static dielectric constant tensor:
#      x y z
#    x 3.734390 0.000000 0.000000 
#    y 0.000000 3.870880 0.000000 
#    z 0.000000 0.000000 3.144400 
# 
# 
# High freq. dielectric constant tensor:
#      x y z
#    x 1.780980 0.000000 0.000000 
#    y 0.000000 1.784060 0.000000 
#    z 0.000000 0.000000 1.715100 
# 
# From -- ./inp_files/9308.got.cif
#   From: 2010.03.12/outbox.cif.g09.slc.cpg/sg61_5_cif.got.tgz:9308.got - 2010.04.10 19:05:03.
