data_PCOD8249005
_publ_section_title
;
Structure prediction by ZEFSAII (Michael W. Deem and Ramdas Pophale) SiO2 
 PCOD8249005
Probable space group: P B C A
;
_chemical_formula_sum "Si O2"
_cell_formula_units_Z 64
_cell_length_a 16.144608
_cell_length_b 9.181021
_cell_length_c 18.860155
_cell_angle_alpha 90.000000
_cell_angle_beta 90.000000
_cell_angle_gamma 90.000000
_cell_volume 2795.527333
_symmetry_space_group_name_H-M "P B C A"
_symmetry_group_IT_number 61
_symmetry_cell_setting 'orthorhombic'
loop_
_space_group_symop_operation_xyz
x,y,z
1/2-x,-y,1/2+z
1/2+x,1/2-y,-z
-x,1/2+y,1/2-z
-x,-y,-z
1/2+x,y,1/2-z
1/2-x,1/2+y,z
x,1/2-y,1/2+z
loop_
_atom_site_type_symbol
_atom_site_label
_atom_site_fract_x
_atom_site_fract_y
_atom_site_fract_z
Si Si1 0.982567 0.594682 0.300787
Si Si2 0.700459 0.128426 0.899734
Si Si3 0.639857 0.630558 0.594015
Si Si4 0.217968 0.102940 0.014627
Si Si5 0.701833 0.363007 0.790459
Si Si6 0.228920 0.398889 0.294749
Si Si7 0.980053 0.577366 0.838072
Si Si8 0.612335 0.539984 0.093207
O O1 0.885649 0.567685 0.311120
O O2 0.019734 0.537558 0.226378
O O3 0.001846 0.766525 0.303664
O O4 0.023005 0.515307 0.369867
O O5 0.739343 0.245274 0.844910
O O6 0.608427 0.077187 0.877526
O O7 0.700925 0.226618 0.971697
O O8 0.762051 0.990207 0.912859
O O9 0.701673 0.566854 0.534358
O O10 0.680607 0.624401 0.672032
O O11 0.552467 0.543346 0.603439
O O12 0.622924 0.794272 0.570310
O O13 0.131938 0.052214 0.977602
O O14 0.688665 0.259357 0.720420
O O15 0.763694 0.499047 0.776532
O O16 0.176820 0.494152 0.347594
#
# Coordination Sequence:
#
# PCOD8249005 Si02
#       8
#     8   8   8   8   8   8   8   8
#     4  10  21  40  62  99 132 161 203 274 340 393
#     4  11  24  42  63  92 131 174 218 268 311 387
#     4  10  20  38  66  91 129 168 213 269 320 384
#     4  11  23  43  64  90 127 177 231 258 305 382
#     4  11  22  38  62  97 129 161 207 269 335 384
#     4  11  20  36  65  99 122 162 211 266 333 387
#     4  10  22  42  66  97 134 164 211 272 341 393
#     4  10  20  37  65  91 124 168 213 266 316 379
#
# _framework density 22.893713000000002
#
# number of rings (size 3 to 8) (size 9 to 14) (size 15 to 20)
#    0.000    1.500    3.750    2.250    0.000    0.500 
#    2.250    5.625    0.000    0.000    0.000    0.000 
#    0.000    0.000    0.000    0.000    0.000    0.000 
#
# Total GULP energy -793059.745007 kJ/mol
# GULP energy per Si atom -12391.558516 kJ/mol
# Density = 2.284161 g / cm^3
# Si number density = 22.893713 Si / 1000 Ang^3
#
#
#
# Elastic Constant Matrix: (Units=GPa)
#
#
# Indices 1 2 3 4 5 6 
#
# 1 97.3646 31.5454 35.7833 0.0000 0.0000 0.0000
# 2 31.5454 77.0226 14.6781 0.0000 0.0000 0.0000
# 3 35.7833 14.6781 53.5017 0.0000 0.0000 0.0000
# 4 0.0000 0.0000 0.0000 40.2773 0.0000 0.0000
# 5 0.0000 0.0000 0.0000 0.0000 28.9956 0.0000
# 6 0.0000 0.0000 0.0000 0.0000 0.0000 28.4532
#
#
#
# Elastic Compliance Matrix: (Units=1/GPa)
#
#
# Indices 1 2 3 4 5 6 
#
# 1 0.014933 -0.004445 -0.008768 0.000000 0.000000 0.000000
# 2 -0.004445 0.015023 -0.001148 0.000000 0.000000 0.000000
# 3 -0.008768 -0.001148 0.024870 0.000000 0.000000 0.000000
# 4 0.000000 0.000000 0.000000 0.024828 0.000000 0.000000
# 5 0.000000 0.000000 0.000000 0.000000 0.034488 0.000000
# 6 0.000000 0.000000 0.000000 0.000000 0.000000 0.035145
#
#
# Mechanical properties :
#
#
# Convention : Reuss Voigt Hill
#
# Bulk Modulus (GPa) = 38.31005 43.54472 40.92738
# Shear Modulus (GPa) = 26.77915 29.27069 28.02492
#
# Velocity S-wave (km/s) = 3.42382 3.57956 3.50256
# Velocity P-wave (km/s) = 5.69212 6.01215 5.85433
#
# Compressibility (1/GPa) = 0.02610281
#
# Stress axis : x y z
#
# Youngs Moduli (GPa) = 66.96408 66.56628 40.20832
#
# Poissons Ratio (x) = 0.29590 0.35256
# Poissons Ratio (y) = 0.29767 0.04617
# Poissons Ratio (z) = 0.58716 0.07644
#
# Static dielectric constant tensor:
#      x y z
#    x 4.159660 0.000000 0.000000 
#    y 0.000000 4.195170 0.000000 
#    z 0.000000 0.000000 4.372380 
# 
# 
# High freq. dielectric constant tensor:
#      x y z
#    x 1.891800 0.000000 0.000000 
#    y 0.000000 1.905400 0.000000 
#    z 0.000000 0.000000 1.906370 
# 
# From -- ./inp_files/10553.got.cif
#   From: 2010.03.12/outbox.cif.g09.slc.cpg/sg61_6_cif.got.tgz:10553.got - 2010.04.10 19:05:03.
