data_PCOD8249108
_publ_section_title
;
Structure prediction by ZEFSAII (Michael W. Deem and Ramdas Pophale) SiO2 
 PCOD8249108
Probable space group: P B C A
;
_chemical_formula_sum "Si O2"
_cell_formula_units_Z 64
_cell_length_a 9.277734
_cell_length_b 21.878408
_cell_length_c 14.460371
_cell_angle_alpha 90.000000
_cell_angle_beta 90.000000
_cell_angle_gamma 90.000000
_cell_volume 2935.195746
_symmetry_space_group_name_H-M "P B C A"
_symmetry_group_IT_number 61
_symmetry_cell_setting 'orthorhombic'
loop_
_space_group_symop_operation_xyz
x,y,z
1/2-x,-y,1/2+z
1/2+x,1/2-y,-z
-x,1/2+y,1/2-z
-x,-y,-z
1/2+x,y,1/2-z
1/2-x,1/2+y,z
x,1/2-y,1/2+z
loop_
_atom_site_type_symbol
_atom_site_label
_atom_site_fract_x
_atom_site_fract_y
_atom_site_fract_z
Si Si1 0.733232 0.613443 0.328899
Si Si2 0.628559 0.544284 0.664050
Si Si3 0.091348 0.628768 0.994223
Si Si4 0.050151 0.245274 0.437572
Si Si5 0.306751 0.934306 0.962012
Si Si6 0.205867 0.023676 0.664998
Si Si7 0.994000 0.815222 0.752490
Si Si8 0.150301 0.693289 0.437577
O O1 0.730105 0.628391 0.438516
O O2 0.772966 0.543295 0.316014
O O3 0.575115 0.625850 0.287707
O O4 0.836720 0.660568 0.277285
O O5 0.638763 0.607677 0.607100
O O6 0.713375 0.489739 0.610077
O O7 0.710245 0.562998 0.758119
O O8 0.463985 0.526039 0.683119
O O9 0.013790 0.693760 0.993319
O O10 0.977494 0.578401 0.032873
O O11 0.015243 0.235623 0.328900
O O12 0.222845 0.243931 0.453163
O O13 0.966287 0.304915 0.477462
O O14 0.250314 0.953472 0.063361
O O15 0.217224 0.874775 0.928612
O O16 0.071167 0.788162 0.842615
#
# Coordination Sequence:
#
# PCOD8249108 Si02
#       8
#     8   8   8   8   8   8   8   8
#     4  11  19  36  62  95 123 167 207 266 311 376
#     4  11  20  39  61  93 132 176 216 265 330 396
#     4   9  19  38  63  85 127 175 214 262 321 390
#     4  10  24  42  66  95 122 169 228 271 335 381
#     4  10  20  42  62  95 133 173 218 264 334 392
#     4  11  21  35  64  94 133 179 212 264 331 396
#     4  11  23  39  65  96 126 157 220 271 318 378
#     4  11  24  44  67  92 127 171 215 278 324 395
#
# _framework density 21.804338999999999
#
# number of rings (size 3 to 8) (size 9 to 14) (size 15 to 20)
#    0.000    1.500    3.750    2.250    5.250    0.000 
#    4.500    1.250    0.000    0.000    0.000    0.000 
#    0.000    0.000    0.000    0.000    0.000    0.000 
#
# Total GULP energy -793386.159588 kJ/mol
# GULP energy per Si atom -12396.658744 kJ/mol
# Density = 2.175471 g / cm^3
# Si number density = 21.804339 Si / 1000 Ang^3
#
#
#
# Elastic Constant Matrix: (Units=GPa)
#
#
# Indices 1 2 3 4 5 6 
#
# 1 85.1181 9.4434 51.2538 0.0000 0.0000 0.0000
# 2 9.4434 23.1084 10.3967 0.0000 0.0000 0.0000
# 3 51.2538 10.3967 138.0873 0.0000 0.0000 0.0000
# 4 0.0000 0.0000 0.0000 33.4065 0.0000 0.0000
# 5 0.0000 0.0000 0.0000 0.0000 44.8389 0.0000
# 6 0.0000 0.0000 0.0000 0.0000 0.0000 21.5218
#
#
#
# Elastic Compliance Matrix: (Units=1/GPa)
#
#
# Indices 1 2 3 4 5 6 
#
# 1 0.015457 -0.003866 -0.005446 0.000000 0.000000 0.000000
# 2 -0.003866 0.045759 -0.002010 0.000000 0.000000 0.000000
# 3 -0.005446 -0.002010 0.009415 0.000000 0.000000 0.000000
# 4 0.000000 0.000000 0.000000 0.029934 0.000000 0.000000
# 5 0.000000 0.000000 0.000000 0.000000 0.022302 0.000000
# 6 0.000000 0.000000 0.000000 0.000000 0.000000 0.046465
#
#
# Mechanical properties :
#
#
# Convention : Reuss Voigt Hill
#
# Bulk Modulus (GPa) = 20.83980 43.16685 32.00333
# Shear Modulus (GPa) = 24.04187 31.63475 27.83831
#
# Velocity S-wave (km/s) = 3.32417 3.81313 3.57702
# Velocity P-wave (km/s) = 4.93071 6.26314 5.63644
#
# Compressibility (1/GPa) = 0.04798510
#
# Stress axis : x y z
#
# Youngs Moduli (GPa) = 64.69733 21.85375 106.21912
#
# Poissons Ratio (x) = 0.08449 0.57846
# Poissons Ratio (y) = 0.25014 0.21352
# Poissons Ratio (z) = 0.35234 0.04393
#
# Static dielectric constant tensor:
#      x y z
#    x 3.890560 0.000000 0.000000 
#    y 0.000000 3.623030 0.000000 
#    z 0.000000 0.000000 4.124610 
# 
# 
# High freq. dielectric constant tensor:
#      x y z
#    x 1.850170 0.000000 0.000000 
#    y 0.000000 1.827050 0.000000 
#    z 0.000000 0.000000 1.869000 
# 
# From -- ./inp_files/7258.got.cif
#   From: 2010.03.12/outbox.cif.g09.slc.cpg/sg61_4_cif.got.tgz:7258.got - 2010.04.10 19:05:03.
