data_PCOD8249109
_publ_section_title
;
Structure prediction by ZEFSAII (Michael W. Deem and Ramdas Pophale) SiO2 
 PCOD8249109
Probable space group: P B C A
;
_chemical_formula_sum "Si O2"
_cell_formula_units_Z 64
_cell_length_a 13.781460
_cell_length_b 20.412409
_cell_length_c 11.091436
_cell_angle_alpha 90.000000
_cell_angle_beta 90.000000
_cell_angle_gamma 90.000000
_cell_volume 3120.162897
_symmetry_space_group_name_H-M "P B C A"
_symmetry_group_IT_number 61
_symmetry_cell_setting 'orthorhombic'
loop_
_space_group_symop_operation_xyz
x,y,z
1/2-x,-y,1/2+z
1/2+x,1/2-y,-z
-x,1/2+y,1/2-z
-x,-y,-z
1/2+x,y,1/2-z
1/2-x,1/2+y,z
x,1/2-y,1/2+z
loop_
_atom_site_type_symbol
_atom_site_label
_atom_site_fract_x
_atom_site_fract_y
_atom_site_fract_z
Si Si1 0.989161 0.567626 0.657281
Si Si2 0.421132 0.817281 0.893347
Si Si3 0.403698 0.680728 0.992790
Si Si4 0.350504 0.025892 0.476296
Si Si5 0.226210 0.906339 0.551066
Si Si6 0.460002 0.128575 0.899583
Si Si7 0.275014 0.133446 0.309657
Si Si8 0.446485 0.275609 0.814077
O O1 0.089001 0.551277 0.590370
O O2 0.007920 0.574370 0.800667
O O3 0.943392 0.636213 0.615366
O O4 0.916140 0.508167 0.627152
O O5 0.373317 0.752807 0.950757
O O6 0.339984 0.851456 0.810745
O O7 0.514141 0.793136 0.818302
O O8 0.457375 0.866662 0.997779
O O9 0.306111 0.650477 0.045109
O O10 0.487877 0.684278 0.092238
O O11 0.296487 0.087998 0.423067
O O12 0.269680 0.977030 0.525069
O O13 0.140545 0.893989 0.457357
O O14 0.191191 0.904409 0.689260
O O15 0.446161 0.198362 0.835308
O O16 0.335871 0.200330 0.323147
#
# Coordination Sequence:
#
# PCOD8249109 Si02
#       8
#     8   8   8   8   8   8   8   8
#     4  10  21  44  68  89 129 179 217 261 318 391
#     4  11  23  40  66  98 132 166 212 274 332 385
#     4  10  20  42  64  94 128 173 209 260 327 394
#     4  10  25  43  66  92 127 182 222 260 321 390
#     4  11  24  41  65  94 132 168 222 267 320 385
#     4  11  24  42  66 101 131 164 217 278 324 382
#     4  12  24  43  65  97 129 173 217 268 330 390
#     4  11  21  41  67  93 134 168 211 269 330 397
#
# _framework density 20.511751
#
# number of rings (size 3 to 8) (size 9 to 14) (size 15 to 20)
#    0.000    1.250    5.000    0.750    1.750    1.000 
#    4.500    1.250    0.000    0.000    0.000    0.000 
#    0.000    0.000    0.000    0.000    0.000    0.000 
#
# Total GULP energy -793779.101105 kJ/mol
# GULP energy per Si atom -12402.798455 kJ/mol
# Density = 2.046506 g / cm^3
# Si number density = 20.511751 Si / 1000 Ang^3
#
#
#
# Elastic Constant Matrix: (Units=GPa)
#
#
# Indices 1 2 3 4 5 6 
#
# 1 80.9437 18.7351 23.4903 0.0000 0.0000 0.0000
# 2 18.7351 46.1044 12.0999 0.0000 0.0000 0.0000
# 3 23.4903 12.0999 100.0543 0.0000 0.0000 0.0000
# 4 0.0000 0.0000 0.0000 31.7196 0.0000 0.0000
# 5 0.0000 0.0000 0.0000 0.0000 51.1119 0.0000
# 6 0.0000 0.0000 0.0000 0.0000 0.0000 4.3858
#
#
#
# Elastic Compliance Matrix: (Units=1/GPa)
#
#
# Indices 1 2 3 4 5 6 
#
# 1 0.014333 -0.005103 -0.002748 0.000000 0.000000 0.000000
# 2 -0.005103 0.024218 -0.001731 0.000000 0.000000 0.000000
# 3 -0.002748 -0.001731 0.010849 0.000000 0.000000 0.000000
# 4 0.000000 0.000000 0.000000 0.031526 0.000000 0.000000
# 5 0.000000 0.000000 0.000000 0.000000 0.019565 0.000000
# 6 0.000000 0.000000 0.000000 0.000000 0.000000 0.228010
#
#
# Mechanical properties :
#
#
# Convention : Reuss Voigt Hill
#
# Bulk Modulus (GPa) = 33.07279 37.30590 35.18935
# Shear Modulus (GPa) = 13.97650 28.96193 21.46921
#
# Velocity S-wave (km/s) = 2.61318 3.76169 3.23875
# Velocity P-wave (km/s) = 5.02631 6.09050 5.58381
#
# Compressibility (1/GPa) = 0.03023633
#
# Stress axis : x y z
#
# Youngs Moduli (GPa) = 69.76962 41.29187 92.17441
#
# Poissons Ratio (x) = 0.21072 0.25328
# Poissons Ratio (y) = 0.35605 0.15952
# Poissons Ratio (z) = 0.19172 0.07146
#
# Static dielectric constant tensor:
#      x y z
#    x 3.619680 0.000000 0.000000 
#    y 0.000000 3.626010 0.000000 
#    z 0.000000 0.000000 3.696980 
# 
# 
# High freq. dielectric constant tensor:
#      x y z
#    x 1.801630 0.000000 0.000000 
#    y 0.000000 1.800010 0.000000 
#    z 0.000000 0.000000 1.806620 
# 
# From -- ./inp_files/6011.got.cif
#   From: 2010.03.12/outbox.cif.g09.slc.cpg/sg61_4_cif.got.tgz:6011.got - 2010.04.10 19:05:03.
