data_PCOD8249371
_publ_section_title
;
Structure prediction by ZEFSAII (Michael W. Deem and Ramdas Pophale) SiO2 
 PCOD8249371
Probable space group: P B C A
;
_chemical_formula_sum "Si O2"
_cell_formula_units_Z 64
_cell_length_a 9.639261
_cell_length_b 11.861720
_cell_length_c 28.941328
_cell_angle_alpha 90.000000
_cell_angle_beta 90.000000
_cell_angle_gamma 90.000000
_cell_volume 3309.099783
_symmetry_space_group_name_H-M "P B C A"
_symmetry_group_IT_number 61
_symmetry_cell_setting 'orthorhombic'
loop_
_space_group_symop_operation_xyz
x,y,z
1/2-x,-y,1/2+z
1/2+x,1/2-y,-z
-x,1/2+y,1/2-z
-x,-y,-z
1/2+x,y,1/2-z
1/2-x,1/2+y,z
x,1/2-y,1/2+z
loop_
_atom_site_type_symbol
_atom_site_label
_atom_site_fract_x
_atom_site_fract_y
_atom_site_fract_z
Si Si1 0.101135 0.904119 0.259226
Si Si2 0.146848 0.950943 0.757393
Si Si3 0.102593 0.022368 0.540124
Si Si4 0.201725 0.761988 0.686660
Si Si5 0.662704 0.711664 0.419170
Si Si6 0.478741 0.756579 0.572364
Si Si7 0.025622 0.717312 0.324306
Si Si8 0.601895 0.606156 0.991415
O O1 0.149051 0.851721 0.210555
O O2 0.116449 0.817117 0.301575
O O3 0.196286 0.012916 0.268967
O O4 0.941188 0.939131 0.255728
O O5 0.138389 0.867421 0.713960
O O6 0.081367 0.899135 0.803662
O O7 0.036794 0.121772 0.570656
O O8 0.246166 0.054999 0.515085
O O9 0.103409 0.912512 0.572281
O O10 0.000000 0.000000 0.500000
O O11 0.146133 0.759430 0.634521
O O12 0.366328 0.767133 0.688624
O O13 0.823130 0.697146 0.434359
O O14 0.579739 0.811142 0.446773
O O15 0.547221 0.787981 0.621057
O O16 0.583267 0.809585 0.534766
O O17 0.500000 0.500000 0.000000
#
# Coordination Sequence:
#
# PCOD8249371 Si02
#       8
#     8   8   8   8   8   8   8   8
#     4  11  22  39  63  91 123 163 199 255 311 362
#     4  11  22  39  63  87 126 160 200 254 313 360
#     4  11  22  40  66  88 125 163 207 257 307 369
#     4  10  22  38  64  92 120 162 215 249 298 374
#     4  10  22  39  65  96 118 164 217 250 305 380
#     4  10  22  41  63  91 124 164 210 256 310 370
#     4  10  22  40  60  92 122 159 211 254 301 374
#     4  11  22  40  64  91 126 158 202 262 314 365
#
# _framework density 19.340608
#
# number of rings (size 3 to 8) (size 9 to 14) (size 15 to 20)
#    0.000    1.500    5.000    0.000    1.750    2.000 
#    2.250    1.250    0.000    0.000    0.000    0.000 
#    0.000    0.000    0.000    0.000    0.000    0.000 
#
# Total GULP energy -793413.324324 kJ/mol
# GULP energy per Si atom -12397.083193 kJ/mol
# Density = 1.929659 g / cm^3
# Si number density = 19.340608 Si / 1000 Ang^3
#
#
#
# Elastic Constant Matrix: (Units=GPa)
#
#
# Indices 1 2 3 4 5 6 
#
# 1 57.6037 31.4497 41.0055 0.0000 0.0000 0.0000
# 2 31.4497 116.0927 54.6892 0.0000 0.0000 0.0000
# 3 41.0055 54.6892 145.1768 0.0000 0.0000 0.0000
# 4 0.0000 0.0000 0.0000 21.7112 0.0000 0.0000
# 5 0.0000 0.0000 0.0000 0.0000 28.8693 0.0000
# 6 0.0000 0.0000 0.0000 0.0000 0.0000 38.2050
#
#
#
# Elastic Compliance Matrix: (Units=1/GPa)
#
#
# Indices 1 2 3 4 5 6 
#
# 1 0.023073 -0.003867 -0.005061 0.000000 0.000000 0.000000
# 2 -0.003867 0.011120 -0.003097 0.000000 0.000000 0.000000
# 3 -0.005061 -0.003097 0.009484 0.000000 0.000000 0.000000
# 4 0.000000 0.000000 0.000000 0.046059 0.000000 0.000000
# 5 0.000000 0.000000 0.000000 0.000000 0.034639 0.000000
# 6 0.000000 0.000000 0.000000 0.000000 0.000000 0.026175
#
#
# Mechanical properties :
#
#
# Convention : Reuss Voigt Hill
#
# Bulk Modulus (GPa) = 50.94370 63.68465 57.31417
# Shear Modulus (GPa) = 27.60268 30.53902 29.07085
#
# Velocity S-wave (km/s) = 3.78191 3.97799 3.88119
# Velocity P-wave (km/s) = 6.74299 7.35518 7.05573
#
# Compressibility (1/GPa) = 0.01962951
#
# Stress axis : x y z
#
# Youngs Moduli (GPa) = 43.33984 89.92651 105.43926
#
# Poissons Ratio (x) = 0.34772 0.53358
# Poissons Ratio (y) = 0.16758 0.32653
# Poissons Ratio (z) = 0.21932 0.27849
#
# Static dielectric constant tensor:
#      x y z
#    x 3.471340 0.000000 0.000000 
#    y 0.000000 3.500520 0.000000 
#    z 0.000000 0.000000 3.404600 
# 
# 
# High freq. dielectric constant tensor:
#      x y z
#    x 1.742950 0.000000 0.000000 
#    y 0.000000 1.769690 0.000000 
#    z 0.000000 0.000000 1.749430 
# 
# From -- ./inp_files/2426.got.cif
#   From: 2010.03.12/outbox.cif.g09.slc.cpg/sg61_2_cif.got.tgz:2426.got - 2010.04.10 19:05:03.
