data_PCOD8249442
_publ_section_title
;
Structure prediction by ZEFSAII (Michael W. Deem and Ramdas Pophale) SiO2 
 PCOD8249442
Probable space group: P B C A
;
_chemical_formula_sum "Si O2"
_cell_formula_units_Z 48
_cell_length_a 9.179545
_cell_length_b 15.878520
_cell_length_c 14.965695
_cell_angle_alpha 90.000000
_cell_angle_beta 90.000000
_cell_angle_gamma 90.000000
_cell_volume 2181.363619
_symmetry_space_group_name_H-M "P B C A"
_symmetry_group_IT_number 61
_symmetry_cell_setting 'orthorhombic'
loop_
_space_group_symop_operation_xyz
x,y,z
1/2-x,-y,1/2+z
1/2+x,1/2-y,-z
-x,1/2+y,1/2-z
-x,-y,-z
1/2+x,y,1/2-z
1/2-x,1/2+y,z
x,1/2-y,1/2+z
loop_
_atom_site_type_symbol
_atom_site_label
_atom_site_fract_x
_atom_site_fract_y
_atom_site_fract_z
Si Si1 0.069264 0.814128 0.730992
Si Si2 0.447727 0.228313 0.910613
Si Si3 0.891677 0.035251 0.600418
Si Si4 0.815338 0.932330 0.761742
Si Si5 0.778154 0.979135 0.425540
Si Si6 0.779905 0.212532 0.925660
O O1 0.093110 0.747457 0.809181
O O2 0.151614 0.900917 0.750865
O O3 0.117132 0.767067 0.640203
O O4 0.904453 0.848869 0.732132
O O5 0.403288 0.132311 0.924757
O O6 0.617049 0.249810 0.928507
O O7 0.351122 0.284234 0.976820
O O8 0.053580 0.996196 0.595748
O O9 0.835517 0.014394 0.699679
O O10 0.771691 0.994702 0.532250
O O11 0.828510 0.961060 0.866290
O O12 0.733354 0.884827 0.397726
#
# Coordination Sequence:
#
# PCOD8249442 Si02
#       6
#     8   8   8   8   8   8
#     4  12  25  43  68  98 139 178 226 286 339 408
#     4  11  25  43  68 101 134 178 226 279 344 406
#     4  10  22  41  70  94 135 180 220 279 341 404
#     4  12  23  44  69  98 132 177 231 278 339 406
#     4  10  22  43  68  98 134 177 226 274 342 407
#     4  11  25  44  68  99 138 176 226 279 341 407
#
# _framework density 22.004584999999999
#
# number of rings (size 3 to 8) (size 9 to 14) (size 15 to 20)
#    0.000    1.000    3.333    3.000    7.000    0.000 
#    3.000    1.667    0.000    0.000    0.000    0.000 
#    0.000    0.000    0.000    0.000    0.000    0.000 
#
# Total GULP energy -594945.972229 kJ/mol
# GULP energy per Si atom -12394.707755 kJ/mol
# Density = 2.195450 g / cm^3
# Si number density = 22.004585 Si / 1000 Ang^3
#
#
#
# Elastic Constant Matrix: (Units=GPa)
#
#
# Indices 1 2 3 4 5 6 
#
# 1 42.9438 33.9578 39.6677 0.0000 0.0000 0.0000
# 2 33.9578 75.3441 33.4852 0.0000 0.0000 0.0000
# 3 39.6677 33.4852 123.2401 0.0000 0.0000 0.0000
# 4 0.0000 0.0000 0.0000 45.2123 0.0000 0.0000
# 5 0.0000 0.0000 0.0000 0.0000 37.4223 0.0000
# 6 0.0000 0.0000 0.0000 0.0000 0.0000 36.2073
#
#
#
# Elastic Compliance Matrix: (Units=1/GPa)
#
#
# Indices 1 2 3 4 5 6 
#
# 1 0.045320 -0.015858 -0.010279 0.000000 0.000000 0.000000
# 2 -0.015858 0.020644 -0.000505 0.000000 0.000000 0.000000
# 3 -0.010279 -0.000505 0.011560 0.000000 0.000000 0.000000
# 4 0.000000 0.000000 0.000000 0.022118 0.000000 0.000000
# 5 0.000000 0.000000 0.000000 0.000000 0.026722 0.000000
# 6 0.000000 0.000000 0.000000 0.000000 0.000000 0.027619
#
#
# Mechanical properties :
#
#
# Convention : Reuss Voigt Hill
#
# Bulk Modulus (GPa) = 41.25186 50.63881 45.94534
# Shear Modulus (GPa) = 23.21840 32.72953 27.97396
#
# Velocity S-wave (km/s) = 3.25185 3.86086 3.56937
# Velocity P-wave (km/s) = 5.73472 6.55269 6.15730
#
# Compressibility (1/GPa) = 0.02424133
#
# Stress axis : x y z
#
# Youngs Moduli (GPa) = 22.06510 48.44022 86.50614
#
# Poissons Ratio (x) = 0.76816 0.88917
# Poissons Ratio (y) = 0.34991 0.04368
# Poissons Ratio (z) = 0.22680 0.02446
#
# Static dielectric constant tensor:
#      x y z
#    x 3.913870 0.000000 0.000000 
#    y 0.000000 3.796030 0.000000 
#    z 0.000000 0.000000 3.956880 
# 
# 
# High freq. dielectric constant tensor:
#      x y z
#    x 1.854290 0.000000 0.000000 
#    y 0.000000 1.869020 0.000000 
#    z 0.000000 0.000000 1.871730 
# 
# From -- ./inp_files/7052.got.cif
#   From: 2010.03.12/outbox.cif.g09.slc.cpg/sg61_4_cif.got.tgz:7052.got - 2010.04.10 19:05:03.
