data_PCOD8249164
_publ_section_title
;
Structure prediction by ZEFSAII (Michael W. Deem and Ramdas Pophale) SiO2 
 PCOD8249164
Probable space group: P B C A
;
_chemical_formula_sum "Si O2"
_cell_formula_units_Z 64
_cell_length_a 16.164419
_cell_length_b 9.249693
_cell_length_c 19.481309
_cell_angle_alpha 90.000000
_cell_angle_beta 90.000000
_cell_angle_gamma 90.000000
_cell_volume 2912.765707
_symmetry_space_group_name_H-M "P B C A"
_symmetry_group_IT_number 61
_symmetry_cell_setting 'orthorhombic'
loop_
_space_group_symop_operation_xyz
x,y,z
1/2-x,-y,1/2+z
1/2+x,1/2-y,-z
-x,1/2+y,1/2-z
-x,-y,-z
1/2+x,y,1/2-z
1/2-x,1/2+y,z
x,1/2-y,1/2+z
loop_
_atom_site_type_symbol
_atom_site_label
_atom_site_fract_x
_atom_site_fract_y
_atom_site_fract_z
Si Si1 0.287985 0.023729 0.357431
Si Si2 0.945808 0.906960 0.909259
Si Si3 0.956209 0.556578 0.700389
Si Si4 0.684547 0.321728 0.366632
Si Si5 0.336464 0.139516 0.080833
Si Si6 0.563221 0.697342 0.295896
Si Si7 0.619769 0.627880 0.018923
Si Si8 0.775641 0.296357 0.228659
O O1 0.376768 0.949642 0.346713
O O2 0.299387 0.083333 0.434752
O O3 0.259436 0.137883 0.300446
O O4 0.222987 0.896855 0.340164
O O5 0.899701 0.762957 0.883280
O O6 0.964003 0.001413 0.842120
O O7 0.032985 0.856293 0.941682
O O8 0.889703 0.004612 0.960309
O O9 0.942292 0.465138 0.768691
O O10 0.976221 0.723015 0.718339
O O11 0.682525 0.468436 0.412296
O O12 0.757957 0.220349 0.389861
O O13 0.703799 0.345796 0.284264
O O14 0.418148 0.177981 0.124254
O O15 0.357475 0.209365 0.006993
O O16 0.633280 0.796335 0.260371
#
# Coordination Sequence:
#
# PCOD8249164 Si02
#       8
#     8   8   8   8   8   8   8   8
#     4  10  23  39  61  88 125 167 206 258 320 382
#     4  10  22  40  66  90 124 178 207 265 321 387
#     4  10  21  37  59  92 123 162 206 262 324 377
#     4  11  23  38  67  95 125 164 217 272 333 379
#     4  11  23  40  64  96 127 170 218 269 317 396
#     4  10  22  36  61  94 128 161 210 265 326 381
#     4  10  22  44  63  89 132 170 222 254 319 397
#     4  10  22  40  60  94 125 159 207 272 322 379
#
# _framework density 21.972245999999998
#
# number of rings (size 3 to 8) (size 9 to 14) (size 15 to 20)
#    0.000    1.750    1.250    3.000    7.000    2.500 
#    0.000    0.000    2.750    0.000    0.000    0.000 
#    0.000    0.000    0.000    0.000    0.000    0.000 
#
# Total GULP energy -792861.490940 kJ/mol
# GULP energy per Si atom -12388.460796 kJ/mol
# Density = 2.192224 g / cm^3
# Si number density = 21.972246 Si / 1000 Ang^3
#
#
#
# Elastic Constant Matrix: (Units=GPa)
#
#
# Indices 1 2 3 4 5 6 
#
# 1 15.8124 16.9522 6.5602 0.0000 0.0000 0.0000
# 2 16.9522 70.1016 -1.3566 0.0000 0.0000 0.0000
# 3 6.5602 -1.3566 68.5860 0.0000 0.0000 0.0000
# 4 0.0000 0.0000 0.0000 33.3027 0.0000 0.0000
# 5 0.0000 0.0000 0.0000 0.0000 20.1271 0.0000
# 6 0.0000 0.0000 0.0000 0.0000 0.0000 35.3856
#
#
#
# Elastic Compliance Matrix: (Units=1/GPa)
#
#
# Indices 1 2 3 4 5 6 
#
# 1 0.090737 -0.022119 -0.009116 0.000000 0.000000 0.000000
# 2 -0.022119 0.019662 0.002505 0.000000 0.000000 0.000000
# 3 -0.009116 0.002505 0.015502 0.000000 0.000000 0.000000
# 4 0.000000 0.000000 0.000000 0.030028 0.000000 0.000000
# 5 0.000000 0.000000 0.000000 0.000000 0.049684 0.000000
# 6 0.000000 0.000000 0.000000 0.000000 0.000000 0.028260
#
#
# Mechanical properties :
#
#
# Convention : Reuss Voigt Hill
#
# Bulk Modulus (GPa) = 14.61136 22.09017 18.35076
# Shear Modulus (GPa) = 15.91610 26.58602 21.25106
#
# Velocity S-wave (km/s) = 2.69434 3.48225 3.11332
# Velocity P-wave (km/s) = 4.04272 5.12285 4.61450
#
# Compressibility (1/GPa) = 0.06843991
#
# Stress axis : x y z
#
# Youngs Moduli (GPa) = 11.02086 50.85874 64.50886
#
# Poissons Ratio (x) = 1.12493 0.58809
# Poissons Ratio (y) = 0.24377 -0.16156
# Poissons Ratio (z) = 0.10047 -0.12738
#
# Static dielectric constant tensor:
#      x y z
#    x 3.880730 0.000000 0.000000 
#    y 0.000000 3.942510 0.000000 
#    z 0.000000 0.000000 4.304430 
# 
# 
# High freq. dielectric constant tensor:
#      x y z
#    x 1.854660 0.000000 0.000000 
#    y 0.000000 1.867200 0.000000 
#    z 0.000000 0.000000 1.858290 
# 
# From -- ./inp_files/10559.got.cif
#   From: 2010.03.12/outbox.cif.g09.slc.cpg/sg61_6_cif.got.tgz:10559.got - 2010.04.10 19:05:03.
