data_PCOD8249929
_publ_section_title
;
Structure prediction by ZEFSAII (Michael W. Deem and Ramdas Pophale) SiO2 
 PCOD8249929
Probable space group: P B C A
;
_chemical_formula_sum "Si O2"
_cell_formula_units_Z 40
_cell_length_a 12.056163
_cell_length_b 7.550514
_cell_length_c 16.392086
_cell_angle_alpha 90.000000
_cell_angle_beta 90.000000
_cell_angle_gamma 90.000000
_cell_volume 1492.175318
_symmetry_space_group_name_H-M "P B C A"
_symmetry_group_IT_number 61
_symmetry_cell_setting 'orthorhombic'
loop_
_space_group_symop_operation_xyz
x,y,z
1/2-x,-y,1/2+z
1/2+x,1/2-y,-z
-x,1/2+y,1/2-z
-x,-y,-z
1/2+x,y,1/2-z
1/2-x,1/2+y,z
x,1/2-y,1/2+z
loop_
_atom_site_type_symbol
_atom_site_label
_atom_site_fract_x
_atom_site_fract_y
_atom_site_fract_z
Si Si1 0.617983 0.625026 0.621532
Si Si2 0.133717 0.029311 0.904561
Si Si3 0.325883 0.630313 0.076770
Si Si4 0.566712 0.651991 0.807351
Si Si5 0.899084 0.488735 0.896627
O O1 0.738701 0.543704 0.620389
O O2 0.571680 0.607573 0.713110
O O3 0.526967 0.507263 0.570294
O O4 0.606019 0.823255 0.589688
O O5 0.059623 0.128826 0.838021
O O6 0.105950 0.114736 0.992756
O O7 0.353508 0.475581 0.140244
O O8 0.352602 0.814101 0.122153
O O9 0.195281 0.605435 0.046132
O O10 0.602661 0.857727 0.817908
#
# Coordination Sequence:
#
# PCOD8249929 Si02
#       5
#     8   8   8   8   8
#     4  12  29  47  80 112 159 211 259 330 393 472
#     4  12  28  53  77 119 161 204 270 323 397 469
#     4  12  27  50  81 113 159 207 258 331 384 479
#     4  12  28  49  79 109 161 204 264 323 394 467
#     4  12  27  48  79 114 152 209 260 317 402 456
#
# _framework density 26.806504
#
# number of rings (size 3 to 8) (size 9 to 14) (size 15 to 20)
#    0.000    0.000    4.000    4.200    5.600    1.600 
#    0.000    0.000    0.000    0.000    0.000    0.000 
#    0.000    0.000    0.000    0.000    0.000    0.000 
#
# Total GULP energy -495733.179064 kJ/mol
# GULP energy per Si atom -12393.329477 kJ/mol
# Density = 2.674549 g / cm^3
# Si number density = 26.806504 Si / 1000 Ang^3
#
#
#
# Elastic Constant Matrix: (Units=GPa)
#
#
# Indices 1 2 3 4 5 6 
#
# 1 163.9892 41.2036 22.1173 0.0000 0.0000 0.0000
# 2 41.2036 156.1008 34.4151 0.0000 0.0000 0.0000
# 3 22.1173 34.4151 102.9343 0.0000 0.0000 0.0000
# 4 0.0000 0.0000 0.0000 29.1904 0.0000 0.0000
# 5 0.0000 0.0000 0.0000 0.0000 25.0957 0.0000
# 6 0.0000 0.0000 0.0000 0.0000 0.0000 58.6517
#
#
#
# Elastic Compliance Matrix: (Units=1/GPa)
#
#
# Indices 1 2 3 4 5 6 
#
# 1 0.006608 -0.001545 -0.000903 0.000000 0.000000 0.000000
# 2 -0.001545 0.007277 -0.002101 0.000000 0.000000 0.000000
# 3 -0.000903 -0.002101 0.010611 0.000000 0.000000 0.000000
# 4 0.000000 0.000000 0.000000 0.034258 0.000000 0.000000
# 5 0.000000 0.000000 0.000000 0.000000 0.039847 0.000000
# 6 0.000000 0.000000 0.000000 0.000000 0.000000 0.017050
#
#
# Mechanical properties :
#
#
# Convention : Reuss Voigt Hill
#
# Bulk Modulus (GPa) = 64.94416 68.72180 66.83298
# Shear Modulus (GPa) = 38.49616 44.27347 41.38481
#
# Velocity S-wave (km/s) = 3.79367 4.06839 3.93343
# Velocity P-wave (km/s) = 6.59309 6.91093 6.75388
#
# Compressibility (1/GPa) = 0.01539784
#
# Stress axis : x y z
#
# Youngs Moduli (GPa) = 151.33171 137.41624 94.23751
#
# Poissons Ratio (x) = 0.21232 0.08512
# Poissons Ratio (y) = 0.23382 0.19800
# Poissons Ratio (z) = 0.13669 0.28872
#
# Static dielectric constant tensor:
#      x y z
#    x 5.674330 0.000000 0.000000 
#    y 0.000000 4.971370 0.000000 
#    z 0.000000 0.000000 4.572170 
# 
# 
# High freq. dielectric constant tensor:
#      x y z
#    x 2.109310 0.000000 0.000000 
#    y 0.000000 2.091080 0.000000 
#    z 0.000000 0.000000 2.057560 
# 
# From -- ./inp_files/9097.got.cif
#   From: 2010.03.12/outbox.cif.g09.slc.cpg/sg61_5_cif.got.tgz:9097.got - 2010.04.10 19:05:03.
