data_PCOD8249583
_publ_section_title
;
Structure prediction by ZEFSAII (Michael W. Deem and Ramdas Pophale) SiO2 
 PCOD8249583
Probable space group: P B C A
;
_chemical_formula_sum "Si O2"
_cell_formula_units_Z 40
_cell_length_a 7.694990
_cell_length_b 9.234213
_cell_length_c 25.295184
_cell_angle_alpha 90.000000
_cell_angle_beta 90.000000
_cell_angle_gamma 90.000000
_cell_volume 1797.404359
_symmetry_space_group_name_H-M "P B C A"
_symmetry_group_IT_number 61
_symmetry_cell_setting 'orthorhombic'
loop_
_space_group_symop_operation_xyz
x,y,z
1/2-x,-y,1/2+z
1/2+x,1/2-y,-z
-x,1/2+y,1/2-z
-x,-y,-z
1/2+x,y,1/2-z
1/2-x,1/2+y,z
x,1/2-y,1/2+z
loop_
_atom_site_type_symbol
_atom_site_label
_atom_site_fract_x
_atom_site_fract_y
_atom_site_fract_z
Si Si1 0.635455 0.752290 0.206419
Si Si2 0.723399 0.365074 0.034500
Si Si3 0.473800 0.886530 0.114630
Si Si4 0.667526 0.879401 0.461844
Si Si5 0.545915 0.430888 0.706618
O O1 0.520825 0.749275 0.152539
O O2 0.826188 0.699520 0.191065
O O3 0.577975 0.633678 0.248974
O O4 0.638382 0.919249 0.227995
O O5 0.863285 0.424944 0.076393
O O6 0.529178 0.355441 0.059332
O O7 0.796121 0.212167 0.014756
O O8 0.706470 0.458182 0.980797
O O9 0.299012 0.842271 0.085128
O O10 0.443381 0.027093 0.152471
#
# Coordination Sequence:
#
# PCOD8249583 Si02
#       5
#     8   8   8   8   8
#     4  10  23  45  69  98 139 187 239 301 358 433
#     4  11  24  42  71 101 147 180 238 288 354 418
#     4  10  25  42  72 100 146 185 237 291 369 415
#     4  11  24  44  68 105 144 184 235 293 345 435
#     4  10  23  45  69 100 140 184 245 296 364 427
#
# _framework density 22.254311999999999
#
# number of rings (size 3 to 8) (size 9 to 14) (size 15 to 20)
#    1.200    0.400    2.000    1.800    2.800    0.000 
#   10.800    0.000    0.000    0.000    0.000    0.000 
#    0.000    0.000    0.000    0.000    0.000    0.000 
#
# Total GULP energy -495608.029948 kJ/mol
# GULP energy per Si atom -12390.200749 kJ/mol
# Density = 2.220366 g / cm^3
# Si number density = 22.254312 Si / 1000 Ang^3
#
#
#
# Elastic Constant Matrix: (Units=GPa)
#
#
# Indices 1 2 3 4 5 6 
#
# 1 98.8915 7.5698 38.3950 0.0000 0.0000 0.0000
# 2 7.5698 65.9653 4.1171 0.0000 0.0000 0.0000
# 3 38.3950 4.1171 96.8620 0.0000 0.0000 0.0000
# 4 0.0000 0.0000 0.0000 37.1552 0.0000 0.0000
# 5 0.0000 0.0000 0.0000 0.0000 27.5593 0.0000
# 6 0.0000 0.0000 0.0000 0.0000 0.0000 35.8113
#
#
#
# Elastic Compliance Matrix: (Units=1/GPa)
#
#
# Indices 1 2 3 4 5 6 
#
# 1 0.012028 -0.001086 -0.004722 0.000000 0.000000 0.000000
# 2 -0.001086 0.015298 -0.000220 0.000000 0.000000 0.000000
# 3 -0.004722 -0.000220 0.012205 0.000000 0.000000 0.000000
# 4 0.000000 0.000000 0.000000 0.026914 0.000000 0.000000
# 5 0.000000 0.000000 0.000000 0.000000 0.036285 0.000000
# 6 0.000000 0.000000 0.000000 0.000000 0.000000 0.027924
#
#
# Mechanical properties :
#
#
# Convention : Reuss Voigt Hill
#
# Bulk Modulus (GPa) = 36.39460 40.20916 38.30188
# Shear Modulus (GPa) = 32.92325 34.21429 33.56877
#
# Velocity S-wave (km/s) = 3.85048 3.92525 3.88805
# Velocity P-wave (km/s) = 6.01313 6.21697 6.11590
#
# Compressibility (1/GPa) = 0.02747660
#
# Stress axis : x y z
#
# Youngs Moduli (GPa) = 83.13624 65.36891 81.93380
#
# Poissons Ratio (x) = 0.07097 0.38687
# Poissons Ratio (y) = 0.09025 0.01802
# Poissons Ratio (z) = 0.39255 0.01437
#
# Static dielectric constant tensor:
#      x y z
#    x 3.905880 0.000000 0.000000 
#    y 0.000000 3.912810 0.000000 
#    z 0.000000 0.000000 3.762730 
# 
# 
# High freq. dielectric constant tensor:
#      x y z
#    x 1.872190 0.000000 0.000000 
#    y 0.000000 1.875040 0.000000 
#    z 0.000000 0.000000 1.864890 
# 
# From -- ./inp_files/11332.got.cif
#   From: 2010.03.12/outbox.cif.g09.slc.cpg/sg61_6_cif.got.tgz:11332.got - 2010.04.10 19:05:03.
