data_PCOD8249946
_publ_section_title
;
Structure prediction by ZEFSAII (Michael W. Deem and Ramdas Pophale) SiO2 
 PCOD8249946
Probable space group: P N M A
;
_chemical_formula_sum "Si O2"
_cell_formula_units_Z 56
_cell_length_a 8.096866
_cell_length_b 29.337528
_cell_length_c 15.866390
_cell_angle_alpha 90.000000
_cell_angle_beta 90.000000
_cell_angle_gamma 90.000000
_cell_volume 3768.934537
_symmetry_space_group_name_H-M "P N M A"
_symmetry_group_IT_number 62
_symmetry_cell_setting 'orthorhombic'
loop_
_space_group_symop_operation_xyz
x,y,z
1/2-x,-y,1/2+z
1/2+x,1/2-y,1/2-z
-x,1/2+y,-z
-x,-y,-z
1/2+x,y,1/2-z
1/2-x,1/2+y,1/2+z
x,1/2-y,z
loop_
_atom_site_type_symbol
_atom_site_label
_atom_site_fract_x
_atom_site_fract_y
_atom_site_fract_z
Si Si1 0.595894 0.650857 0.877522
Si Si2 0.113426 0.014831 0.221542
Si Si3 0.073908 0.750000 0.626590
Si Si4 0.046245 0.348932 0.200043
Si Si5 0.822746 0.070336 0.158911
Si Si6 0.414286 0.516457 0.127363
Si Si7 0.540664 0.067960 0.032131
Si Si8 0.588374 0.250000 0.286705
O O1 0.587987 0.701513 0.922269
O O2 0.459911 0.645337 0.802443
O O3 0.773952 0.639151 0.837458
O O4 0.549751 0.615897 0.951360
O O5 0.203945 0.060141 0.260040
O O6 0.965357 0.031919 0.162260
O O7 0.231883 0.982783 0.166992
O O8 0.049777 0.983680 0.298710
O O9 0.911690 0.750000 0.684610
O O10 0.218451 0.750000 0.695883
O O11 0.903403 0.379791 0.159978
O O12 0.004031 0.296163 0.176908
O O13 0.723230 0.065634 0.072275
O O14 0.425065 0.470934 0.071322
O O15 0.441275 0.560648 0.068402
#
# Coordination Sequence:
#
# PCOD8249946 Si02
#       8
#     8   8   4   8   8   8   8   4
#     4  10  17  26  39  55  80 109 139 169 195 225
#     4   9  17  30  44  56  74 105 136 160 193 236
#     4   8  16  26  36  52  74 106 139 166 194 224
#     4  10  16  25  38  54  78 111 145 166 187 222
#     4  10  17  25  40  58  78 106 136 163 194 229
#     4   9  18  31  44  59  79 104 132 163 196 233
#     4  10  19  28  40  61  85 103 128 166 200 229
#     4   8  16  24  34  52  74 104 143 174 184 206
#
# _framework density 14.858311
#
# number of rings (size 3 to 8) (size 9 to 14) (size 15 to 20)
#    0.000    2.571    0.000    5.143    0.000    1.714 
#    0.000    2.857    0.000    0.000    0.000    0.000 
#    0.000    1.143    0.000    0.000    0.000    0.429 
#
# Total GULP energy -693889.783358 kJ/mol
# GULP energy per Si atom -12390.888989 kJ/mol
# Density = 1.482449 g / cm^3
# Si number density = 14.858311 Si / 1000 Ang^3
#
#
#
# Elastic Constant Matrix: (Units=GPa)
#
#
# Indices 1 2 3 4 5 6 
#
# 1 75.2643 34.6298 34.3985 0.0000 0.0000 0.0000
# 2 34.6298 93.6276 44.9163 0.0000 0.0000 0.0000
# 3 34.3985 44.9163 61.9532 0.0000 0.0000 0.0000
# 4 0.0000 0.0000 0.0000 19.1414 0.0000 0.0000
# 5 0.0000 0.0000 0.0000 0.0000 14.3676 0.0000
# 6 0.0000 0.0000 0.0000 0.0000 0.0000 18.0055
#
#
#
# Elastic Compliance Matrix: (Units=1/GPa)
#
#
# Indices 1 2 3 4 5 6 
#
# 1 0.018306 -0.002905 -0.008058 0.000000 0.000000 0.000000
# 2 -0.002905 0.016838 -0.010594 0.000000 0.000000 0.000000
# 3 -0.008058 -0.010594 0.028296 0.000000 0.000000 0.000000
# 4 0.000000 0.000000 0.000000 0.052243 0.000000 0.000000
# 5 0.000000 0.000000 0.000000 0.000000 0.069601 0.000000
# 6 0.000000 0.000000 0.000000 0.000000 0.000000 0.055539
#
#
# Mechanical properties :
#
#
# Convention : Reuss Voigt Hill
#
# Bulk Modulus (GPa) = 49.20027 50.97047 50.08537
# Shear Modulus (GPa) = 17.19920 18.09628 17.64774
#
# Velocity S-wave (km/s) = 3.40597 3.49366 3.45009
# Velocity P-wave (km/s) = 6.97512 7.11710 7.04647
#
# Compressibility (1/GPa) = 0.02032509
#
# Stress axis : x y z
#
# Youngs Moduli (GPa) = 54.62720 59.39110 35.34067
#
# Poissons Ratio (x) = 0.17254 0.28477
# Poissons Ratio (y) = 0.15870 0.37441
# Poissons Ratio (z) = 0.44017 0.62920
#
# Static dielectric constant tensor:
#      x y z
#    x 3.018960 0.000000 0.000000 
#    y 0.000000 2.947080 0.000000 
#    z 0.000000 0.000000 2.536020 
# 
# 
# High freq. dielectric constant tensor:
#      x y z
#    x 1.584140 0.000000 0.000000 
#    y 0.000000 1.559290 0.000000 
#    z 0.000000 0.000000 1.505870 
# 
# From -- ./inp_files/17403.got.cif
#   From: 2010.03.12/outbox.cif.g09.slc.cpg/sg62_9_cif.got.tgz:17403.got - 2010.04.10 19:12:36.
