data_PCOD8249810
_publ_section_title
;
Structure prediction by ZEFSAII (Michael W. Deem and Ramdas Pophale) SiO2 
 PCOD8249810
Probable space group: P B C A
;
_chemical_formula_sum "Si O2"
_cell_formula_units_Z 48
_cell_length_a 8.579081
_cell_length_b 18.370712
_cell_length_c 13.307129
_cell_angle_alpha 90.000000
_cell_angle_beta 90.000000
_cell_angle_gamma 90.000000
_cell_volume 2097.254447
_symmetry_space_group_name_H-M "P B C A"
_symmetry_group_IT_number 61
_symmetry_cell_setting 'orthorhombic'
loop_
_space_group_symop_operation_xyz
x,y,z
1/2-x,-y,1/2+z
1/2+x,1/2-y,-z
-x,1/2+y,1/2-z
-x,-y,-z
1/2+x,y,1/2-z
1/2-x,1/2+y,z
x,1/2-y,1/2+z
loop_
_atom_site_type_symbol
_atom_site_label
_atom_site_fract_x
_atom_site_fract_y
_atom_site_fract_z
Si Si1 0.530764 0.856018 0.124246
Si Si2 0.873621 0.805262 0.180385
Si Si3 0.356105 0.971764 0.620561
Si Si4 0.937855 0.114707 0.984451
Si Si5 0.367266 0.841583 0.922786
Si Si6 0.992271 0.480288 0.828203
O O1 0.703032 0.832666 0.152822
O O2 0.406644 0.824417 0.203974
O O3 0.521692 0.943418 0.116539
O O4 0.483959 0.825112 0.015302
O O5 0.890607 0.718987 0.163078
O O6 0.001792 0.845037 0.113531
O O7 0.418583 0.901875 0.559458
O O8 0.184959 0.953461 0.660653
O O9 0.473999 0.990076 0.710657
O O10 0.349704 0.040836 0.547121
O O11 0.811059 0.164304 0.040342
O O12 0.394240 0.920345 0.874715
#
# Coordination Sequence:
#
# PCOD8249810 Si02
#       6
#     8   8   8   8   8   8
#     4  12  25  46  72 102 138 188 236 291 357 429
#     4  12  27  46  71 100 145 191 232 295 363 427
#     4  11  24  40  72 101 141 176 243 292 347 422
#     4  11  24  44  67 106 140 188 232 293 359 420
#     4  12  27  45  73 104 145 181 243 293 357 426
#     4  12  24  45  72 108 133 189 234 301 343 427
#
# _framework density 22.887066999999998
#
# number of rings (size 3 to 8) (size 9 to 14) (size 15 to 20)
#    0.000    0.333    3.333    5.500    4.667    4.000 
#    0.000    0.000    0.000    0.000    0.000    0.000 
#    0.000    0.000    0.000    0.000    0.000    0.000 
#
# Total GULP energy -595654.689314 kJ/mol
# GULP energy per Si atom -12409.472694 kJ/mol
# Density = 2.283497 g / cm^3
# Si number density = 22.887067 Si / 1000 Ang^3
#
#
#
# Elastic Constant Matrix: (Units=GPa)
#
#
# Indices 1 2 3 4 5 6 
#
# 1 103.6702 33.2934 11.1880 0.0000 0.0000 0.0000
# 2 33.2934 110.6164 36.4790 0.0000 0.0000 0.0000
# 3 11.1880 36.4790 60.1154 0.0000 0.0000 0.0000
# 4 0.0000 0.0000 0.0000 31.5895 0.0000 0.0000
# 5 0.0000 0.0000 0.0000 0.0000 47.2976 0.0000
# 6 0.0000 0.0000 0.0000 0.0000 0.0000 22.1126
#
#
#
# Elastic Compliance Matrix: (Units=1/GPa)
#
#
# Indices 1 2 3 4 5 6 
#
# 1 0.010678 -0.003199 -0.000046 0.000000 0.000000 0.000000
# 2 -0.003199 0.012260 -0.006844 0.000000 0.000000 0.000000
# 3 -0.000046 -0.006844 0.020797 0.000000 0.000000 0.000000
# 4 0.000000 0.000000 0.000000 0.031656 0.000000 0.000000
# 5 0.000000 0.000000 0.000000 0.000000 0.021143 0.000000
# 6 0.000000 0.000000 0.000000 0.000000 0.000000 0.045223
#
#
# Mechanical properties :
#
#
# Convention : Reuss Voigt Hill
#
# Bulk Modulus (GPa) = 42.45157 48.48032 45.46595
# Shear Modulus (GPa) = 29.44857 33.09605 31.27231
#
# Velocity S-wave (km/s) = 3.59094 3.80683 3.70046
# Velocity P-wave (km/s) = 5.98178 6.36797 6.17789
#
# Compressibility (1/GPa) = 0.02355626
#
# Stress axis : x y z
#
# Youngs Moduli (GPa) = 93.64865 81.56533 48.08490
#
# Poissons Ratio (x) = 0.26090 0.00223
# Poissons Ratio (y) = 0.29955 0.32911
# Poissons Ratio (z) = 0.00434 0.55826
#
# Static dielectric constant tensor:
#      x y z
#    x 4.083800 0.000000 0.000000 
#    y 0.000000 4.030440 0.000000 
#    z 0.000000 0.000000 4.251530 
# 
# 
# High freq. dielectric constant tensor:
#      x y z
#    x 1.914890 0.000000 0.000000 
#    y 0.000000 1.897090 0.000000 
#    z 0.000000 0.000000 1.912070 
# 
# From -- ./inp_files/7061.got.cif
#   From: 2010.03.12/outbox.cif.g09.slc.cpg/sg61_4_cif.got.tgz:7061.got - 2010.04.10 19:05:03.
