data_PCOD8249820
_publ_section_title
;
Structure prediction by ZEFSAII (Michael W. Deem and Ramdas Pophale) SiO2 
 PCOD8249820
Probable space group: P B C A
;
_chemical_formula_sum "Si O2"
_cell_formula_units_Z 32
_cell_length_a 8.929556
_cell_length_b 8.650698
_cell_length_c 16.961828
_cell_angle_alpha 90.000000
_cell_angle_beta 90.000000
_cell_angle_gamma 90.000000
_cell_volume 1310.248500
_symmetry_space_group_name_H-M "P B C A"
_symmetry_group_IT_number 61
_symmetry_cell_setting 'orthorhombic'
loop_
_space_group_symop_operation_xyz
x,y,z
1/2-x,-y,1/2+z
1/2+x,1/2-y,-z
-x,1/2+y,1/2-z
-x,-y,-z
1/2+x,y,1/2-z
1/2-x,1/2+y,z
x,1/2-y,1/2+z
loop_
_atom_site_type_symbol
_atom_site_label
_atom_site_fract_x
_atom_site_fract_y
_atom_site_fract_z
Si Si1 0.119904 0.953687 0.287234
Si Si2 0.852597 0.178214 0.459462
Si Si3 0.676400 0.389694 0.557608
Si Si4 0.337828 0.752151 0.191744
O O1 0.210850 0.017936 0.362533
O O2 0.093692 0.092731 0.225267
O O3 0.210210 0.811981 0.250593
O O4 0.959989 0.888363 0.315911
O O5 0.814896 0.276458 0.538568
O O6 0.732315 0.219008 0.393071
O O7 0.022763 0.210377 0.431545
O O8 0.838871 0.998778 0.481242
#
# Coordination Sequence:
#
# PCOD8249820 Si02
#       4
#     8   8   8   8
#     4  12  25  44  70 102 139 179 227 280 341 406
#     4  11  24  44  68  97 134 174 224 279 337 405
#     4  11  24  43  67  97 134 177 224 279 339 403
#     4  12  25  44  71 103 139 180 227 281 339 406
#
# _framework density 24.422847999999998
#
# number of rings (size 3 to 8) (size 9 to 14) (size 15 to 20)
#    0.000    0.500    0.000   10.500    0.000    3.000 
#    0.000    0.000    0.000    0.000    0.000    0.000 
#    0.000    0.000    0.000    0.000    0.000    0.000 
#
# Total GULP energy -397010.945046 kJ/mol
# GULP energy per Si atom -12406.592033 kJ/mol
# Density = 2.436726 g / cm^3
# Si number density = 24.422848 Si / 1000 Ang^3
#
#
#
# Elastic Constant Matrix: (Units=GPa)
#
#
# Indices 1 2 3 4 5 6 
#
# 1 57.1505 36.1077 27.6909 0.0000 0.0000 0.0000
# 2 36.1077 100.4312 33.6593 0.0000 0.0000 0.0000
# 3 27.6909 33.6593 111.3097 0.0000 0.0000 0.0000
# 4 0.0000 0.0000 0.0000 19.2603 0.0000 0.0000
# 5 0.0000 0.0000 0.0000 0.0000 33.9776 0.0000
# 6 0.0000 0.0000 0.0000 0.0000 0.0000 36.8020
#
#
#
# Elastic Compliance Matrix: (Units=1/GPa)
#
#
# Indices 1 2 3 4 5 6 
#
# 1 0.023958 -0.007362 -0.003734 0.000000 0.000000 0.000000
# 2 -0.007362 0.013342 -0.002203 0.000000 0.000000 0.000000
# 3 -0.003734 -0.002203 0.010579 0.000000 0.000000 0.000000
# 4 0.000000 0.000000 0.000000 0.051920 0.000000 0.000000
# 5 0.000000 0.000000 0.000000 0.000000 0.029431 0.000000
# 6 0.000000 0.000000 0.000000 0.000000 0.000000 0.027172
#
#
# Mechanical properties :
#
#
# Convention : Reuss Voigt Hill
#
# Bulk Modulus (GPa) = 46.98984 51.53416 49.26200
# Shear Modulus (GPa) = 26.30250 29.43686 27.86968
#
# Velocity S-wave (km/s) = 3.28527 3.47551 3.38173
# Velocity P-wave (km/s) = 5.80281 6.10345 5.95503
#
# Compressibility (1/GPa) = 0.02128120
#
# Stress axis : x y z
#
# Youngs Moduli (GPa) = 41.73915 74.94930 94.52651
#
# Poissons Ratio (x) = 0.55180 0.35295
# Poissons Ratio (y) = 0.30729 0.20825
# Poissons Ratio (z) = 0.15585 0.16512
#
# Static dielectric constant tensor:
#      x y z
#    x 4.273300 0.000000 0.000000 
#    y 0.000000 4.467510 0.000000 
#    z 0.000000 0.000000 4.327860 
# 
# 
# High freq. dielectric constant tensor:
#      x y z
#    x 1.959740 0.000000 0.000000 
#    y 0.000000 1.978960 0.000000 
#    z 0.000000 0.000000 1.982630 
# 
# From -- ./inp_files/1669.got.cif
#   From: 2010.03.12/outbox.cif.g09.slc.cpg/sg61_1_cif.got.tgz:1669.got - 2010.04.10 19:05:03.
