data_PCOD8249592
_publ_section_title
;
Structure prediction by ZEFSAII (Michael W. Deem and Ramdas Pophale) SiO2 
 PCOD8249592
Probable space group: P B C A
;
_chemical_formula_sum "Si O2"
_cell_formula_units_Z 48
_cell_length_a 16.408226
_cell_length_b 11.358632
_cell_length_c 11.638914
_cell_angle_alpha 90.000000
_cell_angle_beta 90.000000
_cell_angle_gamma 90.000000
_cell_volume 2169.202607
_symmetry_space_group_name_H-M "P B C A"
_symmetry_group_IT_number 61
_symmetry_cell_setting 'orthorhombic'
loop_
_space_group_symop_operation_xyz
x,y,z
1/2-x,-y,1/2+z
1/2+x,1/2-y,-z
-x,1/2+y,1/2-z
-x,-y,-z
1/2+x,y,1/2-z
1/2-x,1/2+y,z
x,1/2-y,1/2+z
loop_
_atom_site_type_symbol
_atom_site_label
_atom_site_fract_x
_atom_site_fract_y
_atom_site_fract_z
Si Si1 0.150351 0.699590 0.183453
Si Si2 0.141951 0.413765 0.533102
Si Si3 0.912293 0.981473 0.197938
Si Si4 0.407538 0.440971 0.241662
Si Si5 0.176782 0.183621 0.636491
Si Si6 0.319569 0.458182 0.482275
O O1 0.140959 0.599670 0.281868
O O2 0.085977 0.802083 0.212570
O O3 0.240333 0.755969 0.182560
O O4 0.130578 0.633700 0.063020
O O5 0.077461 0.457821 0.438274
O O6 0.146236 0.501298 0.641177
O O7 0.119953 0.284142 0.579660
O O8 0.228633 0.409007 0.467509
O O9 0.869194 0.868965 0.254308
O O10 0.002875 0.997332 0.248765
O O11 0.363225 0.466820 0.360922
O O12 0.188846 0.085831 0.539273
#
# Coordination Sequence:
#
# PCOD8249592 Si02
#       6
#     8   8   8   8   8   8
#     4  10  24  46  68 101 138 183 237 289 348 425
#     4  11  25  41  70 100 138 179 243 287 351 425
#     4  11  27  43  71 106 145 183 232 297 368 421
#     4  12  26  43  70 104 143 184 227 300 362 414
#     4  10  23  46  71  98 134 188 240 291 343 423
#     4  10  24  44  70  98 130 191 240 285 344 431
#
# _framework density 22.127948
#
# number of rings (size 3 to 8) (size 9 to 14) (size 15 to 20)
#    0.000    1.333    1.667    1.500   11.667    4.000 
#    0.000    0.000    0.000    0.000    0.000    0.000 
#    0.000    0.000    0.000    0.000    0.000    0.000 
#
# Total GULP energy -595248.062510 kJ/mol
# GULP energy per Si atom -12401.001302 kJ/mol
# Density = 2.207758 g / cm^3
# Si number density = 22.127948 Si / 1000 Ang^3
#
#
#
# Elastic Constant Matrix: (Units=GPa)
#
#
# Indices 1 2 3 4 5 6 
#
# 1 85.8189 35.9747 43.2956 0.0000 0.0000 0.0000
# 2 35.9747 147.9632 55.7319 0.0000 0.0000 0.0000
# 3 43.2956 55.7319 132.5508 0.0000 0.0000 0.0000
# 4 0.0000 0.0000 0.0000 29.6113 0.0000 0.0000
# 5 0.0000 0.0000 0.0000 0.0000 32.6824 0.0000
# 6 0.0000 0.0000 0.0000 0.0000 0.0000 26.4622
#
#
#
# Elastic Compliance Matrix: (Units=1/GPa)
#
#
# Indices 1 2 3 4 5 6 
#
# 1 0.014463 -0.002064 -0.003856 0.000000 0.000000 0.000000
# 2 -0.002064 0.008325 -0.002826 0.000000 0.000000 0.000000
# 3 -0.003856 -0.002826 0.009992 0.000000 0.000000 0.000000
# 4 0.000000 0.000000 0.000000 0.033771 0.000000 0.000000
# 5 0.000000 0.000000 0.000000 0.000000 0.030598 0.000000
# 6 0.000000 0.000000 0.000000 0.000000 0.000000 0.037790
#
#
# Mechanical properties :
#
#
# Convention : Reuss Voigt Hill
#
# Bulk Modulus (GPa) = 65.41362 70.70416 68.05889
# Shear Modulus (GPa) = 31.74066 33.17321 32.45693
#
# Velocity S-wave (km/s) = 3.79148 3.87609 3.83402
# Velocity P-wave (km/s) = 6.98518 7.21484 7.10094
#
# Compressibility (1/GPa) = 0.01528734
#
# Stress axis : x y z
#
# Youngs Moduli (GPa) = 69.14108 120.12440 100.07878
#
# Poissons Ratio (x) = 0.24793 0.38594
# Poissons Ratio (y) = 0.14270 0.28283
# Poissons Ratio (z) = 0.26663 0.33948
#
# Static dielectric constant tensor:
#      x y z
#    x 3.709000 0.000000 0.000000 
#    y 0.000000 4.260190 0.000000 
#    z 0.000000 0.000000 3.963840 
# 
# 
# High freq. dielectric constant tensor:
#      x y z
#    x 1.852410 0.000000 0.000000 
#    y 0.000000 1.886540 0.000000 
#    z 0.000000 0.000000 1.875960 
# 
# From -- ./inp_files/5243.got.cif
#   From: 2010.03.12/outbox.cif.g09.slc.cpg/sg61_3_cif.got.tgz:5243.got - 2010.04.10 19:05:03.
