data_PCOD8249234
_publ_section_title
;
Structure prediction by ZEFSAII (Michael W. Deem and Ramdas Pophale) SiO2 
 PCOD8249234
Probable space group: P B C A
;
_chemical_formula_sum "Si O2"
_cell_formula_units_Z 56
_cell_length_a 15.386601
_cell_length_b 22.921831
_cell_length_c 7.935475
_cell_angle_alpha 90.000000
_cell_angle_beta 90.000000
_cell_angle_gamma 90.000000
_cell_volume 2798.755280
_symmetry_space_group_name_H-M "P B C A"
_symmetry_group_IT_number 61
_symmetry_cell_setting 'orthorhombic'
loop_
_space_group_symop_operation_xyz
x,y,z
1/2-x,-y,1/2+z
1/2+x,1/2-y,-z
-x,1/2+y,1/2-z
-x,-y,-z
1/2+x,y,1/2-z
1/2-x,1/2+y,z
x,1/2-y,1/2+z
loop_
_atom_site_type_symbol
_atom_site_label
_atom_site_fract_x
_atom_site_fract_y
_atom_site_fract_z
Si Si1 0.381624 0.335859 0.462174
Si Si2 0.267758 0.827047 0.058133
Si Si3 0.185707 0.739193 0.263532
Si Si4 0.291499 0.432915 0.262423
Si Si5 0.435693 0.529265 0.203602
Si Si6 0.399613 0.544356 0.835634
Si Si7 0.065934 0.384573 0.009374
O O1 0.337261 0.304430 0.617129
O O2 0.388149 0.287930 0.310772
O O3 0.324397 0.392618 0.416082
O O4 0.474495 0.355936 0.523827
O O5 0.268215 0.780378 0.212329
O O6 0.232854 0.891244 0.106542
O O7 0.363873 0.833575 0.983126
O O8 0.203192 0.801494 0.920906
O O9 0.369690 0.474677 0.205866
O O10 0.203994 0.468956 0.315302
O O11 0.537557 0.510651 0.203669
O O12 0.417117 0.565451 0.371677
O O13 0.417286 0.564638 0.029561
O O14 0.427142 0.593926 0.702747
#
# Coordination Sequence:
#
# PCOD8249234 Si02
#       7
#     8   8   8   8   8   8   8
#     4  10  21  39  64  89 121 157 205 260 311 374
#     4   9  21  39  62  90 120 157 207 258 311 377
#     4   9  20  41  62  88 117 159 204 259 320 367
#     4  10  22  39  63  90 124 164 206 254 308 373
#     4  11  24  41  60  92 130 169 205 250 309 372
#     4  10  24  40  57  90 130 160 205 254 291 370
#     4  11  23  41  61  94 125 162 207 254 307 374
#
# _framework density 20.008896
#
# number of rings (size 3 to 8) (size 9 to 14) (size 15 to 20)
#    0.000    2.000    1.429    0.429    6.000    3.429 
#    2.571    0.000    0.000    0.000    0.000    0.000 
#    0.000    0.000    0.000    0.000    0.000    0.000 
#
# Total GULP energy -693924.382975 kJ/mol
# GULP energy per Si atom -12391.506839 kJ/mol
# Density = 1.996335 g / cm^3
# Si number density = 20.008896 Si / 1000 Ang^3
#
#
#
# Elastic Constant Matrix: (Units=GPa)
#
#
# Indices 1 2 3 4 5 6 
#
# 1 121.6202 49.1307 26.3646 0.0000 0.0000 0.0000
# 2 49.1307 79.5089 46.9616 0.0000 0.0000 0.0000
# 3 26.3646 46.9616 99.6250 0.0000 0.0000 0.0000
# 4 0.0000 0.0000 0.0000 20.8883 0.0000 0.0000
# 5 0.0000 0.0000 0.0000 0.0000 18.6452 0.0000
# 6 0.0000 0.0000 0.0000 0.0000 0.0000 18.9071
#
#
#
# Elastic Compliance Matrix: (Units=1/GPa)
#
#
# Indices 1 2 3 4 5 6 
#
# 1 0.010969 -0.007017 0.000405 0.000000 0.000000 0.000000
# 2 -0.007017 0.021919 -0.008475 0.000000 0.000000 0.000000
# 3 0.000405 -0.008475 0.013926 0.000000 0.000000 0.000000
# 4 0.000000 0.000000 0.000000 0.047874 0.000000 0.000000
# 5 0.000000 0.000000 0.000000 0.000000 0.053633 0.000000
# 6 0.000000 0.000000 0.000000 0.000000 0.000000 0.052890
#
#
# Mechanical properties :
#
#
# Convention : Reuss Voigt Hill
#
# Bulk Modulus (GPa) = 60.10075 60.62977 60.36526
# Shear Modulus (GPa) = 21.10297 23.57459 22.33878
#
# Velocity S-wave (km/s) = 3.25111 3.43622 3.34495
# Velocity P-wave (km/s) = 6.64794 6.79049 6.71959
#
# Compressibility (1/GPa) = 0.01663873
#
# Stress axis : x y z
#
# Youngs Moduli (GPa) = 91.16305 45.62160 71.81006
#
# Poissons Ratio (x) = 0.32015 -0.02908
# Poissons Ratio (y) = 0.63973 0.60862
# Poissons Ratio (z) = -0.03692 0.38666
#
# Static dielectric constant tensor:
#      x y z
#    x 3.819610 0.000000 0.000000 
#    y 0.000000 3.649590 0.000000 
#    z 0.000000 0.000000 3.866070 
# 
# 
# High freq. dielectric constant tensor:
#      x y z
#    x 1.777470 0.000000 0.000000 
#    y 0.000000 1.769870 0.000000 
#    z 0.000000 0.000000 1.790880 
# 
# From -- ./inp_files/3051.got.cif
#   From: 2010.03.12/outbox.cif.g09.slc.cpg/sg61_2_cif.got.tgz:3051.got - 2010.04.10 19:05:03.
