data_PCOD8249971
_publ_section_title
;
Structure prediction by ZEFSAII (Michael W. Deem and Ramdas Pophale) SiO2 
 PCOD8249971
Probable space group: P N M A
;
_chemical_formula_sum "Si O2"
_cell_formula_units_Z 40
_cell_length_a 12.604088
_cell_length_b 13.503639
_cell_length_c 11.614139
_cell_angle_alpha 90.000000
_cell_angle_beta 90.000000
_cell_angle_gamma 90.000000
_cell_volume 1976.738702
_symmetry_space_group_name_H-M "P N M A"
_symmetry_group_IT_number 62
_symmetry_cell_setting 'orthorhombic'
loop_
_space_group_symop_operation_xyz
x,y,z
1/2-x,-y,1/2+z
1/2+x,1/2-y,1/2-z
-x,1/2+y,-z
-x,-y,-z
1/2+x,y,1/2-z
1/2-x,1/2+y,1/2+z
x,1/2-y,z
loop_
_atom_site_type_symbol
_atom_site_label
_atom_site_fract_x
_atom_site_fract_y
_atom_site_fract_z
Si Si1 0.761045 0.250000 0.762383
Si Si2 0.007563 0.250000 0.958201
Si Si3 0.025889 0.963403 0.334432
Si Si4 0.672166 0.538463 0.959347
Si Si5 0.738979 0.250000 0.494526
Si Si6 0.037154 0.250000 0.686925
Si Si7 0.373643 0.418771 0.614235
O O1 0.734357 0.250000 0.630407
O O2 0.660515 0.250000 0.847365
O O3 0.826680 0.152611 0.788315
O O4 0.939650 0.147797 0.978946
O O5 0.035905 0.250000 0.824313
O O6 0.112456 0.250000 0.038912
O O7 0.119507 0.998421 0.420426
O O8 0.051828 0.986079 0.198988
O O9 0.016813 0.846674 0.365398
O O10 0.912439 0.015661 0.358263
O O11 0.700700 0.653952 0.947421
O O12 0.783328 0.480037 0.950001
#
# Coordination Sequence:
#
# PCOD8249971 Si02
#       7
#     4   4   8   8   4   4   8
#     4  10  16  33  59  83 112 141 186 250 283 313
#     4   8  20  33  58  85 107 145 189 249 299 323
#     4  10  20  34  55  90 117 153 194 240 289 350
#     4  11  22  34  58  85 120 157 191 239 296 345
#     4  11  21  38  54  83 118 152 191 238 287 339
#     4   9  15  32  59  83 113 136 186 247 285 327
#     4  10  19  36  58  88 117 147 195 243 290 341
#
# _framework density 20.235351999999999
#
# number of rings (size 3 to 8) (size 9 to 14) (size 15 to 20)
#    0.000    2.000    4.000    1.200    0.000    0.800 
#    0.000    1.000    0.000    0.000    0.000    0.000 
#    0.000    0.000    0.000    0.000    0.000    0.000 
#
# Total GULP energy -495571.754383 kJ/mol
# GULP energy per Si atom -12389.293860 kJ/mol
# Density = 2.018930 g / cm^3
# Si number density = 20.235352 Si / 1000 Ang^3
#
#
#
# Elastic Constant Matrix: (Units=GPa)
#
#
# Indices 1 2 3 4 5 6 
#
# 1 138.7214 44.8350 21.0244 0.0000 0.0000 0.0000
# 2 44.8350 95.6904 18.4645 0.0000 0.0000 0.0000
# 3 21.0244 18.4645 25.6217 0.0000 0.0000 0.0000
# 4 0.0000 0.0000 0.0000 15.5306 0.0000 0.0000
# 5 0.0000 0.0000 0.0000 0.0000 37.1582 0.0000
# 6 0.0000 0.0000 0.0000 0.0000 0.0000 31.0970
#
#
#
# Elastic Compliance Matrix: (Units=1/GPa)
#
#
# Indices 1 2 3 4 5 6 
#
# 1 0.009027 -0.003253 -0.005064 0.000000 0.000000 0.000000
# 2 -0.003253 0.013310 -0.006923 0.000000 0.000000 0.000000
# 3 -0.005064 -0.006923 0.048174 0.000000 0.000000 0.000000
# 4 0.000000 0.000000 0.000000 0.064389 0.000000 0.000000
# 5 0.000000 0.000000 0.000000 0.000000 0.026912 0.000000
# 6 0.000000 0.000000 0.000000 0.000000 0.000000 0.032157
#
#
# Mechanical properties :
#
#
# Convention : Reuss Voigt Hill
#
# Bulk Modulus (GPa) = 24.97965 47.63124 36.30544
# Shear Modulus (GPa) = 21.02675 28.47115 24.74895
#
# Velocity S-wave (km/s) = 3.22702 3.75507 3.50101
# Velocity P-wave (km/s) = 5.12408 6.51080 5.85861
#
# Compressibility (1/GPa) = 0.04003259
#
# Stress axis : x y z
#
# Youngs Moduli (GPa) = 110.77411 75.13006 20.75828
#
# Poissons Ratio (x) = 0.24437 0.10511
# Poissons Ratio (y) = 0.36031 0.14371
# Poissons Ratio (z) = 0.56091 0.52013
#
# Static dielectric constant tensor:
#      x y z
#    x 4.434680 0.000000 0.000000 
#    y 0.000000 4.350340 0.000000 
#    z 0.000000 0.000000 3.150440 
# 
# 
# High freq. dielectric constant tensor:
#      x y z
#    x 1.825040 0.000000 0.000000 
#    y 0.000000 1.774860 0.000000 
#    z 0.000000 0.000000 1.734540 
# 
# From -- ./inp_files/13134.got.cif
#   From: 2010.03.12/outbox.cif.g09.slc.cpg/sg62_7_cif.got.tgz:13134.got - 2010.04.10 19:12:36.
