data_PCOD8249629
_publ_section_title
;
Structure prediction by ZEFSAII (Michael W. Deem and Ramdas Pophale) SiO2 
 PCOD8249629
Probable space group: P B C A
;
_chemical_formula_sum "Si O2"
_cell_formula_units_Z 48
_cell_length_a 14.426684
_cell_length_b 12.753310
_cell_length_c 12.151779
_cell_angle_alpha 90.000000
_cell_angle_beta 90.000000
_cell_angle_gamma 90.000000
_cell_volume 2235.781190
_symmetry_space_group_name_H-M "P B C A"
_symmetry_group_IT_number 61
_symmetry_cell_setting 'orthorhombic'
loop_
_space_group_symop_operation_xyz
x,y,z
1/2-x,-y,1/2+z
1/2+x,1/2-y,-z
-x,1/2+y,1/2-z
-x,-y,-z
1/2+x,y,1/2-z
1/2-x,1/2+y,z
x,1/2-y,1/2+z
loop_
_atom_site_type_symbol
_atom_site_label
_atom_site_fract_x
_atom_site_fract_y
_atom_site_fract_z
Si Si1 0.206621 0.789623 0.086071
Si Si2 0.358773 0.002715 0.649803
Si Si3 0.194386 0.409837 0.252899
Si Si4 0.000554 0.964220 0.334653
Si Si5 0.136525 0.176821 0.978831
Si Si6 0.470972 0.331539 0.537022
O O1 0.160728 0.903949 0.060610
O O2 0.259797 0.801603 0.204392
O O3 0.127874 0.700720 0.088056
O O4 0.282582 0.762333 0.993818
O O5 0.271615 0.997933 0.735974
O O6 0.450845 0.034215 0.716399
O O7 0.627971 0.106669 0.411569
O O8 0.107299 0.439572 0.177763
O O9 0.164292 0.397656 0.378108
O O10 0.043821 0.873117 0.412260
O O11 0.015541 0.077077 0.390032
O O12 0.039003 0.232270 0.957608
#
# Coordination Sequence:
#
# PCOD8249629 Si02
#       6
#     8   8   8   8   8   8
#     4  10  24  45  65 102 135 175 229 280 347 400
#     4  10  25  43  66 101 137 180 226 284 340 405
#     4  10  24  45  65  98 138 173 228 281 338 411
#     4  11  23  45  68 100 142 178 226 285 342 403
#     4  12  24  46  72 101 139 181 236 278 348 416
#     4  11  24  42  74 100 136 185 229 281 344 413
#
# _framework density 21.469007000000001
#
# number of rings (size 3 to 8) (size 9 to 14) (size 15 to 20)
#    1.000    0.333    1.667    3.000    2.333    6.667 
#    3.000    0.000    0.000    0.000    0.000    0.000 
#    0.000    0.000    0.000    0.000    0.000    0.000 
#
# Total GULP energy -594970.569776 kJ/mol
# GULP energy per Si atom -12395.220204 kJ/mol
# Density = 2.142014 g / cm^3
# Si number density = 21.469007 Si / 1000 Ang^3
#
#
#
# Elastic Constant Matrix: (Units=GPa)
#
#
# Indices 1 2 3 4 5 6 
#
# 1 124.4197 36.4099 39.3143 0.0000 0.0000 0.0000
# 2 36.4099 80.8529 35.9985 0.0000 0.0000 0.0000
# 3 39.3143 35.9985 89.5197 0.0000 0.0000 0.0000
# 4 0.0000 0.0000 0.0000 38.4089 0.0000 0.0000
# 5 0.0000 0.0000 0.0000 0.0000 32.2018 0.0000
# 6 0.0000 0.0000 0.0000 0.0000 0.0000 30.4373
#
#
#
# Elastic Compliance Matrix: (Units=1/GPa)
#
#
# Indices 1 2 3 4 5 6 
#
# 1 0.009925 -0.003080 -0.003120 0.000000 0.000000 0.000000
# 2 -0.003080 0.016021 -0.005090 0.000000 0.000000 0.000000
# 3 -0.003120 -0.005090 0.014588 0.000000 0.000000 0.000000
# 4 0.000000 0.000000 0.000000 0.026036 0.000000 0.000000
# 5 0.000000 0.000000 0.000000 0.000000 0.031054 0.000000
# 6 0.000000 0.000000 0.000000 0.000000 0.000000 0.032854
#
#
# Mechanical properties :
#
#
# Convention : Reuss Voigt Hill
#
# Bulk Modulus (GPa) = 55.69919 57.58196 56.64057
# Shear Modulus (GPa) = 31.43814 32.41424 31.92619
#
# Velocity S-wave (km/s) = 3.83083 3.88985 3.86045
# Velocity P-wave (km/s) = 6.75036 6.85958 6.80519
#
# Compressibility (1/GPa) = 0.01795358
#
# Stress axis : x y z
#
# Youngs Moduli (GPa) = 100.76062 62.41640 68.55073
#
# Poissons Ratio (x) = 0.19225 0.21387
# Poissons Ratio (y) = 0.31036 0.34892
# Poissons Ratio (z) = 0.31437 0.31770
#
# Static dielectric constant tensor:
#      x y z
#    x 3.936130 0.000000 0.000000 
#    y 0.000000 3.685010 0.000000 
#    z 0.000000 0.000000 3.580160 
# 
# 
# High freq. dielectric constant tensor:
#      x y z
#    x 1.858310 0.000000 0.000000 
#    y 0.000000 1.833960 0.000000 
#    z 0.000000 0.000000 1.822870 
# 
# From -- ./inp_files/5874.got.cif
#   From: 2010.03.12/outbox.cif.g09.slc.cpg/sg61_3_cif.got.tgz:5874.got - 2010.04.10 19:05:03.
