data_PCOD8249486
_publ_section_title
;
Structure prediction by ZEFSAII (Michael W. Deem and Ramdas Pophale) SiO2 
 PCOD8249486
Probable space group: P B C A
;
_chemical_formula_sum "Si O2"
_cell_formula_units_Z 40
_cell_length_a 10.298200
_cell_length_b 10.804275
_cell_length_c 16.653921
_cell_angle_alpha 90.000000
_cell_angle_beta 90.000000
_cell_angle_gamma 90.000000
_cell_volume 1852.991605
_symmetry_space_group_name_H-M "P B C A"
_symmetry_group_IT_number 61
_symmetry_cell_setting 'orthorhombic'
loop_
_space_group_symop_operation_xyz
x,y,z
1/2-x,-y,1/2+z
1/2+x,1/2-y,-z
-x,1/2+y,1/2-z
-x,-y,-z
1/2+x,y,1/2-z
1/2-x,1/2+y,z
x,1/2-y,1/2+z
loop_
_atom_site_type_symbol
_atom_site_label
_atom_site_fract_x
_atom_site_fract_y
_atom_site_fract_z
Si Si1 0.823416 0.279603 0.092043
Si Si2 0.674342 0.446906 0.535939
Si Si3 0.409486 0.646622 0.627969
Si Si4 0.025658 0.075551 0.307094
Si Si5 0.739153 0.796524 0.762426
O O1 0.779855 0.411670 0.053406
O O2 0.784868 0.158432 0.041534
O O3 0.759838 0.281673 0.180535
O O4 0.979127 0.261578 0.096191
O O5 0.626447 0.445503 0.444630
O O6 0.564051 0.404321 0.599357
O O7 0.475134 0.565591 0.699794
O O8 0.284046 0.715741 0.661716
O O9 0.906338 0.161159 0.280673
O O10 0.151941 0.095122 0.250082
#
# Coordination Sequence:
#
# PCOD8249486 Si02
#       5
#     8   8   8   8   8
#     4  10  22  44  62  98 129 178 216 278 328 398
#     4  10  24  43  70  91 140 170 225 273 339 392
#     4  11  24  39  70  92 134 177 222 272 339 390
#     4  10  23  41  63  94 132 170 219 271 331 389
#     4  11  23  39  66  97 129 172 225 273 328 401
#
# _framework density 21.586713
#
# number of rings (size 3 to 8) (size 9 to 14) (size 15 to 20)
#    0.000    1.600    2.000    2.400   14.000    0.000 
#    0.000    3.000    0.000    0.000    0.000    0.000 
#    0.000    0.000    0.000    0.000    0.000    0.000 
#
# Total GULP energy -495560.359379 kJ/mol
# GULP energy per Si atom -12389.008984 kJ/mol
# Density = 2.153758 g / cm^3
# Si number density = 21.586713 Si / 1000 Ang^3
#
#
#
# Elastic Constant Matrix: (Units=GPa)
#
#
# Indices 1 2 3 4 5 6 
#
# 1 63.6502 13.2596 -20.2891 0.0000 0.0000 0.0000
# 2 13.2596 71.1011 -8.4716 0.0000 0.0000 0.0000
# 3 -20.2891 -8.4716 32.1479 0.0000 0.0000 0.0000
# 4 0.0000 0.0000 0.0000 22.0834 0.0000 0.0000
# 5 0.0000 0.0000 0.0000 0.0000 20.4636 0.0000
# 6 0.0000 0.0000 0.0000 0.0000 0.0000 35.7622
#
#
#
# Elastic Compliance Matrix: (Units=1/GPa)
#
#
# Indices 1 2 3 4 5 6 
#
# 1 0.020026 -0.002301 0.012032 0.000000 0.000000 0.000000
# 2 -0.002301 0.014785 0.002444 0.000000 0.000000 0.000000
# 3 0.012032 0.002444 0.039344 0.000000 0.000000 0.000000
# 4 0.000000 0.000000 0.000000 0.045283 0.000000 0.000000
# 5 0.000000 0.000000 0.000000 0.000000 0.048867 0.000000
# 6 0.000000 0.000000 0.000000 0.000000 0.000000 0.027962
#
#
# Mechanical properties :
#
#
# Convention : Reuss Voigt Hill
#
# Bulk Modulus (GPa) = 10.15185 15.09969 12.62577
# Shear Modulus (GPa) = 24.41987 27.82187 26.12087
#
# Velocity S-wave (km/s) = 3.36705 3.59394 3.48234
# Velocity P-wave (km/s) = 4.45298 4.92260 4.69367
#
# Compressibility (1/GPa) = 0.09850424
#
# Stress axis : x y z
#
# Youngs Moduli (GPa) = 49.93617 67.63716 25.41692
#
# Poissons Ratio (x) = 0.15563 -0.30582
# Poissons Ratio (y) = 0.11490 -0.06212
# Poissons Ratio (z) = -0.60084 -0.16530
#
# Static dielectric constant tensor:
#      x y z
#    x 4.212660 0.000000 0.000000 
#    y 0.000000 3.910140 0.000000 
#    z 0.000000 0.000000 3.879310 
# 
# 
# High freq. dielectric constant tensor:
#      x y z
#    x 1.848840 0.000000 0.000000 
#    y 0.000000 1.838750 0.000000 
#    z 0.000000 0.000000 1.841560 
# 
# From -- ./inp_files/2162.got.cif
#   From: 2010.03.12/outbox.cif.g09.slc.cpg/sg61_2_cif.got.tgz:2162.got - 2010.04.10 19:05:03.
