data_PCOD8249149
_publ_section_title
;
Structure prediction by ZEFSAII (Michael W. Deem and Ramdas Pophale) SiO2 
 PCOD8249149
Probable space group: P B C A
;
_chemical_formula_sum "Si O2"
_cell_formula_units_Z 64
_cell_length_a 20.161072
_cell_length_b 8.858569
_cell_length_c 18.450743
_cell_angle_alpha 90.000000
_cell_angle_beta 90.000000
_cell_angle_gamma 90.000000
_cell_volume 3295.270364
_symmetry_space_group_name_H-M "P B C A"
_symmetry_group_IT_number 61
_symmetry_cell_setting 'orthorhombic'
loop_
_space_group_symop_operation_xyz
x,y,z
1/2-x,-y,1/2+z
1/2+x,1/2-y,-z
-x,1/2+y,1/2-z
-x,-y,-z
1/2+x,y,1/2-z
1/2-x,1/2+y,z
x,1/2-y,1/2+z
loop_
_atom_site_type_symbol
_atom_site_label
_atom_site_fract_x
_atom_site_fract_y
_atom_site_fract_z
Si Si1 0.432635 0.592861 0.014855
Si Si2 0.954158 0.396404 0.183864
Si Si3 0.241055 0.087283 0.316124
Si Si4 0.528023 0.844591 0.023987
Si Si5 0.171689 0.823177 0.237325
Si Si6 0.964402 0.752938 0.205284
Si Si7 0.911518 0.171790 0.895257
Si Si8 0.341240 0.652666 0.876793
O O1 0.459740 0.754686 0.037027
O O2 0.399286 0.502002 0.080696
O O3 0.500000 0.500000 0.000000
O O4 0.378477 0.616786 0.951746
O O5 0.936793 0.367304 0.100594
O O6 0.897960 0.301824 0.223828
O O7 0.956871 0.572891 0.203056
O O8 0.020505 0.313781 0.213575
O O9 0.277235 0.197059 0.260456
O O10 0.198598 0.186716 0.374275
O O11 0.196521 0.988396 0.261682
O O12 0.291536 0.985225 0.361918
O O13 0.581711 0.777032 0.967132
O O14 0.500000 0.000000 0.000000
O O15 0.154758 0.797294 0.151912
O O16 0.896112 0.835685 0.185740
O O17 0.020092 0.808038 0.148472
#
# Coordination Sequence:
#
# PCOD8249149 Si02
#       8
#     8   8   8   8   8   8   8   8
#     4  10  21  36  63  90 127 161 194 264 328 376
#     4  11  24  35  64  98 128 162 204 270 326 384
#     4  10  24  40  65  85 119 177 208 270 292 377
#     4  11  21  36  57  94 131 159 191 250 343 374
#     4  10  23  42  63  86 122 160 228 248 317 368
#     4  11  22  38  62  96 130 158 210 266 319 379
#     4  10  22  39  60  93 125 160 199 263 328 379
#     4  11  21  42  61  92 126 160 221 251 320 377
#
# _framework density 19.421773999999999
#
# number of rings (size 3 to 8) (size 9 to 14) (size 15 to 20)
#    0.000    1.500    5.000    0.000   10.500    0.000 
#    0.000    2.500    0.000    0.000    0.000    0.000 
#    0.000    0.000    0.000    0.000    0.000    0.000 
#
# Total GULP energy -792858.524577 kJ/mol
# GULP energy per Si atom -12388.414447 kJ/mol
# Density = 1.937757 g / cm^3
# Si number density = 19.421774 Si / 1000 Ang^3
#
#
#
# Elastic Constant Matrix: (Units=GPa)
#
#
# Indices 1 2 3 4 5 6 
#
# 1 72.6510 25.1169 12.6729 0.0000 0.0000 0.0000
# 2 25.1169 103.8100 30.2951 0.0000 0.0000 0.0000
# 3 12.6729 30.2951 77.1226 0.0000 0.0000 0.0000
# 4 0.0000 0.0000 0.0000 31.3141 0.0000 0.0000
# 5 0.0000 0.0000 0.0000 0.0000 33.2908 0.0000
# 6 0.0000 0.0000 0.0000 0.0000 0.0000 24.5313
#
#
#
# Elastic Compliance Matrix: (Units=1/GPa)
#
#
# Indices 1 2 3 4 5 6 
#
# 1 0.015116 -0.003312 -0.001183 0.000000 0.000000 0.000000
# 2 -0.003312 0.011606 -0.004015 0.000000 0.000000 0.000000
# 3 -0.001183 -0.004015 0.014738 0.000000 0.000000 0.000000
# 4 0.000000 0.000000 0.000000 0.031934 0.000000 0.000000
# 5 0.000000 0.000000 0.000000 0.000000 0.030038 0.000000
# 6 0.000000 0.000000 0.000000 0.000000 0.000000 0.040764
#
#
# Mechanical properties :
#
#
# Convention : Reuss Voigt Hill
#
# Bulk Modulus (GPa) = 40.91614 43.30593 42.11104
# Shear Modulus (GPa) = 29.52242 30.19383 29.85812
#
# Velocity S-wave (km/s) = 3.90303 3.94717 3.92516
# Velocity P-wave (km/s) = 6.43618 6.56655 6.50169
#
# Compressibility (1/GPa) = 0.02444023
#
# Stress axis : x y z
#
# Youngs Moduli (GPa) = 66.15588 86.16237 67.85268
#
# Poissons Ratio (x) = 0.28538 0.08026
# Poissons Ratio (y) = 0.21911 0.27241
# Poissons Ratio (z) = 0.07825 0.34592
#
# Static dielectric constant tensor:
#      x y z
#    x 3.768420 0.000000 0.000000 
#    y 0.000000 3.942330 0.000000 
#    z 0.000000 0.000000 3.943100 
# 
# 
# High freq. dielectric constant tensor:
#      x y z
#    x 1.744390 0.000000 0.000000 
#    y 0.000000 1.772180 0.000000 
#    z 0.000000 0.000000 1.749120 
# 
# From -- ./inp_files/9798.got.cif
#   From: 2010.03.12/outbox.cif.g09.slc.cpg/sg61_5_cif.got.tgz:9798.got - 2010.04.10 19:05:03.
