data_PCOD8249042
_publ_section_title
;
Structure prediction by ZEFSAII (Michael W. Deem and Ramdas Pophale) SiO2 
 PCOD8249042
Probable space group: P B C A
;
_chemical_formula_sum "Si O2"
_cell_formula_units_Z 64
_cell_length_a 9.083670
_cell_length_b 12.735839
_cell_length_c 27.233716
_cell_angle_alpha 90.000000
_cell_angle_beta 90.000000
_cell_angle_gamma 90.000000
_cell_volume 3150.618457
_symmetry_space_group_name_H-M "P B C A"
_symmetry_group_IT_number 61
_symmetry_cell_setting 'orthorhombic'
loop_
_space_group_symop_operation_xyz
x,y,z
1/2-x,-y,1/2+z
1/2+x,1/2-y,-z
-x,1/2+y,1/2-z
-x,-y,-z
1/2+x,y,1/2-z
1/2-x,1/2+y,z
x,1/2-y,1/2+z
loop_
_atom_site_type_symbol
_atom_site_label
_atom_site_fract_x
_atom_site_fract_y
_atom_site_fract_z
Si Si1 0.477363 0.355371 0.301695
Si Si2 0.710012 0.956062 0.462826
Si Si3 0.043619 0.581352 0.082203
Si Si4 0.115425 0.868407 0.409561
Si Si5 0.104053 0.411766 0.453983
Si Si6 0.438320 0.788670 0.007975
Si Si7 0.729709 0.272302 0.751388
Si Si8 0.482177 0.397326 0.695367
O O1 0.451441 0.330852 0.358687
O O2 0.332908 0.314702 0.273811
O O3 0.623705 0.291260 0.288064
O O4 0.499154 0.479318 0.292158
O O5 0.559680 0.930251 0.433173
O O6 0.805936 0.851095 0.466364
O O7 0.791119 0.046007 0.431562
O O8 0.670640 0.986184 0.518968
O O9 0.035401 0.623775 0.137552
O O10 0.938810 0.482525 0.074343
O O11 0.989441 0.669284 0.044932
O O12 0.293789 0.875663 0.408342
O O13 0.072577 0.788424 0.453078
O O14 0.107405 0.329896 0.499157
O O15 0.628325 0.335840 0.712912
O O16 0.833432 0.355615 0.779207
#
# Coordination Sequence:
#
# PCOD8249042 Si02
#       8
#     8   8   8   8   8   8   8   8
#     4  10  22  41  66  91 123 159 200 261 313 368
#     4  10  21  37  54  82 122 154 199 242 284 342
#     4  10  20  39  58  81 119 162 190 242 297 356
#     4  10  20  39  57  85 121 160 197 240 296 353
#     4  11  21  34  56  85 116 160 201 240 279 344
#     4  11  20  37  57  81 122 165 191 233 294 349
#     4  10  22  43  65  91 118 154 208 258 314 376
#     4  10  22  41  65  90 119 158 200 254 316 365
#
# _framework density 20.313472999999998
#
# number of rings (size 3 to 8) (size 9 to 14) (size 15 to 20)
#    0.000    1.750    2.500    2.250    1.750    1.000 
#    4.500    6.250    0.000    0.000    0.000    0.000 
#    0.000    0.000    0.000    0.000    0.000    0.000 
#
# Total GULP energy -793418.168454 kJ/mol
# GULP energy per Si atom -12397.158882 kJ/mol
# Density = 2.026724 g / cm^3
# Si number density = 20.313473 Si / 1000 Ang^3
#
#
#
# Elastic Constant Matrix: (Units=GPa)
#
#
# Indices 1 2 3 4 5 6 
#
# 1 158.5475 35.5926 52.7977 0.0000 0.0000 0.0000
# 2 35.5926 69.1560 31.8205 0.0000 0.0000 0.0000
# 3 52.7977 31.8205 98.8641 0.0000 0.0000 0.0000
# 4 0.0000 0.0000 0.0000 22.1676 0.0000 0.0000
# 5 0.0000 0.0000 0.0000 0.0000 20.1386 0.0000
# 6 0.0000 0.0000 0.0000 0.0000 0.0000 23.3891
#
#
#
# Elastic Compliance Matrix: (Units=1/GPa)
#
#
# Indices 1 2 3 4 5 6 
#
# 1 0.008033 -0.002536 -0.003474 0.000000 0.000000 0.000000
# 2 -0.002536 0.017774 -0.004367 0.000000 0.000000 0.000000
# 3 -0.003474 -0.004367 0.013376 0.000000 0.000000 0.000000
# 4 0.000000 0.000000 0.000000 0.045111 0.000000 0.000000
# 5 0.000000 0.000000 0.000000 0.000000 0.049656 0.000000
# 6 0.000000 0.000000 0.000000 0.000000 0.000000 0.042755
#
#
# Mechanical properties :
#
#
# Convention : Reuss Voigt Hill
#
# Bulk Modulus (GPa) = 54.25841 62.99881 58.62861
# Shear Modulus (GPa) = 24.55776 26.89619 25.72698
#
# Velocity S-wave (km/s) = 3.48075 3.64271 3.56265
# Velocity P-wave (km/s) = 6.55154 6.98377 6.77111
#
# Compressibility (1/GPa) = 0.01843032
#
# Stress axis : x y z
#
# Youngs Moduli (GPa) = 124.47958 56.26042 74.76337
#
# Poissons Ratio (x) = 0.14268 0.25972
# Poissons Ratio (y) = 0.31570 0.32645
# Poissons Ratio (z) = 0.43243 0.24566
#
# Static dielectric constant tensor:
#      x y z
#    x 3.997400 0.000000 0.000000 
#    y 0.000000 3.706520 0.000000 
#    z 0.000000 0.000000 3.502030 
# 
# 
# High freq. dielectric constant tensor:
#      x y z
#    x 1.814280 0.000000 0.000000 
#    y 0.000000 1.795420 0.000000 
#    z 0.000000 0.000000 1.771830 
# 
# From -- ./inp_files/8682.got.cif
#   From: 2010.03.12/outbox.cif.g09.slc.cpg/sg61_5_cif.got.tgz:8682.got - 2010.04.10 19:05:03.
