data_PCOD8249612
_publ_section_title
;
Structure prediction by ZEFSAII (Michael W. Deem and Ramdas Pophale) SiO2 
 PCOD8249612
Probable space group: P B C A
;
_chemical_formula_sum "Si O2"
_cell_formula_units_Z 64
_cell_length_a 31.383350
_cell_length_b 5.481516
_cell_length_c 15.741216
_cell_angle_alpha 90.000000
_cell_angle_beta 90.000000
_cell_angle_gamma 90.000000
_cell_volume 2707.935182
_symmetry_space_group_name_H-M "P B C A"
_symmetry_group_IT_number 61
_symmetry_cell_setting 'orthorhombic'
loop_
_space_group_symop_operation_xyz
x,y,z
1/2-x,-y,1/2+z
1/2+x,1/2-y,-z
-x,1/2+y,1/2-z
-x,-y,-z
1/2+x,y,1/2-z
1/2-x,1/2+y,z
x,1/2-y,1/2+z
loop_
_atom_site_type_symbol
_atom_site_label
_atom_site_fract_x
_atom_site_fract_y
_atom_site_fract_z
Si Si1 0.907164 0.496500 0.721325
Si Si2 0.640534 0.369694 0.631087
Si Si3 0.558321 0.065737 0.031218
Si Si4 0.734960 0.635766 0.863900
Si Si5 0.858468 0.389296 0.313607
Si Si6 0.975344 0.087007 0.099420
Si Si7 0.231315 0.371614 0.944662
Si Si8 0.067468 0.192764 0.135243
O O1 0.874151 0.591785 0.649670
O O2 0.880848 0.365716 0.794622
O O3 0.945018 0.341951 0.678575
O O4 0.931391 0.719232 0.767268
O O5 0.601019 0.501991 0.584259
O O6 0.651459 0.490913 0.721861
O O7 0.680721 0.371840 0.568693
O O8 0.539905 0.335844 0.055637
O O9 0.526114 0.834603 0.041299
O O10 0.569874 0.085820 0.931984
O O11 0.748544 0.382722 0.816247
O O12 0.684063 0.648383 0.868198
O O13 0.757183 0.627554 0.955931
O O14 0.890217 0.530667 0.376766
O O15 0.023899 0.039561 0.126399
O O16 0.249908 0.621950 0.902763
#
# Coordination Sequence:
#
# PCOD8249612 Si02
#       8
#     8   8   8   8   8   8   8   8
#     4  10  25  44  69 103 143 194 234 298 354 441
#     4  10  24  45  68  97 143 182 236 284 364 423
#     4  11  25  45  71 103 144 191 241 300 349 429
#     4  10  25  46  69 100 138 174 231 297 354 426
#     4  11  25  45  69 106 141 190 238 295 365 423
#     4  11  25  47  69 105 149 191 247 288 362 422
#     4  10  24  42  70  99 129 175 228 285 352 423
#     4  11  27  40  75 104 145 194 243 303 357 428
#
# _framework density 23.634242
#
# number of rings (size 3 to 8) (size 9 to 14) (size 15 to 20)
#    0.000    1.500    1.250    0.750   14.000    2.000 
#    0.000    0.000    0.000    0.000    0.000    0.000 
#    0.000    0.000    0.000    0.000    0.000    0.000 
#
# Total GULP energy -793087.306595 kJ/mol
# GULP energy per Si atom -12391.989166 kJ/mol
# Density = 2.358045 g / cm^3
# Si number density = 23.634242 Si / 1000 Ang^3
#
#
#
# Elastic Constant Matrix: (Units=GPa)
#
#
# Indices 1 2 3 4 5 6 
#
# 1 145.4956 55.3894 34.4716 0.0000 0.0000 0.0000
# 2 55.3894 141.8354 17.0654 0.0000 0.0000 0.0000
# 3 34.4716 17.0654 49.1671 0.0000 0.0000 0.0000
# 4 0.0000 0.0000 0.0000 23.5238 0.0000 0.0000
# 5 0.0000 0.0000 0.0000 0.0000 36.4943 0.0000
# 6 0.0000 0.0000 0.0000 0.0000 0.0000 36.2711
#
#
#
# Elastic Compliance Matrix: (Units=1/GPa)
#
#
# Indices 1 2 3 4 5 6 
#
# 1 0.009306 -0.002973 -0.005493 0.000000 0.000000 0.000000
# 2 -0.002973 0.008308 -0.000799 0.000000 0.000000 0.000000
# 3 -0.005493 -0.000799 0.024467 0.000000 0.000000 0.000000
# 4 0.000000 0.000000 0.000000 0.042510 0.000000 0.000000
# 5 0.000000 0.000000 0.000000 0.000000 0.027402 0.000000
# 6 0.000000 0.000000 0.000000 0.000000 0.000000 0.027570
#
#
# Mechanical properties :
#
#
# Convention : Reuss Voigt Hill
#
# Bulk Modulus (GPa) = 42.46071 61.15007 51.80539
# Shear Modulus (GPa) = 30.13075 34.56263 32.34669
#
# Velocity S-wave (km/s) = 3.57442 3.82828 3.70352
# Velocity P-wave (km/s) = 5.91946 6.74319 6.34471
#
# Compressibility (1/GPa) = 0.02355118
#
# Stress axis : x y z
#
# Youngs Moduli (GPa) = 107.45275 120.36984 40.87124
#
# Poissons Ratio (x) = 0.35791 0.22450
# Poissons Ratio (y) = 0.31951 0.03265
# Poissons Ratio (z) = 0.59021 0.09615
#
# Static dielectric constant tensor:
#      x y z
#    x 4.236330 0.000000 0.000000 
#    y 0.000000 4.848610 0.000000 
#    z 0.000000 0.000000 4.031480 
# 
# 
# High freq. dielectric constant tensor:
#      x y z
#    x 1.944360 0.000000 0.000000 
#    y 0.000000 1.944050 0.000000 
#    z 0.000000 0.000000 1.919820 
# 
# From -- ./inp_files/9909.got.cif
#   From: 2010.03.12/outbox.cif.g09.slc.cpg/sg61_5_cif.got.tgz:9909.got - 2010.04.10 19:05:03.
