data_PCOD8249222
_publ_section_title
;
Structure prediction by ZEFSAII (Michael W. Deem and Ramdas Pophale) SiO2 
 PCOD8249222
Probable space group: P B C A
;
_chemical_formula_sum "Si O2"
_cell_formula_units_Z 48
_cell_length_a 9.469590
_cell_length_b 28.717756
_cell_length_c 8.927208
_cell_angle_alpha 90.000000
_cell_angle_beta 90.000000
_cell_angle_gamma 90.000000
_cell_volume 2427.712928
_symmetry_space_group_name_H-M "P B C A"
_symmetry_group_IT_number 61
_symmetry_cell_setting 'orthorhombic'
loop_
_space_group_symop_operation_xyz
x,y,z
1/2-x,-y,1/2+z
1/2+x,1/2-y,-z
-x,1/2+y,1/2-z
-x,-y,-z
1/2+x,y,1/2-z
1/2-x,1/2+y,z
x,1/2-y,1/2+z
loop_
_atom_site_type_symbol
_atom_site_label
_atom_site_fract_x
_atom_site_fract_y
_atom_site_fract_z
Si Si1 0.816098 0.286243 0.420572
Si Si2 0.862724 0.019720 0.073225
Si Si3 0.883008 0.468547 0.926679
Si Si4 0.966066 0.115563 0.598906
Si Si5 0.011940 0.720040 0.874553
Si Si6 0.713843 0.891147 0.393164
O O1 0.656621 0.267984 0.380223
O O2 0.883938 0.257818 0.555014
O O3 0.935016 0.280978 0.294414
O O4 0.808357 0.340351 0.466256
O O5 0.868193 0.021256 0.251952
O O6 0.832268 0.071596 0.016083
O O7 0.754112 0.981197 0.019372
O O8 0.000000 0.000000 0.000000
O O9 0.917490 0.414072 0.954249
O O10 0.000000 0.500000 0.000000
O O11 0.958056 0.169677 0.551025
O O12 0.869438 0.102873 0.739452
O O13 0.123092 0.101368 0.648065
#
# Coordination Sequence:
#
# PCOD8249222 Si02
#       6
#     8   8   8   8   8   8
#     4  10  21  39  63  91 126 164 207 260 314 380
#     4  12  26  41  63  93 124 166 209 258 317 369
#     4  12  24  43  63  89 126 162 210 260 309 374
#     4  10  22  40  64  90 123 162 206 259 311 373
#     4  10  21  39  62  92 124 165 209 257 318 375
#     4  10  22  41  63  91 123 161 207 256 315 373
#
# _framework density 19.771694
#
# number of rings (size 3 to 8) (size 9 to 14) (size 15 to 20)
#    0.000    1.333    1.667    4.000    2.333    2.667 
#    0.000    0.000    0.000    0.000    0.000    0.000 
#    0.000    0.000    0.000    0.000    0.000    0.000 
#
# Total GULP energy -595021.290039 kJ/mol
# GULP energy per Si atom -12396.276876 kJ/mol
# Density = 1.972669 g / cm^3
# Si number density = 19.771694 Si / 1000 Ang^3
#
#
#
# Elastic Constant Matrix: (Units=GPa)
#
#
# Indices 1 2 3 4 5 6 
#
# 1 148.4690 44.6995 40.5171 0.0000 0.0000 0.0000
# 2 44.6995 97.4963 40.9963 0.0000 0.0000 0.0000
# 3 40.5171 40.9963 104.6752 0.0000 0.0000 0.0000
# 4 0.0000 0.0000 0.0000 37.7213 0.0000 0.0000
# 5 0.0000 0.0000 0.0000 0.0000 34.7240 0.0000
# 6 0.0000 0.0000 0.0000 0.0000 0.0000 36.0512
#
#
#
# Elastic Compliance Matrix: (Units=1/GPa)
#
#
# Indices 1 2 3 4 5 6 
#
# 1 0.008158 -0.002888 -0.002027 0.000000 0.000000 0.000000
# 2 -0.002888 0.013301 -0.004092 0.000000 0.000000 0.000000
# 3 -0.002027 -0.004092 0.011940 0.000000 0.000000 0.000000
# 4 0.000000 0.000000 0.000000 0.026510 0.000000 0.000000
# 5 0.000000 0.000000 0.000000 0.000000 0.028799 0.000000
# 6 0.000000 0.000000 0.000000 0.000000 0.000000 0.027738
#
#
# Mechanical properties :
#
#
# Convention : Reuss Voigt Hill
#
# Bulk Modulus (GPa) = 64.98965 67.00736 65.99850
# Shear Modulus (GPa) = 35.81959 36.66114 36.24037
#
# Velocity S-wave (km/s) = 4.26098 4.31074 4.28593
# Velocity P-wave (km/s) = 7.55972 7.66425 7.61216
#
# Compressibility (1/GPa) = 0.01538707
#
# Stress axis : x y z
#
# Youngs Moduli (GPa) = 122.57935 75.18016 83.74985
#
# Poissons Ratio (x) = 0.21712 0.16973
# Poissons Ratio (y) = 0.35401 0.34267
# Poissons Ratio (z) = 0.24842 0.30761
#
# Static dielectric constant tensor:
#      x y z
#    x 3.917410 0.000000 0.000000 
#    y 0.000000 3.811660 0.000000 
#    z 0.000000 0.000000 3.492250 
# 
# 
# High freq. dielectric constant tensor:
#      x y z
#    x 1.795310 0.000000 0.000000 
#    y 0.000000 1.783790 0.000000 
#    z 0.000000 0.000000 1.755580 
# 
# From -- ./inp_files/1848.got.cif
#   From: 2010.03.12/outbox.cif.g09.slc.cpg/sg61_1_cif.got.tgz:1848.got - 2010.04.10 19:05:03.
