data_PCOD8249351
_publ_section_title
;
Structure prediction by ZEFSAII (Michael W. Deem and Ramdas Pophale) SiO2 
 PCOD8249351
Probable space group: P B C A
;
_chemical_formula_sum "Si O2"
_cell_formula_units_Z 64
_cell_length_a 9.248690
_cell_length_b 22.966576
_cell_length_c 13.336499
_cell_angle_alpha 90.000000
_cell_angle_beta 90.000000
_cell_angle_gamma 90.000000
_cell_volume 2832.815645
_symmetry_space_group_name_H-M "P B C A"
_symmetry_group_IT_number 61
_symmetry_cell_setting 'orthorhombic'
loop_
_space_group_symop_operation_xyz
x,y,z
1/2-x,-y,1/2+z
1/2+x,1/2-y,-z
-x,1/2+y,1/2-z
-x,-y,-z
1/2+x,y,1/2-z
1/2-x,1/2+y,z
x,1/2-y,1/2+z
loop_
_atom_site_type_symbol
_atom_site_label
_atom_site_fract_x
_atom_site_fract_y
_atom_site_fract_z
Si Si1 0.294295 0.625332 0.823765
Si Si2 0.779011 0.474954 0.459532
Si Si3 0.506607 0.889299 0.666233
Si Si4 0.243468 0.146967 0.471591
Si Si5 0.227617 0.598346 0.043990
Si Si6 0.594320 0.812146 0.338440
Si Si7 0.985183 0.182529 0.349247
Si Si8 0.052151 0.013377 0.843491
O O1 0.185812 0.655490 0.747041
O O2 0.431501 0.665749 0.842889
O O3 0.354794 0.562377 0.783656
O O4 0.209011 0.616617 0.928085
O O5 0.690459 0.415780 0.483352
O O6 0.677495 0.530894 0.434585
O O7 0.866550 0.496267 0.555731
O O8 0.894181 0.459641 0.370987
O O9 0.654316 0.862954 0.623422
O O10 0.396710 0.897197 0.573802
O O11 0.444206 0.846371 0.750478
O O12 0.534216 0.953075 0.717946
O O13 0.326452 0.183129 0.555525
O O14 0.106751 0.185270 0.436109
O O15 0.142373 0.640993 0.115281
O O16 0.582573 0.743676 0.317499
#
# Coordination Sequence:
#
# PCOD8249351 Si02
#       8
#     8   8   8   8   8   8   8   8
#     4  11  24  48  67 100 132 181 227 285 342 403
#     4   8  15  36  70  98 132 172 216 275 341 415
#     4  10  21  44  72  99 136 180 224 276 344 419
#     4  11  23  46  70  99 135 177 226 279 348 399
#     4  10  22  44  71  98 141 178 221 282 353 408
#     4  12  29  44  70  95 137 184 236 284 330 412
#     4  12  29  41  65 107 134 180 231 285 336 409
#     4   8  15  37  70  98 129 175 220 270 346 409
#
# _framework density 22.592362000000001
#
# number of rings (size 3 to 8) (size 9 to 14) (size 15 to 20)
#    0.000    1.750    2.500    2.250    7.000    1.500 
#    6.750    0.000    0.000    0.000    0.000    0.000 
#    0.000    0.000    0.000    0.000    0.000    0.000 
#
# Total GULP energy -793328.898195 kJ/mol
# GULP energy per Si atom -12395.764034 kJ/mol
# Density = 2.254094 g / cm^3
# Si number density = 22.592362 Si / 1000 Ang^3
#
#
#
# Elastic Constant Matrix: (Units=GPa)
#
#
# Indices 1 2 3 4 5 6 
#
# 1 50.2996 18.4816 17.8084 0.0000 0.0000 0.0000
# 2 18.4816 124.0399 43.2018 0.0000 0.0000 0.0000
# 3 17.8084 43.2018 73.7012 0.0000 0.0000 0.0000
# 4 0.0000 0.0000 0.0000 32.9516 0.0000 0.0000
# 5 0.0000 0.0000 0.0000 0.0000 24.0411 0.0000
# 6 0.0000 0.0000 0.0000 0.0000 0.0000 27.9220
#
#
#
# Elastic Compliance Matrix: (Units=1/GPa)
#
#
# Indices 1 2 3 4 5 6 
#
# 1 0.022055 -0.001797 -0.004276 0.000000 0.000000 0.000000
# 2 -0.001797 0.010276 -0.005590 0.000000 0.000000 0.000000
# 3 -0.004276 -0.005590 0.017878 0.000000 0.000000 0.000000
# 4 0.000000 0.000000 0.000000 0.030348 0.000000 0.000000
# 5 0.000000 0.000000 0.000000 0.000000 0.041595 0.000000
# 6 0.000000 0.000000 0.000000 0.000000 0.000000 0.035814
#
#
# Mechanical properties :
#
#
# Convention : Reuss Voigt Hill
#
# Bulk Modulus (GPa) = 37.19590 45.22492 41.21041
# Shear Modulus (GPa) = 26.28082 28.21951 27.25017
#
# Velocity S-wave (km/s) = 3.41436 3.53806 3.47676
# Velocity P-wave (km/s) = 5.66070 6.06232 5.86495
#
# Compressibility (1/GPa) = 0.02688468
#
# Stress axis : x y z
#
# Youngs Moduli (GPa) = 45.34126 97.30973 55.93481
#
# Poissons Ratio (x) = 0.17486 0.23917
# Poissons Ratio (y) = 0.08147 0.31265
# Poissons Ratio (z) = 0.19387 0.54392
#
# Static dielectric constant tensor:
#      x y z
#    x 3.777320 0.000000 0.000000 
#    y 0.000000 4.532080 0.000000 
#    z 0.000000 0.000000 3.810930 
# 
# 
# High freq. dielectric constant tensor:
#      x y z
#    x 1.872320 0.000000 0.000000 
#    y 0.000000 1.901970 0.000000 
#    z 0.000000 0.000000 1.877660 
# 
# From -- ./inp_files/7266.got.cif
#   From: 2010.03.12/outbox.cif.g09.slc.cpg/sg61_4_cif.got.tgz:7266.got - 2010.04.10 19:05:03.
