data_PCOD8249687
_publ_section_title
;
Structure prediction by ZEFSAII (Michael W. Deem and Ramdas Pophale) SiO2 
 PCOD8249687
Probable space group: P B C A
;
_chemical_formula_sum "Si O2"
_cell_formula_units_Z 64
_cell_length_a 17.935978
_cell_length_b 14.610167
_cell_length_c 11.346983
_cell_angle_alpha 90.000000
_cell_angle_beta 90.000000
_cell_angle_gamma 90.000000
_cell_volume 2973.450047
_symmetry_space_group_name_H-M "P B C A"
_symmetry_group_IT_number 61
_symmetry_cell_setting 'orthorhombic'
loop_
_space_group_symop_operation_xyz
x,y,z
1/2-x,-y,1/2+z
1/2+x,1/2-y,-z
-x,1/2+y,1/2-z
-x,-y,-z
1/2+x,y,1/2-z
1/2-x,1/2+y,z
x,1/2-y,1/2+z
loop_
_atom_site_type_symbol
_atom_site_label
_atom_site_fract_x
_atom_site_fract_y
_atom_site_fract_z
Si Si1 0.114764 0.131962 0.522678
Si Si2 0.159917 0.881440 0.220071
Si Si3 0.686219 0.685112 0.262390
Si Si4 0.159213 0.185379 0.100024
Si Si5 0.075198 0.442701 0.773344
Si Si6 0.278504 0.100046 0.478869
Si Si7 0.200384 0.415447 0.371029
Si Si8 0.909191 0.013691 0.291858
O O1 0.099687 0.230137 0.586183
O O2 0.089134 0.120911 0.387700
O O3 0.203538 0.137518 0.534532
O O4 0.078300 0.047441 0.592080
O O5 0.133548 0.775428 0.228339
O O6 0.243296 0.878607 0.273186
O O7 0.107182 0.953541 0.288396
O O8 0.160304 0.907504 0.081957
O O9 0.765597 0.703094 0.324933
O O10 0.693817 0.666512 0.123740
O O11 0.645545 0.598392 0.323084
O O12 0.115165 0.102989 0.161903
O O13 0.181726 0.161280 0.966299
O O14 0.987713 0.447571 0.747720
O O15 0.258438 0.000172 0.431787
O O16 0.124237 0.450047 0.310617
#
# Coordination Sequence:
#
# PCOD8249687 Si02
#       8
#     8   8   8   8   8   8   8   8
#     4  12  23  42  71  97 131 170 226 276 336 390
#     4  12  23  42  70  97 129 171 226 281 332 389
#     4  11  24  41  67 101 133 170 227 287 329 391
#     4  12  24  41  72 100 128 172 229 283 335 391
#     4  12  27  45  65  97 139 182 219 269 335 414
#     4  11  20  40  66 101 126 166 220 282 336 378
#     4  11  22  40  68  97 128 168 219 286 323 394
#     4  11  26  45  64  95 142 178 219 266 339 400
#
# _framework density 21.523819
#
# number of rings (size 3 to 8) (size 9 to 14) (size 15 to 20)
#    0.000    0.500    6.250    2.625    1.750    1.500 
#    0.000    0.000    0.000    0.000    0.000    0.000 
#    0.000    0.000    0.000    0.000    0.000    0.000 
#
# Total GULP energy -793504.787037 kJ/mol
# GULP energy per Si atom -12398.512297 kJ/mol
# Density = 2.147483 g / cm^3
# Si number density = 21.523819 Si / 1000 Ang^3
#
#
#
# Elastic Constant Matrix: (Units=GPa)
#
#
# Indices 1 2 3 4 5 6 
#
# 1 76.7842 15.3062 21.2720 0.0000 0.0000 0.0000
# 2 15.3062 115.4293 36.8516 0.0000 0.0000 0.0000
# 3 21.2720 36.8516 111.1234 0.0000 0.0000 0.0000
# 4 0.0000 0.0000 0.0000 34.2138 0.0000 0.0000
# 5 0.0000 0.0000 0.0000 0.0000 14.8137 0.0000
# 6 0.0000 0.0000 0.0000 0.0000 0.0000 16.3725
#
#
#
# Elastic Compliance Matrix: (Units=1/GPa)
#
#
# Indices 1 2 3 4 5 6 
#
# 1 0.013879 -0.001110 -0.002289 0.000000 0.000000 0.000000
# 2 -0.001110 0.009778 -0.003030 0.000000 0.000000 0.000000
# 3 -0.002289 -0.003030 0.010442 0.000000 0.000000 0.000000
# 4 0.000000 0.000000 0.000000 0.029228 0.000000 0.000000
# 5 0.000000 0.000000 0.000000 0.000000 0.067505 0.000000
# 6 0.000000 0.000000 0.000000 0.000000 0.000000 0.061078
#
#
# Mechanical properties :
#
#
# Convention : Reuss Voigt Hill
#
# Bulk Modulus (GPa) = 47.07780 50.02184 48.54982
# Shear Modulus (GPa) = 23.60190 28.40714 26.00452
#
# Velocity S-wave (km/s) = 3.31501 3.63685 3.47965
# Velocity P-wave (km/s) = 6.04750 6.39736 6.22489
#
# Compressibility (1/GPa) = 0.02124144
#
# Stress axis : x y z
#
# Youngs Moduli (GPa) = 72.05238 102.27179 95.76678
#
# Poissons Ratio (x) = 0.11349 0.21919
# Poissons Ratio (y) = 0.07995 0.29019
# Poissons Ratio (z) = 0.16491 0.30990
#
# Static dielectric constant tensor:
#      x y z
#    x 3.532030 0.000000 0.000000 
#    y 0.000000 4.172180 0.000000 
#    z 0.000000 0.000000 3.906090 
# 
# 
# High freq. dielectric constant tensor:
#      x y z
#    x 1.802720 0.000000 0.000000 
#    y 0.000000 1.865860 0.000000 
#    z 0.000000 0.000000 1.855300 
# 
# From -- ./inp_files/6312.got.cif
#   From: 2010.03.12/outbox.cif.g09.slc.cpg/sg61_4_cif.got.tgz:6312.got - 2010.04.10 19:05:03.
