data_PCOD8249141
_publ_section_title
;
Structure prediction by ZEFSAII (Michael W. Deem and Ramdas Pophale) SiO2 
 PCOD8249141
Probable space group: P B C A
;
_chemical_formula_sum "Si O2"
_cell_formula_units_Z 48
_cell_length_a 30.720674
_cell_length_b 9.139269
_cell_length_c 8.472938
_cell_angle_alpha 90.000000
_cell_angle_beta 90.000000
_cell_angle_gamma 90.000000
_cell_volume 2378.900231
_symmetry_space_group_name_H-M "P B C A"
_symmetry_group_IT_number 61
_symmetry_cell_setting 'orthorhombic'
loop_
_space_group_symop_operation_xyz
x,y,z
1/2-x,-y,1/2+z
1/2+x,1/2-y,-z
-x,1/2+y,1/2-z
-x,-y,-z
1/2+x,y,1/2-z
1/2-x,1/2+y,z
x,1/2-y,1/2+z
loop_
_atom_site_type_symbol
_atom_site_label
_atom_site_fract_x
_atom_site_fract_y
_atom_site_fract_z
Si Si1 0.872676 0.376217 0.316116
Si Si2 0.790828 0.559577 0.267379
Si Si3 0.458676 0.051402 0.205458
Si Si4 0.785906 0.874553 0.131882
Si Si5 0.962120 0.356479 0.154470
Si Si6 0.632035 0.936901 0.682203
O O1 0.838246 0.489463 0.243633
O O2 0.919245 0.415711 0.241815
O O3 0.858032 0.210388 0.279970
O O4 0.875536 0.391263 0.502781
O O5 0.787633 0.701460 0.158089
O O6 0.755936 0.439337 0.217276
O O7 0.782004 0.601370 0.446856
O O8 0.467867 0.183780 0.325191
O O9 0.411350 0.984727 0.248792
O O10 0.495546 0.931169 0.230782
O O11 0.458104 0.112379 0.029234
O O12 0.828659 0.950569 0.204485
#
# Coordination Sequence:
#
# PCOD8249141 Si02
#       6
#     8   8   8   8   8   8
#     4  10  21  37  58  83 111 146 186 229 278 330
#     4  11  24  40  60  86 115 149 188 231 280 334
#     4  10  21  36  56  82 111 146 186 228 276 329
#     4  11  24  40  60  86 115 149 188 231 280 334
#     4  10  21  36  56  82 111 146 186 228 276 329
#     4  10  21  37  58  83 111 146 186 229 278 330
#
# _framework density 20.177389999999999
#
# number of rings (size 3 to 8) (size 9 to 14) (size 15 to 20)
#    0.000    1.667    0.000    6.000    0.000   12.000 
#    0.000    6.667    0.000    0.000    0.000    0.000 
#    0.000    0.000    0.000    0.000    0.000    0.000 
#
# Total GULP energy -595400.619241 kJ/mol
# GULP energy per Si atom -12404.179568 kJ/mol
# Density = 2.013147 g / cm^3
# Si number density = 20.177390 Si / 1000 Ang^3
#
#
#
# Elastic Constant Matrix: (Units=GPa)
#
#
# Indices 1 2 3 4 5 6 
#
# 1 81.6593 25.1197 19.8573 0.0000 0.0000 0.0000
# 2 25.1197 56.0958 -6.2678 0.0000 0.0000 0.0000
# 3 19.8573 -6.2678 35.2388 0.0000 0.0000 0.0000
# 4 0.0000 0.0000 0.0000 18.2366 0.0000 0.0000
# 5 0.0000 0.0000 0.0000 0.0000 31.3370 0.0000
# 6 0.0000 0.0000 0.0000 0.0000 0.0000 33.8809
#
#
#
# Elastic Compliance Matrix: (Units=1/GPa)
#
#
# Indices 1 2 3 4 5 6 
#
# 1 0.018005 -0.009383 -0.011815 0.000000 0.000000 0.000000
# 2 -0.009383 0.023078 0.009392 0.000000 0.000000 0.000000
# 3 -0.011815 0.009392 0.036706 0.000000 0.000000 0.000000
# 4 0.000000 0.000000 0.000000 0.054835 0.000000 0.000000
# 5 0.000000 0.000000 0.000000 0.000000 0.031911 0.000000
# 6 0.000000 0.000000 0.000000 0.000000 0.000000 0.029515
#
#
# Mechanical properties :
#
#
# Convention : Reuss Voigt Hill
#
# Bulk Modulus (GPa) = 18.45787 27.82361 23.14074
# Shear Modulus (GPa) = 21.21147 25.64323 23.42735
#
# Velocity S-wave (km/s) = 3.24582 3.56882 3.41114
# Velocity P-wave (km/s) = 4.81817 5.54990 5.19693
#
# Compressibility (1/GPa) = 0.05417742
#
# Stress axis : x y z
#
# Youngs Moduli (GPa) = 55.53866 43.33177 27.24338
#
# Poissons Ratio (x) = 0.40658 0.32188
# Poissons Ratio (y) = 0.52112 -0.25587
# Poissons Ratio (z) = 0.65619 -0.40698
#
# Static dielectric constant tensor:
#      x y z
#    x 4.040740 0.000000 0.000000 
#    y 0.000000 -0.738830 0.000000 
#    z 0.000000 0.000000 3.716190 
# 
# 
# High freq. dielectric constant tensor:
#      x y z
#    x 1.805120 0.000000 0.000000 
#    y 0.000000 1.778390 0.000000 
#    z 0.000000 0.000000 1.801790 
# 
# From -- ./inp_files/4581.got.cif
#   From: 2010.03.12/outbox.cif.g09.slc.cpg/sg61_3_cif.got.tgz:4581.got - 2010.04.10 19:05:03.
