data_PCOD8249538
_publ_section_title
;
Structure prediction by ZEFSAII (Michael W. Deem and Ramdas Pophale) SiO2 
 PCOD8249538
Probable space group: P B C A
;
_chemical_formula_sum "Si O2"
_cell_formula_units_Z 64
_cell_length_a 13.570736
_cell_length_b 9.307627
_cell_length_c 24.022156
_cell_angle_alpha 90.000000
_cell_angle_beta 90.000000
_cell_angle_gamma 90.000000
_cell_volume 3034.270926
_symmetry_space_group_name_H-M "P B C A"
_symmetry_group_IT_number 61
_symmetry_cell_setting 'orthorhombic'
loop_
_space_group_symop_operation_xyz
x,y,z
1/2-x,-y,1/2+z
1/2+x,1/2-y,-z
-x,1/2+y,1/2-z
-x,-y,-z
1/2+x,y,1/2-z
1/2-x,1/2+y,z
x,1/2-y,1/2+z
loop_
_atom_site_type_symbol
_atom_site_label
_atom_site_fract_x
_atom_site_fract_y
_atom_site_fract_z
Si Si1 0.160788 0.033555 0.909636
Si Si2 0.273276 0.162710 0.643999
Si Si3 0.949768 0.978000 0.889932
Si Si4 0.099217 0.656806 0.317124
Si Si5 0.111450 0.203438 0.557593
Si Si6 0.541067 0.556599 0.632237
Si Si7 0.175554 0.151602 0.436093
Si Si8 0.354272 0.439893 0.694493
O O1 0.203093 0.194946 0.908452
O O2 0.175006 0.945732 0.851320
O O3 0.224973 0.936385 0.952296
O O4 0.044148 0.040523 0.924155
O O5 0.206832 0.141146 0.589043
O O6 0.289484 0.328682 0.658357
O O7 0.381816 0.104876 0.631635
O O8 0.215677 0.081571 0.694687
O O9 0.890589 0.874091 0.931358
O O10 0.987923 0.892480 0.834572
O O11 0.103978 0.826712 0.332044
O O12 0.124760 0.632092 0.253423
O O13 0.114777 0.174774 0.492297
O O14 0.010661 0.134153 0.579959
O O15 0.614825 0.437893 0.609072
O O16 0.460801 0.476168 0.669802
#
# Coordination Sequence:
#
# PCOD8249538 Si02
#       8
#     8   8   8   8   8   8   8   8
#     4  10  25  42  62  94 134 165 226 271 319 404
#     4  11  22  42  65 102 131 167 227 263 325 410
#     4   9  21  46  61  93 137 162 216 275 317 397
#     4   9  23  46  62  92 134 172 211 278 329 383
#     4  10  23  42  67  95 132 172 215 281 331 389
#     4  10  23  44  66  95 134 163 231 272 325 404
#     4  12  24  42  67  96 126 184 217 274 340 388
#     4  11  24  40  69  99 125 180 211 277 332 389
#
# _framework density 21.092382000000001
#
# number of rings (size 3 to 8) (size 9 to 14) (size 15 to 20)
#    0.750    1.000    1.250    1.875    3.500    2.500 
#    2.250    0.000    0.000    0.000    0.000    0.000 
#    0.000    0.000    0.000    0.000    0.000    0.000 
#
# Total GULP energy -793198.886313 kJ/mol
# GULP energy per Si atom -12393.732599 kJ/mol
# Density = 2.104437 g / cm^3
# Si number density = 21.092382 Si / 1000 Ang^3
#
#
#
# Elastic Constant Matrix: (Units=GPa)
#
#
# Indices 1 2 3 4 5 6 
#
# 1 88.9961 37.3660 22.8305 0.0000 0.0000 0.0000
# 2 37.3660 141.3776 44.8401 0.0000 0.0000 0.0000
# 3 22.8305 44.8401 87.7997 0.0000 0.0000 0.0000
# 4 0.0000 0.0000 0.0000 15.7276 0.0000 0.0000
# 5 0.0000 0.0000 0.0000 0.0000 25.2784 0.0000
# 6 0.0000 0.0000 0.0000 0.0000 0.0000 41.8978
#
#
#
# Elastic Compliance Matrix: (Units=1/GPa)
#
#
# Indices 1 2 3 4 5 6 
#
# 1 0.012906 -0.002800 -0.001926 0.000000 0.000000 0.000000
# 2 -0.002800 0.009048 -0.003893 0.000000 0.000000 0.000000
# 3 -0.001926 -0.003893 0.013878 0.000000 0.000000 0.000000
# 4 0.000000 0.000000 0.000000 0.063582 0.000000 0.000000
# 5 0.000000 0.000000 0.000000 0.000000 0.039559 0.000000
# 6 0.000000 0.000000 0.000000 0.000000 0.000000 0.023868
#
#
# Mechanical properties :
#
#
# Convention : Reuss Voigt Hill
#
# Bulk Modulus (GPa) = 53.77834 58.69408 56.23621
# Shear Modulus (GPa) = 26.84158 30.78989 28.81573
#
# Velocity S-wave (km/s) = 3.57118 3.82483 3.70018
# Velocity P-wave (km/s) = 6.52353 6.88428 6.70633
#
# Compressibility (1/GPa) = 0.01859485
#
# Stress axis : x y z
#
# Youngs Moduli (GPa) = 77.48198 110.52143 72.05442
#
# Poissons Ratio (x) = 0.30949 0.13877
# Poissons Ratio (y) = 0.21697 0.28049
# Poissons Ratio (z) = 0.14922 0.43023
#
# Static dielectric constant tensor:
#      x y z
#    x 3.782660 0.000000 0.000000 
#    y 0.000000 3.912650 0.000000 
#    z 0.000000 0.000000 3.402610 
# 
# 
# High freq. dielectric constant tensor:
#      x y z
#    x 1.831950 0.000000 0.000000 
#    y 0.000000 1.840560 0.000000 
#    z 0.000000 0.000000 1.795090 
# 
# From -- ./inp_files/11092.got.cif
#   From: 2010.03.12/outbox.cif.g09.slc.cpg/sg61_6_cif.got.tgz:11092.got - 2010.04.10 19:05:03.
