data_PCOD8249397
_publ_section_title
;
Structure prediction by ZEFSAII (Michael W. Deem and Ramdas Pophale) SiO2 
 PCOD8249397
Probable space group: P B C A
;
_chemical_formula_sum "Si O2"
_cell_formula_units_Z 40
_cell_length_a 11.283140
_cell_length_b 12.251009
_cell_length_c 14.504479
_cell_angle_alpha 90.000000
_cell_angle_beta 90.000000
_cell_angle_gamma 90.000000
_cell_volume 2004.951952
_symmetry_space_group_name_H-M "P B C A"
_symmetry_group_IT_number 61
_symmetry_cell_setting 'orthorhombic'
loop_
_space_group_symop_operation_xyz
x,y,z
1/2-x,-y,1/2+z
1/2+x,1/2-y,-z
-x,1/2+y,1/2-z
-x,-y,-z
1/2+x,y,1/2-z
1/2-x,1/2+y,z
x,1/2-y,1/2+z
loop_
_atom_site_type_symbol
_atom_site_label
_atom_site_fract_x
_atom_site_fract_y
_atom_site_fract_z
Si Si1 0.324259 0.847456 0.392961
Si Si2 0.045170 0.962244 0.796536
Si Si3 0.215694 0.716134 0.244107
Si Si4 0.075122 0.613778 0.836864
Si Si5 0.899469 0.716642 0.405783
O O1 0.418335 0.933127 0.355044
O O2 0.314988 0.744757 0.322199
O O3 0.192481 0.903184 0.400796
O O4 0.372851 0.803305 0.488307
O O5 0.968181 0.000221 0.707825
O O6 0.164166 0.904726 0.759161
O O7 0.970974 0.884108 0.862813
O O8 0.108963 0.804047 0.252362
O O9 0.273028 0.727073 0.143954
O O10 0.971757 0.670205 0.897226
#
# Coordination Sequence:
#
# PCOD8249397 Si02
#       5
#     8   8   8   8   8
#     4  10  22  40  60  93 124 154 217 255 301 386
#     4  11  20  41  64  89 124 171 203 255 322 370
#     4   9  22  40  60  89 126 158 205 260 306 376
#     4   9  20  40  62  85 127 160 201 259 310 364
#     4  11  21  39  65  92 118 173 200 259 319 361
#
# _framework density 19.950602
#
# number of rings (size 3 to 8) (size 9 to 14) (size 15 to 20)
#    1.200    0.800    2.000    1.800    0.000    1.600 
#    7.200    1.000    0.000    0.000    0.000    0.000 
#    0.000    0.000    0.000    0.000    0.000    0.000 
#
# Total GULP energy -495791.281698 kJ/mol
# GULP energy per Si atom -12394.782042 kJ/mol
# Density = 1.990519 g / cm^3
# Si number density = 19.950602 Si / 1000 Ang^3
#
#
#
# Elastic Constant Matrix: (Units=GPa)
#
#
# Indices 1 2 3 4 5 6 
#
# 1 53.3774 11.7895 6.9846 0.0000 0.0000 0.0000
# 2 11.7895 51.3286 16.6324 0.0000 0.0000 0.0000
# 3 6.9846 16.6324 34.9310 0.0000 0.0000 0.0000
# 4 0.0000 0.0000 0.0000 22.6308 0.0000 0.0000
# 5 0.0000 0.0000 0.0000 0.0000 30.0318 0.0000
# 6 0.0000 0.0000 0.0000 0.0000 0.0000 36.2658
#
#
#
# Elastic Compliance Matrix: (Units=1/GPa)
#
#
# Indices 1 2 3 4 5 6 
#
# 1 0.019869 -0.003874 -0.002128 0.000000 0.000000 0.000000
# 2 -0.003874 0.023792 -0.010554 0.000000 0.000000 0.000000
# 3 -0.002128 -0.010554 0.034079 0.000000 0.000000 0.000000
# 4 0.000000 0.000000 0.000000 0.044188 0.000000 0.000000
# 5 0.000000 0.000000 0.000000 0.000000 0.033298 0.000000
# 6 0.000000 0.000000 0.000000 0.000000 0.000000 0.027574
#
#
# Mechanical properties :
#
#
# Convention : Reuss Voigt Hill
#
# Bulk Modulus (GPa) = 22.40792 23.38333 22.89562
# Shear Modulus (GPa) = 21.66501 24.73440 23.19971
#
# Velocity S-wave (km/s) = 3.29892 3.52487 3.41377
# Velocity P-wave (km/s) = 5.07608 5.32094 5.19995
#
# Compressibility (1/GPa) = 0.04462709
#
# Stress axis : x y z
#
# Youngs Moduli (GPa) = 50.33057 42.03100 29.34388
#
# Poissons Ratio (x) = 0.16283 0.06245
# Poissons Ratio (y) = 0.19498 0.30969
# Poissons Ratio (z) = 0.10711 0.44359
#
# Static dielectric constant tensor:
#      x y z
#    x 3.671030 0.000000 0.000000 
#    y 0.000000 3.494250 0.000000 
#    z 0.000000 0.000000 3.238440 
# 
# 
# High freq. dielectric constant tensor:
#      x y z
#    x 1.789430 0.000000 0.000000 
#    y 0.000000 1.772190 0.000000 
#    z 0.000000 0.000000 1.751080 
# 
# From -- ./inp_files/5563.got.cif
#   From: 2010.03.12/outbox.cif.g09.slc.cpg/sg61_3_cif.got.tgz:5563.got - 2010.04.10 19:05:03.
