data_PCOD8249993
_publ_section_title
;
Structure prediction by ZEFSAII (Michael W. Deem and Ramdas Pophale) SiO2 
 PCOD8249993
Probable space group: P N M A
;
_chemical_formula_sum "Si O2"
_cell_formula_units_Z 48
_cell_length_a 8.391402
_cell_length_b 25.582333
_cell_length_c 14.884051
_cell_angle_alpha 90.000000
_cell_angle_beta 90.000000
_cell_angle_gamma 90.000000
_cell_volume 3195.183642
_symmetry_space_group_name_H-M "P N M A"
_symmetry_group_IT_number 62
_symmetry_cell_setting 'orthorhombic'
loop_
_space_group_symop_operation_xyz
x,y,z
1/2-x,-y,1/2+z
1/2+x,1/2-y,1/2-z
-x,1/2+y,-z
-x,-y,-z
1/2+x,y,1/2-z
1/2-x,1/2+y,1/2+z
x,1/2-y,z
loop_
_atom_site_type_symbol
_atom_site_label
_atom_site_fract_x
_atom_site_fract_y
_atom_site_fract_z
Si Si1 0.384431 0.071126 0.394472
Si Si2 0.142364 0.990640 0.434049
Si Si3 0.035422 0.952759 0.705943
Si Si4 0.737625 0.408860 0.446456
Si Si5 0.653336 0.691099 0.864743
Si Si6 0.166455 0.148427 0.307478
O O1 0.395271 0.034922 0.303828
O O2 0.549684 0.082958 0.441839
O O3 0.298776 0.127200 0.377532
O O4 0.275642 0.034557 0.457822
O O5 0.209104 0.932739 0.456650
O O6 0.000000 0.000000 0.500000
O O7 0.072675 0.999596 0.332908
O O8 0.175607 0.938158 0.636394
O O9 0.928134 0.901979 0.728309
O O10 0.784486 0.347689 0.443100
O O11 0.694487 0.750000 0.893823
O O12 0.744475 0.677940 0.772530
O O13 0.461700 0.686748 0.853770
#
# Coordination Sequence:
#
# PCOD8249993 Si02
#       6
#     8   8   8   8   8   8
#     4  11  16  28  46  62  83 121 149 181 220 271
#     4   9  19  28  41  64  89 114 145 180 224 271
#     4   9  16  28  44  62  83 114 145 181 220 263
#     4  10  17  29  41  60  87 113 147 186 222 258
#     4  11  19  28  41  59  86 122 158 187 219 252
#     4  10  17  27  40  59  84 112 154 193 209 249
#
# _framework density 15.02261
#
# number of rings (size 3 to 8) (size 9 to 14) (size 15 to 20)
#    0.000    2.000    5.000    3.000    0.000    0.000 
#    0.000    0.833    0.000    0.000    0.000    0.000 
#    0.000    1.333    0.000    0.000    0.000    1.000 
#
# Total GULP energy -594650.043437 kJ/mol
# GULP energy per Si atom -12388.542572 kJ/mol
# Density = 1.498842 g / cm^3
# Si number density = 15.022610 Si / 1000 Ang^3
#
#
#
# Elastic Constant Matrix: (Units=GPa)
#
#
# Indices 1 2 3 4 5 6 
#
# 1 104.2895 37.4287 19.7293 0.0000 0.0000 0.0000
# 2 37.4287 105.1947 33.1662 0.0000 0.0000 0.0000
# 3 19.7293 33.1662 29.5375 0.0000 0.0000 0.0000
# 4 0.0000 0.0000 0.0000 21.2062 0.0000 0.0000
# 5 0.0000 0.0000 0.0000 0.0000 19.8650 0.0000
# 6 0.0000 0.0000 0.0000 0.0000 0.0000 18.4216
#
#
#
# Elastic Compliance Matrix: (Units=1/GPa)
#
#
# Indices 1 2 3 4 5 6 
#
# 1 0.011405 -0.002564 -0.004739 0.000000 0.000000 0.000000
# 2 -0.002564 0.015292 -0.015458 0.000000 0.000000 0.000000
# 3 -0.004739 -0.015458 0.054378 0.000000 0.000000 0.000000
# 4 0.000000 0.000000 0.000000 0.047156 0.000000 0.000000
# 5 0.000000 0.000000 0.000000 0.000000 0.050340 0.000000
# 6 0.000000 0.000000 0.000000 0.000000 0.000000 0.054284
#
#
# Mechanical properties :
#
#
# Convention : Reuss Voigt Hill
#
# Bulk Modulus (GPa) = 28.12713 46.63002 37.37857
# Shear Modulus (GPa) = 17.22770 21.81170 19.51970
#
# Velocity S-wave (km/s) = 3.39010 3.81455 3.60857
# Velocity P-wave (km/s) = 5.83845 7.10692 6.50368
#
# Compressibility (1/GPa) = 0.03555286
#
# Stress axis : x y z
#
# Youngs Moduli (GPa) = 87.67762 65.39277 18.38967
#
# Poissons Ratio (x) = 0.16766 0.08715
# Poissons Ratio (y) = 0.22479 0.28427
# Poissons Ratio (z) = 0.41553 1.01087
#
# Static dielectric constant tensor:
#      x y z
#    x 3.362070 0.000000 0.000000 
#    y 0.000000 2.986390 0.000000 
#    z 0.000000 0.000000 2.844970 
# 
# 
# High freq. dielectric constant tensor:
#      x y z
#    x 1.609930 0.000000 0.000000 
#    y 0.000000 1.543280 0.000000 
#    z 0.000000 0.000000 1.522780 
# 
# From -- ./inp_files/17274.got.cif
#   From: 2010.03.12/outbox.cif.g09.slc.cpg/sg62_9_cif.got.tgz:17274.got - 2010.04.10 19:12:36.
