data_PCOD8249279
_publ_section_title
;
Structure prediction by ZEFSAII (Michael W. Deem and Ramdas Pophale) SiO2 
 PCOD8249279
Probable space group: P B C A
;
_chemical_formula_sum "Si O2"
_cell_formula_units_Z 64
_cell_length_a 12.108397
_cell_length_b 16.893340
_cell_length_c 14.387549
_cell_angle_alpha 90.000000
_cell_angle_beta 90.000000
_cell_angle_gamma 90.000000
_cell_volume 2942.991382
_symmetry_space_group_name_H-M "P B C A"
_symmetry_group_IT_number 61
_symmetry_cell_setting 'orthorhombic'
loop_
_space_group_symop_operation_xyz
x,y,z
1/2-x,-y,1/2+z
1/2+x,1/2-y,-z
-x,1/2+y,1/2-z
-x,-y,-z
1/2+x,y,1/2-z
1/2-x,1/2+y,z
x,1/2-y,1/2+z
loop_
_atom_site_type_symbol
_atom_site_label
_atom_site_fract_x
_atom_site_fract_y
_atom_site_fract_z
Si Si1 0.908409 0.518679 0.620820
Si Si2 0.877829 0.809367 0.172324
Si Si3 0.705531 0.813112 0.443941
Si Si4 0.866595 0.476227 0.826554
Si Si5 0.849470 0.015503 0.921638
Si Si6 0.071858 0.145244 0.621412
Si Si7 0.136565 0.745451 0.871347
Si Si8 0.071820 0.696924 0.173604
O O1 0.919826 0.613616 0.617798
O O2 0.853532 0.488434 0.715784
O O3 0.834339 0.492576 0.533082
O O4 0.031961 0.482683 0.611240
O O5 0.884628 0.822292 0.281347
O O6 0.751732 0.796895 0.146159
O O7 0.955528 0.735687 0.143451
O O8 0.662271 0.892372 0.393278
O O9 0.839174 0.820520 0.452662
O O10 0.651103 0.807603 0.545513
O O11 0.671994 0.737695 0.382084
O O12 0.743724 0.466032 0.867849
O O13 0.930857 0.549243 0.875364
O O14 0.933342 0.396188 0.849659
O O15 0.950201 0.177171 0.598134
O O16 0.093430 0.793629 0.783240
#
# Coordination Sequence:
#
# PCOD8249279 Si02
#       8
#     8   8   8   8   8   8   8   8
#     4  10  21  40  68  93 126 174 220 265 328 394
#     4  10  21  40  67  92 128 169 219 271 324 379
#     4  11  22  41  66  91 130 166 217 272 312 389
#     4  10  23  40  66  96 135 167 213 281 335 379
#     4  10  22  42  65  97 128 173 225 266 322 401
#     4   9  22  43  64  94 129 171 217 265 329 388
#     4  11  24  40  68  93 130 173 215 268 327 389
#     4  11  23  42  62 101 127 168 218 270 325 387
#
# _framework density 21.746580000000002
#
# number of rings (size 3 to 8) (size 9 to 14) (size 15 to 20)
#    0.000    1.750    2.500    0.750    3.500    1.000 
#    2.250    1.875    0.000    0.000    0.000    0.000 
#    0.000    0.000    0.000    0.000    0.000    0.000 
#
# Total GULP energy -793730.781209 kJ/mol
# GULP energy per Si atom -12402.043456 kJ/mol
# Density = 2.169708 g / cm^3
# Si number density = 21.746580 Si / 1000 Ang^3
#
#
#
# Elastic Constant Matrix: (Units=GPa)
#
#
# Indices 1 2 3 4 5 6 
#
# 1 148.5335 54.9485 39.4159 0.0000 0.0000 0.0000
# 2 54.9485 118.6393 34.3587 0.0000 0.0000 0.0000
# 3 39.4159 34.3587 77.5398 0.0000 0.0000 0.0000
# 4 0.0000 0.0000 0.0000 24.8223 0.0000 0.0000
# 5 0.0000 0.0000 0.0000 0.0000 35.5448 0.0000
# 6 0.0000 0.0000 0.0000 0.0000 0.0000 27.2698
#
#
#
# Elastic Compliance Matrix: (Units=1/GPa)
#
#
# Indices 1 2 3 4 5 6 
#
# 1 0.008702 -0.003154 -0.003026 0.000000 0.000000 0.000000
# 2 -0.003154 0.010813 -0.003188 0.000000 0.000000 0.000000
# 3 -0.003026 -0.003188 0.015847 0.000000 0.000000 0.000000
# 4 0.000000 0.000000 0.000000 0.040286 0.000000 0.000000
# 5 0.000000 0.000000 0.000000 0.000000 0.028134 0.000000
# 6 0.000000 0.000000 0.000000 0.000000 0.000000 0.036671
#
#
# Mechanical properties :
#
#
# Convention : Reuss Voigt Hill
#
# Bulk Modulus (GPa) = 60.14518 66.90654 63.52586
# Shear Modulus (GPa) = 30.35232 31.92666 31.13949
#
# Velocity S-wave (km/s) = 3.74000 3.83577 3.78819
# Velocity P-wave (km/s) = 6.80937 7.10287 6.95766
#
# Compressibility (1/GPa) = 0.01662644
#
# Stress axis : x y z
#
# Youngs Moduli (GPa) = 114.91142 92.48075 63.10156
#
# Poissons Ratio (x) = 0.29170 0.19095
# Poissons Ratio (y) = 0.36245 0.20117
# Poissons Ratio (z) = 0.34773 0.29483
#
# Static dielectric constant tensor:
#      x y z
#    x 3.899170 0.000000 0.000000 
#    y 0.000000 3.834010 0.000000 
#    z 0.000000 0.000000 3.915790 
# 
# 
# High freq. dielectric constant tensor:
#      x y z
#    x 1.851210 0.000000 0.000000 
#    y 0.000000 1.849530 0.000000 
#    z 0.000000 0.000000 1.851680 
# 
# From -- ./inp_files/7624.got.cif
#   From: 2010.03.12/outbox.cif.g09.slc.cpg/sg61_4_cif.got.tgz:7624.got - 2010.04.10 19:05:03.
