data_PCOD8249552
_publ_section_title
;
Structure prediction by ZEFSAII (Michael W. Deem and Ramdas Pophale) SiO2 
 PCOD8249552
Probable space group: P B C A
;
_chemical_formula_sum "Si O2"
_cell_formula_units_Z 48
_cell_length_a 5.430581
_cell_length_b 13.190123
_cell_length_c 28.294811
_cell_angle_alpha 90.000000
_cell_angle_beta 90.000000
_cell_angle_gamma 90.000000
_cell_volume 2026.758199
_symmetry_space_group_name_H-M "P B C A"
_symmetry_group_IT_number 61
_symmetry_cell_setting 'orthorhombic'
loop_
_space_group_symop_operation_xyz
x,y,z
1/2-x,-y,1/2+z
1/2+x,1/2-y,-z
-x,1/2+y,1/2-z
-x,-y,-z
1/2+x,y,1/2-z
1/2-x,1/2+y,z
x,1/2-y,1/2+z
loop_
_atom_site_type_symbol
_atom_site_label
_atom_site_fract_x
_atom_site_fract_y
_atom_site_fract_z
Si Si1 0.993658 0.947676 0.338440
Si Si2 0.630879 0.813596 0.002878
Si Si3 0.496770 0.636109 0.278264
Si Si4 0.304863 0.262166 0.140563
Si Si5 0.362348 0.594183 0.910688
Si Si6 0.211145 0.076530 0.085296
O O1 0.853241 0.841917 0.328572
O O2 0.266949 0.923319 0.357003
O O3 0.000132 0.016609 0.291776
O O4 0.871872 0.004879 0.382070
O O5 0.651051 0.870827 0.053152
O O6 0.374124 0.755256 0.003469
O O7 0.630685 0.895288 0.960796
O O8 0.242533 0.660212 0.251704
O O9 0.501654 0.706806 0.324590
O O10 0.439558 0.315759 0.096079
O O11 0.133096 0.176460 0.115655
O O12 0.472975 0.488227 0.930160
#
# Coordination Sequence:
#
# PCOD8249552 Si02
#       6
#     8   8   8   8   8   8
#     4  10  25  43  74  98 141 181 236 282 359 421
#     4  12  26  43  69 104 144 188 242 286 339 412
#     4  11  28  47  72 106 138 177 228 292 354 422
#     4  10  23  46  69 101 138 186 230 285 357 421
#     4  11  24  42  72  99 140 193 231 292 345 416
#     4  10  23  43  66 102 140 187 234 290 343 411
#
# _framework density 23.683142
#
# number of rings (size 3 to 8) (size 9 to 14) (size 15 to 20)
#    0.000    1.333    1.667    1.500   14.000    3.333 
#    0.000    0.000    0.000    0.000    0.000    0.000 
#    0.000    0.000    0.000    0.000    0.000    0.000 
#
# Total GULP energy -595108.093767 kJ/mol
# GULP energy per Si atom -12398.085287 kJ/mol
# Density = 2.362924 g / cm^3
# Si number density = 23.683142 Si / 1000 Ang^3
#
#
#
# Elastic Constant Matrix: (Units=GPa)
#
#
# Indices 1 2 3 4 5 6 
#
# 1 74.1414 16.1829 1.8235 0.0000 0.0000 0.0000
# 2 16.1829 120.7613 21.6255 0.0000 0.0000 0.0000
# 3 1.8235 21.6255 67.3135 0.0000 0.0000 0.0000
# 4 0.0000 0.0000 0.0000 36.9330 0.0000 0.0000
# 5 0.0000 0.0000 0.0000 0.0000 35.7123 0.0000
# 6 0.0000 0.0000 0.0000 0.0000 0.0000 21.5079
#
#
#
# Elastic Compliance Matrix: (Units=1/GPa)
#
#
# Indices 1 2 3 4 5 6 
#
# 1 0.013898 -0.001905 0.000235 0.000000 0.000000 0.000000
# 2 -0.001905 0.009047 -0.002855 0.000000 0.000000 0.000000
# 3 0.000235 -0.002855 0.015767 0.000000 0.000000 0.000000
# 4 0.000000 0.000000 0.000000 0.027076 0.000000 0.000000
# 5 0.000000 0.000000 0.000000 0.000000 0.028002 0.000000
# 6 0.000000 0.000000 0.000000 0.000000 0.000000 0.046495
#
#
# Mechanical properties :
#
#
# Convention : Reuss Voigt Hill
#
# Bulk Modulus (GPa) = 33.71164 37.94223 35.82694
# Shear Modulus (GPa) = 31.40312 33.66960 32.53636
#
# Velocity S-wave (km/s) = 3.64534 3.77459 3.71053
# Velocity P-wave (km/s) = 5.65538 5.92050 5.78946
#
# Compressibility (1/GPa) = 0.02966334
#
# Stress axis : x y z
#
# Youngs Moduli (GPa) = 71.95462 110.53042 63.42479
#
# Poissons Ratio (x) = 0.21051 -0.01493
# Poissons Ratio (y) = 0.13704 0.18108
# Poissons Ratio (z) = -0.01694 0.31556
#
# Static dielectric constant tensor:
#      x y z
#    x 4.071530 0.000000 0.000000 
#    y 0.000000 4.609990 0.000000 
#    z 0.000000 0.000000 4.168260 
# 
# 
# High freq. dielectric constant tensor:
#      x y z
#    x 1.923410 0.000000 0.000000 
#    y 0.000000 1.957700 0.000000 
#    z 0.000000 0.000000 1.930890 
# 
# From -- ./inp_files/11240.got.cif
#   From: 2010.03.12/outbox.cif.g09.slc.cpg/sg61_6_cif.got.tgz:11240.got - 2010.04.10 19:05:03.
