data_PCOD8249655
_publ_section_title
;
Structure prediction by ZEFSAII (Michael W. Deem and Ramdas Pophale) SiO2 
 PCOD8249655
Probable space group: P B C A
;
_chemical_formula_sum "Si O2"
_cell_formula_units_Z 40
_cell_length_a 9.576962
_cell_length_b 7.658460
_cell_length_c 23.046212
_cell_angle_alpha 90.000000
_cell_angle_beta 90.000000
_cell_angle_gamma 90.000000
_cell_volume 1690.319358
_symmetry_space_group_name_H-M "P B C A"
_symmetry_group_IT_number 61
_symmetry_cell_setting 'orthorhombic'
loop_
_space_group_symop_operation_xyz
x,y,z
1/2-x,-y,1/2+z
1/2+x,1/2-y,-z
-x,1/2+y,1/2-z
-x,-y,-z
1/2+x,y,1/2-z
1/2-x,1/2+y,z
x,1/2-y,1/2+z
loop_
_atom_site_type_symbol
_atom_site_label
_atom_site_fract_x
_atom_site_fract_y
_atom_site_fract_z
Si Si1 0.422010 0.482959 0.098729
Si Si2 0.964277 0.984597 0.221965
Si Si3 0.909769 0.850777 0.573412
Si Si4 0.178736 0.124872 0.301463
Si Si5 0.636666 0.141807 0.944918
O O1 0.440114 0.523022 0.166397
O O2 0.540364 0.350233 0.076347
O O3 0.276771 0.381433 0.091181
O O4 0.429696 0.666941 0.065070
O O5 0.834033 0.119252 0.225087
O O6 0.066855 0.983538 0.277507
O O7 0.888753 0.801423 0.219986
O O8 0.809979 0.890795 0.628470
O O9 0.826292 0.876126 0.513428
O O10 0.035357 0.988309 0.575403
#
# Coordination Sequence:
#
# PCOD8249655 Si02
#       5
#     8   8   8   8   8
#     4  11  24  44  70 104 139 187 234 292 352 426
#     4  11  27  45  74 102 141 186 235 294 354 419
#     4  10  25  44  66 103 135 188 233 288 347 422
#     4  11  26  47  69 103 138 182 237 289 350 421
#     4  11  23  42  72  97 145 182 232 288 353 413
#
# _framework density 23.664166999999999
#
# number of rings (size 3 to 8) (size 9 to 14) (size 15 to 20)
#    0.000    1.200    2.000    1.800    8.400    4.800 
#    0.000    0.000    0.000    0.000    0.000    0.000 
#    0.000    0.000    0.000    0.000    0.000    0.000 
#
# Total GULP energy -495976.343725 kJ/mol
# GULP energy per Si atom -12399.408593 kJ/mol
# Density = 2.361031 g / cm^3
# Si number density = 23.664167 Si / 1000 Ang^3
#
#
#
# Elastic Constant Matrix: (Units=GPa)
#
#
# Indices 1 2 3 4 5 6 
#
# 1 98.9726 10.8587 42.1957 0.0000 0.0000 0.0000
# 2 10.8587 95.6604 40.1388 0.0000 0.0000 0.0000
# 3 42.1957 40.1388 76.3785 0.0000 0.0000 0.0000
# 4 0.0000 0.0000 0.0000 32.0134 0.0000 0.0000
# 5 0.0000 0.0000 0.0000 0.0000 25.5823 0.0000
# 6 0.0000 0.0000 0.0000 0.0000 0.0000 26.3123
#
#
#
# Elastic Compliance Matrix: (Units=1/GPa)
#
#
# Indices 1 2 3 4 5 6 
#
# 1 0.013524 0.002052 -0.008550 0.000000 0.000000 0.000000
# 2 0.002052 0.013722 -0.008345 0.000000 0.000000 0.000000
# 3 -0.008550 -0.008345 0.022202 0.000000 0.000000 0.000000
# 4 0.000000 0.000000 0.000000 0.031237 0.000000 0.000000
# 5 0.000000 0.000000 0.000000 0.000000 0.039089 0.000000
# 6 0.000000 0.000000 0.000000 0.000000 0.000000 0.038005
#
#
# Mechanical properties :
#
#
# Convention : Reuss Voigt Hill
#
# Bulk Modulus (GPa) = 50.60129 50.82198 50.71163
# Shear Modulus (GPa) = 25.76628 28.63617 27.20122
#
# Velocity S-wave (km/s) = 3.30332 3.48243 3.39406
# Velocity P-wave (km/s) = 5.99823 6.13944 6.06925
#
# Compressibility (1/GPa) = 0.01976234
#
# Stress axis : x y z
#
# Youngs Moduli (GPa) = 73.94405 72.87402 45.04156
#
# Poissons Ratio (x) = -0.14956 0.38510
# Poissons Ratio (y) = -0.15176 0.37588
# Poissons Ratio (z) = 0.63221 0.60815
#
# Static dielectric constant tensor:
#      x y z
#    x 1.080980 0.000000 0.000000 
#    y 0.000000 4.471890 0.000000 
#    z 0.000000 0.000000 4.556270 
# 
# 
# High freq. dielectric constant tensor:
#      x y z
#    x 1.929650 0.000000 0.000000 
#    y 0.000000 1.956790 0.000000 
#    z 0.000000 0.000000 1.938710 
# 
# From -- ./inp_files/1736.got.cif
#   From: 2010.03.12/outbox.cif.g09.slc.cpg/sg61_1_cif.got.tgz:1736.got - 2010.04.10 19:05:03.
