data_PCOD8249018
_publ_section_title
;
Structure prediction by ZEFSAII (Michael W. Deem and Ramdas Pophale) SiO2 
 PCOD8249018
Probable space group: P B C A
;
_chemical_formula_sum "Si O2"
_cell_formula_units_Z 48
_cell_length_a 16.129764
_cell_length_b 8.749256
_cell_length_c 16.764198
_cell_angle_alpha 90.000000
_cell_angle_beta 90.000000
_cell_angle_gamma 90.000000
_cell_volume 2365.821198
_symmetry_space_group_name_H-M "P B C A"
_symmetry_group_IT_number 61
_symmetry_cell_setting 'orthorhombic'
loop_
_space_group_symop_operation_xyz
x,y,z
1/2-x,-y,1/2+z
1/2+x,1/2-y,-z
-x,1/2+y,1/2-z
-x,-y,-z
1/2+x,y,1/2-z
1/2-x,1/2+y,z
x,1/2-y,1/2+z
loop_
_atom_site_type_symbol
_atom_site_label
_atom_site_fract_x
_atom_site_fract_y
_atom_site_fract_z
Si Si1 0.006051 0.217228 0.673100
Si Si2 0.326766 0.717098 0.594228
Si Si3 0.909061 0.520530 0.699837
Si Si4 0.744033 0.970104 0.807070
Si Si5 0.307082 0.778017 0.412427
Si Si6 0.338867 0.053529 0.840579
O O1 0.975956 0.391496 0.679767
O O2 0.933669 0.101197 0.649604
O O3 0.074050 0.208811 0.603100
O O4 0.047570 0.162087 0.755439
O O5 0.282275 0.555532 0.611186
O O6 0.308118 0.778831 0.507400
O O7 0.287961 0.816360 0.665739
O O8 0.838005 0.441040 0.753759
O O9 0.869738 0.591632 0.619656
O O10 0.811013 0.058400 0.752044
O O11 0.213946 0.820766 0.388202
O O12 0.328958 0.613756 0.377462
#
# Coordination Sequence:
#
# PCOD8249018 Si02
#       6
#     8   8   8   8   8   8
#     4  11  22  37  61  88 117 152 203 253 293 342
#     4  11  23  38  59  89 119 152 192 247 302 352
#     4  10  21  38  60  88 117 158 202 244 291 349
#     4  10  20  38  61  82 112 156 202 234 284 358
#     4  11  23  39  60  86 122 158 193 239 304 362
#     4  11  21  40  63  84 115 160 204 244 288 356
#
# _framework density 20.288937000000001
#
# number of rings (size 3 to 8) (size 9 to 14) (size 15 to 20)
#    0.000    1.333    0.000    9.000    0.000    1.333 
#    0.000    3.333    0.000    0.000    0.000    0.000 
#    0.000    0.000    0.000    0.000    0.000    0.000 
#
# Total GULP energy -595279.347295 kJ/mol
# GULP energy per Si atom -12401.653069 kJ/mol
# Density = 2.024276 g / cm^3
# Si number density = 20.288937 Si / 1000 Ang^3
#
#
#
# Elastic Constant Matrix: (Units=GPa)
#
#
# Indices 1 2 3 4 5 6 
#
# 1 93.9736 19.0628 26.9819 0.0000 0.0000 0.0000
# 2 19.0628 65.9409 14.4474 0.0000 0.0000 0.0000
# 3 26.9819 14.4474 98.8723 0.0000 0.0000 0.0000
# 4 0.0000 0.0000 0.0000 24.5412 0.0000 0.0000
# 5 0.0000 0.0000 0.0000 0.0000 14.4582 0.0000
# 6 0.0000 0.0000 0.0000 0.0000 0.0000 43.2584
#
#
#
# Elastic Compliance Matrix: (Units=1/GPa)
#
#
# Indices 1 2 3 4 5 6 
#
# 1 0.012044 -0.002853 -0.002870 0.000000 0.000000 0.000000
# 2 -0.002853 0.016342 -0.001609 0.000000 0.000000 0.000000
# 3 -0.002870 -0.001609 0.011132 0.000000 0.000000 0.000000
# 4 0.000000 0.000000 0.000000 0.040748 0.000000 0.000000
# 5 0.000000 0.000000 0.000000 0.000000 0.069165 0.000000
# 6 0.000000 0.000000 0.000000 0.000000 0.000000 0.023117
#
#
# Mechanical properties :
#
#
# Convention : Reuss Voigt Hill
#
# Bulk Modulus (GPa) = 40.23450 42.19678 41.21564
# Shear Modulus (GPa) = 25.57574 29.67122 27.62348
#
# Velocity S-wave (km/s) = 3.55431 3.82833 3.69386
# Velocity P-wave (km/s) = 6.05954 6.35488 6.20896
#
# Compressibility (1/GPa) = 0.02485429
#
# Stress axis : x y z
#
# Youngs Moduli (GPa) = 83.02863 61.19019 89.82784
#
# Poissons Ratio (x) = 0.17458 0.25780
# Poissons Ratio (y) = 0.23688 0.14457
# Poissons Ratio (z) = 0.23828 0.09848
#
# Static dielectric constant tensor:
#      x y z
#    x 3.905670 0.000000 0.000000 
#    y 0.000000 3.640870 0.000000 
#    z 0.000000 0.000000 3.471670 
# 
# 
# High freq. dielectric constant tensor:
#      x y z
#    x 1.802430 0.000000 0.000000 
#    y 0.000000 1.803250 0.000000 
#    z 0.000000 0.000000 1.777030 
# 
# From -- ./inp_files/2833.got.cif
#   From: 2010.03.12/outbox.cif.g09.slc.cpg/sg61_2_cif.got.tgz:2833.got - 2010.04.10 19:05:03.
