data_PCOD8249798
_publ_section_title
;
Structure prediction by ZEFSAII (Michael W. Deem and Ramdas Pophale) SiO2 
 PCOD8249798
Probable space group: P B C A
;
_chemical_formula_sum "Si O2"
_cell_formula_units_Z 48
_cell_length_a 16.147579
_cell_length_b 14.922497
_cell_length_c 9.066001
_cell_angle_alpha 90.000000
_cell_angle_beta 90.000000
_cell_angle_gamma 90.000000
_cell_volume 2184.563539
_symmetry_space_group_name_H-M "P B C A"
_symmetry_group_IT_number 61
_symmetry_cell_setting 'orthorhombic'
loop_
_space_group_symop_operation_xyz
x,y,z
1/2-x,-y,1/2+z
1/2+x,1/2-y,-z
-x,1/2+y,1/2-z
-x,-y,-z
1/2+x,y,1/2-z
1/2-x,1/2+y,z
x,1/2-y,1/2+z
loop_
_atom_site_type_symbol
_atom_site_label
_atom_site_fract_x
_atom_site_fract_y
_atom_site_fract_z
Si Si1 0.207626 0.266425 0.271338
Si Si2 0.498578 0.422274 0.620211
Si Si3 0.733265 0.050933 0.595400
Si Si4 0.562551 0.068931 0.430522
Si Si5 0.411752 0.737216 0.518235
Si Si6 0.313958 0.401545 0.687389
O O1 0.245208 0.365594 0.292625
O O2 0.121850 0.278126 0.182531
O O3 0.174427 0.231143 0.427670
O O4 0.275248 0.198644 0.200198
O O5 0.500000 0.500000 0.500000
O O6 0.563987 0.441259 0.752045
O O7 0.520898 0.334407 0.528940
O O8 0.412723 0.404436 0.708689
O O9 0.653934 0.053023 0.489585
O O10 0.807021 0.055994 0.476800
O O11 0.732836 0.960511 0.689714
O O12 0.538791 0.168810 0.483986
O O13 0.500000 0.000000 0.500000
#
# Coordination Sequence:
#
# PCOD8249798 Si02
#       6
#     8   8   8   8   8   8
#     4  11  23  47  70  96 135 184 228 276 351 408
#     4  12  27  43  72 105 139 181 239 284 345 414
#     4  11  26  44  70  98 139 180 226 292 346 406
#     4  11  23  47  68  97 135 179 228 281 348 408
#     4  11  23  46  72  93 137 186 226 281 347 412
#     4  12  26  44  69 106 135 184 234 283 348 418
#
# _framework density 21.972353999999999
#
# number of rings (size 3 to 8) (size 9 to 14) (size 15 to 20)
#    0.000    0.667    6.667    1.000    9.333    1.333 
#    3.000    0.000    0.000    0.000    0.000    0.000 
#    0.000    0.000    0.000    0.000    0.000    0.000 
#
# Total GULP energy -595059.725370 kJ/mol
# GULP energy per Si atom -12397.077612 kJ/mol
# Density = 2.192234 g / cm^3
# Si number density = 21.972354 Si / 1000 Ang^3
#
#
#
# Elastic Constant Matrix: (Units=GPa)
#
#
# Indices 1 2 3 4 5 6 
#
# 1 51.3994 27.2040 16.1956 0.0000 0.0000 0.0000
# 2 27.2040 109.5139 57.9996 0.0000 0.0000 0.0000
# 3 16.1956 57.9996 96.4100 0.0000 0.0000 0.0000
# 4 0.0000 0.0000 0.0000 44.3548 0.0000 0.0000
# 5 0.0000 0.0000 0.0000 0.0000 38.5832 0.0000
# 6 0.0000 0.0000 0.0000 0.0000 0.0000 30.2221
#
#
#
# Elastic Compliance Matrix: (Units=1/GPa)
#
#
# Indices 1 2 3 4 5 6 
#
# 1 0.022425 -0.005247 -0.000610 0.000000 0.000000 0.000000
# 2 -0.005247 0.014629 -0.007919 0.000000 0.000000 0.000000
# 3 -0.000610 -0.007919 0.015239 0.000000 0.000000 0.000000
# 4 0.000000 0.000000 0.000000 0.022545 0.000000 0.000000
# 5 0.000000 0.000000 0.000000 0.000000 0.025918 0.000000
# 6 0.000000 0.000000 0.000000 0.000000 0.000000 0.033088
#
#
# Mechanical properties :
#
#
# Convention : Reuss Voigt Hill
#
# Bulk Modulus (GPa) = 40.42159 51.12463 45.77311
# Shear Modulus (GPa) = 29.47343 33.02698 31.25020
#
# Velocity S-wave (km/s) = 3.66647 3.88121 3.77537
# Velocity P-wave (km/s) = 6.02997 6.58812 6.31521
#
# Compressibility (1/GPa) = 0.02473926
#
# Stress axis : x y z
#
# Youngs Moduli (GPa) = 44.59312 68.35872 65.62130
#
# Poissons Ratio (x) = 0.35869 0.04006
# Poissons Ratio (y) = 0.23399 0.51966
# Poissons Ratio (z) = 0.02722 0.54134
#
# Static dielectric constant tensor:
#      x y z
#    x -0.498520 0.000000 0.000000 
#    y 0.000000 -6.004610 0.000000 
#    z 0.000000 0.000000 4.471440 
# 
# 
# High freq. dielectric constant tensor:
#      x y z
#    x 1.847520 0.000000 0.000000 
#    y 0.000000 1.868380 0.000000 
#    z 0.000000 0.000000 1.883720 
# 
# From -- ./inp_files/3467.got.cif
#   From: 2010.03.12/outbox.cif.g09.slc.cpg/sg61_2_cif.got.tgz:3467.got - 2010.04.10 19:05:03.
