data_PCOD8249113
_publ_section_title
;
Structure prediction by ZEFSAII (Michael W. Deem and Ramdas Pophale) SiO2 
 PCOD8249113
Probable space group: P B C A
;
_chemical_formula_sum "Si O2"
_cell_formula_units_Z 48
_cell_length_a 17.520553
_cell_length_b 13.905851
_cell_length_c 9.510882
_cell_angle_alpha 90.000000
_cell_angle_beta 90.000000
_cell_angle_gamma 90.000000
_cell_volume 2317.214166
_symmetry_space_group_name_H-M "P B C A"
_symmetry_group_IT_number 61
_symmetry_cell_setting 'orthorhombic'
loop_
_space_group_symop_operation_xyz
x,y,z
1/2-x,-y,1/2+z
1/2+x,1/2-y,-z
-x,1/2+y,1/2-z
-x,-y,-z
1/2+x,y,1/2-z
1/2-x,1/2+y,z
x,1/2-y,1/2+z
loop_
_atom_site_type_symbol
_atom_site_label
_atom_site_fract_x
_atom_site_fract_y
_atom_site_fract_z
Si Si1 0.224348 0.887796 0.619870
Si Si2 0.533853 0.944485 0.179534
Si Si3 0.947401 0.126658 0.386370
Si Si4 0.848528 0.768929 0.442394
Si Si5 0.550358 0.294642 0.177133
Si Si6 0.810036 0.960074 0.615723
O O1 0.139676 0.848502 0.649082
O O2 0.274001 0.793946 0.587758
O O3 0.250890 0.942345 0.759756
O O4 0.225438 0.961510 0.489209
O O5 0.510218 0.883031 0.317033
O O6 0.463700 0.016898 0.155789
O O7 0.613399 0.000800 0.191454
O O8 0.536868 0.866084 0.053572
O O9 0.003013 0.196779 0.302559
O O10 0.908060 0.702245 0.527100
O O11 0.885571 0.803089 0.297233
O O12 0.827638 0.861835 0.534371
#
# Coordination Sequence:
#
# PCOD8249113 Si02
#       6
#     8   8   8   8   8   8
#     4  11  26  41  68 101 133 177 218 281 341 401
#     4  10  20  42  68  88 130 177 216 270 333 401
#     4  10  21  41  64  96 125 172 221 265 335 402
#     4  12  24  44  68  95 138 175 223 275 341 404
#     4  12  22  42  71  95 125 180 227 276 331 404
#     4  11  25  47  66  98 138 179 223 275 349 404
#
# _framework density 20.714528999999999
#
# number of rings (size 3 to 8) (size 9 to 14) (size 15 to 20)
#    0.000    1.000    5.000    2.000    4.667    4.000 
#    3.000    1.667    0.000    0.000    0.000    0.000 
#    0.000    0.000    0.000    0.000    0.000    0.000 
#
# Total GULP energy -595253.398783 kJ/mol
# GULP energy per Si atom -12401.112475 kJ/mol
# Density = 2.066738 g / cm^3
# Si number density = 20.714529 Si / 1000 Ang^3
#
#
#
# Elastic Constant Matrix: (Units=GPa)
#
#
# Indices 1 2 3 4 5 6 
#
# 1 123.9321 43.2954 26.8545 0.0000 0.0000 0.0000
# 2 43.2954 60.3829 7.7547 0.0000 0.0000 0.0000
# 3 26.8545 7.7547 43.9740 0.0000 0.0000 0.0000
# 4 0.0000 0.0000 0.0000 24.7804 0.0000 0.0000
# 5 0.0000 0.0000 0.0000 0.0000 27.1474 0.0000
# 6 0.0000 0.0000 0.0000 0.0000 0.0000 34.7755
#
#
#
# Elastic Compliance Matrix: (Units=1/GPa)
#
#
# Indices 1 2 3 4 5 6 
#
# 1 0.012145 -0.007935 -0.006017 0.000000 0.000000 0.000000
# 2 -0.007935 0.022130 0.000944 0.000000 0.000000 0.000000
# 3 -0.006017 0.000944 0.026249 0.000000 0.000000 0.000000
# 4 0.000000 0.000000 0.000000 0.040354 0.000000 0.000000
# 5 0.000000 0.000000 0.000000 0.000000 0.036836 0.000000
# 6 0.000000 0.000000 0.000000 0.000000 0.000000 0.028756
#
#
# Mechanical properties :
#
#
# Convention : Reuss Voigt Hill
#
# Bulk Modulus (GPa) = 28.98114 42.67757 35.82935
# Shear Modulus (GPa) = 24.51097 27.36629 25.93863
#
# Velocity S-wave (km/s) = 3.44361 3.63866 3.54248
# Velocity P-wave (km/s) = 5.46190 6.18875 5.83665
#
# Compressibility (1/GPa) = 0.03450520
#
# Stress axis : x y z
#
# Youngs Moduli (GPa) = 82.33809 45.18835 38.09648
#
# Poissons Ratio (x) = 0.35859 0.22924
# Poissons Ratio (y) = 0.65338 -0.03595
# Poissons Ratio (z) = 0.49547 -0.04264
#
# Static dielectric constant tensor:
#      x y z
#    x 3.851840 0.000000 0.000000 
#    y 0.000000 3.734910 0.000000 
#    z 0.000000 0.000000 3.761300 
# 
# 
# High freq. dielectric constant tensor:
#      x y z
#    x 1.821800 0.000000 0.000000 
#    y 0.000000 1.813170 0.000000 
#    z 0.000000 0.000000 1.798510 
# 
# From -- ./inp_files/3475.got.cif
#   From: 2010.03.12/outbox.cif.g09.slc.cpg/sg61_2_cif.got.tgz:3475.got - 2010.04.10 19:05:03.
