data_PCOD8249959
_publ_section_title
;
Structure prediction by ZEFSAII (Michael W. Deem and Ramdas Pophale) SiO2 
 PCOD8249959
Probable space group: P N M A
;
_chemical_formula_sum "Si O2"
_cell_formula_units_Z 64
_cell_length_a 9.250097
_cell_length_b 18.918617
_cell_length_c 18.170615
_cell_angle_alpha 90.000000
_cell_angle_beta 90.000000
_cell_angle_gamma 90.000000
_cell_volume 3179.840224
_symmetry_space_group_name_H-M "P N M A"
_symmetry_group_IT_number 62
_symmetry_cell_setting 'orthorhombic'
loop_
_space_group_symop_operation_xyz
x,y,z
1/2-x,-y,1/2+z
1/2+x,1/2-y,1/2-z
-x,1/2+y,-z
-x,-y,-z
1/2+x,y,1/2-z
1/2-x,1/2+y,1/2+z
x,1/2-y,z
loop_
_atom_site_type_symbol
_atom_site_label
_atom_site_fract_x
_atom_site_fract_y
_atom_site_fract_z
Si Si1 0.410623 0.410734 0.133006
Si Si2 0.161887 0.518531 0.130099
Si Si3 0.373557 0.098400 0.763020
Si Si4 0.801766 0.975784 0.624848
Si Si5 0.038529 0.906867 0.803496
Si Si6 0.651691 0.170075 0.411782
Si Si7 0.914426 0.572676 0.045826
Si Si8 0.386341 0.669234 0.316504
O O1 0.308022 0.477319 0.115701
O O2 0.562543 0.429825 0.092847
O O3 0.441138 0.393338 0.217672
O O4 0.323789 0.342538 0.101833
O O5 0.195341 0.586217 0.180866
O O6 0.051122 0.478080 0.184604
O O7 0.072019 0.532709 0.053439
O O8 0.535036 0.127099 0.750093
O O9 0.283631 0.161508 0.800695
O O10 0.366635 0.028616 0.813756
O O11 0.696110 0.917693 0.660853
O O12 0.721110 0.020364 0.561211
O O13 0.947424 0.841764 0.839273
O O14 0.631622 0.250000 0.440666
O O15 0.596085 0.109457 0.467039
O O16 0.921404 0.634748 0.105409
O O17 0.434931 0.750000 0.319309
#
# Coordination Sequence:
#
# PCOD8249959 Si02
#       8
#     8   8   8   8   8   8   8   8
#     4  11  19  34  61  90 116 137 180 251 306 338
#     4   9  17  31  58  86 113 144 182 230 294 343
#     4  10  16  28  49  77 109 142 176 227 282 322
#     4  10  18  32  58  89 114 139 181 239 309 333
#     4  10  19  35  60  85 113 142 184 244 294 345
#     4  11  25  42  58  77 114 163 200 227 273 349
#     4   9  21  37  55  79 112 157 190 226 273 349
#     4  10  19  29  47  75 112 150 189 219 259 328
#
# _framework density 20.126797
#
# number of rings (size 3 to 8) (size 9 to 14) (size 15 to 20)
#    0.000    2.000    2.500    3.000    0.000    5.500 
#    0.000    0.625    0.000    0.000    0.000    3.500 
#    0.000    0.000    0.000    0.000    0.000    0.000 
#
# Total GULP energy -793033.749866 kJ/mol
# GULP energy per Si atom -12391.152342 kJ/mol
# Density = 2.008099 g / cm^3
# Si number density = 20.126797 Si / 1000 Ang^3
#
#
#
# Elastic Constant Matrix: (Units=GPa)
#
#
# Indices 1 2 3 4 5 6 
#
# 1 105.2802 34.9081 23.1220 0.0000 0.0000 0.0000
# 2 34.9081 77.2499 12.5412 0.0000 0.0000 0.0000
# 3 23.1220 12.5412 62.6866 0.0000 0.0000 0.0000
# 4 0.0000 0.0000 0.0000 16.6283 0.0000 0.0000
# 5 0.0000 0.0000 0.0000 0.0000 27.2234 0.0000
# 6 0.0000 0.0000 0.0000 0.0000 0.0000 23.3724
#
#
#
# Elastic Compliance Matrix: (Units=1/GPa)
#
#
# Indices 1 2 3 4 5 6 
#
# 1 0.011837 -0.004796 -0.003407 0.000000 0.000000 0.000000
# 2 -0.004796 0.015323 -0.001297 0.000000 0.000000 0.000000
# 3 -0.003407 -0.001297 0.017468 0.000000 0.000000 0.000000
# 4 0.000000 0.000000 0.000000 0.060138 0.000000 0.000000
# 5 0.000000 0.000000 0.000000 0.000000 0.036733 0.000000
# 6 0.000000 0.000000 0.000000 0.000000 0.000000 0.042785
#
#
# Mechanical properties :
#
#
# Convention : Reuss Voigt Hill
#
# Bulk Modulus (GPa) = 39.01695 42.92881 40.97288
# Shear Modulus (GPa) = 23.60430 25.08785 24.34608
#
# Velocity S-wave (km/s) = 3.42830 3.53440 3.48175
# Velocity P-wave (km/s) = 5.92441 6.16696 6.04690
#
# Compressibility (1/GPa) = 0.02562988
#
# Stress axis : x y z
#
# Youngs Moduli (GPa) = 84.48242 65.26285 57.24666
#
# Poissons Ratio (x) = 0.31299 0.19501
# Poissons Ratio (y) = 0.40516 0.07422
# Poissons Ratio (z) = 0.28779 0.08462
#
# Static dielectric constant tensor:
#      x y z
#    x 3.873880 0.000000 0.000000 
#    y 0.000000 3.411960 0.000000 
#    z 0.000000 0.000000 3.510130 
# 
# 
# High freq. dielectric constant tensor:
#      x y z
#    x 1.790470 0.000000 0.000000 
#    y 0.000000 1.757960 0.000000 
#    z 0.000000 0.000000 1.775420 
# 
# From -- ./inp_files/22544.got.cif
#   From: 2010.03.12/outbox.cif.g09.slc.cpg/sg62_12_cif.got.tgz:22544.got - 2010.04.10 19:12:36.
