data_PCOD8249845
_publ_section_title
;
Structure prediction by ZEFSAII (Michael W. Deem and Ramdas Pophale) SiO2 
 PCOD8249845
Probable space group: P B C A
;
_chemical_formula_sum "Si O2"
_cell_formula_units_Z 64
_cell_length_a 22.376256
_cell_length_b 8.702476
_cell_length_c 15.401080
_cell_angle_alpha 90.000000
_cell_angle_beta 90.000000
_cell_angle_gamma 90.000000
_cell_volume 2999.034302
_symmetry_space_group_name_H-M "P B C A"
_symmetry_group_IT_number 61
_symmetry_cell_setting 'orthorhombic'
loop_
_space_group_symop_operation_xyz
x,y,z
1/2-x,-y,1/2+z
1/2+x,1/2-y,-z
-x,1/2+y,1/2-z
-x,-y,-z
1/2+x,y,1/2-z
1/2-x,1/2+y,z
x,1/2-y,1/2+z
loop_
_atom_site_type_symbol
_atom_site_label
_atom_site_fract_x
_atom_site_fract_y
_atom_site_fract_z
Si Si1 0.298744 0.118315 0.237927
Si Si2 0.053446 0.345071 0.426697
Si Si3 0.006531 0.824579 0.896616
Si Si4 0.579640 0.159331 0.238436
Si Si5 0.225431 0.484521 0.901496
Si Si6 0.811006 0.797434 0.325298
Si Si7 0.818575 0.821646 0.013974
Si Si8 0.383411 0.340550 0.323921
O O1 0.256077 0.244825 0.195419
O O2 0.360445 0.203390 0.261842
O O3 0.268248 0.033834 0.319133
O O4 0.313717 0.982649 0.169792
O O5 0.018647 0.494208 0.394479
O O6 0.051002 0.216822 0.351712
O O7 0.120976 0.395162 0.448923
O O8 0.022687 0.273570 0.512345
O O9 0.066547 0.725878 0.887739
O O10 0.962631 0.789100 0.816890
O O11 0.644509 0.236776 0.250768
O O12 0.588793 0.976041 0.234703
O O13 0.172031 0.602163 0.881667
O O14 0.265484 0.553804 0.979551
O O15 0.197877 0.324093 0.928168
O O16 0.831144 0.725659 0.415808
#
# Coordination Sequence:
#
# PCOD8249845 Si02
#       8
#     8   8   8   8   8   8   8   8
#     4  12  22  43  67 100 136 183 222 282 349 422
#     4  11  24  47  71  96 143 184 229 296 343 406
#     4  11  26  46  69 103 134 191 243 281 346 414
#     4  12  23  46  71  99 139 183 232 293 341 408
#     4  12  22  40  67  96 136 175 225 276 349 413
#     4  12  23  41  66 101 142 174 230 278 345 418
#     4  12  24  42  66 103 138 179 221 285 349 412
#     4  12  24  41  72 100 133 184 236 282 353 415
#
# _framework density 21.340202999999999
#
# number of rings (size 3 to 8) (size 9 to 14) (size 15 to 20)
#    0.000    0.250    6.250    3.750    0.000    0.500 
#    0.000    3.750    0.000    0.000    0.000    0.000 
#    0.000    0.000    0.000    0.000    0.000    0.000 
#
# Total GULP energy -794076.819889 kJ/mol
# GULP energy per Si atom -12407.450311 kJ/mol
# Density = 2.129163 g / cm^3
# Si number density = 21.340203 Si / 1000 Ang^3
#
#
#
# Elastic Constant Matrix: (Units=GPa)
#
#
# Indices 1 2 3 4 5 6 
#
# 1 87.2936 18.7474 33.4882 0.0000 0.0000 0.0000
# 2 18.7474 74.9610 18.1181 0.0000 0.0000 0.0000
# 3 33.4882 18.1181 100.0525 0.0000 0.0000 0.0000
# 4 0.0000 0.0000 0.0000 32.4605 0.0000 0.0000
# 5 0.0000 0.0000 0.0000 0.0000 33.1267 0.0000
# 6 0.0000 0.0000 0.0000 0.0000 0.0000 43.6642
#
#
#
# Elastic Compliance Matrix: (Units=1/GPa)
#
#
# Indices 1 2 3 4 5 6 
#
# 1 0.013543 -0.002396 -0.004099 0.000000 0.000000 0.000000
# 2 -0.002396 0.014375 -0.001801 0.000000 0.000000 0.000000
# 3 -0.004099 -0.001801 0.011693 0.000000 0.000000 0.000000
# 4 0.000000 0.000000 0.000000 0.030807 0.000000 0.000000
# 5 0.000000 0.000000 0.000000 0.000000 0.030187 0.000000
# 6 0.000000 0.000000 0.000000 0.000000 0.000000 0.022902
#
#
# Mechanical properties :
#
#
# Convention : Reuss Voigt Hill
#
# Bulk Modulus (GPa) = 43.44432 44.77941 44.11186
# Shear Modulus (GPa) = 33.83607 34.64716 34.24162
#
# Velocity S-wave (km/s) = 3.98622 4.03372 4.01004
# Velocity P-wave (km/s) = 6.44894 6.53633 6.49278
#
# Compressibility (1/GPa) = 0.02301797
#
# Stress axis : x y z
#
# Youngs Moduli (GPa) = 73.84070 69.56585 85.52250
#
# Poissons Ratio (x) = 0.16670 0.35055
# Poissons Ratio (y) = 0.17694 0.15403
# Poissons Ratio (z) = 0.30267 0.12529
#
# Static dielectric constant tensor:
#      x y z
#    x 3.940440 0.000000 0.000000 
#    y 0.000000 3.837770 0.000000 
#    z 0.000000 0.000000 3.821680 
# 
# 
# High freq. dielectric constant tensor:
#      x y z
#    x 1.845630 0.000000 0.000000 
#    y 0.000000 1.839120 0.000000 
#    z 0.000000 0.000000 1.833540 
# 
# From -- ./inp_files/8519.got.cif
#   From: 2010.03.12/outbox.cif.g09.slc.cpg/sg61_5_cif.got.tgz:8519.got - 2010.04.10 19:05:03.
