data_PCOD8249848
_publ_section_title
;
Structure prediction by ZEFSAII (Michael W. Deem and Ramdas Pophale) SiO2 
 PCOD8249848
Probable space group: P B C A
;
_chemical_formula_sum "Si O2"
_cell_formula_units_Z 64
_cell_length_a 18.486826
_cell_length_b 8.891968
_cell_length_c 16.427149
_cell_angle_alpha 90.000000
_cell_angle_beta 90.000000
_cell_angle_gamma 90.000000
_cell_volume 2700.364818
_symmetry_space_group_name_H-M "P B C A"
_symmetry_group_IT_number 61
_symmetry_cell_setting 'orthorhombic'
loop_
_space_group_symop_operation_xyz
x,y,z
1/2-x,-y,1/2+z
1/2+x,1/2-y,-z
-x,1/2+y,1/2-z
-x,-y,-z
1/2+x,y,1/2-z
1/2-x,1/2+y,z
x,1/2-y,1/2+z
loop_
_atom_site_type_symbol
_atom_site_label
_atom_site_fract_x
_atom_site_fract_y
_atom_site_fract_z
Si Si1 0.189446 0.981373 0.785157
Si Si2 0.927321 0.322862 0.803421
Si Si3 0.920637 0.709076 0.443170
Si Si4 0.052004 0.469900 0.719109
Si Si5 0.176981 0.069209 0.488361
Si Si6 0.829402 0.823845 0.685771
Si Si7 0.660199 0.533897 0.030851
Si Si8 0.927735 0.189021 0.488110
O O1 0.179700 0.159470 0.775224
O O2 0.153440 0.880882 0.714220
O O3 0.273467 0.942210 0.775606
O O4 0.161382 0.928090 0.873808
O O5 0.948533 0.358506 0.896341
O O6 0.969730 0.429203 0.739297
O O7 0.938027 0.147992 0.783360
O O8 0.921916 0.607431 0.363697
O O9 0.859395 0.840450 0.435681
O O10 0.893049 0.607195 0.518061
O O11 0.998843 0.781620 0.461754
O O12 0.093070 0.391873 0.793776
O O13 0.180751 0.182840 0.411525
O O14 0.258349 0.009284 0.506110
O O15 0.121564 0.934816 0.466739
O O16 0.622955 0.666710 0.980930
#
# Coordination Sequence:
#
# PCOD8249848 Si02
#       8
#     8   8   8   8   8   8   8   8
#     4  11  25  46  74 102 145 190 237 294 362 439
#     4  12  28  47  70 106 144 192 242 300 365 435
#     4  12  25  48  73 105 144 191 244 304 364 432
#     4  12  28  45  71 103 145 191 243 299 367 433
#     4  11  26  44  75 110 145 188 243 303 366 440
#     4  11  25  46  72 105 143 191 241 291 364 437
#     4  11  24  47  74 103 143 190 241 298 367 436
#     4  12  27  45  75 107 145 192 246 304 364 433
#
# _framework density 23.700502
#
# number of rings (size 3 to 8) (size 9 to 14) (size 15 to 20)
#    0.000    0.500    2.500    4.500   14.000    2.000 
#    0.000    0.000    0.000    0.000    0.000    0.000 
#    0.000    0.000    0.000    0.000    0.000    0.000 
#
# Total GULP energy -793541.867121 kJ/mol
# GULP energy per Si atom -12399.091674 kJ/mol
# Density = 2.364656 g / cm^3
# Si number density = 23.700502 Si / 1000 Ang^3
#
#
#
# Elastic Constant Matrix: (Units=GPa)
#
#
# Indices 1 2 3 4 5 6 
#
# 1 107.2750 29.5814 9.6297 0.0000 0.0000 0.0000
# 2 29.5814 96.6638 0.5523 0.0000 0.0000 0.0000
# 3 9.6297 0.5523 46.1296 0.0000 0.0000 0.0000
# 4 0.0000 0.0000 0.0000 36.7574 0.0000 0.0000
# 5 0.0000 0.0000 0.0000 0.0000 33.0554 0.0000
# 6 0.0000 0.0000 0.0000 0.0000 0.0000 44.9862
#
#
#
# Elastic Compliance Matrix: (Units=1/GPa)
#
#
# Indices 1 2 3 4 5 6 
#
# 1 0.010386 -0.003166 -0.002130 0.000000 0.000000 0.000000
# 2 -0.003166 0.011311 0.000526 0.000000 0.000000 0.000000
# 3 -0.002130 0.000526 0.022116 0.000000 0.000000 0.000000
# 4 0.000000 0.000000 0.000000 0.027205 0.000000 0.000000
# 5 0.000000 0.000000 0.000000 0.000000 0.030252 0.000000
# 6 0.000000 0.000000 0.000000 0.000000 0.000000 0.022229
#
#
# Mechanical properties :
#
#
# Convention : Reuss Voigt Hill
#
# Bulk Modulus (GPa) = 29.17848 36.62170 32.90009
# Shear Modulus (GPa) = 34.61017 36.98013 35.79515
#
# Velocity S-wave (km/s) = 3.82555 3.95436 3.89049
# Velocity P-wave (km/s) = 5.64369 6.02783 5.83892
#
# Compressibility (1/GPa) = 0.03427183
#
# Stress axis : x y z
#
# Youngs Moduli (GPa) = 96.28197 88.40888 45.21515
#
# Poissons Ratio (x) = 0.27992 0.09632
# Poissons Ratio (y) = 0.30485 -0.02376
# Poissons Ratio (z) = 0.20510 -0.04646
#
# Static dielectric constant tensor:
#      x y z
#    x 4.391420 0.000000 0.000000 
#    y 0.000000 4.394370 0.000000 
#    z 0.000000 0.000000 3.953750 
# 
# 
# High freq. dielectric constant tensor:
#      x y z
#    x 1.952110 0.000000 0.000000 
#    y 0.000000 1.953700 0.000000 
#    z 0.000000 0.000000 1.921910 
# 
# From -- ./inp_files/9774.got.cif
#   From: 2010.03.12/outbox.cif.g09.slc.cpg/sg61_5_cif.got.tgz:9774.got - 2010.04.10 19:05:03.
