data_PCOD8249256
_publ_section_title
;
Structure prediction by ZEFSAII (Michael W. Deem and Ramdas Pophale) SiO2 
 PCOD8249256
Probable space group: P B C A
;
_chemical_formula_sum "Si O2"
_cell_formula_units_Z 48
_cell_length_a 14.195270
_cell_length_b 9.909810
_cell_length_c 16.126155
_cell_angle_alpha 90.000000
_cell_angle_beta 90.000000
_cell_angle_gamma 90.000000
_cell_volume 2268.505388
_symmetry_space_group_name_H-M "P B C A"
_symmetry_group_IT_number 61
_symmetry_cell_setting 'orthorhombic'
loop_
_space_group_symop_operation_xyz
x,y,z
1/2-x,-y,1/2+z
1/2+x,1/2-y,-z
-x,1/2+y,1/2-z
-x,-y,-z
1/2+x,y,1/2-z
1/2-x,1/2+y,z
x,1/2-y,1/2+z
loop_
_atom_site_type_symbol
_atom_site_label
_atom_site_fract_x
_atom_site_fract_y
_atom_site_fract_z
Si Si1 0.570989 0.466922 0.296111
Si Si2 0.068455 0.380438 0.020845
Si Si3 0.053863 0.177891 0.223491
Si Si4 0.964432 0.369745 0.546100
Si Si5 0.744507 0.407561 0.848771
Si Si6 0.725765 0.652034 0.963816
O O1 0.579236 0.383030 0.380694
O O2 0.549253 0.332816 0.239802
O O3 0.486315 0.575480 0.293528
O O4 0.669612 0.547884 0.287797
O O5 0.175852 0.380866 0.987551
O O6 0.018177 0.244424 0.993472
O O7 0.000000 0.500000 0.000000
O O8 0.163416 0.147961 0.210163
O O9 0.988918 0.138930 0.143557
O O10 0.852660 0.348574 0.535647
O O11 0.000000 0.500000 0.500000
O O12 0.702890 0.535145 0.897906
O O13 0.775275 0.295376 0.916173
#
# Coordination Sequence:
#
# PCOD8249256 Si02
#       6
#     8   8   8   8   8   8
#     4  10  24  39  62  89 125 169 206 263 310 392
#     4  10  21  40  60  91 123 162 209 252 327 375
#     4  11  23  41  61  92 127 166 217 257 326 382
#     4  11  20  35  63  95 119 154 214 264 305 381
#     4  11  20  41  64  87 119 165 211 244 327 388
#     4  11  20  37  65  89 121 163 202 264 314 380
#
# _framework density 21.159306999999998
#
# number of rings (size 3 to 8) (size 9 to 14) (size 15 to 20)
#    0.000    1.333    6.667    2.000    2.333    1.333 
#    3.000    0.000    0.000    0.000    0.000    0.000 
#    0.000    0.000    0.000    0.000    0.000    0.000 
#
# Total GULP energy -594673.206305 kJ/mol
# GULP energy per Si atom -12389.025131 kJ/mol
# Density = 2.111115 g / cm^3
# Si number density = 21.159307 Si / 1000 Ang^3
#
#
#
# Elastic Constant Matrix: (Units=GPa)
#
#
# Indices 1 2 3 4 5 6 
#
# 1 173.0130 61.9941 20.9585 0.0000 0.0000 0.0000
# 2 61.9941 160.4485 8.2117 0.0000 0.0000 0.0000
# 3 20.9585 8.2117 13.6959 0.0000 0.0000 0.0000
# 4 0.0000 0.0000 0.0000 29.6873 0.0000 0.0000
# 5 0.0000 0.0000 0.0000 0.0000 39.1641 0.0000
# 6 0.0000 0.0000 0.0000 0.0000 0.0000 41.5218
#
#
#
# Elastic Compliance Matrix: (Units=1/GPa)
#
#
# Indices 1 2 3 4 5 6 
#
# 1 0.007985 -0.002538 -0.010698 0.000000 0.000000 0.000000
# 2 -0.002538 0.007236 -0.000455 0.000000 0.000000 0.000000
# 3 -0.010698 -0.000455 0.089658 0.000000 0.000000 0.000000
# 4 0.000000 0.000000 0.000000 0.033684 0.000000 0.000000
# 5 0.000000 0.000000 0.000000 0.000000 0.025534 0.000000
# 6 0.000000 0.000000 0.000000 0.000000 0.000000 0.024084
#
#
# Mechanical properties :
#
#
# Convention : Reuss Voigt Hill
#
# Bulk Modulus (GPa) = 12.90358 58.83177 35.86767
# Shear Modulus (GPa) = 20.71287 39.14086 29.92686
#
# Velocity S-wave (km/s) = 3.13213 4.30562 3.76488
# Velocity P-wave (km/s) = 4.38085 7.25137 5.99059
#
# Compressibility (1/GPa) = 0.07749790
#
# Stress axis : x y z
#
# Youngs Moduli (GPa) = 125.23196 138.19063 11.15348
#
# Poissons Ratio (x) = 0.35070 0.11932
# Poissons Ratio (y) = 0.31781 0.00508
# Poissons Ratio (z) = 1.33972 0.06290
#
# Static dielectric constant tensor:
#      x y z
#    x 3.997850 0.000000 0.000000 
#    y 0.000000 14.895620 0.000000 
#    z 0.000000 0.000000 3.970990 
# 
# 
# High freq. dielectric constant tensor:
#      x y z
#    x 1.843560 0.000000 0.000000 
#    y 0.000000 1.862940 0.000000 
#    z 0.000000 0.000000 1.773840 
# 
# From -- ./inp_files/7045.got.cif
#   From: 2010.03.12/outbox.cif.g09.slc.cpg/sg61_4_cif.got.tgz:7045.got - 2010.04.10 19:05:03.
