data_PCOD8249719
_publ_section_title
;
Structure prediction by ZEFSAII (Michael W. Deem and Ramdas Pophale) SiO2 
 PCOD8249719
Probable space group: P B C A
;
_chemical_formula_sum "Si O2"
_cell_formula_units_Z 56
_cell_length_a 12.823119
_cell_length_b 18.954539
_cell_length_c 8.981703
_cell_angle_alpha 90.000000
_cell_angle_beta 90.000000
_cell_angle_gamma 90.000000
_cell_volume 2183.059581
_symmetry_space_group_name_H-M "P B C A"
_symmetry_group_IT_number 61
_symmetry_cell_setting 'orthorhombic'
loop_
_space_group_symop_operation_xyz
x,y,z
1/2-x,-y,1/2+z
1/2+x,1/2-y,-z
-x,1/2+y,1/2-z
-x,-y,-z
1/2+x,y,1/2-z
1/2-x,1/2+y,z
x,1/2-y,1/2+z
loop_
_atom_site_type_symbol
_atom_site_label
_atom_site_fract_x
_atom_site_fract_y
_atom_site_fract_z
Si Si1 0.829608 0.779250 0.713362
Si Si2 0.113113 0.489849 0.334613
Si Si3 0.184533 0.496208 0.995786
Si Si4 0.091205 0.642270 0.965285
Si Si5 0.043318 0.405526 0.781075
Si Si6 0.688472 0.783566 0.460733
Si Si7 0.982700 0.843894 0.165463
O O1 0.885239 0.845518 0.799668
O O2 0.767302 0.819175 0.579247
O O3 0.752066 0.734857 0.813695
O O4 0.913567 0.725941 0.641326
O O5 0.195998 0.521111 0.452933
O O6 0.075872 0.413540 0.392861
O O7 0.013351 0.542704 0.335634
O O8 0.166597 0.485217 0.171366
O O9 0.167955 0.576559 0.943510
O O10 0.102853 0.450426 0.904523
O O11 0.002231 0.643547 0.840118
O O12 0.156164 0.713212 0.952790
O O13 0.042537 0.639476 0.129835
O O14 0.591511 0.834098 0.423670
#
# Coordination Sequence:
#
# PCOD8249719 Si02
#       7
#     8   8   8   8   8   8   8
#     4  12  28  44  73 110 147 195 245 311 375 435
#     4  11  25  47  76 109 144 202 239 306 368 442
#     4  11  24  44  77 102 149 191 249 297 371 443
#     4  11  21  48  71 106 140 197 238 304 367 437
#     4  11  23  46  71 104 151 193 242 305 374 431
#     4  12  27  46  73 111 147 194 254 302 370 447
#     4  12  24  48  78 103 152 194 250 299 371 447
#
# _framework density 25.652072
#
# number of rings (size 3 to 8) (size 9 to 14) (size 15 to 20)
#    0.000    0.571    5.714    2.571    4.000    0.000 
#    0.000    2.143    0.000    0.000    0.000    0.000 
#    0.000    0.000    0.000    0.000    0.000    0.000 
#
# Total GULP energy -694534.921363 kJ/mol
# GULP energy per Si atom -12402.409310 kJ/mol
# Density = 2.559369 g / cm^3
# Si number density = 25.652072 Si / 1000 Ang^3
#
#
#
# Elastic Constant Matrix: (Units=GPa)
#
#
# Indices 1 2 3 4 5 6 
#
# 1 141.4082 51.8011 36.5811 0.0000 0.0000 0.0000
# 2 51.8011 115.5061 16.5381 0.0000 0.0000 0.0000
# 3 36.5811 16.5381 36.1583 0.0000 0.0000 0.0000
# 4 0.0000 0.0000 0.0000 29.4891 0.0000 0.0000
# 5 0.0000 0.0000 0.0000 0.0000 25.9032 0.0000
# 6 0.0000 0.0000 0.0000 0.0000 0.0000 46.1508
#
#
#
# Elastic Compliance Matrix: (Units=1/GPa)
#
#
# Indices 1 2 3 4 5 6 
#
# 1 0.010752 -0.003493 -0.009280 0.000000 0.000000 0.000000
# 2 -0.003493 0.010399 -0.001222 0.000000 0.000000 0.000000
# 3 -0.009280 -0.001222 0.037604 0.000000 0.000000 0.000000
# 4 0.000000 0.000000 0.000000 0.033911 0.000000 0.000000
# 5 0.000000 0.000000 0.000000 0.000000 0.038605 0.000000
# 6 0.000000 0.000000 0.000000 0.000000 0.000000 0.021668
#
#
# Mechanical properties :
#
#
# Convention : Reuss Voigt Hill
#
# Bulk Modulus (GPa) = 32.50569 55.87924 44.19247
# Shear Modulus (GPa) = 26.15272 32.85213 29.50242
#
# Velocity S-wave (km/s) = 3.19645 3.58254 3.39499
# Velocity P-wave (km/s) = 5.13053 6.24048 5.71253
#
# Compressibility (1/GPa) = 0.03076384
#
# Stress axis : x y z
#
# Youngs Moduli (GPa) = 93.00550 96.16140 26.59314
#
# Poissons Ratio (x) = 0.33592 0.24678
# Poissons Ratio (y) = 0.32489 0.03250
# Poissons Ratio (z) = 0.86309 0.11753
#
# Static dielectric constant tensor:
#      x y z
#    x 4.845770 0.000000 0.000000 
#    y 0.000000 4.670010 0.000000 
#    z 0.000000 0.000000 4.277350 
# 
# 
# High freq. dielectric constant tensor:
#      x y z
#    x 2.036630 0.000000 0.000000 
#    y 0.000000 2.032740 0.000000 
#    z 0.000000 0.000000 2.013330 
# 
# From -- ./inp_files/5349.got.cif
#   From: 2010.03.12/outbox.cif.g09.slc.cpg/sg61_3_cif.got.tgz:5349.got - 2010.04.10 19:05:03.
