data_PCOD8249757
_publ_section_title
;
Structure prediction by ZEFSAII (Michael W. Deem and Ramdas Pophale) SiO2 
 PCOD8249757
Probable space group: P B C A
;
_chemical_formula_sum "Si O2"
_cell_formula_units_Z 56
_cell_length_a 12.190437
_cell_length_b 10.710808
_cell_length_c 21.531048
_cell_angle_alpha 90.000000
_cell_angle_beta 90.000000
_cell_angle_gamma 90.000000
_cell_volume 2811.296668
_symmetry_space_group_name_H-M "P B C A"
_symmetry_group_IT_number 61
_symmetry_cell_setting 'orthorhombic'
loop_
_space_group_symop_operation_xyz
x,y,z
1/2-x,-y,1/2+z
1/2+x,1/2-y,-z
-x,1/2+y,1/2-z
-x,-y,-z
1/2+x,y,1/2-z
1/2-x,1/2+y,z
x,1/2-y,1/2+z
loop_
_atom_site_type_symbol
_atom_site_label
_atom_site_fract_x
_atom_site_fract_y
_atom_site_fract_z
Si Si1 0.935319 0.016197 0.404824
Si Si2 0.586221 0.658694 0.184785
Si Si3 0.578037 0.377179 0.175143
Si Si4 0.331683 0.980374 0.966607
Si Si5 0.249473 0.766642 0.410101
Si Si6 0.622969 0.309830 0.310482
Si Si7 0.863539 0.266798 0.820597
O O1 0.855874 0.974329 0.460400
O O2 0.895534 0.146359 0.377590
O O3 0.933892 0.915944 0.350589
O O4 0.058785 0.031173 0.426979
O O5 0.596963 0.520551 0.156833
O O6 0.652821 0.752482 0.140452
O O7 0.457188 0.690672 0.186221
O O8 0.635000 0.662849 0.254412
O O9 0.634829 0.289018 0.124235
O O10 0.637580 0.354361 0.240288
O O11 0.448603 0.348525 0.180652
O O12 0.273859 0.112709 0.952565
O O13 0.256394 0.860165 0.950617
O O14 0.742538 0.280241 0.336740
#
# Coordination Sequence:
#
# PCOD8249757 Si02
#       7
#     8   8   8   8   8   8   8
#     4  11  24  45  63  91 129 175 214 261 321 383
#     4  11  23  39  64  98 130 165 209 265 330 386
#     4  11  23  39  64  98 130 165 209 265 330 386
#     4  11  26  43  67  89 133 179 221 258 318 384
#     4  12  22  44  66  94 128 174 214 266 312 402
#     4  11  24  40  64  95 131 165 209 269 326 387
#     4  11  24  40  64  95 131 165 209 269 326 387
#
# _framework density 19.919633999999999
#
# number of rings (size 3 to 8) (size 9 to 14) (size 15 to 20)
#    0.000    0.857    7.143    0.000    4.000    0.000 
#    0.000    0.000    0.000    5.143    0.000    0.000 
#    0.000    0.000    0.000    0.000    0.000    0.000 
#
# Total GULP energy -694600.843354 kJ/mol
# GULP energy per Si atom -12403.586488 kJ/mol
# Density = 1.987430 g / cm^3
# Si number density = 19.919634 Si / 1000 Ang^3
#
#
#
# Elastic Constant Matrix: (Units=GPa)
#
#
# Indices 1 2 3 4 5 6 
#
# 1 86.5603 16.2013 2.2211 0.0000 0.0000 0.0000
# 2 16.2013 105.6453 1.4436 0.0000 0.0000 0.0000
# 3 2.2211 1.4436 19.2711 0.0000 0.0000 0.0000
# 4 0.0000 0.0000 0.0000 0.6261 0.0000 0.0000
# 5 0.0000 0.0000 0.0000 0.0000 23.2183 0.0000
# 6 0.0000 0.0000 0.0000 0.0000 0.0000 25.6420
#
#
#
# Elastic Compliance Matrix: (Units=1/GPa)
#
#
# Indices 1 2 3 4 5 6 
#
# 1 0.011923 -0.001812 -0.001239 0.000000 0.000000 0.000000
# 2 -0.001812 0.009751 -0.000522 0.000000 0.000000 0.000000
# 3 -0.001239 -0.000522 0.052073 0.000000 0.000000 0.000000
# 4 0.000000 0.000000 0.000000 1.597128 0.000000 0.000000
# 5 0.000000 0.000000 0.000000 0.000000 0.043069 0.000000
# 6 0.000000 0.000000 0.000000 0.000000 0.000000 0.038998
#
#
# Mechanical properties :
#
#
# Convention : Reuss Voigt Hill
#
# Bulk Modulus (GPa) = 15.01423 27.91207 21.46315
# Shear Modulus (GPa) = 2.80538 22.67134 12.73836
#
# Velocity S-wave (km/s) = 1.18803 3.37729 2.53155
# Velocity P-wave (km/s) = 3.07175 5.40841 4.39810
#
# Compressibility (1/GPa) = 0.06660348
#
# Stress axis : x y z
#
# Youngs Moduli (GPa) = 83.86806 102.55798 19.20384
#
# Poissons Ratio (x) = 0.18579 0.02378
# Poissons Ratio (y) = 0.15194 0.01002
# Poissons Ratio (z) = 0.10387 0.05349
#
# Static dielectric constant tensor:
#      x y z
#    x 3.545390 0.000000 0.000000 
#    y 0.000000 3.529990 0.000000 
#    z 0.000000 0.000000 3.589210 
# 
# 
# High freq. dielectric constant tensor:
#      x y z
#    x 1.778370 0.000000 0.000000 
#    y 0.000000 1.781320 0.000000 
#    z 0.000000 0.000000 1.773160 
# 
# From -- ./inp_files/5353.got.cif
#   From: 2010.03.12/outbox.cif.g09.slc.cpg/sg61_3_cif.got.tgz:5353.got - 2010.04.10 19:05:03.
