data_PCOD8249047
_publ_section_title
;
Structure prediction by ZEFSAII (Michael W. Deem and Ramdas Pophale) SiO2 
 PCOD8249047
Probable space group: P B C A
;
_chemical_formula_sum "Si O2"
_cell_formula_units_Z 48
_cell_length_a 15.350313
_cell_length_b 18.825012
_cell_length_c 8.649995
_cell_angle_alpha 90.000000
_cell_angle_beta 90.000000
_cell_angle_gamma 90.000000
_cell_volume 2499.587554
_symmetry_space_group_name_H-M "P B C A"
_symmetry_group_IT_number 61
_symmetry_cell_setting 'orthorhombic'
loop_
_space_group_symop_operation_xyz
x,y,z
1/2-x,-y,1/2+z
1/2+x,1/2-y,-z
-x,1/2+y,1/2-z
-x,-y,-z
1/2+x,y,1/2-z
1/2-x,1/2+y,z
x,1/2-y,1/2+z
loop_
_atom_site_type_symbol
_atom_site_label
_atom_site_fract_x
_atom_site_fract_y
_atom_site_fract_z
Si Si1 0.596820 0.308041 0.639096
Si Si2 0.657218 0.330177 0.307771
Si Si3 0.403173 0.308049 0.639104
Si Si4 0.157217 0.669832 0.807777
Si Si5 0.500004 0.416448 0.818949
Si Si6 0.000000 0.580898 0.682079
O O1 0.657366 0.325283 0.493340
O O2 0.641564 0.247573 0.739452
O O3 0.499995 0.282421 0.582521
O O4 0.585916 0.378323 0.746515
O O5 0.750005 0.359170 0.250010
O O6 0.585423 0.386066 0.256241
O O7 0.342623 0.325284 0.493349
O O8 0.358428 0.247588 0.739484
O O9 0.414086 0.378335 0.746504
O O10 0.085405 0.613957 0.756255
O O11 0.500016 0.498397 0.773891
O O12 0.499998 0.404886 0.000942
#
# Coordination Sequence:
#
# PCOD8249047 Si02
#       6
#     8   8   8   8   8   8
#     4  10  20  39  60  89 114 160 195 243 299 349
#     4  12  23  37  63  90 120 153 197 250 301 356
#     4  10  20  39  60  89 114 160 195 243 299 349
#     4  12  23  37  63  90 120 153 197 250 301 356
#     4   9  22  37  68  79 117 171 190 249 294 355
#     4  11  20  43  58  87 121 155 206 237 302 351
#
# _framework density 19.203168000000002
#
# number of rings (size 3 to 8) (size 9 to 14) (size 15 to 20)
#    1.000    0.333    3.333    3.000    0.000    2.667 
#    0.000    8.333    0.000    0.000    0.000    0.000 
#    0.000    0.000    0.000    0.000    0.000    0.000 
#
# Total GULP energy -595213.479331 kJ/mol
# GULP energy per Si atom -12400.280819 kJ/mol
# Density = 1.915946 g / cm^3
# Si number density = 19.203168 Si / 1000 Ang^3
#
#
#
# Elastic Constant Matrix: (Units=GPa)
#
#
# Indices 1 2 3 4 5 6 
#
# 1 94.0594 26.1311 6.4167 0.0000 0.0000 0.0000
# 2 26.1311 120.5790 44.2367 0.0000 0.0000 0.0000
# 3 6.4167 44.2367 92.8978 0.0000 0.0000 0.0000
# 4 0.0000 0.0000 0.0000 32.9187 0.0000 0.0000
# 5 0.0000 0.0000 0.0000 0.0000 17.6946 0.0000
# 6 0.0000 0.0000 0.0000 0.0000 0.0000 10.5300
#
#
#
# Elastic Compliance Matrix: (Units=1/GPa)
#
#
# Indices 1 2 3 4 5 6 
#
# 1 0.011329 -0.002627 0.000468 0.000000 0.000000 0.000000
# 2 -0.002627 0.010658 -0.004894 0.000000 0.000000 0.000000
# 3 0.000468 -0.004894 0.013063 0.000000 0.000000 0.000000
# 4 0.000000 0.000000 0.000000 0.030378 0.000000 0.000000
# 5 0.000000 0.000000 0.000000 0.000000 0.056514 0.000000
# 6 0.000000 0.000000 0.000000 0.000000 0.000000 0.094967
#
#
# Mechanical properties :
#
#
# Convention : Reuss Voigt Hill
#
# Bulk Modulus (GPa) = 47.74372 51.23390 49.48881
# Shear Modulus (GPa) = 21.00876 27.61210 24.31043
#
# Velocity S-wave (km/s) = 3.31119 3.79607 3.56189
# Velocity P-wave (km/s) = 6.28769 6.77874 6.53783
#
# Compressibility (1/GPa) = 0.02094516
#
# Stress axis : x y z
#
# Youngs Moduli (GPa) = 88.26533 93.82609 76.55499
#
# Poissons Ratio (x) = 0.24649 -0.03586
# Poissons Ratio (y) = 0.23188 0.37464
# Poissons Ratio (z) = -0.04135 0.45916
#
# Static dielectric constant tensor:
#      x y z
#    x 3.406620 0.000000 0.000000 
#    y 0.000000 3.437800 0.000000 
#    z 0.000000 0.000000 3.556100 
# 
# 
# High freq. dielectric constant tensor:
#      x y z
#    x 1.730770 0.000000 0.000000 
#    y 0.000000 1.740320 0.000000 
#    z 0.000000 0.000000 1.763090 
# 
# From -- ./inp_files/2838.got.cif
#   From: 2010.03.12/outbox.cif.g09.slc.cpg/sg61_2_cif.got.tgz:2838.got - 2010.04.10 19:05:03.
