data_PCOD8249617
_publ_section_title
;
Structure prediction by ZEFSAII (Michael W. Deem and Ramdas Pophale) SiO2 
 PCOD8249617
Probable space group: P B C A
;
_chemical_formula_sum "Si O2"
_cell_formula_units_Z 40
_cell_length_a 9.235718
_cell_length_b 8.264518
_cell_length_c 20.265721
_cell_angle_alpha 90.000000
_cell_angle_beta 90.000000
_cell_angle_gamma 90.000000
_cell_volume 1546.857307
_symmetry_space_group_name_H-M "P B C A"
_symmetry_group_IT_number 61
_symmetry_cell_setting 'orthorhombic'
loop_
_space_group_symop_operation_xyz
x,y,z
1/2-x,-y,1/2+z
1/2+x,1/2-y,-z
-x,1/2+y,1/2-z
-x,-y,-z
1/2+x,y,1/2-z
1/2-x,1/2+y,z
x,1/2-y,1/2+z
loop_
_atom_site_type_symbol
_atom_site_label
_atom_site_fract_x
_atom_site_fract_y
_atom_site_fract_z
Si Si1 0.926677 0.167462 0.773297
Si Si2 0.470675 0.772442 0.028891
Si Si3 0.191950 0.355385 0.789310
Si Si4 0.530943 0.559077 0.917100
Si Si5 0.196700 0.022141 0.429810
O O1 0.844589 0.330294 0.747703
O O2 0.095912 0.204711 0.763822
O O3 0.901077 0.122700 0.849390
O O4 0.877508 0.026314 0.726259
O O5 0.404882 0.622438 0.071713
O O6 0.576254 0.879373 0.075403
O O7 0.574640 0.690101 0.972784
O O8 0.341555 0.880062 0.997332
O O9 0.190353 0.351680 0.868709
O O10 0.356187 0.552545 0.926105
#
# Coordination Sequence:
#
# PCOD8249617 Si02
#       5
#     8   8   8   8   8
#     4  12  27  51  77 114 150 215 261 338 399 484
#     4  10  24  43  73 110 140 205 253 317 401 482
#     4  12  27  49  79 110 156 205 270 326 409 474
#     4  11  23  48  70 110 152 191 261 327 395 471
#     4  11  23  47  77 104 153 205 255 324 408 474
#
# _framework density 25.858882999999999
#
# number of rings (size 3 to 8) (size 9 to 14) (size 15 to 20)
#    0.000    0.800    2.000    4.800    5.600    0.000 
#   14.400    0.000    0.000    0.000    0.000    0.000 
#    0.000    0.000    0.000    0.000    0.000    0.000 
#
# Total GULP energy -495710.273672 kJ/mol
# GULP energy per Si atom -12392.756842 kJ/mol
# Density = 2.580003 g / cm^3
# Si number density = 25.858883 Si / 1000 Ang^3
#
#
#
# Elastic Constant Matrix: (Units=GPa)
#
#
# Indices 1 2 3 4 5 6 
#
# 1 64.3083 14.9705 53.2984 0.0000 0.0000 0.0000
# 2 14.9705 96.8643 23.4030 0.0000 0.0000 0.0000
# 3 53.2984 23.4030 113.3535 0.0000 0.0000 0.0000
# 4 0.0000 0.0000 0.0000 58.6625 0.0000 0.0000
# 5 0.0000 0.0000 0.0000 0.0000 34.9784 0.0000
# 6 0.0000 0.0000 0.0000 0.0000 0.0000 39.2747
#
#
#
# Elastic Compliance Matrix: (Units=1/GPa)
#
#
# Indices 1 2 3 4 5 6 
#
# 1 0.025591 -0.001103 -0.011805 0.000000 0.000000 0.000000
# 2 -0.001103 0.010913 -0.001735 0.000000 0.000000 0.000000
# 3 -0.011805 -0.001735 0.014731 0.000000 0.000000 0.000000
# 4 0.000000 0.000000 0.000000 0.017047 0.000000 0.000000
# 5 0.000000 0.000000 0.000000 0.000000 0.028589 0.000000
# 6 0.000000 0.000000 0.000000 0.000000 0.000000 0.025462
#
#
# Mechanical properties :
#
#
# Convention : Reuss Voigt Hill
#
# Bulk Modulus (GPa) = 45.55850 50.87447 48.21649
# Shear Modulus (GPa) = 31.45967 38.77339 35.11653
#
# Velocity S-wave (km/s) = 3.49175 3.87644 3.68911
# Velocity P-wave (km/s) = 5.82347 6.30494 6.06898
#
# Compressibility (1/GPa) = 0.02194980
#
# Stress axis : x y z
#
# Youngs Moduli (GPa) = 39.07665 91.63168 67.88533
#
# Poissons Ratio (x) = 0.10106 0.80138
# Poissons Ratio (y) = 0.04310 0.11775
# Poissons Ratio (z) = 0.46130 0.15894
#
# Static dielectric constant tensor:
#      x y z
#    x 4.612500 0.000000 0.000000 
#    y 0.000000 5.041670 0.000000 
#    z 0.000000 0.000000 4.683850 
# 
# 
# High freq. dielectric constant tensor:
#      x y z
#    x 2.018860 0.000000 0.000000 
#    y 0.000000 2.060880 0.000000 
#    z 0.000000 0.000000 2.025150 
# 
# From -- ./inp_files/10806.got.cif
#   From: 2010.03.12/outbox.cif.g09.slc.cpg/sg61_6_cif.got.tgz:10806.got - 2010.04.10 19:05:03.
