data_PCOD8249938
_publ_section_title
;
Structure prediction by ZEFSAII (Michael W. Deem and Ramdas Pophale) SiO2 
 PCOD8249938
Probable space group: P N M A
;
_chemical_formula_sum "Si O2"
_cell_formula_units_Z 44
_cell_length_a 14.276981
_cell_length_b 14.016557
_cell_length_c 12.006289
_cell_angle_alpha 90.000000
_cell_angle_beta 90.000000
_cell_angle_gamma 90.000000
_cell_volume 2402.627933
_symmetry_space_group_name_H-M "P N M A"
_symmetry_group_IT_number 62
_symmetry_cell_setting 'orthorhombic'
loop_
_space_group_symop_operation_xyz
x,y,z
1/2-x,-y,1/2+z
1/2+x,1/2-y,1/2-z
-x,1/2+y,-z
-x,-y,-z
1/2+x,y,1/2-z
1/2-x,1/2+y,1/2+z
x,1/2-y,z
loop_
_atom_site_type_symbol
_atom_site_label
_atom_site_fract_x
_atom_site_fract_y
_atom_site_fract_z
Si Si1 0.812025 0.070361 0.082060
Si Si2 0.883392 0.856676 0.608441
Si Si3 0.426689 0.585167 0.496641
Si Si4 0.387424 0.750000 0.101008
Si Si5 0.981791 0.750000 0.165026
Si Si6 0.822098 0.250000 0.923284
Si Si7 0.520499 0.641800 0.709222
O O1 0.705995 0.074632 0.126989
O O2 0.887918 0.078006 0.182886
O O3 0.826220 0.967676 0.020724
O O4 0.834511 0.157273 0.999605
O O5 0.857447 0.750000 0.654524
O O6 0.906738 0.844450 0.476083
O O7 0.972016 0.897381 0.677063
O O8 0.500000 0.500000 0.500000
O O9 0.442013 0.656259 0.394074
O O10 0.439518 0.639511 0.613542
O O11 0.453290 0.750000 0.206542
O O12 0.278017 0.750000 0.138262
O O13 0.094767 0.750000 0.166201
O O14 0.554524 0.750000 0.725594
#
# Coordination Sequence:
#
# PCOD8249938 Si02
#       7
#     8   8   8   4   4   4   8
#     4  10  16  32  50  81  98 129 173 208 250 301
#     4   8  17  32  50  73  99 136 171 197 251 312
#     4  10  19  29  53  84  95 128 175 219 258 281
#     4   8  20  32  52  74  98 146 170 186 268 318
#     4  12  18  35  54  73 111 128 168 226 245 302
#     4  10  16  33  58  67 101 136 172 206 243 308
#     4  10  15  29  55  77  95 124 171 218 251 284
#
# _framework density 18.313279999999999
#
# number of rings (size 3 to 8) (size 9 to 14) (size 15 to 20)
#    0.545    1.818    6.364    0.000    0.000    0.000 
#    6.545    0.000    4.000    4.364    0.000    0.000 
#    0.000    0.000    0.000    0.000    0.000    0.000 
#
# Total GULP energy -545089.547097 kJ/mol
# GULP energy per Si atom -12388.398798 kJ/mol
# Density = 1.827160 g / cm^3
# Si number density = 18.313280 Si / 1000 Ang^3
#
#
#
# Elastic Constant Matrix: (Units=GPa)
#
#
# Indices 1 2 3 4 5 6 
#
# 1 65.4733 9.0585 49.6200 0.0000 0.0000 0.0000
# 2 9.0585 49.3912 16.0511 0.0000 0.0000 0.0000
# 3 49.6200 16.0511 103.6261 0.0000 0.0000 0.0000
# 4 0.0000 0.0000 0.0000 13.6018 0.0000 0.0000
# 5 0.0000 0.0000 0.0000 0.0000 37.1844 0.0000
# 6 0.0000 0.0000 0.0000 0.0000 0.0000 13.7729
#
#
#
# Elastic Compliance Matrix: (Units=1/GPa)
#
#
# Indices 1 2 3 4 5 6 
#
# 1 0.023996 -0.000702 -0.011382 0.000000 0.000000 0.000000
# 2 -0.000702 0.021340 -0.002969 0.000000 0.000000 0.000000
# 3 -0.011382 -0.002969 0.015560 0.000000 0.000000 0.000000
# 4 0.000000 0.000000 0.000000 0.073520 0.000000 0.000000
# 5 0.000000 0.000000 0.000000 0.000000 0.026893 0.000000
# 6 0.000000 0.000000 0.000000 0.000000 0.000000 0.072606
#
#
# Mechanical properties :
#
#
# Convention : Reuss Voigt Hill
#
# Bulk Modulus (GPa) = 32.47763 40.88333 36.68048
# Shear Modulus (GPa) = 18.22922 22.49587 20.36255
#
# Velocity S-wave (km/s) = 3.15843 3.50864 3.33813
# Velocity P-wave (km/s) = 5.57440 6.22792 5.91020
#
# Compressibility (1/GPa) = 0.03079043
#
# Stress axis : x y z
#
# Youngs Moduli (GPa) = 41.67321 46.85980 64.26780
#
# Poissons Ratio (x) = 0.03290 0.73147
# Poissons Ratio (y) = 0.02926 0.19083
# Poissons Ratio (z) = 0.47430 0.13914
#
# Static dielectric constant tensor:
#      x y z
#    x 3.346940 0.000000 0.000000 
#    y 0.000000 3.297950 0.000000 
#    z 0.000000 0.000000 3.295870 
# 
# 
# High freq. dielectric constant tensor:
#      x y z
#    x 1.691490 0.000000 0.000000 
#    y 0.000000 1.693150 0.000000 
#    z 0.000000 0.000000 1.684790 
# 
# From -- ./inp_files/13214.got.cif
#   From: 2010.03.12/outbox.cif.g09.slc.cpg/sg62_7_cif.got.tgz:13214.got - 2010.04.10 19:12:36.
