data_PCOD8249052
_publ_section_title
;
Structure prediction by ZEFSAII (Michael W. Deem and Ramdas Pophale) SiO2 
 PCOD8249052
Probable space group: P B C A
;
_chemical_formula_sum "Si O2"
_cell_formula_units_Z 64
_cell_length_a 21.322760
_cell_length_b 10.309181
_cell_length_c 15.680398
_cell_angle_alpha 90.000000
_cell_angle_beta 90.000000
_cell_angle_gamma 90.000000
_cell_volume 3446.868103
_symmetry_space_group_name_H-M "P B C A"
_symmetry_group_IT_number 61
_symmetry_cell_setting 'orthorhombic'
loop_
_space_group_symop_operation_xyz
x,y,z
1/2-x,-y,1/2+z
1/2+x,1/2-y,-z
-x,1/2+y,1/2-z
-x,-y,-z
1/2+x,y,1/2-z
1/2-x,1/2+y,z
x,1/2-y,1/2+z
loop_
_atom_site_type_symbol
_atom_site_label
_atom_site_fract_x
_atom_site_fract_y
_atom_site_fract_z
Si Si1 0.757830 0.383617 0.692901
Si Si2 0.633707 0.523175 0.904746
Si Si3 0.146040 0.230143 0.403987
Si Si4 0.499879 0.999475 0.676588
Si Si5 0.740995 0.865727 0.304884
Si Si6 0.353611 0.729861 0.598555
Si Si7 0.367368 0.024313 0.406252
Si Si8 0.948322 0.749014 0.248721
O O1 0.705306 0.359326 0.620437
O O2 0.753256 0.273564 0.762704
O O3 0.748912 0.522731 0.735684
O O4 0.827078 0.379195 0.652169
O O5 0.561168 0.516667 0.880747
O O6 0.672541 0.621356 0.846190
O O7 0.665800 0.381363 0.898325
O O8 0.637284 0.579849 0.999135
O O9 0.124520 0.194670 0.501317
O O10 0.163848 0.381781 0.400103
O O11 0.091951 0.207504 0.334035
O O12 0.507726 0.127781 0.732879
O O13 0.560065 0.978796 0.617879
O O14 0.492766 0.873676 0.735639
O O15 0.795823 0.864820 0.376566
O O16 0.408091 0.710511 0.668321
#
# Coordination Sequence:
#
# PCOD8249052 Si02
#       8
#     8   8   8   8   8   8   8   8
#     4  12  21  37  60  87 119 153 191 240 301 354
#     4  10  21  37  59  86 115 153 200 243 288 351
#     4  10  20  39  62  86 118 158 196 237 302 362
#     4  10  21  38  61  80 114 156 202 234 292 340
#     4  12  21  37  60  87 119 153 191 240 301 354
#     4  10  20  39  62  86 118 158 196 237 302 362
#     4  10  21  37  59  86 115 153 200 243 288 351
#     4  10  20  40  60  86 112 162 194 246 290 352
#
# _framework density 18.567581000000001
#
# number of rings (size 3 to 8) (size 9 to 14) (size 15 to 20)
#    0.000    1.500    3.750    2.625    1.750    1.000 
#    0.000    0.625    0.000    0.000    0.000    0.000 
#    0.000    0.000    0.000    0.000    0.000    0.000 
#
# Total GULP energy -793443.387397 kJ/mol
# GULP energy per Si atom -12397.552928 kJ/mol
# Density = 1.852532 g / cm^3
# Si number density = 18.567581 Si / 1000 Ang^3
#
#
#
# Elastic Constant Matrix: (Units=GPa)
#
#
# Indices 1 2 3 4 5 6 
#
# 1 107.7882 36.4638 49.7962 0.0000 0.0000 0.0000
# 2 36.4638 61.2832 33.0619 0.0000 0.0000 0.0000
# 3 49.7962 33.0619 130.8452 0.0000 0.0000 0.0000
# 4 0.0000 0.0000 0.0000 21.3852 0.0000 0.0000
# 5 0.0000 0.0000 0.0000 0.0000 18.2905 0.0000
# 6 0.0000 0.0000 0.0000 0.0000 0.0000 37.5728
#
#
#
# Elastic Compliance Matrix: (Units=1/GPa)
#
#
# Indices 1 2 3 4 5 6 
#
# 1 0.012810 -0.005780 -0.003415 0.000000 0.000000 0.000000
# 2 -0.005780 0.021501 -0.003233 0.000000 0.000000 0.000000
# 3 -0.003415 -0.003233 0.009759 0.000000 0.000000 0.000000
# 4 0.000000 0.000000 0.000000 0.046761 0.000000 0.000000
# 5 0.000000 0.000000 0.000000 0.000000 0.054673 0.000000
# 6 0.000000 0.000000 0.000000 0.000000 0.000000 0.026615
#
#
# Mechanical properties :
#
#
# Convention : Reuss Voigt Hill
#
# Bulk Modulus (GPa) = 52.04351 59.84006 55.94179
# Shear Modulus (GPa) = 24.58444 27.48936 26.03690
#
# Velocity S-wave (km/s) = 3.64270 3.85190 3.74876
# Velocity P-wave (km/s) = 6.76627 7.21672 6.99512
#
# Compressibility (1/GPa) = 0.01921469
#
# Stress axis : x y z
#
# Youngs Moduli (GPa) = 78.06191 46.50929 102.46776
#
# Poissons Ratio (x) = 0.26882 0.34991
# Poissons Ratio (y) = 0.45119 0.33130
# Poissons Ratio (z) = 0.26657 0.15037
#
# Static dielectric constant tensor:
#      x y z
#    x 3.319230 0.000000 0.000000 
#    y 0.000000 3.374480 0.000000 
#    z 0.000000 0.000000 3.609200 
# 
# 
# High freq. dielectric constant tensor:
#      x y z
#    x 1.716840 0.000000 0.000000 
#    y 0.000000 1.707380 0.000000 
#    z 0.000000 0.000000 1.733890 
# 
# From -- ./inp_files/9779.got.cif
#   From: 2010.03.12/outbox.cif.g09.slc.cpg/sg61_5_cif.got.tgz:9779.got - 2010.04.10 19:05:03.
