data_PCOD8249811
_publ_section_title
;
Structure prediction by ZEFSAII (Michael W. Deem and Ramdas Pophale) SiO2 
 PCOD8249811
Probable space group: P B C A
;
_chemical_formula_sum "Si O2"
_cell_formula_units_Z 48
_cell_length_a 9.743972
_cell_length_b 25.706004
_cell_length_c 8.707159
_cell_angle_alpha 90.000000
_cell_angle_beta 90.000000
_cell_angle_gamma 90.000000
_cell_volume 2180.956850
_symmetry_space_group_name_H-M "P B C A"
_symmetry_group_IT_number 61
_symmetry_cell_setting 'orthorhombic'
loop_
_space_group_symop_operation_xyz
x,y,z
1/2-x,-y,1/2+z
1/2+x,1/2-y,-z
-x,1/2+y,1/2-z
-x,-y,-z
1/2+x,y,1/2-z
1/2-x,1/2+y,z
x,1/2-y,1/2+z
loop_
_atom_site_type_symbol
_atom_site_label
_atom_site_fract_x
_atom_site_fract_y
_atom_site_fract_z
Si Si1 0.115989 0.520119 0.706772
Si Si2 0.112863 0.646718 0.207345
Si Si3 0.925555 0.126204 0.637013
Si Si4 0.653531 0.959719 0.636989
Si Si5 0.156569 0.186496 0.792228
Si Si6 0.117613 0.292994 0.636235
O O1 0.120070 0.567881 0.824614
O O2 0.178613 0.538086 0.544741
O O3 0.206487 0.473502 0.775300
O O4 0.961085 0.500973 0.687219
O O5 0.108426 0.598438 0.322991
O O6 0.267653 0.666334 0.189746
O O7 0.023566 0.692942 0.279326
O O8 0.050401 0.629313 0.044759
O O9 0.811512 0.167394 0.689306
O O10 0.065873 0.139664 0.724511
O O11 0.158611 0.234235 0.674563
O O12 0.094337 0.204485 0.954323
#
# Coordination Sequence:
#
# PCOD8249811 Si02
#       6
#     8   8   8   8   8   8
#     4  11  24  41  62  90 123 159 202 250 300 358
#     4  11  24  41  63  91 122 159 202 248 301 358
#     4  11  24  41  63  91 122 159 202 248 301 358
#     4  11  24  41  62  90 123 159 202 250 300 358
#     4  11  24  41  62  90 122 157 200 247 297 356
#     4  11  24  41  62  90 122 157 200 247 297 356
#
# _framework density 22.008686999999998
#
# number of rings (size 3 to 8) (size 9 to 14) (size 15 to 20)
#    0.000    1.000    0.000    6.000    0.000   18.667 
#    0.000    0.000    0.000    0.000    0.000    0.000 
#    0.000    0.000    0.000    0.000    0.000    0.000 
#
# Total GULP energy -595738.346904 kJ/mol
# GULP energy per Si atom -12411.215561 kJ/mol
# Density = 2.195859 g / cm^3
# Si number density = 22.008687 Si / 1000 Ang^3
#
#
#
# Elastic Constant Matrix: (Units=GPa)
#
#
# Indices 1 2 3 4 5 6 
#
# 1 36.3407 -5.1394 25.1650 0.0000 0.0000 0.0000
# 2 -5.1394 75.2112 -9.6506 0.0000 0.0000 0.0000
# 3 25.1650 -9.6506 57.0499 0.0000 0.0000 0.0000
# 4 0.0000 0.0000 0.0000 33.1885 0.0000 0.0000
# 5 0.0000 0.0000 0.0000 0.0000 32.7771 0.0000
# 6 0.0000 0.0000 0.0000 0.0000 0.0000 33.7178
#
#
#
# Elastic Compliance Matrix: (Units=1/GPa)
#
#
# Indices 1 2 3 4 5 6 
#
# 1 0.039636 0.000475 -0.017403 0.000000 0.000000 0.000000
# 2 0.000475 0.013597 0.002090 0.000000 0.000000 0.000000
# 3 -0.017403 0.002090 0.025559 0.000000 0.000000 0.000000
# 4 0.000000 0.000000 0.000000 0.030131 0.000000 0.000000
# 5 0.000000 0.000000 0.000000 0.000000 0.030509 0.000000
# 6 0.000000 0.000000 0.000000 0.000000 0.000000 0.029658
#
#
# Mechanical properties :
#
#
# Convention : Reuss Voigt Hill
#
# Bulk Modulus (GPa) = 20.35986 21.03909 20.69948
# Shear Modulus (GPa) = 23.24113 30.48514 26.86314
#
# Velocity S-wave (km/s) = 3.25314 3.72579 3.49746
# Velocity P-wave (km/s) = 4.83544 5.29989 5.07298
#
# Compressibility (1/GPa) = 0.04911624
#
# Stress axis : x y z
#
# Youngs Moduli (GPa) = 25.22974 73.54789 39.12564
#
# Poissons Ratio (x) = -0.03496 0.68091
# Poissons Ratio (y) = -0.01199 -0.08178
# Poissons Ratio (z) = 0.43908 -0.15374
#
# Static dielectric constant tensor:
#      x y z
#    x 3.902240 0.000000 0.000000 
#    y 0.000000 3.806790 0.000000 
#    z 0.000000 0.000000 4.098070 
# 
# 
# High freq. dielectric constant tensor:
#      x y z
#    x 1.869910 0.000000 0.000000 
#    y 0.000000 1.872500 0.000000 
#    z 0.000000 0.000000 1.878800 
# 
# From -- ./inp_files/1881.got.cif
#   From: 2010.03.12/outbox.cif.g09.slc.cpg/sg61_1_cif.got.tgz:1881.got - 2010.04.10 19:05:03.
