data_PCOD8249176
_publ_section_title
;
Structure prediction by ZEFSAII (Michael W. Deem and Ramdas Pophale) SiO2 
 PCOD8249176
Probable space group: P B C A
;
_chemical_formula_sum "Si O2"
_cell_formula_units_Z 56
_cell_length_a 10.559879
_cell_length_b 12.416739
_cell_length_c 18.722246
_cell_angle_alpha 90.000000
_cell_angle_beta 90.000000
_cell_angle_gamma 90.000000
_cell_volume 2454.847068
_symmetry_space_group_name_H-M "P B C A"
_symmetry_group_IT_number 61
_symmetry_cell_setting 'orthorhombic'
loop_
_space_group_symop_operation_xyz
x,y,z
1/2-x,-y,1/2+z
1/2+x,1/2-y,-z
-x,1/2+y,1/2-z
-x,-y,-z
1/2+x,y,1/2-z
1/2-x,1/2+y,z
x,1/2-y,1/2+z
loop_
_atom_site_type_symbol
_atom_site_label
_atom_site_fract_x
_atom_site_fract_y
_atom_site_fract_z
Si Si1 0.316160 0.474457 0.006588
Si Si2 0.577422 0.055460 0.344640
Si Si3 0.121843 0.168283 0.557720
Si Si4 0.893100 0.288879 0.590264
Si Si5 0.146456 0.317162 0.426157
Si Si6 0.486213 0.169196 0.703840
Si Si7 0.783299 0.749876 0.798715
O O1 0.390983 0.516345 0.075336
O O2 0.168078 0.446323 0.025470
O O3 0.379613 0.361700 0.981535
O O4 0.321085 0.556968 0.940194
O O5 0.460675 0.140019 0.348716
O O6 0.693362 0.121993 0.308958
O O7 0.542313 0.958652 0.291704
O O8 0.137778 0.267151 0.503789
O O9 0.212220 0.189775 0.625230
O O10 0.973700 0.178041 0.577274
O O11 0.758400 0.244484 0.617327
O O12 0.020798 0.303585 0.378674
O O13 0.360457 0.232709 0.729846
O O14 0.608929 0.195569 0.750266
#
# Coordination Sequence:
#
# PCOD8249176 Si02
#       7
#     8   8   8   8   8   8   8
#     4  11  19  39  70 106 136 187 228 289 364 425
#     4  11  22  44  74  96 137 189 231 288 361 420
#     4  10  22  39  69 104 140 178 233 298 340 424
#     4  10  21  37  65 106 145 175 230 290 352 421
#     4  11  23  39  73 107 141 183 238 287 360 421
#     4  12  27  49  74 102 143 195 237 296 360 435
#     4  11  27  46  71 104 143 186 246 290 355 424
#
# _framework density 22.812013
#
# number of rings (size 3 to 8) (size 9 to 14) (size 15 to 20)
#    0.000    1.143    5.714    1.286    6.000    1.714 
#    0.000    1.429    0.000    0.000    0.000    0.000 
#    0.000    0.000    0.000    0.000    0.000    0.000 
#
# Total GULP energy -693958.791584 kJ/mol
# GULP energy per Si atom -12392.121278 kJ/mol
# Density = 2.276009 g / cm^3
# Si number density = 22.812013 Si / 1000 Ang^3
#
#
#
# Elastic Constant Matrix: (Units=GPa)
#
#
# Indices 1 2 3 4 5 6 
#
# 1 148.6079 49.9321 31.2153 0.0000 0.0000 0.0000
# 2 49.9321 74.4211 27.3522 0.0000 0.0000 0.0000
# 3 31.2153 27.3522 62.0219 0.0000 0.0000 0.0000
# 4 0.0000 0.0000 0.0000 23.7676 0.0000 0.0000
# 5 0.0000 0.0000 0.0000 0.0000 35.5919 0.0000
# 6 0.0000 0.0000 0.0000 0.0000 0.0000 34.4692
#
#
#
# Elastic Compliance Matrix: (Units=1/GPa)
#
#
# Indices 1 2 3 4 5 6 
#
# 1 0.008935 -0.005182 -0.002212 0.000000 0.000000 0.000000
# 2 -0.005182 0.019042 -0.005790 0.000000 0.000000 0.000000
# 3 -0.002212 -0.005790 0.019790 0.000000 0.000000 0.000000
# 4 0.000000 0.000000 0.000000 0.042074 0.000000 0.000000
# 5 0.000000 0.000000 0.000000 0.000000 0.028096 0.000000
# 6 0.000000 0.000000 0.000000 0.000000 0.000000 0.029011
#
#
# Mechanical properties :
#
#
# Convention : Reuss Voigt Hill
#
# Bulk Modulus (GPa) = 46.72876 55.78337 51.25606
# Shear Modulus (GPa) = 27.70897 30.53584 29.12240
#
# Velocity S-wave (km/s) = 3.48899 3.66264 3.57687
# Velocity P-wave (km/s) = 6.06296 6.51100 6.29097
#
# Compressibility (1/GPa) = 0.02140010
#
# Stress axis : x y z
#
# Youngs Moduli (GPa) = 111.92240 52.51658 50.53148
#
# Poissons Ratio (x) = 0.27213 0.11175
# Poissons Ratio (y) = 0.57997 0.29255
# Poissons Ratio (z) = 0.24752 0.30405
#
# Static dielectric constant tensor:
#      x y z
#    x 4.423880 0.000000 0.000000 
#    y 0.000000 4.190660 0.000000 
#    z 0.000000 0.000000 3.889280 
# 
# 
# High freq. dielectric constant tensor:
#      x y z
#    x 1.904640 0.000000 0.000000 
#    y 0.000000 1.890850 0.000000 
#    z 0.000000 0.000000 1.886250 
# 
# From -- ./inp_files/10295.got.cif
#   From: 2010.03.12/outbox.cif.g09.slc.cpg/sg61_6_cif.got.tgz:10295.got - 2010.04.10 19:05:03.
