data_PCOD8249204
_publ_section_title
;
Structure prediction by ZEFSAII (Michael W. Deem and Ramdas Pophale) SiO2 
 PCOD8249204
Probable space group: P B C A
;
_chemical_formula_sum "Si O2"
_cell_formula_units_Z 48
_cell_length_a 16.036878
_cell_length_b 15.662365
_cell_length_c 9.115263
_cell_angle_alpha 90.000000
_cell_angle_beta 90.000000
_cell_angle_gamma 90.000000
_cell_volume 2289.530165
_symmetry_space_group_name_H-M "P B C A"
_symmetry_group_IT_number 61
_symmetry_cell_setting 'orthorhombic'
loop_
_space_group_symop_operation_xyz
x,y,z
1/2-x,-y,1/2+z
1/2+x,1/2-y,-z
-x,1/2+y,1/2-z
-x,-y,-z
1/2+x,y,1/2-z
1/2-x,1/2+y,z
x,1/2-y,1/2+z
loop_
_atom_site_type_symbol
_atom_site_label
_atom_site_fract_x
_atom_site_fract_y
_atom_site_fract_z
Si Si1 0.205661 0.915563 0.521221
Si Si2 0.432556 0.749191 0.729195
Si Si3 0.478956 0.096768 0.890911
Si Si4 0.946955 0.925129 0.694274
Si Si5 0.810744 0.748288 0.021164
Si Si6 0.239052 0.423476 0.839256
O O1 0.112111 0.907240 0.461561
O O2 0.253050 0.830982 0.469834
O O3 0.198720 0.924482 0.698873
O O4 0.253511 0.997256 0.450327
O O5 0.505859 0.682112 0.700643
O O6 0.478589 0.842613 0.713928
O O7 0.398535 0.739776 0.893783
O O8 0.345586 0.736610 0.642718
O O9 0.492327 0.016087 0.778242
O O10 0.547969 0.091787 0.018376
O O11 0.850615 0.932899 0.737007
O O12 0.756426 0.666140 0.071861
#
# Coordination Sequence:
#
# PCOD8249204 Si02
#       6
#     8   8   8   8   8   8
#     4  11  24  39  66  97 127 161 219 265 314 369
#     4  11  20  41  66  89 120 175 208 251 315 391
#     4  10  21  38  66  93 124 166 204 270 307 367
#     4   9  19  39  63  85 124 162 206 240 320 377
#     4  11  22  41  66  87 128 171 212 251 319 390
#     4  10  22  40  63  93 127 170 205 257 318 385
#
# _framework density 20.965
#
# number of rings (size 3 to 8) (size 9 to 14) (size 15 to 20)
#    0.000    1.667    6.667    0.000    2.333    1.333 
#    0.000    0.833    7.333    0.000    0.000    0.000 
#    0.000    0.000    0.000    0.000    0.000    0.000 
#
# Total GULP energy -594674.653061 kJ/mol
# GULP energy per Si atom -12389.055272 kJ/mol
# Density = 2.091728 g / cm^3
# Si number density = 20.965000 Si / 1000 Ang^3
#
#
#
# Elastic Constant Matrix: (Units=GPa)
#
#
# Indices 1 2 3 4 5 6 
#
# 1 41.9232 31.9134 5.6041 0.0000 0.0000 0.0000
# 2 31.9134 219.3577 50.8826 0.0000 0.0000 0.0000
# 3 5.6041 50.8826 46.1742 0.0000 0.0000 0.0000
# 4 0.0000 0.0000 0.0000 40.9307 0.0000 0.0000
# 5 0.0000 0.0000 0.0000 0.0000 30.4026 0.0000
# 6 0.0000 0.0000 0.0000 0.0000 0.0000 33.8209
#
#
#
# Elastic Compliance Matrix: (Units=1/GPa)
#
#
# Indices 1 2 3 4 5 6 
#
# 1 0.026892 -0.004239 0.001407 0.000000 0.000000 0.000000
# 2 -0.004239 0.006792 -0.006971 0.000000 0.000000 0.000000
# 3 0.001407 -0.006971 0.029168 0.000000 0.000000 0.000000
# 4 0.000000 0.000000 0.000000 0.024432 0.000000 0.000000
# 5 0.000000 0.000000 0.000000 0.000000 0.032892 0.000000
# 6 0.000000 0.000000 0.000000 0.000000 0.000000 0.029568
#
#
# Mechanical properties :
#
#
# Convention : Reuss Voigt Hill
#
# Bulk Modulus (GPa) = 23.12270 53.80615 38.46443
# Shear Modulus (GPa) = 27.20899 35.63450 31.42175
#
# Velocity S-wave (km/s) = 3.60645 4.12723 3.87560
# Velocity P-wave (km/s) = 5.32870 6.95935 6.19789
#
# Compressibility (1/GPa) = 0.04324755
#
# Stress axis : x y z
#
# Youngs Moduli (GPa) = 37.18613 147.22470 34.28456
#
# Poissons Ratio (x) = 0.62405 -0.04825
# Poissons Ratio (y) = 0.15762 0.23898
# Poissons Ratio (z) = -0.05233 1.02623
#
# Static dielectric constant tensor:
#      x y z
#    x 3.401590 0.000000 0.000000 
#    y 0.000000 4.377370 0.000000 
#    z 0.000000 0.000000 3.656960 
# 
# 
# High freq. dielectric constant tensor:
#      x y z
#    x 1.789650 0.000000 0.000000 
#    y 0.000000 1.850200 0.000000 
#    z 0.000000 0.000000 1.801710 
# 
# From -- ./inp_files/3448.got.cif
#   From: 2010.03.12/outbox.cif.g09.slc.cpg/sg61_2_cif.got.tgz:3448.got - 2010.04.10 19:05:03.
