data_PCOD8249785
_publ_section_title
;
Structure prediction by ZEFSAII (Michael W. Deem and Ramdas Pophale) SiO2 
 PCOD8249785
Probable space group: P B C A
;
_chemical_formula_sum "Si O2"
_cell_formula_units_Z 64
_cell_length_a 29.267647
_cell_length_b 9.304306
_cell_length_c 11.435195
_cell_angle_alpha 90.000000
_cell_angle_beta 90.000000
_cell_angle_gamma 90.000000
_cell_volume 3113.976768
_symmetry_space_group_name_H-M "P B C A"
_symmetry_group_IT_number 61
_symmetry_cell_setting 'orthorhombic'
loop_
_space_group_symop_operation_xyz
x,y,z
1/2-x,-y,1/2+z
1/2+x,1/2-y,-z
-x,1/2+y,1/2-z
-x,-y,-z
1/2+x,y,1/2-z
1/2-x,1/2+y,z
x,1/2-y,1/2+z
loop_
_atom_site_type_symbol
_atom_site_label
_atom_site_fract_x
_atom_site_fract_y
_atom_site_fract_z
Si Si1 0.122768 0.607760 0.399585
Si Si2 0.957055 0.828966 0.705317
Si Si3 0.790701 0.441237 0.254975
Si Si4 0.841267 0.407014 0.035415
Si Si5 0.903465 0.866811 0.484566
Si Si6 0.548967 0.495244 0.277683
Si Si7 0.300846 0.383778 0.712461
Si Si8 0.121837 0.417540 0.629788
O O1 0.125391 0.773333 0.437678
O O2 0.078967 0.573745 0.320813
O O3 0.169248 0.576702 0.326751
O O4 0.117018 0.516420 0.516358
O O5 0.941634 0.803680 0.571193
O O6 0.964270 0.669396 0.753125
O O7 0.922030 0.923528 0.784307
O O8 0.004297 0.911338 0.706147
O O9 0.796293 0.410184 0.116446
O O10 0.789120 0.283245 0.311104
O O11 0.744789 0.524770 0.279817
O O12 0.832563 0.535193 0.303625
O O13 0.868692 0.550462 0.069523
O O14 0.828806 0.427159 0.900935
O O15 0.923769 0.989336 0.399169
O O16 0.875364 0.746355 0.413906
#
# Coordination Sequence:
#
# PCOD8249785 Si02
#       8
#     8   8   8   8   8   8   8   8
#     4  11  24  46  66  96 136 177 221 274 333 391
#     4  11  25  43  66 102 132 176 226 271 340 400
#     4  11  26  43  67  99 132 174 217 275 327 395
#     4  11  24  43  71  96 131 178 216 273 332 391
#     4  11  23  44  69  96 132 174 225 270 335 395
#     4  11  25  43  68  98 135 176 221 282 331 400
#     4  11  26  43  67 101 133 172 225 268 334 393
#     4  11  24  45  67  94 135 172 222 273 331 399
#
# _framework density 20.552498
#
# number of rings (size 3 to 8) (size 9 to 14) (size 15 to 20)
#    0.000    1.000    5.000    0.375    5.250    2.500 
#    0.000    0.000    0.000    0.000    0.000    0.000 
#    0.000    0.000    0.000    0.000    0.000    0.000 
#
# Total GULP energy -793335.117517 kJ/mol
# GULP energy per Si atom -12395.861211 kJ/mol
# Density = 2.050572 g / cm^3
# Si number density = 20.552498 Si / 1000 Ang^3
#
#
#
# Elastic Constant Matrix: (Units=GPa)
#
#
# Indices 1 2 3 4 5 6 
#
# 1 67.7342 62.1758 6.6641 0.0000 0.0000 0.0000
# 2 62.1758 104.3772 28.5395 0.0000 0.0000 0.0000
# 3 6.6641 28.5395 87.1290 0.0000 0.0000 0.0000
# 4 0.0000 0.0000 0.0000 34.8944 0.0000 0.0000
# 5 0.0000 0.0000 0.0000 0.0000 22.7747 0.0000
# 6 0.0000 0.0000 0.0000 0.0000 0.0000 35.0172
#
#
#
# Elastic Compliance Matrix: (Units=1/GPa)
#
#
# Indices 1 2 3 4 5 6 
#
# 1 0.034071 -0.021510 0.004440 0.000000 0.000000 0.000000
# 2 -0.021510 0.024102 -0.006250 0.000000 0.000000 0.000000
# 3 0.004440 -0.006250 0.013185 0.000000 0.000000 0.000000
# 4 0.000000 0.000000 0.000000 0.028658 0.000000 0.000000
# 5 0.000000 0.000000 0.000000 0.000000 0.043908 0.000000
# 6 0.000000 0.000000 0.000000 0.000000 0.000000 0.028557
#
#
# Mechanical properties :
#
#
# Convention : Reuss Voigt Hill
#
# Bulk Modulus (GPa) = 40.45453 50.44433 45.44943
# Shear Modulus (GPa) = 21.99145 29.32801 25.65973
#
# Velocity S-wave (km/s) = 3.27465 3.78164 3.53724
# Velocity P-wave (km/s) = 5.83301 6.60796 6.23254
#
# Compressibility (1/GPa) = 0.02471911
#
# Stress axis : x y z
#
# Youngs Moduli (GPa) = 29.35024 41.48965 75.84503
#
# Poissons Ratio (x) = 0.89243 -0.33672
# Poissons Ratio (y) = 0.63131 0.47401
# Poissons Ratio (z) = -0.13030 0.25930
#
# Static dielectric constant tensor:
#      x y z
#    x 3.614000 0.000000 0.000000 
#    y 0.000000 3.892000 0.000000 
#    z 0.000000 0.000000 3.979280 
# 
# 
# High freq. dielectric constant tensor:
#      x y z
#    x 1.796370 0.000000 0.000000 
#    y 0.000000 1.813930 0.000000 
#    z 0.000000 0.000000 1.823710 
# 
# From -- ./inp_files/2428.got.cif
#   From: 2010.03.12/outbox.cif.g09.slc.cpg/sg61_2_cif.got.tgz:2428.got - 2010.04.10 19:05:03.
