data_PCOD8249986
_publ_section_title
;
Structure prediction by ZEFSAII (Michael W. Deem and Ramdas Pophale) SiO2 
 PCOD8249986
Probable space group: P N M A
;
_chemical_formula_sum "Si O2"
_cell_formula_units_Z 64
_cell_length_a 20.405203
_cell_length_b 8.934824
_cell_length_c 22.612085
_cell_angle_alpha 90.000000
_cell_angle_beta 90.000000
_cell_angle_gamma 90.000000
_cell_volume 4122.565183
_symmetry_space_group_name_H-M "P N M A"
_symmetry_group_IT_number 62
_symmetry_cell_setting 'orthorhombic'
loop_
_space_group_symop_operation_xyz
x,y,z
1/2-x,-y,1/2+z
1/2+x,1/2-y,1/2-z
-x,1/2+y,-z
-x,-y,-z
1/2+x,y,1/2-z
1/2-x,1/2+y,1/2+z
x,1/2-y,z
loop_
_atom_site_type_symbol
_atom_site_label
_atom_site_fract_x
_atom_site_fract_y
_atom_site_fract_z
Si Si1 0.259152 0.422664 0.332033
Si Si2 0.931905 0.572452 0.649741
Si Si3 0.679516 0.077421 0.061014
Si Si4 0.348583 0.425769 0.757348
Si Si5 0.309784 0.573886 0.069672
Si Si6 0.272672 0.918658 0.662425
Si Si7 0.433335 0.576688 0.149806
Si Si8 0.856409 0.415550 0.258235
O O1 0.238718 0.250000 0.315789
O O2 0.247783 0.446358 0.402392
O O3 0.212472 0.539907 0.299624
O O4 0.334456 0.450867 0.310148
O O5 0.929449 0.750000 0.655999
O O6 0.881691 0.514136 0.599036
O O7 0.912982 0.500029 0.713114
O O8 0.003845 0.518913 0.631307
O O9 0.665101 0.250000 0.049230
O O10 0.685431 0.003053 0.996331
O O11 0.359646 0.250000 0.750821
O O12 0.333898 0.495022 0.692496
O O13 0.296525 0.750000 0.069967
O O14 0.247867 0.497792 0.101397
O O15 0.377485 0.535341 0.102707
O O16 0.294665 0.750000 0.648490
O O17 0.211378 0.923056 0.706390
O O18 0.451696 0.750000 0.149542
O O19 0.408393 0.533076 0.215880
O O20 0.887841 0.250000 0.263157
#
# Coordination Sequence:
#
# PCOD8249986 Si02
#       8
#     8   8   8   8   8   8   8   8
#     4   8  14  26  43  61  81 106 136 169 209 255
#     4  10  19  31  44  57  79 113 147 176 208 248
#     4   8  15  28  44  60  81 112 145 175 207 244
#     4  10  17  26  42  62  81 101 130 171 216 254
#     4   9  17  29  43  60  84 113 144 176 209 242
#     4   9  16  27  42  60  81 105 135 169 208 252
#     4  10  19  28  39  58  83 110 142 179 212 243
#     4   8  14  25  41  58  76 102 135 169 207 251
#
# _framework density 15.524316000000001
#
# number of rings (size 3 to 8) (size 9 to 14) (size 15 to 20)
#    0.000    3.000    0.000    3.750    0.000    4.000 
#    0.000    3.125    0.000    0.000    0.000    0.000 
#    0.000    1.000    0.000    2.750    0.000    4.250 
#
# Total GULP energy -793006.091656 kJ/mol
# GULP energy per Si atom -12390.720182 kJ/mol
# Density = 1.548898 g / cm^3
# Si number density = 15.524316 Si / 1000 Ang^3
#
#
#
# Elastic Constant Matrix: (Units=GPa)
#
#
# Indices 1 2 3 4 5 6 
#
# 1 29.3443 20.5237 51.7723 0.0000 0.0000 0.0000
# 2 20.5237 69.1984 36.9045 0.0000 0.0000 0.0000
# 3 51.7723 36.9045 110.1004 0.0000 0.0000 0.0000
# 4 0.0000 0.0000 0.0000 16.8968 0.0000 0.0000
# 5 0.0000 0.0000 0.0000 0.0000 16.2403 0.0000
# 6 0.0000 0.0000 0.0000 0.0000 0.0000 22.1809
#
#
#
# Elastic Compliance Matrix: (Units=1/GPa)
#
#
# Indices 1 2 3 4 5 6 
#
# 1 0.207352 -0.011567 -0.093625 0.000000 0.000000 0.000000
# 2 -0.011567 0.018242 -0.000675 0.000000 0.000000 0.000000
# 3 -0.093625 -0.000675 0.053334 0.000000 0.000000 0.000000
# 4 0.000000 0.000000 0.000000 0.059183 0.000000 0.000000
# 5 0.000000 0.000000 0.000000 0.000000 0.061575 0.000000
# 6 0.000000 0.000000 0.000000 0.000000 0.000000 0.045084
#
#
# Mechanical properties :
#
#
# Convention : Reuss Voigt Hill
#
# Bulk Modulus (GPa) = 14.88262 47.44934 31.16598
# Shear Modulus (GPa) = 7.36482 17.69310 12.52896
#
# Velocity S-wave (km/s) = 2.18045 3.37961 2.84395
# Velocity P-wave (km/s) = 3.99332 6.77199 5.55907
#
# Compressibility (1/GPa) = 0.06719245
#
# Stress axis : x y z
#
# Youngs Moduli (GPa) = 4.82272 54.81823 18.74966
#
# Poissons Ratio (x) = 0.63408 1.75545
# Poissons Ratio (y) = 0.05578 0.01266
# Poissons Ratio (z) = 0.45153 0.03703
#
# Static dielectric constant tensor:
#      x y z
#    x 2.798830 0.000000 0.000000 
#    y 0.000000 2.906220 0.000000 
#    z 0.000000 0.000000 3.197710 
# 
# 
# High freq. dielectric constant tensor:
#      x y z
#    x 1.556480 0.000000 0.000000 
#    y 0.000000 1.593430 0.000000 
#    z 0.000000 0.000000 1.579710 
# 
# From -- ./inp_files/27882.got.cif
#   From: 2010.03.12/outbox.cif.g09.slc.cpg/sg62_14_cif.got.tgz:27882.got - 2010.04.10 19:12:36.
