data_PCOD8249558
_publ_section_title
;
Structure prediction by ZEFSAII (Michael W. Deem and Ramdas Pophale) SiO2 
 PCOD8249558
Probable space group: P B C A
;
_chemical_formula_sum "Si O2"
_cell_formula_units_Z 48
_cell_length_a 26.456124
_cell_length_b 5.673300
_cell_length_c 12.321600
_cell_angle_alpha 90.000000
_cell_angle_beta 90.000000
_cell_angle_gamma 90.000000
_cell_volume 1849.392418
_symmetry_space_group_name_H-M "P B C A"
_symmetry_group_IT_number 61
_symmetry_cell_setting 'orthorhombic'
loop_
_space_group_symop_operation_xyz
x,y,z
1/2-x,-y,1/2+z
1/2+x,1/2-y,-z
-x,1/2+y,1/2-z
-x,-y,-z
1/2+x,y,1/2-z
1/2-x,1/2+y,z
x,1/2-y,1/2+z
loop_
_atom_site_type_symbol
_atom_site_label
_atom_site_fract_x
_atom_site_fract_y
_atom_site_fract_z
Si Si1 0.767526 0.639437 0.242537
Si Si2 0.615435 0.361835 0.730110
Si Si3 0.112975 0.650481 0.984662
Si Si4 0.269983 0.140281 0.012611
Si Si5 0.048699 0.507546 0.360832
Si Si6 0.049908 0.723826 0.659327
O O1 0.757850 0.376764 0.185237
O O2 0.826391 0.687904 0.254600
O O3 0.744496 0.607541 0.361881
O O4 0.607334 0.465303 0.609867
O O5 0.585551 0.120738 0.724533
O O6 0.592936 0.524574 0.824088
O O7 0.083867 0.896201 0.956861
O O8 0.171114 0.699514 0.009214
O O9 0.079991 0.573029 0.090396
O O10 0.241535 0.375056 0.960160
O O11 0.028123 0.708302 0.278122
O O12 0.000313 0.363643 0.405831
#
# Coordination Sequence:
#
# PCOD8249558 Si02
#       6
#     8   8   8   8   8   8
#     4  10  23  43  72 102 143 194 245 302 370 444
#     4  11  26  44  71 107 143 193 248 312 370 460
#     4  11  27  43  73 107 146 191 255 313 378 458
#     4  10  23  43  69 105 142 194 244 300 377 448
#     4  11  25  45  71 106 143 190 250 311 379 465
#     4  11  23  48  71 102 145 194 244 309 392 446
#
# _framework density 25.954473
#
# number of rings (size 3 to 8) (size 9 to 14) (size 15 to 20)
#    0.000    1.333    1.667    2.500   11.667    3.333 
#    0.000    0.000    0.000    0.000    0.000    0.000 
#    0.000    0.000    0.000    0.000    0.000    0.000 
#
# Total GULP energy -594902.762691 kJ/mol
# GULP energy per Si atom -12393.807556 kJ/mol
# Density = 2.589540 g / cm^3
# Si number density = 25.954473 Si / 1000 Ang^3
#
#
#
# Elastic Constant Matrix: (Units=GPa)
#
#
# Indices 1 2 3 4 5 6 
#
# 1 204.9280 34.2306 23.7978 0.0000 0.0000 0.0000
# 2 34.2306 108.9480 19.9558 0.0000 0.0000 0.0000
# 3 23.7978 19.9558 50.9972 0.0000 0.0000 0.0000
# 4 0.0000 0.0000 0.0000 15.5916 0.0000 0.0000
# 5 0.0000 0.0000 0.0000 0.0000 42.4550 0.0000
# 6 0.0000 0.0000 0.0000 0.0000 0.0000 36.2663
#
#
#
# Elastic Compliance Matrix: (Units=1/GPa)
#
#
# Indices 1 2 3 4 5 6 
#
# 1 0.005328 -0.001313 -0.001973 0.000000 0.000000 0.000000
# 2 -0.001313 0.010211 -0.003383 0.000000 0.000000 0.000000
# 3 -0.001973 -0.003383 0.021853 0.000000 0.000000 0.000000
# 4 0.000000 0.000000 0.000000 0.064137 0.000000 0.000000
# 5 0.000000 0.000000 0.000000 0.000000 0.023554 0.000000
# 6 0.000000 0.000000 0.000000 0.000000 0.000000 0.027574
#
#
# Mechanical properties :
#
#
# Convention : Reuss Voigt Hill
#
# Bulk Modulus (GPa) = 41.57081 57.87129 49.72105
# Shear Modulus (GPa) = 28.73351 37.98850 33.36100
#
# Velocity S-wave (km/s) = 3.33088 3.82993 3.58909
# Velocity P-wave (km/s) = 5.55379 6.47329 6.03109
#
# Compressibility (1/GPa) = 0.02405534
#
# Stress axis : x y z
#
# Youngs Moduli (GPa) = 187.68355 97.93549 45.75974
#
# Poissons Ratio (x) = 0.12856 0.09027
# Poissons Ratio (y) = 0.24638 0.15481
# Poissons Ratio (z) = 0.37024 0.33132
#
# Static dielectric constant tensor:
#      x y z
#    x 4.638380 0.000000 0.000000 
#    y 0.000000 5.153070 0.000000 
#    z 0.000000 0.000000 4.821150 
# 
# 
# High freq. dielectric constant tensor:
#      x y z
#    x 2.042780 0.000000 0.000000 
#    y 0.000000 2.039120 0.000000 
#    z 0.000000 0.000000 2.071550 
# 
# From -- ./inp_files/8584.got.cif
#   From: 2010.03.12/outbox.cif.g09.slc.cpg/sg61_5_cif.got.tgz:8584.got - 2010.04.10 19:05:03.
