data_PCOD8249972
_publ_section_title
;
Structure prediction by ZEFSAII (Michael W. Deem and Ramdas Pophale) SiO2 
 PCOD8249972
Probable space group: P N M A
;
_chemical_formula_sum "Si O2"
_cell_formula_units_Z 48
_cell_length_a 17.059006
_cell_length_b 11.854054
_cell_length_c 14.985956
_cell_angle_alpha 90.000000
_cell_angle_beta 90.000000
_cell_angle_gamma 90.000000
_cell_volume 3030.435720
_symmetry_space_group_name_H-M "P N M A"
_symmetry_group_IT_number 62
_symmetry_cell_setting 'orthorhombic'
loop_
_space_group_symop_operation_xyz
x,y,z
1/2-x,-y,1/2+z
1/2+x,1/2-y,1/2-z
-x,1/2+y,-z
-x,-y,-z
1/2+x,y,1/2-z
1/2-x,1/2+y,1/2+z
x,1/2-y,z
loop_
_atom_site_type_symbol
_atom_site_label
_atom_site_fract_x
_atom_site_fract_y
_atom_site_fract_z
Si Si1 0.153082 0.250000 0.210063
Si Si2 0.721185 0.250000 0.468067
Si Si3 0.040611 0.250000 0.358704
Si Si4 0.774344 0.061231 0.243621
Si Si5 0.415869 0.947818 0.982872
Si Si6 0.244954 0.521589 0.449093
Si Si7 0.209646 0.119842 0.607408
Si Si8 0.361928 0.250000 0.171126
O O1 0.148457 0.250000 0.102178
O O2 0.067181 0.250000 0.254750
O O3 0.197607 0.362878 0.241942
O O4 0.715374 0.141194 0.530548
O O5 0.801364 0.250000 0.411084
O O6 0.077866 0.143166 0.405789
O O7 0.947860 0.250000 0.369073
O O8 0.849766 0.137047 0.270279
O O9 0.781790 0.024941 0.141452
O O10 0.772830 0.948183 0.302510
O O11 0.350593 0.037083 0.945969
O O12 0.381547 0.893893 0.075186
O O13 0.500000 0.000000 0.000000
O O14 0.264248 0.431346 0.527938
O O15 0.230620 0.250000 0.624560
#
# Coordination Sequence:
#
# PCOD8249972 Si02
#       8
#     4   4   4   8   8   8   8   4
#     4  10  16  34  52  70  99 131 177 216 237 308
#     4  10  18  34  49  73 105 131 169 217 257 297
#     4  12  18  30  53  78  97 138 170 204 267 308
#     4  10  19  33  49  74 103 134 174 214 246 307
#     4  10  18  30  48  75 108 130 160 202 263 323
#     4  10  19  31  50  75 100 138 169 204 260 298
#     4  10  19  32  47  75 104 134 168 209 256 302
#     4  10  20  34  52  71 109 130 170 219 247 311
#
# _framework density 15.839306000000001
#
# number of rings (size 3 to 8) (size 9 to 14) (size 15 to 20)
#    1.000    1.000    5.833    2.000    3.500    0.000 
#    0.000    0.000    0.000    1.000    0.000    0.000 
#    0.000    0.000    0.000    0.000    0.000    0.000 
#
# Total GULP energy -594712.274983 kJ/mol
# GULP energy per Si atom -12389.839062 kJ/mol
# Density = 1.580326 g / cm^3
# Si number density = 15.839306 Si / 1000 Ang^3
#
#
#
# Elastic Constant Matrix: (Units=GPa)
#
#
# Indices 1 2 3 4 5 6 
#
# 1 21.2300 0.3586 4.7434 0.0000 0.0000 0.0000
# 2 0.3586 121.4736 45.7868 0.0000 0.0000 0.0000
# 3 4.7434 45.7868 88.6315 0.0000 0.0000 0.0000
# 4 0.0000 0.0000 0.0000 836.8616 0.0000 0.0000
# 5 0.0000 0.0000 0.0000 0.0000 20.3201 0.0000
# 6 0.0000 0.0000 0.0000 0.0000 0.0000 10.8858
#
#
#
# Elastic Compliance Matrix: (Units=1/GPa)
#
#
# Indices 1 2 3 4 5 6 
#
# 1 0.047775 0.001022 -0.003085 0.000000 0.000000 0.000000
# 2 0.001022 0.010245 -0.005347 0.000000 0.000000 0.000000
# 3 -0.003085 -0.005347 0.014210 0.000000 0.000000 0.000000
# 4 0.000000 0.000000 0.000000 0.001195 0.000000 0.000000
# 5 0.000000 0.000000 0.000000 0.000000 0.049212 0.000000
# 6 0.000000 0.000000 0.000000 0.000000 0.000000 0.091862
#
#
# Mechanical properties :
#
#
# Convention : Reuss Voigt Hill
#
# Bulk Modulus (GPa) = 17.41862 37.01252 27.21557
# Shear Modulus (GPa) = 20.12428 185.64327 102.88377
#
# Velocity S-wave (km/s) = 3.56831 10.83783 8.06819
# Velocity P-wave (km/s) = 5.29132 13.41752 10.19872
#
# Compressibility (1/GPa) = 0.05740982
#
# Stress axis : x y z
#
# Youngs Moduli (GPa) = 20.93139 97.61167 70.37291
#
# Poissons Ratio (x) = -0.09972 0.21707
# Poissons Ratio (y) = -0.02138 0.37629
# Poissons Ratio (z) = 0.06456 0.52193
#
# Static dielectric constant tensor:
#      x y z
#    x 2.672510 0.000000 0.000000 
#    y 0.000000 3.045250 0.000000 
#    z 0.000000 0.000000 2.993290 
# 
# 
# High freq. dielectric constant tensor:
#      x y z
#    x 1.564130 0.000000 0.000000 
#    y 0.000000 1.615780 0.000000 
#    z 0.000000 0.000000 1.605480 
# 
# From -- ./inp_files/19770.got.cif
#   From: 2010.03.12/outbox.cif.g09.slc.cpg/sg62_10_cif.got.tgz:19770.got - 2010.04.10 19:12:36.
