data_PCOD8249032
_publ_section_title
;
Structure prediction by ZEFSAII (Michael W. Deem and Ramdas Pophale) SiO2 
 PCOD8249032
Probable space group: P B C A
;
_chemical_formula_sum "Si O2"
_cell_formula_units_Z 40
_cell_length_a 18.399499
_cell_length_b 10.079229
_cell_length_c 8.590679
_cell_angle_alpha 90.000000
_cell_angle_beta 90.000000
_cell_angle_gamma 90.000000
_cell_volume 1593.165164
_symmetry_space_group_name_H-M "P B C A"
_symmetry_group_IT_number 61
_symmetry_cell_setting 'orthorhombic'
loop_
_space_group_symop_operation_xyz
x,y,z
1/2-x,-y,1/2+z
1/2+x,1/2-y,-z
-x,1/2+y,1/2-z
-x,-y,-z
1/2+x,y,1/2-z
1/2-x,1/2+y,z
x,1/2-y,1/2+z
loop_
_atom_site_type_symbol
_atom_site_label
_atom_site_fract_x
_atom_site_fract_y
_atom_site_fract_z
Si Si1 0.100859 0.576102 0.360467
Si Si2 0.948192 0.270178 0.886451
Si Si3 0.035921 0.124214 0.648936
Si Si4 0.237465 0.398313 0.362889
Si Si5 0.696716 0.369633 0.472293
O O1 0.073503 0.638095 0.520695
O O2 0.120818 0.685310 0.224333
O O3 0.036286 0.504463 0.260615
O O4 0.163325 0.475142 0.403953
O O5 0.013820 0.242862 0.765525
O O6 0.975786 0.383218 0.009473
O O7 0.114498 0.161278 0.577398
O O8 0.233919 0.250466 0.433010
O O9 0.301758 0.490945 0.431771
O O10 0.247422 0.387915 0.178584
#
# Coordination Sequence:
#
# PCOD8249032 Si02
#       5
#     8   8   8   8   8
#     4  10  22  39  61  92 127 168 215 266 324 386
#     4  10  21  38  62  92 129 167 212 266 323 386
#     4  10  20  38  63  92 126 166 211 263 323 385
#     4  11  25  45  69  97 130 170 220 270 328 387
#     4  11  24  44  68  97 129 171 217 271 324 386
#
# _framework density 25.107251000000002
#
# number of rings (size 3 to 8) (size 9 to 14) (size 15 to 20)
#    0.000    1.600    0.000    4.800    0.000    6.400 
#    0.000   12.000    0.000    0.000    0.000    0.000 
#    0.000    0.000    0.000    0.000    0.000    0.000 
#
# Total GULP energy -495551.861600 kJ/mol
# GULP energy per Si atom -12388.796540 kJ/mol
# Density = 2.505011 g / cm^3
# Si number density = 25.107251 Si / 1000 Ang^3
#
#
#
# Elastic Constant Matrix: (Units=GPa)
#
#
# Indices 1 2 3 4 5 6 
#
# 1 31.6959 -12.8975 7.5254 0.0000 0.0000 0.0000
# 2 -12.8975 65.1974 11.3524 0.0000 0.0000 0.0000
# 3 7.5254 11.3524 116.4525 0.0000 0.0000 0.0000
# 4 0.0000 0.0000 0.0000 47.8736 0.0000 0.0000
# 5 0.0000 0.0000 0.0000 0.0000 29.7541 0.0000
# 6 0.0000 0.0000 0.0000 0.0000 0.0000 31.2359
#
#
#
# Elastic Compliance Matrix: (Units=1/GPa)
#
#
# Indices 1 2 3 4 5 6 
#
# 1 0.035323 0.007513 -0.003015 0.000000 0.000000 0.000000
# 2 0.007513 0.017201 -0.002162 0.000000 0.000000 0.000000
# 3 -0.003015 -0.002162 0.008993 0.000000 0.000000 0.000000
# 4 0.000000 0.000000 0.000000 0.020888 0.000000 0.000000
# 5 0.000000 0.000000 0.000000 0.000000 0.033609 0.000000
# 6 0.000000 0.000000 0.000000 0.000000 0.000000 0.032014
#
#
# Mechanical properties :
#
#
# Convention : Reuss Voigt Hill
#
# Bulk Modulus (GPa) = 15.10874 25.03403 20.07138
# Shear Modulus (GPa) = 30.22618 35.59707 32.91163
#
# Velocity S-wave (km/s) = 3.47347 3.76945 3.62448
# Velocity P-wave (km/s) = 4.70291 5.37936 5.05247
#
# Compressibility (1/GPa) = 0.06618686
#
# Stress axis : x y z
#
# Youngs Moduli (GPa) = 28.31042 58.13721 111.19991
#
# Poissons Ratio (x) = -0.43676 0.33527
# Poissons Ratio (y) = -0.21268 0.24045
# Poissons Ratio (z) = 0.08536 0.12571
#
# Static dielectric constant tensor:
#      x y z
#    x 4.024830 0.000000 0.000000 
#    y 0.000000 4.975080 0.000000 
#    z 0.000000 0.000000 5.002110 
# 
# 
# High freq. dielectric constant tensor:
#      x y z
#    x 1.964960 0.000000 0.000000 
#    y 0.000000 2.016610 0.000000 
#    z 0.000000 0.000000 2.031090 
# 
# From -- ./inp_files/1751.got.cif
#   From: 2010.03.12/outbox.cif.g09.slc.cpg/sg61_1_cif.got.tgz:1751.got - 2010.04.10 19:05:03.
