data_PCOD8249790
_publ_section_title
;
Structure prediction by ZEFSAII (Michael W. Deem and Ramdas Pophale) SiO2 
 PCOD8249790
Probable space group: P B C A
;
_chemical_formula_sum "Si O2"
_cell_formula_units_Z 48
_cell_length_a 9.578496
_cell_length_b 13.402289
_cell_length_c 17.669948
_cell_angle_alpha 90.000000
_cell_angle_beta 90.000000
_cell_angle_gamma 90.000000
_cell_volume 2268.357868
_symmetry_space_group_name_H-M "P B C A"
_symmetry_group_IT_number 61
_symmetry_cell_setting 'orthorhombic'
loop_
_space_group_symop_operation_xyz
x,y,z
1/2-x,-y,1/2+z
1/2+x,1/2-y,-z
-x,1/2+y,1/2-z
-x,-y,-z
1/2+x,y,1/2-z
1/2-x,1/2+y,z
x,1/2-y,1/2+z
loop_
_atom_site_type_symbol
_atom_site_label
_atom_site_fract_x
_atom_site_fract_y
_atom_site_fract_z
Si Si1 0.772413 0.923425 0.187177
Si Si2 0.673896 0.639878 0.160715
Si Si3 0.079702 0.247382 0.083150
Si Si4 0.555056 0.440609 0.329805
Si Si5 0.657449 0.835682 0.834565
Si Si6 0.098605 0.246557 0.905932
O O1 0.606650 0.941165 0.197027
O O2 0.843319 0.892926 0.266299
O O3 0.803494 0.842525 0.123539
O O4 0.855092 0.022795 0.161904
O O5 0.556980 0.699635 0.117664
O O6 0.687268 0.682532 0.246091
O O7 0.818102 0.652876 0.114904
O O8 0.079797 0.366063 0.099729
O O9 0.204768 0.183412 0.117575
O O10 0.075176 0.232898 0.994002
O O11 0.603480 0.552115 0.351348
O O12 0.548088 0.752423 0.862609
#
# Coordination Sequence:
#
# PCOD8249790 Si02
#       6
#     8   8   8   8   8   8
#     4  11  25  43  72  99 133 176 232 278 324 398
#     4  11  23  45  68  97 132 177 231 275 328 393
#     4  12  27  42  69 101 140 177 218 276 344 400
#     4  11  25  45  69 101 132 178 231 275 331 392
#     4  11  25  43  72  97 132 181 226 280 328 396
#     4  12  25  44  66 102 138 176 219 276 341 398
#
# _framework density 21.160682999999999
#
# number of rings (size 3 to 8) (size 9 to 14) (size 15 to 20)
#    0.000    0.667    3.333    4.000    9.333    2.667 
#    0.000    0.000    0.000    0.000    0.000    0.000 
#    0.000    0.000    0.000    0.000    0.000    0.000 
#
# Total GULP energy -595289.928832 kJ/mol
# GULP energy per Si atom -12401.873517 kJ/mol
# Density = 2.111252 g / cm^3
# Si number density = 21.160683 Si / 1000 Ang^3
#
#
#
# Elastic Constant Matrix: (Units=GPa)
#
#
# Indices 1 2 3 4 5 6 
#
# 1 75.2249 33.5497 59.1659 0.0000 0.0000 0.0000
# 2 33.5497 61.0433 17.8896 0.0000 0.0000 0.0000
# 3 59.1659 17.8896 188.7609 0.0000 0.0000 0.0000
# 4 0.0000 0.0000 0.0000 1.2892 0.0000 0.0000
# 5 0.0000 0.0000 0.0000 0.0000 5.7148 0.0000
# 6 0.0000 0.0000 0.0000 0.0000 0.0000 39.0187
#
#
#
# Elastic Compliance Matrix: (Units=1/GPa)
#
#
# Indices 1 2 3 4 5 6 
#
# 1 0.022976 -0.010818 -0.006176 0.000000 0.000000 0.000000
# 2 -0.010818 0.021943 0.001311 0.000000 0.000000 0.000000
# 3 -0.006176 0.001311 0.007109 0.000000 0.000000 0.000000
# 4 0.000000 0.000000 0.000000 0.775646 0.000000 0.000000
# 5 0.000000 0.000000 0.000000 0.000000 0.174984 0.000000
# 6 0.000000 0.000000 0.000000 0.000000 0.000000 0.025629
#
#
# Mechanical properties :
#
#
# Convention : Reuss Voigt Hill
#
# Bulk Modulus (GPa) = 48.39699 60.69327 54.54513
# Shear Modulus (GPa) = 4.68806 23.49947 14.09376
#
# Velocity S-wave (km/s) = 1.49006 3.33607 2.58357
# Velocity P-wave (km/s) = 5.08736 6.60178 5.89342
#
# Compressibility (1/GPa) = 0.02066244
#
# Stress axis : x y z
#
# Youngs Moduli (GPa) = 43.52386 45.57275 140.65851
#
# Poissons Ratio (x) = 0.49299 0.86877
# Poissons Ratio (y) = 0.47082 -0.18441
# Poissons Ratio (z) = 0.26882 -0.05975
#
# Static dielectric constant tensor:
#      x y z
#    x 3.966050 0.000000 0.000000 
#    y 0.000000 3.949490 0.000000 
#    z 0.000000 0.000000 3.764760 
# 
# 
# High freq. dielectric constant tensor:
#      x y z
#    x 1.848770 0.000000 0.000000 
#    y 0.000000 1.841010 0.000000 
#    z 0.000000 0.000000 1.819580 
# 
# From -- ./inp_files/2837.got.cif
#   From: 2010.03.12/outbox.cif.g09.slc.cpg/sg61_2_cif.got.tgz:2837.got - 2010.04.10 19:05:03.
