data_PCOD8249115
_publ_section_title
;
Structure prediction by ZEFSAII (Michael W. Deem and Ramdas Pophale) SiO2 
 PCOD8249115
Probable space group: P B C A
;
_chemical_formula_sum "Si O2"
_cell_formula_units_Z 56
_cell_length_a 7.237535
_cell_length_b 16.789503
_cell_length_c 19.621297
_cell_angle_alpha 90.000000
_cell_angle_beta 90.000000
_cell_angle_gamma 90.000000
_cell_volume 2384.274362
_symmetry_space_group_name_H-M "P B C A"
_symmetry_group_IT_number 61
_symmetry_cell_setting 'orthorhombic'
loop_
_space_group_symop_operation_xyz
x,y,z
1/2-x,-y,1/2+z
1/2+x,1/2-y,-z
-x,1/2+y,1/2-z
-x,-y,-z
1/2+x,y,1/2-z
1/2-x,1/2+y,z
x,1/2-y,1/2+z
loop_
_atom_site_type_symbol
_atom_site_label
_atom_site_fract_x
_atom_site_fract_y
_atom_site_fract_z
Si Si1 0.133469 0.038776 0.346099
Si Si2 0.472492 0.801467 0.894521
Si Si3 0.723706 0.004404 0.302572
Si Si4 0.619860 0.644567 0.872878
Si Si5 0.478071 0.788062 0.053431
Si Si6 0.639601 0.124469 0.405443
Si Si7 0.208090 0.414985 0.448547
O O1 0.208409 0.991809 0.411468
O O2 0.163297 0.132686 0.362266
O O3 0.244904 0.021498 0.277138
O O4 0.921839 0.013718 0.337394
O O5 0.483174 0.718132 0.852419
O O6 0.677443 0.831841 0.882677
O O7 0.426607 0.785045 0.973637
O O8 0.582303 0.064986 0.343016
O O9 0.657556 0.912681 0.308538
O O10 0.810457 0.670823 0.907179
O O11 0.503264 0.594058 0.926878
O O12 0.507858 0.695887 0.078546
O O13 0.666337 0.836403 0.067170
O O14 0.693689 0.070157 0.470723
#
# Coordination Sequence:
#
# PCOD8249115 Si02
#       7
#     8   8   8   8   8   8   8
#     4  11  24  46  64  94 136 178 221 272 331 395
#     4   9  21  40  67  94 135 172 215 274 335 383
#     4  11  24  45  64  93 138 173 225 275 324 400
#     4  11  22  41  66  99 132 171 219 271 325 399
#     4  10  20  43  66  97 141 164 214 286 319 392
#     4   9  21  39  67 100 129 173 222 267 338 386
#     4  11  22  40  68 100 129 175 217 268 338 387
#
# _framework density 23.487228999999999
#
# number of rings (size 3 to 8) (size 9 to 14) (size 15 to 20)
#    0.000    1.714    2.857    0.857    2.000    2.286 
#   10.286    1.429    0.000    0.000    0.000    0.000 
#    0.000    0.000    0.000    0.000    0.000    0.000 
#
# Total GULP energy -693914.574764 kJ/mol
# GULP energy per Si atom -12391.331692 kJ/mol
# Density = 2.343377 g / cm^3
# Si number density = 23.487229 Si / 1000 Ang^3
#
#
#
# Elastic Constant Matrix: (Units=GPa)
#
#
# Indices 1 2 3 4 5 6 
#
# 1 34.4132 4.0223 10.8804 0.0000 0.0000 0.0000
# 2 4.0223 132.8991 57.0170 0.0000 0.0000 0.0000
# 3 10.8804 57.0170 92.5693 0.0000 0.0000 0.0000
# 4 0.0000 0.0000 0.0000 31.2551 0.0000 0.0000
# 5 0.0000 0.0000 0.0000 0.0000 23.0214 0.0000
# 6 0.0000 0.0000 0.0000 0.0000 0.0000 19.4193
#
#
#
# Elastic Compliance Matrix: (Units=1/GPa)
#
#
# Indices 1 2 3 4 5 6 
#
# 1 0.030247 0.000829 -0.004066 0.000000 0.000000 0.000000
# 2 0.000829 0.010250 -0.006411 0.000000 0.000000 0.000000
# 3 -0.004066 -0.006411 0.015229 0.000000 0.000000 0.000000
# 4 0.000000 0.000000 0.000000 0.031995 0.000000 0.000000
# 5 0.000000 0.000000 0.000000 0.000000 0.043438 0.000000
# 6 0.000000 0.000000 0.000000 0.000000 0.000000 0.051495
#
#
# Mechanical properties :
#
#
# Convention : Reuss Voigt Hill
#
# Bulk Modulus (GPa) = 27.44907 44.85789 36.15348
# Shear Modulus (GPa) = 23.35439 27.26996 25.31218
#
# Velocity S-wave (km/s) = 3.15674 3.41112 3.28639
# Velocity P-wave (km/s) = 4.99989 5.88682 5.46139
#
# Compressibility (1/GPa) = 0.03643110
#
# Stress axis : x y z
#
# Youngs Moduli (GPa) = 33.06092 97.56348 65.66359
#
# Poissons Ratio (x) = -0.08086 0.26697
# Poissons Ratio (y) = -0.02740 0.42094
# Poissons Ratio (z) = 0.13442 0.62544
#
# Static dielectric constant tensor:
#      x y z
#    x 4.228960 0.000000 0.000000 
#    y 0.000000 5.070310 0.000000 
#    z 0.000000 0.000000 4.010670 
# 
# 
# High freq. dielectric constant tensor:
#      x y z
#    x 1.935050 0.000000 0.000000 
#    y 0.000000 1.946680 0.000000 
#    z 0.000000 0.000000 1.895170 
# 
# From -- ./inp_files/10134.got.cif
#   From: 2010.03.12/outbox.cif.g09.slc.cpg/sg61_6_cif.got.tgz:10134.got - 2010.04.10 19:05:03.
