data_PCOD8249133
_publ_section_title
;
Structure prediction by ZEFSAII (Michael W. Deem and Ramdas Pophale) SiO2 
 PCOD8249133
Probable space group: P B C A
;
_chemical_formula_sum "Si O2"
_cell_formula_units_Z 64
_cell_length_a 13.381858
_cell_length_b 14.024443
_cell_length_c 19.006199
_cell_angle_alpha 90.000000
_cell_angle_beta 90.000000
_cell_angle_gamma 90.000000
_cell_volume 3566.952376
_symmetry_space_group_name_H-M "P B C A"
_symmetry_group_IT_number 61
_symmetry_cell_setting 'orthorhombic'
loop_
_space_group_symop_operation_xyz
x,y,z
1/2-x,-y,1/2+z
1/2+x,1/2-y,-z
-x,1/2+y,1/2-z
-x,-y,-z
1/2+x,y,1/2-z
1/2-x,1/2+y,z
x,1/2-y,1/2+z
loop_
_atom_site_type_symbol
_atom_site_label
_atom_site_fract_x
_atom_site_fract_y
_atom_site_fract_z
Si Si1 0.327571 0.540975 0.956447
Si Si2 0.390163 0.251757 0.294700
Si Si3 0.576449 0.263535 0.204712
Si Si4 0.627714 0.454327 0.892065
Si Si5 0.527258 0.855843 0.418423
Si Si6 0.423695 0.352154 0.931301
Si Si7 0.754277 0.590436 0.683706
Si Si8 0.227886 0.387984 0.750442
O O1 0.438037 0.579626 0.945350
O O2 0.335402 0.429652 0.937437
O O3 0.251469 0.591053 0.902077
O O4 0.301344 0.558076 0.038539
O O5 0.504559 0.257718 0.271660
O O6 0.384439 0.226429 0.377043
O O7 0.342689 0.356535 0.286738
O O8 0.327878 0.176494 0.247058
O O9 0.506568 0.272932 0.135326
O O10 0.645526 0.357069 0.211079
O O11 0.643799 0.168246 0.203993
O O12 0.604757 0.568257 0.882820
O O13 0.526197 0.394727 0.899797
O O14 0.690137 0.412337 0.827397
O O15 0.567351 0.806367 0.490230
O O16 0.757248 0.483645 0.710316
#
# Coordination Sequence:
#
# PCOD8249133 Si02
#       8
#     8   8   8   8   8   8   8   8
#     4   8  15  31  53  76 102 135 183 218 258 319
#     4  11  21  33  55  82 106 146 182 217 279 322
#     4  10  21  36  53  80 111 135 180 227 259 331
#     4   9  16  30  56  81 103 140 176 225 264 309
#     4   8  16  30  56  79 100 138 180 214 263 316
#     4   9  15  31  55  78 102 140 180 217 263 314
#     4  10  21  35  54  78 109 145 179 218 275 326
#     4  11  21  34  56  78 111 142 176 225 279 317
#
# _framework density 17.942488000000001
#
# number of rings (size 3 to 8) (size 9 to 14) (size 15 to 20)
#    0.000    2.500    2.500    2.250    0.000    1.000 
#    2.250    0.000    2.750    0.750    0.000    0.000 
#    0.000    0.000    0.000    0.000    0.000    0.000 
#
# Total GULP energy -793029.069869 kJ/mol
# GULP energy per Si atom -12391.079217 kJ/mol
# Density = 1.790165 g / cm^3
# Si number density = 17.942488 Si / 1000 Ang^3
#
#
#
# Elastic Constant Matrix: (Units=GPa)
#
#
# Indices 1 2 3 4 5 6 
#
# 1 59.1652 33.1600 29.4487 0.0000 0.0000 0.0000
# 2 33.1600 76.8147 50.2793 0.0000 0.0000 0.0000
# 3 29.4487 50.2793 109.5692 0.0000 0.0000 0.0000
# 4 0.0000 0.0000 0.0000 27.4059 0.0000 0.0000
# 5 0.0000 0.0000 0.0000 0.0000 27.5854 0.0000
# 6 0.0000 0.0000 0.0000 0.0000 0.0000 14.9833
#
#
#
# Elastic Compliance Matrix: (Units=1/GPa)
#
#
# Indices 1 2 3 4 5 6 
#
# 1 0.022692 -0.008295 -0.002292 0.000000 0.000000 0.000000
# 2 -0.008295 0.021640 -0.007701 0.000000 0.000000 0.000000
# 3 -0.002292 -0.007701 0.013276 0.000000 0.000000 0.000000
# 4 0.000000 0.000000 0.000000 0.036489 0.000000 0.000000
# 5 0.000000 0.000000 0.000000 0.000000 0.036251 0.000000
# 6 0.000000 0.000000 0.000000 0.000000 0.000000 0.066741
#
#
# Mechanical properties :
#
#
# Convention : Reuss Voigt Hill
#
# Bulk Modulus (GPa) = 47.54729 52.36943 49.95836
# Shear Modulus (GPa) = 20.77481 22.83900 21.80691
#
# Velocity S-wave (km/s) = 3.40642 3.57164 3.49001
# Velocity P-wave (km/s) = 6.48297 6.80144 6.64412
#
# Compressibility (1/GPa) = 0.02103169
#
# Stress axis : x y z
#
# Youngs Moduli (GPa) = 44.06820 46.21114 75.32179
#
# Poissons Ratio (x) = 0.38334 0.17266
# Poissons Ratio (y) = 0.36557 0.58002
# Poissons Ratio (z) = 0.10102 0.35585
#
# Static dielectric constant tensor:
#      x y z
#    x 3.090370 0.000000 0.000000 
#    y 0.000000 3.176750 0.000000 
#    z 0.000000 0.000000 3.546120 
# 
# 
# High freq. dielectric constant tensor:
#      x y z
#    x 1.668610 0.000000 0.000000 
#    y 0.000000 1.679000 0.000000 
#    z 0.000000 0.000000 1.701360 
# 
# From -- ./inp_files/8013.got.cif
#   From: 2010.03.12/outbox.cif.g09.slc.cpg/sg61_5_cif.got.tgz:8013.got - 2010.04.10 19:05:03.
