data_PCOD8249276
_publ_section_title
;
Structure prediction by ZEFSAII (Michael W. Deem and Ramdas Pophale) SiO2 
 PCOD8249276
Probable space group: P B C A
;
_chemical_formula_sum "Si O2"
_cell_formula_units_Z 64
_cell_length_a 14.618888
_cell_length_b 9.212497
_cell_length_c 22.217602
_cell_angle_alpha 90.000000
_cell_angle_beta 90.000000
_cell_angle_gamma 90.000000
_cell_volume 2992.188028
_symmetry_space_group_name_H-M "P B C A"
_symmetry_group_IT_number 61
_symmetry_cell_setting 'orthorhombic'
loop_
_space_group_symop_operation_xyz
x,y,z
1/2-x,-y,1/2+z
1/2+x,1/2-y,-z
-x,1/2+y,1/2-z
-x,-y,-z
1/2+x,y,1/2-z
1/2-x,1/2+y,z
x,1/2-y,1/2+z
loop_
_atom_site_type_symbol
_atom_site_label
_atom_site_fract_x
_atom_site_fract_y
_atom_site_fract_z
Si Si1 0.298200 0.565087 0.735968
Si Si2 0.134292 0.427458 0.539060
Si Si3 0.942763 0.776321 0.192637
Si Si4 0.450075 0.991979 0.413737
Si Si5 0.349721 0.224617 0.176504
Si Si6 0.322783 0.248465 0.916569
Si Si7 0.189860 0.047238 0.348487
Si Si8 0.718290 0.782645 0.450805
O O1 0.388931 0.660575 0.749554
O O2 0.221847 0.667343 0.707065
O O3 0.324472 0.441541 0.688848
O O4 0.260973 0.488486 0.795867
O O5 0.088300 0.414710 0.473694
O O6 0.217375 0.543926 0.539618
O O7 0.177804 0.274416 0.560288
O O8 0.059018 0.485244 0.585795
O O9 0.902784 0.617512 0.177485
O O10 0.050779 0.761371 0.204170
O O11 0.921174 0.888379 0.139573
O O12 0.410521 0.152203 0.404437
O O13 0.348362 0.240168 0.104244
O O14 0.233859 0.335117 0.893577
O O15 0.337258 0.098730 0.882335
O O16 0.316154 0.209473 0.987191
#
# Coordination Sequence:
#
# PCOD8249276 Si02
#       8
#     8   8   8   8   8   8   8   8
#     4  12  26  48  69  95 137 182 231 290 332 401
#     4  10  21  40  66  96 142 177 221 266 353 408
#     4  12  25  46  71  99 136 176 235 288 339 408
#     4  10  21  41  66 102 133 178 219 283 338 416
#     4  12  28  47  69 101 137 183 234 279 350 408
#     4  11  21  40  73 102 137 171 224 276 354 399
#     4  12  22  44  70 103 130 177 230 284 335 406
#     4  11  22  42  66  99 135 181 215 279 342 420
#
# _framework density 21.389029000000001
#
# number of rings (size 3 to 8) (size 9 to 14) (size 15 to 20)
#    0.000    0.750    5.000    3.000    1.750    0.000 
#    4.500    0.625    0.000    0.000    0.000    0.000 
#    0.000    0.000    0.000    0.000    0.000    0.000 
#
# Total GULP energy -793664.486057 kJ/mol
# GULP energy per Si atom -12401.007595 kJ/mol
# Density = 2.134035 g / cm^3
# Si number density = 21.389029 Si / 1000 Ang^3
#
#
#
# Elastic Constant Matrix: (Units=GPa)
#
#
# Indices 1 2 3 4 5 6 
#
# 1 125.9845 47.7788 14.2208 0.0000 0.0000 0.0000
# 2 47.7788 107.3517 22.5618 0.0000 0.0000 0.0000
# 3 14.2208 22.5618 61.9340 0.0000 0.0000 0.0000
# 4 0.0000 0.0000 0.0000 34.0969 0.0000 0.0000
# 5 0.0000 0.0000 0.0000 0.0000 24.3175 0.0000
# 6 0.0000 0.0000 0.0000 0.0000 0.0000 34.2941
#
#
#
# Elastic Compliance Matrix: (Units=1/GPa)
#
#
# Indices 1 2 3 4 5 6 
#
# 1 0.009577 -0.004115 -0.000700 0.000000 0.000000 0.000000
# 2 -0.004115 0.011856 -0.003374 0.000000 0.000000 0.000000
# 3 -0.000700 -0.003374 0.017536 0.000000 0.000000 0.000000
# 4 0.000000 0.000000 0.000000 0.029328 0.000000 0.000000
# 5 0.000000 0.000000 0.000000 0.000000 0.041123 0.000000
# 6 0.000000 0.000000 0.000000 0.000000 0.000000 0.029160
#
#
# Mechanical properties :
#
#
# Convention : Reuss Voigt Hill
#
# Bulk Modulus (GPa) = 44.26623 51.59922 47.93272
# Shear Modulus (GPa) = 30.77144 32.58895 31.68019
#
# Velocity S-wave (km/s) = 3.79708 3.90760 3.85274
# Velocity P-wave (km/s) = 6.32174 6.67351 6.50000
#
# Compressibility (1/GPa) = 0.02259059
#
# Stress axis : x y z
#
# Youngs Moduli (GPa) = 104.41427 84.34597 57.02552
#
# Poissons Ratio (x) = 0.34712 0.03991
# Poissons Ratio (y) = 0.42971 0.19240
# Poissons Ratio (z) = 0.07307 0.28458
#
# Static dielectric constant tensor:
#      x y z
#    x 3.856290 0.000000 0.000000 
#    y 0.000000 4.001690 0.000000 
#    z 0.000000 0.000000 3.954440 
# 
# 
# High freq. dielectric constant tensor:
#      x y z
#    x 1.832940 0.000000 0.000000 
#    y 0.000000 1.847160 0.000000 
#    z 0.000000 0.000000 1.839950 
# 
# From -- ./inp_files/4332.got.cif
#   From: 2010.03.12/outbox.cif.g09.slc.cpg/sg61_3_cif.got.tgz:4332.got - 2010.04.10 19:05:03.
