data_PCOD8249667
_publ_section_title
;
Structure prediction by ZEFSAII (Michael W. Deem and Ramdas Pophale) SiO2 
 PCOD8249667
Probable space group: P B C A
;
_chemical_formula_sum "Si O2"
_cell_formula_units_Z 40
_cell_length_a 18.157254
_cell_length_b 9.923168
_cell_length_c 9.774773
_cell_angle_alpha 90.000000
_cell_angle_beta 90.000000
_cell_angle_gamma 90.000000
_cell_volume 1761.193985
_symmetry_space_group_name_H-M "P B C A"
_symmetry_group_IT_number 61
_symmetry_cell_setting 'orthorhombic'
loop_
_space_group_symop_operation_xyz
x,y,z
1/2-x,-y,1/2+z
1/2+x,1/2-y,-z
-x,1/2+y,1/2-z
-x,-y,-z
1/2+x,y,1/2-z
1/2-x,1/2+y,z
x,1/2-y,1/2+z
loop_
_atom_site_type_symbol
_atom_site_label
_atom_site_fract_x
_atom_site_fract_y
_atom_site_fract_z
Si Si1 0.719566 0.735713 0.669062
Si Si2 0.424345 0.942902 0.161122
Si Si3 0.593090 0.541112 0.632986
Si Si4 0.670951 0.492729 0.079518
Si Si5 0.348515 0.666238 0.174265
O O1 0.641351 0.663774 0.695983
O O2 0.770545 0.625208 0.599552
O O3 0.762108 0.791352 0.804975
O O4 0.709243 0.862142 0.566623
O O5 0.511027 0.935899 0.187067
O O6 0.387333 0.002403 0.297393
O O7 0.396352 0.793273 0.129779
O O8 0.404740 0.039369 0.032829
O O9 0.622659 0.395563 0.682744
O O10 0.636238 0.453563 0.934204
#
# Coordination Sequence:
#
# PCOD8249667 Si02
#       5
#     8   8   8   8   8
#     4  11  25  43  70 106 137 184 230 292 360 418
#     4  10  25  48  68 100 144 189 232 292 356 425
#     4  11  25  46  72  99 145 186 236 293 358 433
#     4  11  26  43  71 102 142 179 238 292 354 421
#     4  11  25  46  70 105 138 180 239 297 351 427
#
# _framework density 22.711863999999998
#
# number of rings (size 3 to 8) (size 9 to 14) (size 15 to 20)
#    0.000    1.200    2.000    2.400    8.400    0.800 
#    3.600    0.000    0.000    0.000    0.000    0.000 
#    0.000    0.000    0.000    0.000    0.000    0.000 
#
# Total GULP energy -495949.937508 kJ/mol
# GULP energy per Si atom -12398.748438 kJ/mol
# Density = 2.266017 g / cm^3
# Si number density = 22.711864 Si / 1000 Ang^3
#
#
#
# Elastic Constant Matrix: (Units=GPa)
#
#
# Indices 1 2 3 4 5 6 
#
# 1 162.2084 57.7444 53.9995 0.0000 0.0000 0.0000
# 2 57.7444 129.2807 22.5222 0.0000 0.0000 0.0000
# 3 53.9995 22.5222 87.3388 0.0000 0.0000 0.0000
# 4 0.0000 0.0000 0.0000 33.1650 0.0000 0.0000
# 5 0.0000 0.0000 0.0000 0.0000 26.1914 0.0000
# 6 0.0000 0.0000 0.0000 0.0000 0.0000 34.4451
#
#
#
# Elastic Compliance Matrix: (Units=1/GPa)
#
#
# Indices 1 2 3 4 5 6 
#
# 1 0.008828 -0.003133 -0.004650 0.000000 0.000000 0.000000
# 2 -0.003133 0.009211 -0.000438 0.000000 0.000000 0.000000
# 3 -0.004650 -0.000438 0.014438 0.000000 0.000000 0.000000
# 4 0.000000 0.000000 0.000000 0.030152 0.000000 0.000000
# 5 0.000000 0.000000 0.000000 0.000000 0.038180 0.000000
# 6 0.000000 0.000000 0.000000 0.000000 0.000000 0.029032
#
#
# Mechanical properties :
#
#
# Convention : Reuss Voigt Hill
#
# Bulk Modulus (GPa) = 62.36806 71.92890 67.14848
# Shear Modulus (GPa) = 32.97512 35.06443 34.01977
#
# Velocity S-wave (km/s) = 3.81450 3.93349 3.87445
# Velocity P-wave (km/s) = 6.84987 7.23662 7.04590
#
# Compressibility (1/GPa) = 0.01603385
#
# Stress axis : x y z
#
# Youngs Moduli (GPa) = 113.27063 108.56737 69.26216
#
# Poissons Ratio (x) = 0.34016 0.32210
# Poissons Ratio (y) = 0.35489 0.03034
# Poissons Ratio (z) = 0.52676 0.04756
#
# Static dielectric constant tensor:
#      x y z
#    x 4.135460 0.000000 0.000000 
#    y 0.000000 4.190330 0.000000 
#    z 0.000000 0.000000 3.989310 
# 
# 
# High freq. dielectric constant tensor:
#      x y z
#    x 1.894050 0.000000 0.000000 
#    y 0.000000 1.904940 0.000000 
#    z 0.000000 0.000000 1.889730 
# 
# From -- ./inp_files/2110.got.cif
#   From: 2010.03.12/outbox.cif.g09.slc.cpg/sg61_2_cif.got.tgz:2110.got - 2010.04.10 19:05:03.
