data_PCOD8249347
_publ_section_title
;
Structure prediction by ZEFSAII (Michael W. Deem and Ramdas Pophale) SiO2 
 PCOD8249347
Probable space group: P B C A
;
_chemical_formula_sum "Si O2"
_cell_formula_units_Z 48
_cell_length_a 18.345249
_cell_length_b 9.553977
_cell_length_c 13.308799
_cell_angle_alpha 90.000000
_cell_angle_beta 90.000000
_cell_angle_gamma 90.000000
_cell_volume 2332.634359
_symmetry_space_group_name_H-M "P B C A"
_symmetry_group_IT_number 61
_symmetry_cell_setting 'orthorhombic'
loop_
_space_group_symop_operation_xyz
x,y,z
1/2-x,-y,1/2+z
1/2+x,1/2-y,-z
-x,1/2+y,1/2-z
-x,-y,-z
1/2+x,y,1/2-z
1/2-x,1/2+y,z
x,1/2-y,1/2+z
loop_
_atom_site_type_symbol
_atom_site_label
_atom_site_fract_x
_atom_site_fract_y
_atom_site_fract_z
Si Si1 0.575607 0.880726 0.942350
Si Si2 0.169773 0.792899 0.734306
Si Si3 0.096476 0.090285 0.052065
Si Si4 0.815084 0.537375 0.252975
Si Si5 0.413485 0.863263 0.929883
Si Si6 0.065570 0.852335 0.909018
O O1 0.640658 0.813869 0.878322
O O2 0.496736 0.866422 0.888248
O O3 0.568234 0.804425 0.049414
O O4 0.594905 0.039337 0.971334
O O5 0.236308 0.894502 0.758418
O O6 0.190357 0.631046 0.751651
O O7 0.104131 0.850200 0.802264
O O8 0.154402 0.092935 0.141403
O O9 0.017055 0.094678 0.103992
O O10 0.109707 0.211908 0.970781
O O11 0.107219 0.948362 0.989841
O O12 0.862461 0.592791 0.160971
#
# Coordination Sequence:
#
# PCOD8249347 Si02
#       6
#     8   8   8   8   8   8
#     4  10  21  44  68  94 121 167 211 270 315 367
#     4  12  27  42  64  92 136 172 213 256 318 380
#     4  10  23  42  71  95 124 161 219 265 320 374
#     4  12  27  44  60  96 132 174 209 260 318 384
#     4  10  23  42  71  95 124 161 219 265 320 374
#     4  10  21  44  68  94 121 167 211 270 315 367
#
# _framework density 20.577591999999999
#
# number of rings (size 3 to 8) (size 9 to 14) (size 15 to 20)
#    0.000    1.333    3.333    1.000    4.667    2.667 
#    0.000    0.000    0.000    0.000    0.000    0.000 
#    0.000    0.000    0.000    0.000    0.000    0.000 
#
# Total GULP energy -595259.986617 kJ/mol
# GULP energy per Si atom -12401.249721 kJ/mol
# Density = 2.053076 g / cm^3
# Si number density = 20.577592 Si / 1000 Ang^3
#
#
#
# Elastic Constant Matrix: (Units=GPa)
#
#
# Indices 1 2 3 4 5 6 
#
# 1 66.3805 37.8765 25.7195 0.0000 0.0000 0.0000
# 2 37.8765 103.5394 19.3129 0.0000 0.0000 0.0000
# 3 25.7195 19.3129 58.8139 0.0000 0.0000 0.0000
# 4 0.0000 0.0000 0.0000 27.9271 0.0000 0.0000
# 5 0.0000 0.0000 0.0000 0.0000 19.9265 0.0000
# 6 0.0000 0.0000 0.0000 0.0000 0.0000 31.0085
#
#
#
# Elastic Compliance Matrix: (Units=1/GPa)
#
#
# Indices 1 2 3 4 5 6 
#
# 1 0.021635 -0.006551 -0.007310 0.000000 0.000000 0.000000
# 2 -0.006551 0.012272 -0.001165 0.000000 0.000000 0.000000
# 3 -0.007310 -0.001165 0.020582 0.000000 0.000000 0.000000
# 4 0.000000 0.000000 0.000000 0.035807 0.000000 0.000000
# 5 0.000000 0.000000 0.000000 0.000000 0.050184 0.000000
# 6 0.000000 0.000000 0.000000 0.000000 0.000000 0.032249
#
#
# Mechanical properties :
#
#
# Convention : Reuss Voigt Hill
#
# Bulk Modulus (GPa) = 40.92131 43.83908 42.38020
# Shear Modulus (GPa) = 23.70487 25.49409 24.59948
#
# Velocity S-wave (km/s) = 3.39776 3.52365 3.46128
# Velocity P-wave (km/s) = 5.94328 6.15674 6.05095
#
# Compressibility (1/GPa) = 0.02443714
#
# Stress axis : x y z
#
# Youngs Moduli (GPa) = 46.22171 81.48692 48.58619
#
# Poissons Ratio (x) = 0.53381 0.35516
# Poissons Ratio (y) = 0.30279 0.05660
# Poissons Ratio (z) = 0.33787 0.09494
#
# Static dielectric constant tensor:
#      x y z
#    x 3.720020 0.000000 0.000000 
#    y 0.000000 3.850450 0.000000 
#    z 0.000000 0.000000 3.528100 
# 
# 
# High freq. dielectric constant tensor:
#      x y z
#    x 1.797700 0.000000 0.000000 
#    y 0.000000 1.822050 0.000000 
#    z 0.000000 0.000000 1.801490 
# 
# From -- ./inp_files/8120.got.cif
#   From: 2010.03.12/outbox.cif.g09.slc.cpg/sg61_5_cif.got.tgz:8120.got - 2010.04.10 19:05:03.
