data_PCOD8249213
_publ_section_title
;
Structure prediction by ZEFSAII (Michael W. Deem and Ramdas Pophale) SiO2 
 PCOD8249213
Probable space group: P B C A
;
_chemical_formula_sum "Si O2"
_cell_formula_units_Z 48
_cell_length_a 27.540961
_cell_length_b 7.922361
_cell_length_c 8.783252
_cell_angle_alpha 90.000000
_cell_angle_beta 90.000000
_cell_angle_gamma 90.000000
_cell_volume 1916.412794
_symmetry_space_group_name_H-M "P B C A"
_symmetry_group_IT_number 61
_symmetry_cell_setting 'orthorhombic'
loop_
_space_group_symop_operation_xyz
x,y,z
1/2-x,-y,1/2+z
1/2+x,1/2-y,-z
-x,1/2+y,1/2-z
-x,-y,-z
1/2+x,y,1/2-z
1/2-x,1/2+y,z
x,1/2-y,1/2+z
loop_
_atom_site_type_symbol
_atom_site_label
_atom_site_fract_x
_atom_site_fract_y
_atom_site_fract_z
Si Si1 0.967998 0.692959 0.131651
Si Si2 0.137144 0.706904 0.039243
Si Si3 0.888601 0.017266 0.751806
Si Si4 0.742369 0.896825 0.984319
Si Si5 0.203826 0.329456 0.816975
Si Si6 0.440988 0.513718 0.669636
O O1 0.942234 0.556210 0.242356
O O2 0.951802 0.884771 0.173525
O O3 0.025140 0.653771 0.153948
O O4 0.952285 0.654821 0.958986
O O5 0.119613 0.895518 0.084835
O O6 0.195474 0.721656 0.044271
O O7 0.113731 0.559137 0.148719
O O8 0.119914 0.669787 0.867960
O O9 0.853383 0.856909 0.711614
O O10 0.771712 0.908933 0.830154
O O11 0.777199 0.854291 0.132188
O O12 0.719775 0.077255 0.025970
#
# Coordination Sequence:
#
# PCOD8249213 Si02
#       6
#     8   8   8   8   8   8
#     4  10  22  39  59  90 121 154 198 245 297 355
#     4  10  21  39  59  84 116 155 198 244 297 354
#     4  10  22  38  59  86 116 154 199 245 296 355
#     4  11  22  39  58  85 118 155 199 247 300 356
#     4  11  23  38  60  86 118 157 199 247 300 358
#     4  10  22  39  61  87 121 155 197 247 298 357
#
# _framework density 25.046797999999999
#
# number of rings (size 3 to 8) (size 9 to 14) (size 15 to 20)
#    0.000    1.667    0.000    5.000    0.000    7.333 
#    0.000    0.000    0.000    0.000    0.000    0.000 
#    0.000    0.000    0.000    0.000    0.000    0.000 
#
# Total GULP energy -594827.729012 kJ/mol
# GULP energy per Si atom -12392.244354 kJ/mol
# Density = 2.498979 g / cm^3
# Si number density = 25.046798 Si / 1000 Ang^3
#
#
#
# Elastic Constant Matrix: (Units=GPa)
#
#
# Indices 1 2 3 4 5 6 
#
# 1 77.4915 -0.6328 8.6442 0.0000 0.0000 0.0000
# 2 -0.6328 38.4654 -7.0332 0.0000 0.0000 0.0000
# 3 8.6442 -7.0332 40.5911 0.0000 0.0000 0.0000
# 4 0.0000 0.0000 0.0000 23.2985 0.0000 0.0000
# 5 0.0000 0.0000 0.0000 0.0000 26.3397 0.0000
# 6 0.0000 0.0000 0.0000 0.0000 0.0000 31.5113
#
#
#
# Elastic Compliance Matrix: (Units=1/GPa)
#
#
# Indices 1 2 3 4 5 6 
#
# 1 0.013222 -0.000307 -0.002869 0.000000 0.000000 0.000000
# 2 -0.000307 0.026855 0.004719 0.000000 0.000000 0.000000
# 3 -0.002869 0.004719 0.026064 0.000000 0.000000 0.000000
# 4 0.000000 0.000000 0.000000 0.042921 0.000000 0.000000
# 5 0.000000 0.000000 0.000000 0.000000 0.037966 0.000000
# 6 0.000000 0.000000 0.000000 0.000000 0.000000 0.031735
#
#
# Mechanical properties :
#
#
# Convention : Reuss Voigt Hill
#
# Bulk Modulus (GPa) = 14.44528 17.61162 16.02845
# Shear Modulus (GPa) = 25.15678 26.60123 25.87900
#
# Velocity S-wave (km/s) = 3.17265 3.26246 3.21787
# Velocity P-wave (km/s) = 4.38187 4.60850 4.49662
#
# Compressibility (1/GPa) = 0.06922674
#
# Stress axis : x y z
#
# Youngs Moduli (GPa) = 75.63060 37.23692 38.36641
#
# Poissons Ratio (x) = 0.01143 0.11007
# Poissons Ratio (y) = 0.02322 -0.18103
# Poissons Ratio (z) = 0.21698 -0.17570
#
# Static dielectric constant tensor:
#      x y z
#    x 4.606480 0.000000 0.000000 
#    y 0.000000 4.129650 0.000000 
#    z 0.000000 0.000000 4.282780 
# 
# 
# High freq. dielectric constant tensor:
#      x y z
#    x 2.000580 0.000000 0.000000 
#    y 0.000000 1.978840 0.000000 
#    z 0.000000 0.000000 1.989700 
# 
# From -- ./inp_files/4568.got.cif
#   From: 2010.03.12/outbox.cif.g09.slc.cpg/sg61_3_cif.got.tgz:4568.got - 2010.04.10 19:05:03.
