data_PCOD8249894
_publ_section_title
;
Structure prediction by ZEFSAII (Michael W. Deem and Ramdas Pophale) SiO2 
 PCOD8249894
Probable space group: P B C A
;
_chemical_formula_sum "Si O2"
_cell_formula_units_Z 48
_cell_length_a 8.561368
_cell_length_b 12.099313
_cell_length_c 18.701449
_cell_angle_alpha 90.000000
_cell_angle_beta 90.000000
_cell_angle_gamma 90.000000
_cell_volume 1937.220847
_symmetry_space_group_name_H-M "P B C A"
_symmetry_group_IT_number 61
_symmetry_cell_setting 'orthorhombic'
loop_
_space_group_symop_operation_xyz
x,y,z
1/2-x,-y,1/2+z
1/2+x,1/2-y,-z
-x,1/2+y,1/2-z
-x,-y,-z
1/2+x,y,1/2-z
1/2-x,1/2+y,z
x,1/2-y,1/2+z
loop_
_atom_site_type_symbol
_atom_site_label
_atom_site_fract_x
_atom_site_fract_y
_atom_site_fract_z
Si Si1 0.532338 0.521534 0.853866
Si Si2 0.509736 0.599535 0.333621
Si Si3 0.679336 0.069846 0.768035
Si Si4 0.708434 0.789336 0.713893
Si Si5 0.345588 0.232860 0.563530
Si Si6 0.504528 0.783198 0.586628
O O1 0.368028 0.543378 0.814143
O O2 0.661355 0.506309 0.790740
O O3 0.571599 0.627788 0.901295
O O4 0.523584 0.414503 0.903515
O O5 0.546395 0.466771 0.327816
O O6 0.330654 0.634727 0.329266
O O7 0.598055 0.633993 0.260595
O O8 0.588785 0.653522 0.402816
O O9 0.710565 0.201984 0.768096
O O10 0.595344 0.732545 0.655143
O O11 0.382606 0.236451 0.480215
O O12 0.160022 0.222348 0.574732
#
# Coordination Sequence:
#
# PCOD8249894 Si02
#       6
#     8   8   8   8   8   8
#     4  12  26  45  76 112 151 192 255 313 376 455
#     4  12  23  43  73 109 147 192 247 310 373 441
#     4  12  24  42  74 113 145 190 248 311 375 451
#     4  12  24  44  74 109 147 196 246 310 379 442
#     4  12  26  49  73 104 150 200 252 310 384 459
#     4  12  28  51  75 105 155 203 254 315 384 461
#
# _framework density 24.777764000000001
#
# number of rings (size 3 to 8) (size 9 to 14) (size 15 to 20)
#    0.000    0.000    6.667    3.500    2.333    0.000 
#    0.000    0.833    0.000    0.000    0.000    0.000 
#    0.000    0.000    0.000    0.000    0.000    0.000 
#
# Total GULP energy -595076.297551 kJ/mol
# GULP energy per Si atom -12397.422866 kJ/mol
# Density = 2.472137 g / cm^3
# Si number density = 24.777764 Si / 1000 Ang^3
#
#
#
# Elastic Constant Matrix: (Units=GPa)
#
#
# Indices 1 2 3 4 5 6 
#
# 1 101.6985 3.7569 14.5776 0.0000 0.0000 0.0000
# 2 3.7569 89.7751 -7.5339 0.0000 0.0000 0.0000
# 3 14.5776 -7.5339 84.1981 0.0000 0.0000 0.0000
# 4 0.0000 0.0000 0.0000 30.8314 0.0000 0.0000
# 5 0.0000 0.0000 0.0000 0.0000 51.0806 0.0000
# 6 0.0000 0.0000 0.0000 0.0000 0.0000 43.6421
#
#
#
# Elastic Compliance Matrix: (Units=1/GPa)
#
#
# Indices 1 2 3 4 5 6 
#
# 1 0.010113 -0.000574 -0.001802 0.000000 0.000000 0.000000
# 2 -0.000574 0.011256 0.001107 0.000000 0.000000 0.000000
# 3 -0.001802 0.001107 0.012288 0.000000 0.000000 0.000000
# 4 0.000000 0.000000 0.000000 0.032434 0.000000 0.000000
# 5 0.000000 0.000000 0.000000 0.000000 0.019577 0.000000
# 6 0.000000 0.000000 0.000000 0.000000 0.000000 0.022914
#
#
# Mechanical properties :
#
#
# Convention : Reuss Voigt Hill
#
# Bulk Modulus (GPa) = 32.13774 33.03034 32.58404
# Shear Modulus (GPa) = 41.15452 42.76889 41.96170
#
# Velocity S-wave (km/s) = 4.07989 4.15914 4.11971
# Velocity P-wave (km/s) = 5.93233 6.03525 5.98401
#
# Compressibility (1/GPa) = 0.03111607
#
# Stress axis : x y z
#
# Youngs Moduli (GPa) = 98.88708 88.84272 81.38158
#
# Poissons Ratio (x) = 0.05103 0.14667
# Poissons Ratio (y) = 0.05680 -0.09006
# Poissons Ratio (z) = 0.17822 -0.09831
#
# Static dielectric constant tensor:
#      x y z
#    x 4.780730 0.000000 0.000000 
#    y 0.000000 4.817410 0.000000 
#    z 0.000000 0.000000 4.282210 
# 
# 
# High freq. dielectric constant tensor:
#      x y z
#    x 2.005130 0.000000 0.000000 
#    y 0.000000 1.993750 0.000000 
#    z 0.000000 0.000000 1.965650 
# 
# From -- ./inp_files/8911.got.cif
#   From: 2010.03.12/outbox.cif.g09.slc.cpg/sg61_5_cif.got.tgz:8911.got - 2010.04.10 19:05:03.
