data_PCOD8249378
_publ_section_title
;
Structure prediction by ZEFSAII (Michael W. Deem and Ramdas Pophale) SiO2 
 PCOD8249378
Probable space group: P B C A
;
_chemical_formula_sum "Si O2"
_cell_formula_units_Z 64
_cell_length_a 19.304516
_cell_length_b 8.623459
_cell_length_c 16.211563
_cell_angle_alpha 90.000000
_cell_angle_beta 90.000000
_cell_angle_gamma 90.000000
_cell_volume 2698.766489
_symmetry_space_group_name_H-M "P B C A"
_symmetry_group_IT_number 61
_symmetry_cell_setting 'orthorhombic'
loop_
_space_group_symop_operation_xyz
x,y,z
1/2-x,-y,1/2+z
1/2+x,1/2-y,-z
-x,1/2+y,1/2-z
-x,-y,-z
1/2+x,y,1/2-z
1/2-x,1/2+y,z
x,1/2-y,1/2+z
loop_
_atom_site_type_symbol
_atom_site_label
_atom_site_fract_x
_atom_site_fract_y
_atom_site_fract_z
Si Si1 0.269748 0.068700 0.394008
Si Si2 0.574185 0.648298 0.819927
Si Si3 0.566397 0.435858 0.586195
Si Si4 0.456692 0.842984 0.740269
Si Si5 0.666423 0.294699 0.015807
Si Si6 0.790227 0.331093 0.222887
Si Si7 0.090899 0.600603 0.062956
Si Si8 0.840379 0.834443 0.343797
O O1 0.227680 0.183874 0.452343
O O2 0.305948 0.164500 0.319588
O O3 0.324537 0.968888 0.448506
O O4 0.215831 0.953489 0.350828
O O5 0.530077 0.773534 0.767705
O O6 0.534040 0.483405 0.826229
O O7 0.647610 0.617749 0.779822
O O8 0.590038 0.718859 0.910862
O O9 0.583353 0.427325 0.682979
O O10 0.591726 0.272964 0.544878
O O11 0.484946 0.469491 0.578833
O O12 0.605600 0.575588 0.535454
O O13 0.410403 0.705658 0.705079
O O14 0.671321 0.293302 0.916201
O O15 0.721527 0.329244 0.279074
O O16 0.148135 0.505258 0.116166
#
# Coordination Sequence:
#
# PCOD8249378 Si02
#       8
#     8   8   8   8   8   8   8   8
#     4  10  22  39  60  87 122 165 207 251 310 383
#     4  11  23  38  61  91 124 161 208 261 314 375
#     4   9  18  37  61  81 115 164 207 247 309 376
#     4  11  22  39  62  90 122 161 208 257 311 373
#     4  10  22  39  60  89 127 166 208 260 317 378
#     4  11  22  39  63  91 121 158 204 253 312 374
#     4   9  20  37  61  88 117 160 207 256 313 373
#     4  11  23  40  64  93 126 159 205 268 320 370
#
# _framework density 23.714538000000001
#
# number of rings (size 3 to 8) (size 9 to 14) (size 15 to 20)
#    0.000    1.750    0.000    5.250    0.000    6.000 
#    0.000    3.750    0.000   20.250    0.000    0.000 
#    0.000    0.000    0.000    0.000    0.000    0.000 
#
# Total GULP energy -793092.129997 kJ/mol
# GULP energy per Si atom -12392.064531 kJ/mol
# Density = 2.366056 g / cm^3
# Si number density = 23.714538 Si / 1000 Ang^3
#
#
#
# Elastic Constant Matrix: (Units=GPa)
#
#
# Indices 1 2 3 4 5 6 
#
# 1 58.9699 5.2819 3.9509 0.0000 0.0000 0.0000
# 2 5.2819 62.6051 -8.2317 0.0000 0.0000 0.0000
# 3 3.9509 -8.2317 76.7521 0.0000 0.0000 0.0000
# 4 0.0000 0.0000 0.0000 34.7185 0.0000 0.0000
# 5 0.0000 0.0000 0.0000 0.0000 26.6497 0.0000
# 6 0.0000 0.0000 0.0000 0.0000 0.0000 26.6045
#
#
#
# Elastic Compliance Matrix: (Units=1/GPa)
#
#
# Indices 1 2 3 4 5 6 
#
# 1 0.017171 -0.001587 -0.001054 0.000000 0.000000 0.000000
# 2 -0.001587 0.016348 0.001835 0.000000 0.000000 0.000000
# 3 -0.001054 0.001835 0.013280 0.000000 0.000000 0.000000
# 4 0.000000 0.000000 0.000000 0.028803 0.000000 0.000000
# 5 0.000000 0.000000 0.000000 0.000000 0.037524 0.000000
# 6 0.000000 0.000000 0.000000 0.000000 0.000000 0.037588
#
#
# Mechanical properties :
#
#
# Convention : Reuss Voigt Hill
#
# Bulk Modulus (GPa) = 22.13058 22.25882 22.19470
# Shear Modulus (GPa) = 29.87067 30.74961 30.31014
#
# Velocity S-wave (km/s) = 3.55293 3.60482 3.57897
# Velocity P-wave (km/s) = 5.11697 5.17038 5.14374
#
# Compressibility (1/GPa) = 0.04518635
#
# Stress axis : x y z
#
# Youngs Moduli (GPa) = 58.23912 61.16829 75.30100
#
# Poissons Ratio (x) = 0.09709 0.07938
# Poissons Ratio (y) = 0.09244 -0.13818
# Poissons Ratio (z) = 0.06139 -0.11225
#
# Static dielectric constant tensor:
#      x y z
#    x 4.045940 0.000000 0.000000 
#    y 0.000000 4.283520 0.000000 
#    z 0.000000 0.000000 4.644480 
# 
# 
# High freq. dielectric constant tensor:
#      x y z
#    x 1.928660 0.000000 0.000000 
#    y 0.000000 1.927980 0.000000 
#    z 0.000000 0.000000 1.945020 
# 
# From -- ./inp_files/9796.got.cif
#   From: 2010.03.12/outbox.cif.g09.slc.cpg/sg61_5_cif.got.tgz:9796.got - 2010.04.10 19:05:03.
