data_PCOD8249584
_publ_section_title
;
Structure prediction by ZEFSAII (Michael W. Deem and Ramdas Pophale) SiO2 
 PCOD8249584
Probable space group: P B C A
;
_chemical_formula_sum "Si O2"
_cell_formula_units_Z 48
_cell_length_a 11.767331
_cell_length_b 11.225599
_cell_length_c 16.087488
_cell_angle_alpha 90.000000
_cell_angle_beta 90.000000
_cell_angle_gamma 90.000000
_cell_volume 2125.082183
_symmetry_space_group_name_H-M "P B C A"
_symmetry_group_IT_number 61
_symmetry_cell_setting 'orthorhombic'
loop_
_space_group_symop_operation_xyz
x,y,z
1/2-x,-y,1/2+z
1/2+x,1/2-y,-z
-x,1/2+y,1/2-z
-x,-y,-z
1/2+x,y,1/2-z
1/2-x,1/2+y,z
x,1/2-y,1/2+z
loop_
_atom_site_type_symbol
_atom_site_label
_atom_site_fract_x
_atom_site_fract_y
_atom_site_fract_z
Si Si1 0.532825 0.461225 0.869917
Si Si2 0.464708 0.078366 0.809703
Si Si3 0.150047 0.715946 0.402926
Si Si4 0.668025 0.244367 0.826785
Si Si5 0.402084 0.301292 0.083059
Si Si6 0.613690 0.167843 0.147379
O O1 0.550460 0.533869 0.784138
O O2 0.404304 0.411662 0.876275
O O3 0.611441 0.345267 0.884774
O O4 0.570521 0.559427 0.937732
O O5 0.378074 0.185455 0.832624
O O6 0.593139 0.123156 0.827351
O O7 0.432685 0.965584 0.866662
O O8 0.107120 0.761338 0.493283
O O9 0.284397 0.694446 0.416234
O O10 0.791936 0.213997 0.859635
O O11 0.670027 0.305175 0.736483
O O12 0.507680 0.253445 0.135285
#
# Coordination Sequence:
#
# PCOD8249584 Si02
#       6
#     8   8   8   8   8   8
#     4  10  23  45  71 100 134 188 240 290 344 421
#     4  10  23  46  72  98 137 184 242 287 344 421
#     4  11  27  44  69 104 146 182 231 297 361 412
#     4  10  24  44  71 100 135 183 243 286 348 415
#     4  12  26  44  72 104 145 184 233 293 359 420
#     4  11  26  43  72 101 136 185 234 288 352 417
#
# _framework density 22.587363
#
# number of rings (size 3 to 8) (size 9 to 14) (size 15 to 20)
#    0.000    1.333    1.667    1.500   14.000    3.333 
#    0.000    0.000    0.000    0.000    0.000    0.000 
#    0.000    0.000    0.000    0.000    0.000    0.000 
#
# Total GULP energy -595050.157535 kJ/mol
# GULP energy per Si atom -12396.878282 kJ/mol
# Density = 2.253595 g / cm^3
# Si number density = 22.587363 Si / 1000 Ang^3
#
#
#
# Elastic Constant Matrix: (Units=GPa)
#
#
# Indices 1 2 3 4 5 6 
#
# 1 171.6676 66.2306 24.9433 0.0000 0.0000 0.0000
# 2 66.2306 133.4138 25.0300 0.0000 0.0000 0.0000
# 3 24.9433 25.0300 62.3775 0.0000 0.0000 0.0000
# 4 0.0000 0.0000 0.0000 24.5501 0.0000 0.0000
# 5 0.0000 0.0000 0.0000 0.0000 22.5053 0.0000
# 6 0.0000 0.0000 0.0000 0.0000 0.0000 31.1720
#
#
#
# Elastic Compliance Matrix: (Units=1/GPa)
#
#
# Indices 1 2 3 4 5 6 
#
# 1 0.007349 -0.003349 -0.001595 0.000000 0.000000 0.000000
# 2 -0.003349 0.009632 -0.002526 0.000000 0.000000 0.000000
# 3 -0.001595 -0.002526 0.017683 0.000000 0.000000 0.000000
# 4 0.000000 0.000000 0.000000 0.040733 0.000000 0.000000
# 5 0.000000 0.000000 0.000000 0.000000 0.044434 0.000000
# 6 0.000000 0.000000 0.000000 0.000000 0.000000 0.032080
#
#
# Mechanical properties :
#
#
# Convention : Reuss Voigt Hill
#
# Bulk Modulus (GPa) = 50.69890 66.65186 58.67538
# Shear Modulus (GPa) = 28.83096 32.39582 30.61339
#
# Velocity S-wave (km/s) = 3.57658 3.79125 3.68548
# Velocity P-wave (km/s) = 6.28890 6.98121 6.64408
#
# Compressibility (1/GPa) = 0.01972429
#
# Stress axis : x y z
#
# Youngs Moduli (GPa) = 136.07223 103.82147 56.55254
#
# Poissons Ratio (x) = 0.34771 0.09019
# Poissons Ratio (y) = 0.45572 0.14284
# Poissons Ratio (z) = 0.21701 0.26223
#
# Static dielectric constant tensor:
#      x y z
#    x 4.053550 0.000000 0.000000 
#    y 0.000000 4.345840 0.000000 
#    z 0.000000 0.000000 3.835260 
# 
# 
# High freq. dielectric constant tensor:
#      x y z
#    x 1.892810 0.000000 0.000000 
#    y 0.000000 1.898300 0.000000 
#    z 0.000000 0.000000 1.882010 
# 
# From -- ./inp_files/6160.got.cif
#   From: 2010.03.12/outbox.cif.g09.slc.cpg/sg61_4_cif.got.tgz:6160.got - 2010.04.10 19:05:03.
