data_PCOD8249387
_publ_section_title
;
Structure prediction by ZEFSAII (Michael W. Deem and Ramdas Pophale) SiO2 
 PCOD8249387
Probable space group: P B C A
;
_chemical_formula_sum "Si O2"
_cell_formula_units_Z 64
_cell_length_a 16.309653
_cell_length_b 11.316529
_cell_length_c 17.224199
_cell_angle_alpha 90.000000
_cell_angle_beta 90.000000
_cell_angle_gamma 90.000000
_cell_volume 3179.047349
_symmetry_space_group_name_H-M "P B C A"
_symmetry_group_IT_number 61
_symmetry_cell_setting 'orthorhombic'
loop_
_space_group_symop_operation_xyz
x,y,z
1/2-x,-y,1/2+z
1/2+x,1/2-y,-z
-x,1/2+y,1/2-z
-x,-y,-z
1/2+x,y,1/2-z
1/2-x,1/2+y,z
x,1/2-y,1/2+z
loop_
_atom_site_type_symbol
_atom_site_label
_atom_site_fract_x
_atom_site_fract_y
_atom_site_fract_z
Si Si1 0.360282 0.143340 0.176307
Si Si2 0.009965 0.759254 0.070864
Si Si3 0.683987 0.687347 0.690223
Si Si4 0.946431 0.916267 0.276172
Si Si5 0.641812 0.259271 0.678243
Si Si6 0.312579 0.543443 0.205580
Si Si7 0.969716 0.997471 0.867992
Si Si8 0.030859 0.758119 0.395775
O O1 0.402746 0.221533 0.109081
O O2 0.360056 0.215949 0.255594
O O3 0.267615 0.097701 0.163263
O O4 0.419087 0.032097 0.180131
O O5 0.927567 0.711969 0.113806
O O6 0.006888 0.902523 0.069178
O O7 0.006864 0.711167 0.983773
O O8 0.765476 0.738713 0.647727
O O9 0.705402 0.572669 0.742178
O O10 0.618340 0.677583 0.620605
O O11 0.876026 0.863695 0.221570
O O12 0.965672 0.817041 0.339156
O O13 0.021370 0.948160 0.219300
O O14 0.641545 0.366390 0.737876
O O15 0.372119 0.526364 0.131083
O O16 0.027277 0.883654 0.882423
#
# Coordination Sequence:
#
# PCOD8249387 Si02
#       8
#     8   8   8   8   8   8   8   8
#     4  11  22  39  64  93 125 162 217 271 317 375
#     4  11  25  42  60  93 141 170 206 259 338 400
#     4  11  21  40  65  95 121 166 223 278 308 374
#     4  11  20  36  65  88 121 164 220 264 311 376
#     4  10  22  39  62  93 123 162 217 272 314 375
#     4  11  20  37  69  94 118 160 229 270 315 359
#     4  11  21  41  65  92 121 170 220 266 308 389
#     4  12  24  40  65  95 132 174 210 259 338 395
#
# _framework density 20.131817000000002
#
# number of rings (size 3 to 8) (size 9 to 14) (size 15 to 20)
#    0.000    1.000    6.250    1.875    0.000    0.500 
#    2.250    0.000    0.000    0.000    0.000    0.000 
#    0.000    0.000    0.000    0.000    0.000    0.000 
#
# Total GULP energy -793114.431156 kJ/mol
# GULP energy per Si atom -12392.412987 kJ/mol
# Density = 2.008600 g / cm^3
# Si number density = 20.131817 Si / 1000 Ang^3
#
#
#
# Elastic Constant Matrix: (Units=GPa)
#
#
# Indices 1 2 3 4 5 6 
#
# 1 103.0492 14.3929 37.1406 0.0000 0.0000 0.0000
# 2 14.3929 77.5218 7.7268 0.0000 0.0000 0.0000
# 3 37.1406 7.7268 78.0796 0.0000 0.0000 0.0000
# 4 0.0000 0.0000 0.0000 15.1549 0.0000 0.0000
# 5 0.0000 0.0000 0.0000 0.0000 18.4430 0.0000
# 6 0.0000 0.0000 0.0000 0.0000 0.0000 33.2028
#
#
#
# Elastic Compliance Matrix: (Units=1/GPa)
#
#
# Indices 1 2 3 4 5 6 
#
# 1 0.011921 -0.001664 -0.005506 0.000000 0.000000 0.000000
# 2 -0.001664 0.013261 -0.000521 0.000000 0.000000 0.000000
# 3 -0.005506 -0.000521 0.015478 0.000000 0.000000 0.000000
# 4 0.000000 0.000000 0.000000 0.065985 0.000000 0.000000
# 5 0.000000 0.000000 0.000000 0.000000 0.054221 0.000000
# 6 0.000000 0.000000 0.000000 0.000000 0.000000 0.030118
#
#
# Mechanical properties :
#
#
# Convention : Reuss Voigt Hill
#
# Bulk Modulus (GPa) = 39.56039 41.90790 40.73415
# Shear Modulus (GPa) = 23.27842 26.65283 24.96562
#
# Velocity S-wave (km/s) = 3.40413 3.64251 3.52534
# Velocity P-wave (km/s) = 5.92825 6.20906 6.07028
#
# Compressibility (1/GPa) = 0.02527781
#
# Stress axis : x y z
#
# Youngs Moduli (GPa) = 83.88588 75.41183 64.60814
#
# Poissons Ratio (x) = 0.12552 0.35572
# Poissons Ratio (y) = 0.13963 0.03363
# Poissons Ratio (z) = 0.46186 0.03925
#
# Static dielectric constant tensor:
#      x y z
#    x 4.162960 0.000000 0.000000 
#    y 0.000000 3.864200 0.000000 
#    z 0.000000 0.000000 3.245980 
# 
# 
# High freq. dielectric constant tensor:
#      x y z
#    x 1.796630 0.000000 0.000000 
#    y 0.000000 1.801410 0.000000 
#    z 0.000000 0.000000 1.742550 
# 
# From -- ./inp_files/8208.got.cif
#   From: 2010.03.12/outbox.cif.g09.slc.cpg/sg61_5_cif.got.tgz:8208.got - 2010.04.10 19:05:03.
