data_PCOD8249979
_publ_section_title
;
Structure prediction by ZEFSAII (Michael W. Deem and Ramdas Pophale) SiO2 
 PCOD8249979
Probable space group: P N M A
;
_chemical_formula_sum "Si O2"
_cell_formula_units_Z 64
_cell_length_a 19.783360
_cell_length_b 8.946930
_cell_length_c 22.622691
_cell_angle_alpha 90.000000
_cell_angle_beta 90.000000
_cell_angle_gamma 90.000000
_cell_volume 4004.223933
_symmetry_space_group_name_H-M "P N M A"
_symmetry_group_IT_number 62
_symmetry_cell_setting 'orthorhombic'
loop_
_space_group_symop_operation_xyz
x,y,z
1/2-x,-y,1/2+z
1/2+x,1/2-y,1/2-z
-x,1/2+y,-z
-x,-y,-z
1/2+x,y,1/2-z
1/2-x,1/2+y,1/2+z
x,1/2-y,z
loop_
_atom_site_type_symbol
_atom_site_label
_atom_site_fract_x
_atom_site_fract_y
_atom_site_fract_z
Si Si1 0.266726 0.422117 0.328865
Si Si2 0.931135 0.576506 0.644866
Si Si3 0.694251 0.081171 0.058853
Si Si4 0.348926 0.424222 0.760673
Si Si5 0.313060 0.425928 0.062396
Si Si6 0.278883 0.915847 0.663679
Si Si7 0.430689 0.574122 0.134810
Si Si8 0.860750 0.414216 0.266103
O O1 0.243686 0.250000 0.313839
O O2 0.260816 0.443273 0.399724
O O3 0.217384 0.540971 0.298659
O O4 0.343068 0.450440 0.303258
O O5 0.946940 0.750000 0.653136
O O6 0.871889 0.548107 0.597847
O O7 0.911973 0.508785 0.709040
O O8 0.996719 0.493839 0.619535
O O9 0.692153 0.250000 0.033877
O O10 0.698592 0.965790 0.005514
O O11 0.364870 0.250000 0.760110
O O12 0.336083 0.478786 0.692999
O O13 0.326084 0.250000 0.069830
O O14 0.245514 0.473173 0.099009
O O15 0.378340 0.510515 0.087263
O O16 0.309985 0.750000 0.659100
O O17 0.212177 0.914281 0.703557
O O18 0.433639 0.750000 0.128339
O O19 0.409727 0.532556 0.202406
O O20 0.894463 0.250000 0.272024
#
# Coordination Sequence:
#
# PCOD8249979 Si02
#       8
#     8   8   8   8   8   8   8   8
#     4   8  15  28  44  61  83 111 139 169 212 263
#     4  10  20  34  47  59  83 118 149 177 214 260
#     4   9  18  31  46  63  83 111 148 185 214 244
#     4  10  17  25  42  66  85 103 134 177 219 253
#     4  10  20  32  45  61  85 118 150 178 213 256
#     4   8  15  28  43  59  81 110 140 169 209 260
#     4  11  21  31  44  63  86 112 147 187 218 248
#     4   8  14  27  45  62  82 109 139 171 213 262
#
# _framework density 15.983121000000001
#
# number of rings (size 3 to 8) (size 9 to 14) (size 15 to 20)
#    0.000    2.750    0.000    5.250    0.000    8.000 
#    0.000    0.000    0.000    0.000    0.000    0.000 
#    0.000    1.000    0.000    3.000    0.000    5.125 
#
# Total GULP energy -793038.701622 kJ/mol
# GULP energy per Si atom -12391.229713 kJ/mol
# Density = 1.594674 g / cm^3
# Si number density = 15.983121 Si / 1000 Ang^3
#
#
#
# Elastic Constant Matrix: (Units=GPa)
#
#
# Indices 1 2 3 4 5 6 
#
# 1 14.7670 16.2934 35.2604 0.0000 0.0000 0.0000
# 2 16.2934 92.2574 44.5738 0.0000 0.0000 0.0000
# 3 35.2604 44.5738 97.8986 0.0000 0.0000 0.0000
# 4 0.0000 0.0000 0.0000 25.8065 0.0000 0.0000
# 5 0.0000 0.0000 0.0000 0.0000 15.1859 0.0000
# 6 0.0000 0.0000 0.0000 0.0000 0.0000 18.5696
#
#
#
# Elastic Compliance Matrix: (Units=1/GPa)
#
#
# Indices 1 2 3 4 5 6 
#
# 1 0.483941 -0.001608 -0.173570 0.000000 0.000000 0.000000
# 2 -0.001608 0.013901 -0.005750 0.000000 0.000000 0.000000
# 3 -0.173570 -0.005750 0.075348 0.000000 0.000000 0.000000
# 4 0.000000 0.000000 0.000000 0.038750 0.000000 0.000000
# 5 0.000000 0.000000 0.000000 0.000000 0.065851 0.000000
# 6 0.000000 0.000000 0.000000 0.000000 0.000000 0.053851
#
#
# Mechanical properties :
#
#
# Convention : Reuss Voigt Hill
#
# Bulk Modulus (GPa) = 4.73187 44.13091 24.43139
# Shear Modulus (GPa) = 4.29574 19.16544 11.73059
#
# Velocity S-wave (km/s) = 1.64119 3.46657 2.71206
# Velocity P-wave (km/s) = 2.56092 6.61012 5.01258
#
# Compressibility (1/GPa) = 0.21133305
#
# Stress axis : x y z
#
# Youngs Moduli (GPa) = 2.06637 71.93506 13.27177
#
# Poissons Ratio (x) = 0.11570 2.30358
# Poissons Ratio (y) = 0.00332 0.07631
# Poissons Ratio (z) = 0.35866 0.41363
#
# Static dielectric constant tensor:
#      x y z
#    x 2.865640 0.000000 0.000000 
#    y 0.000000 3.006930 0.000000 
#    z 0.000000 0.000000 3.266320 
# 
# 
# High freq. dielectric constant tensor:
#      x y z
#    x 1.568970 0.000000 0.000000 
#    y 0.000000 1.619100 0.000000 
#    z 0.000000 0.000000 1.602090 
# 
# From -- ./inp_files/27883.got.cif
#   From: 2010.03.12/outbox.cif.g09.slc.cpg/sg62_14_cif.got.tgz:27883.got - 2010.04.10 19:12:36.
