data_PCOD8249663
_publ_section_title
;
Structure prediction by ZEFSAII (Michael W. Deem and Ramdas Pophale) SiO2 
 PCOD8249663
Probable space group: P B C A
;
_chemical_formula_sum "Si O2"
_cell_formula_units_Z 32
_cell_length_a 7.929544
_cell_length_b 26.484972
_cell_length_c 4.591019
_cell_angle_alpha 90.000000
_cell_angle_beta 90.000000
_cell_angle_gamma 90.000000
_cell_volume 964.177120
_symmetry_space_group_name_H-M "P B C A"
_symmetry_group_IT_number 61
_symmetry_cell_setting 'orthorhombic'
loop_
_space_group_symop_operation_xyz
x,y,z
1/2-x,-y,1/2+z
1/2+x,1/2-y,-z
-x,1/2+y,1/2-z
-x,-y,-z
1/2+x,y,1/2-z
1/2-x,1/2+y,z
x,1/2-y,1/2+z
loop_
_atom_site_type_symbol
_atom_site_label
_atom_site_fract_x
_atom_site_fract_y
_atom_site_fract_z
Si Si1 0.983189 0.784535 0.543654
Si Si2 0.332589 0.342267 0.072490
Si Si3 0.041453 0.404150 0.850470
Si Si4 0.253876 0.534719 0.928247
O O1 0.023615 0.768963 0.878308
O O2 0.088064 0.831948 0.392939
O O3 0.784220 0.794869 0.514902
O O4 0.482191 0.352718 0.829331
O O5 0.206181 0.391640 0.054178
O O6 0.896372 0.424234 0.066274
O O7 0.081192 0.444297 0.595123
O O8 0.196110 0.483172 0.102931
#
# Coordination Sequence:
#
# PCOD8249663 Si02
#       4
#     8   8   8   8
#     4  12  27  50  77 110 150 200 252 316 391 468
#     4  11  26  48  77 116 158 202 262 325 394 472
#     4  10  25  46  77 116 158 208 262 328 397 466
#     4  11  24  46  73 110 156 208 262 321 390 470
#
# _framework density 33.188918000000001
#
# number of rings (size 3 to 8) (size 9 to 14) (size 15 to 20)
#    0.000    1.000    0.000    4.500    0.000   16.000 
#    0.000    0.000    0.000    0.000    0.000    0.000 
#    0.000    0.000    0.000    0.000    0.000    0.000 
#
# Total GULP energy -397086.280891 kJ/mol
# GULP energy per Si atom -12408.946278 kJ/mol
# Density = 3.311338 g / cm^3
# Si number density = 33.188918 Si / 1000 Ang^3
#
#
#
# Elastic Constant Matrix: (Units=GPa)
#
#
# Indices 1 2 3 4 5 6 
#
# 1 152.8226 16.2414 26.1000 0.0000 0.0000 0.0000
# 2 16.2414 146.0334 18.7137 0.0000 0.0000 0.0000
# 3 26.1000 18.7137 131.0149 0.0000 0.0000 0.0000
# 4 0.0000 0.0000 0.0000 27.4640 0.0000 0.0000
# 5 0.0000 0.0000 0.0000 0.0000 58.0113 0.0000
# 6 0.0000 0.0000 0.0000 0.0000 0.0000 61.8889
#
#
#
# Elastic Compliance Matrix: (Units=1/GPa)
#
#
# Indices 1 2 3 4 5 6 
#
# 1 0.006824 -0.000596 -0.001274 0.000000 0.000000 0.000000
# 2 -0.000596 0.007027 -0.000885 0.000000 0.000000 0.000000
# 3 -0.001274 -0.000885 0.008013 0.000000 0.000000 0.000000
# 4 0.000000 0.000000 0.000000 0.036411 0.000000 0.000000
# 5 0.000000 0.000000 0.000000 0.000000 0.017238 0.000000
# 6 0.000000 0.000000 0.000000 0.000000 0.000000 0.016158
#
#
# Mechanical properties :
#
#
# Convention : Reuss Voigt Hill
#
# Bulk Modulus (GPa) = 61.14533 61.33124 61.23828
# Shear Modulus (GPa) = 48.71673 54.06059 51.38866
#
# Velocity S-wave (km/s) = 3.83542 4.04031 3.93920
# Velocity P-wave (km/s) = 6.17069 6.34705 6.25949
#
# Compressibility (1/GPa) = 0.01635448
#
# Stress axis : x y z
#
# Youngs Moduli (GPa) = 146.53091 142.29965 124.79673
#
# Poissons Ratio (x) = 0.08477 0.15905
# Poissons Ratio (y) = 0.08729 0.11046
# Poissons Ratio (z) = 0.18675 0.12595
#
# Static dielectric constant tensor:
#      x y z
#    x 6.011970 0.000000 0.000000 
#    y 0.000000 6.912330 0.000000 
#    z 0.000000 0.000000 6.095450 
# 
# 
# High freq. dielectric constant tensor:
#      x y z
#    x 2.375080 0.000000 0.000000 
#    y 0.000000 2.463150 0.000000 
#    z 0.000000 0.000000 2.401190 
# 
# From -- ./inp_files/80.got.cif
#   From: 2010.03.12/outbox.cif.g09.slc.cpg/sg61_1_cif.got.tgz:80.got - 2010.04.10 19:05:03.
