data_PCOD8249286
_publ_section_title
;
Structure prediction by ZEFSAII (Michael W. Deem and Ramdas Pophale) SiO2 
 PCOD8249286
Probable space group: P B C A
;
_chemical_formula_sum "Si O2"
_cell_formula_units_Z 40
_cell_length_a 26.435087
_cell_length_b 4.904349
_cell_length_c 13.195762
_cell_angle_alpha 90.000000
_cell_angle_beta 90.000000
_cell_angle_gamma 90.000000
_cell_volume 1710.789537
_symmetry_space_group_name_H-M "P B C A"
_symmetry_group_IT_number 61
_symmetry_cell_setting 'orthorhombic'
loop_
_space_group_symop_operation_xyz
x,y,z
1/2-x,-y,1/2+z
1/2+x,1/2-y,-z
-x,1/2+y,1/2-z
-x,-y,-z
1/2+x,y,1/2-z
1/2-x,1/2+y,z
x,1/2-y,1/2+z
loop_
_atom_site_type_symbol
_atom_site_label
_atom_site_fract_x
_atom_site_fract_y
_atom_site_fract_z
Si Si1 0.842224 0.172081 0.561934
Si Si2 0.445690 0.666144 0.676650
Si Si3 0.558894 0.842461 0.186475
Si Si4 0.149874 0.321460 0.566889
Si Si5 0.783166 0.434882 0.261168
O O1 0.900114 0.173530 0.598223
O O2 0.834806 0.481537 0.525672
O O3 0.803795 0.070195 0.647341
O O4 0.830134 0.975762 0.466285
O O5 0.431688 0.364159 0.718580
O O6 0.503276 0.699439 0.637420
O O7 0.409791 0.769588 0.585775
O O8 0.437635 0.851619 0.774460
O O9 0.172434 0.450984 0.668609
O O10 0.734289 0.625285 0.280751
#
# Coordination Sequence:
#
# PCOD8249286 Si02
#       5
#     8   8   8   8   8
#     4  12  26  43  72 104 136 177 231 282 343 416
#     4  10  21  40  68  99 141 188 226 273 339 412
#     4  10  21  40  68  99 141 188 226 273 339 412
#     4  12  26  43  72 104 136 177 231 282 343 416
#     4  12  28  48  72  96 136 180 226 294 352 400
#
# _framework density 23.381015999999999
#
# number of rings (size 3 to 8) (size 9 to 14) (size 15 to 20)
#    0.000    0.800    2.000    4.800    2.800    6.400 
#    0.000    0.000    0.000    0.000    0.000    0.000 
#    0.000    0.000    0.000    0.000    0.000    0.000 
#
# Total GULP energy -495777.395596 kJ/mol
# GULP energy per Si atom -12394.434890 kJ/mol
# Density = 2.332780 g / cm^3
# Si number density = 23.381016 Si / 1000 Ang^3
#
#
#
# Elastic Constant Matrix: (Units=GPa)
#
#
# Indices 1 2 3 4 5 6 
#
# 1 74.4076 14.4670 16.2797 0.0000 0.0000 0.0000
# 2 14.4670 96.1784 14.3848 0.0000 0.0000 0.0000
# 3 16.2797 14.3848 62.7448 0.0000 0.0000 0.0000
# 4 0.0000 0.0000 0.0000 39.8590 0.0000 0.0000
# 5 0.0000 0.0000 0.0000 0.0000 27.6893 0.0000
# 6 0.0000 0.0000 0.0000 0.0000 0.0000 34.4776
#
#
#
# Elastic Compliance Matrix: (Units=1/GPa)
#
#
# Indices 1 2 3 4 5 6 
#
# 1 0.014505 -0.001676 -0.003379 0.000000 0.000000 0.000000
# 2 -0.001676 0.010960 -0.002078 0.000000 0.000000 0.000000
# 3 -0.003379 -0.002078 0.017291 0.000000 0.000000 0.000000
# 4 0.000000 0.000000 0.000000 0.025088 0.000000 0.000000
# 5 0.000000 0.000000 0.000000 0.000000 0.036115 0.000000
# 6 0.000000 0.000000 0.000000 0.000000 0.000000 0.029004
#
#
# Mechanical properties :
#
#
# Convention : Reuss Voigt Hill
#
# Bulk Modulus (GPa) = 35.10104 35.95487 35.52796
# Shear Modulus (GPa) = 31.90273 32.95178 32.42726
#
# Velocity S-wave (km/s) = 3.69788 3.75819 3.72816
# Velocity P-wave (km/s) = 5.76868 5.85177 5.81037
#
# Compressibility (1/GPa) = 0.02848918
#
# Stress axis : x y z
#
# Youngs Moduli (GPa) = 68.94297 91.23863 57.83473
#
# Poissons Ratio (x) = 0.15295 0.19543
# Poissons Ratio (y) = 0.11558 0.12017
# Poissons Ratio (z) = 0.23296 0.18957
#
# Static dielectric constant tensor:
#      x y z
#    x 4.442870 0.000000 0.000000 
#    y 0.000000 4.469430 0.000000 
#    z 0.000000 0.000000 3.842880 
# 
# 
# High freq. dielectric constant tensor:
#      x y z
#    x 1.928520 0.000000 0.000000 
#    y 0.000000 1.946220 0.000000 
#    z 0.000000 0.000000 1.904540 
# 
# From -- ./inp_files/6659.got.cif
#   From: 2010.03.12/outbox.cif.g09.slc.cpg/sg61_4_cif.got.tgz:6659.got - 2010.04.10 19:05:03.
