data_PCOD8249813
_publ_section_title
;
Structure prediction by ZEFSAII (Michael W. Deem and Ramdas Pophale) SiO2 
 PCOD8249813
Probable space group: P B C A
;
_chemical_formula_sum "Si O2"
_cell_formula_units_Z 48
_cell_length_a 11.012238
_cell_length_b 11.295123
_cell_length_c 18.727934
_cell_angle_alpha 90.000000
_cell_angle_beta 90.000000
_cell_angle_gamma 90.000000
_cell_volume 2329.466256
_symmetry_space_group_name_H-M "P B C A"
_symmetry_group_IT_number 61
_symmetry_cell_setting 'orthorhombic'
loop_
_space_group_symop_operation_xyz
x,y,z
1/2-x,-y,1/2+z
1/2+x,1/2-y,-z
-x,1/2+y,1/2-z
-x,-y,-z
1/2+x,y,1/2-z
1/2-x,1/2+y,z
x,1/2-y,1/2+z
loop_
_atom_site_type_symbol
_atom_site_label
_atom_site_fract_x
_atom_site_fract_y
_atom_site_fract_z
Si Si1 0.194373 0.478804 0.684291
Si Si2 0.419146 0.406293 0.591429
Si Si3 0.030302 0.804218 0.190866
Si Si4 0.973657 0.183025 0.161819
Si Si5 0.607099 0.611030 0.568871
Si Si6 0.689573 0.465158 0.170857
O O1 0.315646 0.467756 0.638410
O O2 0.222121 0.485346 0.768198
O O3 0.127782 0.600105 0.663563
O O4 0.110875 0.363849 0.670861
O O5 0.476415 0.292837 0.629372
O O6 0.530143 0.494413 0.582505
O O7 0.365810 0.369662 0.514636
O O8 0.900316 0.865964 0.203037
O O9 0.071875 0.744613 0.265060
O O10 0.967821 0.276662 0.097867
O O11 0.886271 0.075176 0.140331
O O12 0.735976 0.596116 0.607512
#
# Coordination Sequence:
#
# PCOD8249813 Si02
#       6
#     8   8   8   8   8   8
#     4  11  24  42  67  99 131 168 221 270 325 388
#     4  11  26  44  66  97 133 173 217 269 330 390
#     4  11  24  41  68  98 130 169 218 271 327 386
#     4  11  24  41  68  98 130 169 218 271 327 386
#     4  11  26  44  66  97 133 173 217 269 330 390
#     4  11  24  42  67  99 131 168 221 270 325 388
#
# _framework density 20.605578999999999
#
# number of rings (size 3 to 8) (size 9 to 14) (size 15 to 20)
#    0.000    1.000    3.333    2.000    9.333    2.667 
#    0.000    3.333    0.000    0.000    0.000    0.000 
#    0.000    0.000    0.000    0.000    0.000    0.000 
#
# Total GULP energy -595517.648497 kJ/mol
# GULP energy per Si atom -12406.617677 kJ/mol
# Density = 2.055868 g / cm^3
# Si number density = 20.605579 Si / 1000 Ang^3
#
#
#
# Elastic Constant Matrix: (Units=GPa)
#
#
# Indices 1 2 3 4 5 6 
#
# 1 61.4234 11.2690 3.5468 0.0000 0.0000 0.0000
# 2 11.2690 93.3658 19.4389 0.0000 0.0000 0.0000
# 3 3.5468 19.4389 93.0353 0.0000 0.0000 0.0000
# 4 0.0000 0.0000 0.0000 27.9881 0.0000 0.0000
# 5 0.0000 0.0000 0.0000 0.0000 27.9726 0.0000
# 6 0.0000 0.0000 0.0000 0.0000 0.0000 32.4128
#
#
#
# Elastic Compliance Matrix: (Units=1/GPa)
#
#
# Indices 1 2 3 4 5 6 
#
# 1 0.016654 -0.001963 -0.000225 0.000000 0.000000 0.000000
# 2 -0.001963 0.011429 -0.002313 0.000000 0.000000 0.000000
# 3 -0.000225 -0.002313 0.011240 0.000000 0.000000 0.000000
# 4 0.000000 0.000000 0.000000 0.035729 0.000000 0.000000
# 5 0.000000 0.000000 0.000000 0.000000 0.035749 0.000000
# 6 0.000000 0.000000 0.000000 0.000000 0.000000 0.030852
#
#
# Mechanical properties :
#
#
# Convention : Reuss Voigt Hill
#
# Bulk Modulus (GPa) = 32.98046 35.14821 34.06434
# Shear Modulus (GPa) = 31.10165 31.91269 31.50717
#
# Velocity S-wave (km/s) = 3.88929 3.93967 3.91456
# Velocity P-wave (km/s) = 6.01740 6.14730 6.08270
#
# Compressibility (1/GPa) = 0.03032099
#
# Stress axis : x y z
#
# Youngs Moduli (GPa) = 60.04702 87.49580 88.96407
#
# Poissons Ratio (x) = 0.17178 0.01999
# Poissons Ratio (y) = 0.11789 0.20579
# Poissons Ratio (z) = 0.01349 0.20239
#
# Static dielectric constant tensor:
#      x y z
#    x 3.720150 0.000000 0.000000 
#    y 0.000000 3.896970 0.000000 
#    z 0.000000 0.000000 3.760600 
# 
# 
# High freq. dielectric constant tensor:
#      x y z
#    x 1.811560 0.000000 0.000000 
#    y 0.000000 1.823630 0.000000 
#    z 0.000000 0.000000 1.794620 
# 
# From -- ./inp_files/9162.got.cif
#   From: 2010.03.12/outbox.cif.g09.slc.cpg/sg61_5_cif.got.tgz:9162.got - 2010.04.10 19:05:03.
