data_PCOD8249701
_publ_section_title
;
Structure prediction by ZEFSAII (Michael W. Deem and Ramdas Pophale) SiO2 
 PCOD8249701
Probable space group: P B C A
;
_chemical_formula_sum "Si O2"
_cell_formula_units_Z 40
_cell_length_a 24.882648
_cell_length_b 15.714275
_cell_length_c 5.001820
_cell_angle_alpha 90.000000
_cell_angle_beta 90.000000
_cell_angle_gamma 90.000000
_cell_volume 1955.775510
_symmetry_space_group_name_H-M "P B C A"
_symmetry_group_IT_number 61
_symmetry_cell_setting 'orthorhombic'
loop_
_space_group_symop_operation_xyz
x,y,z
1/2-x,-y,1/2+z
1/2+x,1/2-y,-z
-x,1/2+y,1/2-z
-x,-y,-z
1/2+x,y,1/2-z
1/2-x,1/2+y,z
x,1/2-y,1/2+z
loop_
_atom_site_type_symbol
_atom_site_label
_atom_site_fract_x
_atom_site_fract_y
_atom_site_fract_z
Si Si1 0.465969 0.973163 0.250292
Si Si2 0.683304 0.424761 0.947817
Si Si3 0.910632 0.690242 0.654400
Si Si4 0.287819 0.311293 0.566907
Si Si5 0.651957 0.976357 0.908525
O O1 0.407705 0.016453 0.214334
O O2 0.500000 0.000000 0.500000
O O3 0.460968 0.872049 0.299376
O O4 0.500000 0.000000 0.000000
O O5 0.734967 0.368253 0.897723
O O6 0.659617 0.464963 0.673736
O O7 0.641702 0.366414 0.110639
O O8 0.694547 0.497613 0.171964
O O9 0.911839 0.754156 0.414736
O O10 0.290216 0.250767 0.315027
O O11 0.337517 0.376800 0.534804
#
# Coordination Sequence:
#
# PCOD8249701 Si02
#       5
#     8   8   8   8   8
#     4  11  23  42  64  86 119 164 208 251 307 368
#     4  11  21  39  64  90 123 161 199 246 306 370
#     4  11  21  37  61  93 118 145 196 261 307 344
#     4  12  24  39  60  93 129 163 198 244 299 367
#     4  11  23  41  63  88 121 165 208 248 300 371
#
# _framework density 20.452244
#
# number of rings (size 3 to 8) (size 9 to 14) (size 15 to 20)
#    0.000    0.800    0.000   10.800    0.000    0.000 
#    0.000    6.000    0.000    0.000    0.000    0.000 
#    0.000    0.000    0.000    0.000    0.000    0.000 
#
# Total GULP energy -495613.719127 kJ/mol
# GULP energy per Si atom -12390.342978 kJ/mol
# Density = 2.040569 g / cm^3
# Si number density = 20.452244 Si / 1000 Ang^3
#
#
#
# Elastic Constant Matrix: (Units=GPa)
#
#
# Indices 1 2 3 4 5 6 
#
# 1 95.0939 71.3138 54.3629 0.0000 0.0000 0.0000
# 2 71.3138 145.5351 80.9100 0.0000 0.0000 0.0000
# 3 54.3629 80.9100 192.6717 0.0000 0.0000 0.0000
# 4 0.0000 0.0000 0.0000 66.6171 0.0000 0.0000
# 5 0.0000 0.0000 0.0000 0.0000 34.4056 0.0000
# 6 0.0000 0.0000 0.0000 0.0000 0.0000 1.5800
#
#
#
# Elastic Compliance Matrix: (Units=1/GPa)
#
#
# Indices 1 2 3 4 5 6 
#
# 1 0.017041 -0.007406 -0.001698 0.000000 0.000000 0.000000
# 2 -0.007406 0.012183 -0.003026 0.000000 0.000000 0.000000
# 3 -0.001698 -0.003026 0.006940 0.000000 0.000000 0.000000
# 4 0.000000 0.000000 0.000000 0.015011 0.000000 0.000000
# 5 0.000000 0.000000 0.000000 0.000000 0.029065 0.000000
# 6 0.000000 0.000000 0.000000 0.000000 0.000000 0.632921
#
#
# Mechanical properties :
#
#
# Convention : Reuss Voigt Hill
#
# Bulk Modulus (GPa) = 84.01446 94.05266 89.03356
# Shear Modulus (GPa) = 6.74409 35.63480 21.18945
#
# Velocity S-wave (km/s) = 1.81787 4.17867 3.22226
# Velocity P-wave (km/s) = 6.75083 8.32874 7.58095
#
# Compressibility (1/GPa) = 0.01190271
#
# Stress axis : x y z
#
# Youngs Moduli (GPa) = 58.68300 82.08315 144.08950
#
# Poissons Ratio (x) = 0.60792 0.24466
# Poissons Ratio (y) = 0.43461 0.43606
# Poissons Ratio (z) = 0.09964 0.24841
#
# Static dielectric constant tensor:
#      x y z
#    x 3.729750 0.000000 0.000000 
#    y 0.000000 4.099700 0.000000 
#    z 0.000000 0.000000 3.962510 
# 
# 
# High freq. dielectric constant tensor:
#      x y z
#    x 1.786020 0.000000 0.000000 
#    y 0.000000 1.819690 0.000000 
#    z 0.000000 0.000000 1.829350 
# 
# From -- ./inp_files/1160.got.cif
#   From: 2010.03.12/outbox.cif.g09.slc.cpg/sg61_1_cif.got.tgz:1160.got - 2010.04.10 19:05:03.
