data_PCOD8249289
_publ_section_title
;
Structure prediction by ZEFSAII (Michael W. Deem and Ramdas Pophale) SiO2 
 PCOD8249289
Probable space group: P B C A
;
_chemical_formula_sum "Si O2"
_cell_formula_units_Z 64
_cell_length_a 23.180793
_cell_length_b 8.794638
_cell_length_c 14.964777
_cell_angle_alpha 90.000000
_cell_angle_beta 90.000000
_cell_angle_gamma 90.000000
_cell_volume 3050.819449
_symmetry_space_group_name_H-M "P B C A"
_symmetry_group_IT_number 61
_symmetry_cell_setting 'orthorhombic'
loop_
_space_group_symop_operation_xyz
x,y,z
1/2-x,-y,1/2+z
1/2+x,1/2-y,-z
-x,1/2+y,1/2-z
-x,-y,-z
1/2+x,y,1/2-z
1/2-x,1/2+y,z
x,1/2-y,1/2+z
loop_
_atom_site_type_symbol
_atom_site_label
_atom_site_fract_x
_atom_site_fract_y
_atom_site_fract_z
Si Si1 0.224860 0.215928 0.425274
Si Si2 0.348436 0.211371 0.989003
Si Si3 0.247361 0.536566 0.806599
Si Si4 0.358776 0.062058 0.242985
Si Si5 0.934979 0.891055 0.915876
Si Si6 0.565330 0.926841 0.596266
Si Si7 0.640169 0.113962 0.933274
Si Si8 0.851806 0.125582 0.830985
O O1 0.290819 0.273950 0.432032
O O2 0.208249 0.333561 0.345677
O O3 0.189552 0.221087 0.519089
O O4 0.214624 0.045301 0.389279
O O5 0.402074 0.272660 0.931743
O O6 0.331362 0.318297 0.072343
O O7 0.368259 0.040915 0.011925
O O8 0.293044 0.408062 0.774581
O O9 0.203160 0.577650 0.727889
O O10 0.403036 0.000281 0.317689
O O11 0.383593 0.226447 0.211404
O O12 0.347432 0.933305 0.168112
O O13 0.916847 0.715941 0.927252
O O14 0.999582 0.891654 0.877865
O O15 0.895634 0.984500 0.844743
O O16 0.931612 0.956513 0.015162
#
# Coordination Sequence:
#
# PCOD8249289 Si02
#       8
#     8   8   8   8   8   8   8   8
#     4  12  23  38  62  94 132 173 213 260 320 389
#     4  10  21  41  61  88 130 171 210 268 329 384
#     4  12  22  38  62  93 128 172 215 258 319 394
#     4  11  23  41  62  93 130 168 210 271 325 388
#     4  10  24  43  66  94 123 173 217 275 332 392
#     4  10  21  45  70  88 126 169 224 273 330 394
#     4  11  25  39  62  98 132 170 219 269 331 394
#     4  10  23  39  59  88 128 163 209 264 327 380
#
# _framework density 20.977969999999999
#
# number of rings (size 3 to 8) (size 9 to 14) (size 15 to 20)
#    0.000    1.250    3.750    1.500    3.500    3.500 
#    0.000    0.000    0.000    0.000    0.000    0.000 
#    0.000    0.000    0.000    0.000    0.000    0.000 
#
# Total GULP energy -792882.346050 kJ/mol
# GULP energy per Si atom -12388.786657 kJ/mol
# Density = 2.093022 g / cm^3
# Si number density = 20.977970 Si / 1000 Ang^3
#
#
#
# Elastic Constant Matrix: (Units=GPa)
#
#
# Indices 1 2 3 4 5 6 
#
# 1 121.4600 53.4996 54.5206 0.0000 0.0000 0.0000
# 2 53.4996 89.1493 38.8390 0.0000 0.0000 0.0000
# 3 54.5206 38.8390 106.1545 0.0000 0.0000 0.0000
# 4 0.0000 0.0000 0.0000 23.4785 0.0000 0.0000
# 5 0.0000 0.0000 0.0000 0.0000 34.9490 0.0000
# 6 0.0000 0.0000 0.0000 0.0000 0.0000 27.8283
#
#
#
# Elastic Compliance Matrix: (Units=1/GPa)
#
#
# Indices 1 2 3 4 5 6 
#
# 1 0.012749 -0.005708 -0.004459 0.000000 0.000000 0.000000
# 2 -0.005708 0.015900 -0.002886 0.000000 0.000000 0.000000
# 3 -0.004459 -0.002886 0.012766 0.000000 0.000000 0.000000
# 4 0.000000 0.000000 0.000000 0.042592 0.000000 0.000000
# 5 0.000000 0.000000 0.000000 0.000000 0.028613 0.000000
# 6 0.000000 0.000000 0.000000 0.000000 0.000000 0.035935
#
#
# Mechanical properties :
#
#
# Convention : Reuss Voigt Hill
#
# Bulk Modulus (GPa) = 65.32150 67.83136 66.57643
# Shear Modulus (GPa) = 27.81410 28.57811 28.19611
#
# Velocity S-wave (km/s) = 3.64520 3.69493 3.67015
# Velocity P-wave (km/s) = 6.99446 7.11394 7.05445
#
# Compressibility (1/GPa) = 0.01530890
#
# Stress axis : x y z
#
# Youngs Moduli (GPa) = 78.43641 62.89382 78.33061
#
# Poissons Ratio (x) = 0.35900 0.34932
# Poissons Ratio (y) = 0.44772 0.22603
# Poissons Ratio (z) = 0.34979 0.18149
#
# Static dielectric constant tensor:
#      x y z
#    x 3.579680 0.000000 0.000000 
#    y 0.000000 3.864310 0.000000 
#    z 0.000000 0.000000 4.008890 
# 
# 
# High freq. dielectric constant tensor:
#      x y z
#    x 1.794960 0.000000 0.000000 
#    y 0.000000 1.829240 0.000000 
#    z 0.000000 0.000000 1.835310 
# 
# From -- ./inp_files/8526.got.cif
#   From: 2010.03.12/outbox.cif.g09.slc.cpg/sg61_5_cif.got.tgz:8526.got - 2010.04.10 19:05:03.
