data_PCOD8249314
_publ_section_title
;
Structure prediction by ZEFSAII (Michael W. Deem and Ramdas Pophale) SiO2 
 PCOD8249314
Probable space group: P B C A
;
_chemical_formula_sum "Si O2"
_cell_formula_units_Z 56
_cell_length_a 18.101622
_cell_length_b 14.933747
_cell_length_c 8.927960
_cell_angle_alpha 90.000000
_cell_angle_beta 90.000000
_cell_angle_gamma 90.000000
_cell_volume 2413.451173
_symmetry_space_group_name_H-M "P B C A"
_symmetry_group_IT_number 61
_symmetry_cell_setting 'orthorhombic'
loop_
_space_group_symop_operation_xyz
x,y,z
1/2-x,-y,1/2+z
1/2+x,1/2-y,-z
-x,1/2+y,1/2-z
-x,-y,-z
1/2+x,y,1/2-z
1/2-x,1/2+y,z
x,1/2-y,1/2+z
loop_
_atom_site_type_symbol
_atom_site_label
_atom_site_fract_x
_atom_site_fract_y
_atom_site_fract_z
Si Si1 0.350358 0.097599 0.140580
Si Si2 0.536090 0.572229 0.830696
Si Si3 0.887708 0.953996 0.597986
Si Si4 0.690282 0.141242 0.363740
Si Si5 0.116103 0.483846 0.410683
Si Si6 0.527370 0.761989 0.765057
Si Si7 0.574318 0.276025 0.481100
O O1 0.278041 0.160648 0.132895
O O2 0.422391 0.157684 0.174311
O O3 0.338874 0.029511 0.277465
O O4 0.355753 0.040623 0.987375
O O5 0.550697 0.491017 0.713789
O O6 0.447487 0.582368 0.848388
O O7 0.569243 0.666872 0.776064
O O8 0.573796 0.557470 0.990640
O O9 0.829911 0.896246 0.698225
O O10 0.919458 0.885243 0.471452
O O11 0.675332 0.066338 0.488141
O O12 0.648860 0.231341 0.417613
O O13 0.499490 0.767888 0.594013
O O14 0.446493 0.759547 0.845699
#
# Coordination Sequence:
#
# PCOD8249314 Si02
#       7
#     8   8   8   8   8   8   8
#     4  12  26  44  69 110 141 179 234 300 359 421
#     4  10  21  42  70 106 131 182 231 294 343 415
#     4  11  25  46  72 102 142 186 240 289 354 427
#     4  11  25  49  67 101 142 190 235 287 364 430
#     4  10  21  41  74  94 139 180 231 283 356 422
#     4  12  24  42  70 105 139 173 236 296 344 412
#     4  12  24  47  70  99 139 191 236 287 349 421
#
# _framework density 23.203288000000001
#
# number of rings (size 3 to 8) (size 9 to 14) (size 15 to 20)
#    0.000    0.857    2.857    4.286    2.000    1.714 
#   12.857    0.000    0.000    0.000    0.000    0.000 
#    0.000    0.000    0.000    0.000    0.000    0.000 
#
# Total GULP energy -693955.217147 kJ/mol
# GULP energy per Si atom -12392.057449 kJ/mol
# Density = 2.315048 g / cm^3
# Si number density = 23.203288 Si / 1000 Ang^3
#
#
#
# Elastic Constant Matrix: (Units=GPa)
#
#
# Indices 1 2 3 4 5 6 
#
# 1 90.4216 13.0990 22.4118 0.0000 0.0000 0.0000
# 2 13.0990 91.1915 16.5420 0.0000 0.0000 0.0000
# 3 22.4118 16.5420 89.1656 0.0000 0.0000 0.0000
# 4 0.0000 0.0000 0.0000 29.4848 0.0000 0.0000
# 5 0.0000 0.0000 0.0000 0.0000 17.8279 0.0000
# 6 0.0000 0.0000 0.0000 0.0000 0.0000 22.3139
#
#
#
# Elastic Compliance Matrix: (Units=1/GPa)
#
#
# Indices 1 2 3 4 5 6 
#
# 1 0.011922 -0.001210 -0.002772 0.000000 0.000000 0.000000
# 2 -0.001210 0.011471 -0.001824 0.000000 0.000000 0.000000
# 3 -0.002772 -0.001824 0.012250 0.000000 0.000000 0.000000
# 4 0.000000 0.000000 0.000000 0.033916 0.000000 0.000000
# 5 0.000000 0.000000 0.000000 0.000000 0.056092 0.000000
# 6 0.000000 0.000000 0.000000 0.000000 0.000000 0.044815
#
#
# Mechanical properties :
#
#
# Convention : Reuss Voigt Hill
#
# Bulk Modulus (GPa) = 41.61285 41.65383 41.63334
# Shear Modulus (GPa) = 26.30374 28.50703 27.40538
#
# Velocity S-wave (km/s) = 3.37058 3.50891 3.44044
# Velocity P-wave (km/s) = 5.75506 5.86577 5.81068
#
# Compressibility (1/GPa) = 0.02403104
#
# Stress axis : x y z
#
# Youngs Moduli (GPa) = 83.88123 87.17975 81.63106
#
# Poissons Ratio (x) = 0.10545 0.22629
# Poissons Ratio (y) = 0.10146 0.14889
# Poissons Ratio (z) = 0.23253 0.15901
#
# Static dielectric constant tensor:
#      x y z
#    x 3.750050 0.000000 0.000000 
#    y 0.000000 4.233700 0.000000 
#    z 0.000000 0.000000 4.328140 
# 
# 
# High freq. dielectric constant tensor:
#      x y z
#    x 1.882270 0.000000 0.000000 
#    y 0.000000 1.920590 0.000000 
#    z 0.000000 0.000000 1.937550 
# 
# From -- ./inp_files/3980.got.cif
#   From: 2010.03.12/outbox.cif.g09.slc.cpg/sg61_2_cif.got.tgz:3980.got - 2010.04.10 19:05:03.
