data_PCOD8249862
_publ_section_title
;
Structure prediction by ZEFSAII (Michael W. Deem and Ramdas Pophale) SiO2 
 PCOD8249862
Probable space group: P B C A
;
_chemical_formula_sum "Si O2"
_cell_formula_units_Z 32
_cell_length_a 10.024668
_cell_length_b 8.071626
_cell_length_c 16.033459
_cell_angle_alpha 90.000000
_cell_angle_beta 90.000000
_cell_angle_gamma 90.000000
_cell_volume 1297.353281
_symmetry_space_group_name_H-M "P B C A"
_symmetry_group_IT_number 61
_symmetry_cell_setting 'orthorhombic'
loop_
_space_group_symop_operation_xyz
x,y,z
1/2-x,-y,1/2+z
1/2+x,1/2-y,-z
-x,1/2+y,1/2-z
-x,-y,-z
1/2+x,y,1/2-z
1/2-x,1/2+y,z
x,1/2-y,1/2+z
loop_
_atom_site_type_symbol
_atom_site_label
_atom_site_fract_x
_atom_site_fract_y
_atom_site_fract_z
Si Si1 0.141875 0.071988 0.406696
Si Si2 0.629687 0.113315 0.322524
Si Si3 0.641876 0.071987 0.906696
Si Si4 0.629688 0.386685 0.177476
O O1 0.128021 0.271677 0.405216
O O2 1.000000 0.000001 0.381689
O O3 0.186026 0.019063 0.500000
O O4 0.242151 0.006138 0.334281
O O5 0.757848 0.993862 0.334281
O O6 0.628020 0.228323 0.405217
O O7 0.640682 0.250000 0.250000
O O8 0.500000 0.000001 0.313663
#
# Coordination Sequence:
#
# PCOD8249862 Si02
#       4
#     8   8   8   8
#     4  11  25  45  71 105 144 189 241 296 358 427
#     4  12  26  46  71 104 146 191 239 293 356 428
#     4  11  25  45  71 105 144 189 241 296 358 427
#     4  12  26  46  71 104 146 191 239 293 356 428
#
# _framework density 24.665600000000001
#
# number of rings (size 3 to 8) (size 9 to 14) (size 15 to 20)
#    0.000    0.500    0.000    7.500    0.000   12.000 
#    0.000    0.000    0.000    0.000    0.000    0.000 
#    0.000    0.000    0.000    0.000    0.000    0.000 
#
# Total GULP energy -396602.077220 kJ/mol
# GULP energy per Si atom -12393.814913 kJ/mol
# Density = 2.460946 g / cm^3
# Si number density = 24.665600 Si / 1000 Ang^3
#
#
#
# Elastic Constant Matrix: (Units=GPa)
#
#
# Indices 1 2 3 4 5 6 
#
# 1 175.6923 89.9247 77.8490 0.0000 0.0000 0.0000
# 2 89.9247 184.3414 51.2545 0.0000 0.0000 0.0000
# 3 77.8490 51.2545 129.7271 0.0000 0.0000 0.0000
# 4 0.0000 0.0000 0.0000 44.3220 0.0000 0.0000
# 5 0.0000 0.0000 0.0000 0.0000 20.7384 0.0000
# 6 0.0000 0.0000 0.0000 0.0000 0.0000 61.0523
#
#
#
# Elastic Compliance Matrix: (Units=1/GPa)
#
#
# Indices 1 2 3 4 5 6 
#
# 1 0.009290 -0.003350 -0.004252 0.000000 0.000000 0.000000
# 2 -0.003350 0.007302 -0.000875 0.000000 0.000000 0.000000
# 3 -0.004252 -0.000875 0.010605 0.000000 0.000000 0.000000
# 4 0.000000 0.000000 0.000000 0.022562 0.000000 0.000000
# 5 0.000000 0.000000 0.000000 0.000000 0.048220 0.000000
# 6 0.000000 0.000000 0.000000 0.000000 0.000000 0.016379
#
#
# Mechanical properties :
#
#
# Convention : Reuss Voigt Hill
#
# Bulk Modulus (GPa) = 97.60455 103.09079 100.34767
# Shear Modulus (GPa) = 37.11232 43.27138 40.19185
#
# Velocity S-wave (km/s) = 3.88315 4.19301 4.04105
# Velocity P-wave (km/s) = 7.73060 8.08256 7.90854
#
# Compressibility (1/GPa) = 0.01024542
#
# Stress axis : x y z
#
# Youngs Moduli (GPa) = 107.64120 136.94834 94.29128
#
# Poissons Ratio (x) = 0.45875 0.40088
# Poissons Ratio (y) = 0.36057 0.08249
# Poissons Ratio (z) = 0.45764 0.11980
#
# Static dielectric constant tensor:
#      x y z
#    x 4.257520 0.000000 0.000000 
#    y 0.000000 5.157460 0.000000 
#    z 0.000000 0.000000 4.668290 
# 
# 
# High freq. dielectric constant tensor:
#      x y z
#    x 1.975800 0.000000 0.000000 
#    y 0.000000 2.008700 0.000000 
#    z 0.000000 0.000000 2.003540 
# 
# From -- ./inp_files/10023.got.cif
#   From: 2010.03.12/outbox.cif.g09.slc.cpg/sg61_6_cif.got.tgz:10023.got - 2010.04.10 19:05:03.
