data_PCOD8249836
_publ_section_title
;
Structure prediction by ZEFSAII (Michael W. Deem and Ramdas Pophale) SiO2 
 PCOD8249836
Probable space group: P B C A
;
_chemical_formula_sum "Si O2"
_cell_formula_units_Z 48
_cell_length_a 17.515187
_cell_length_b 11.761847
_cell_length_c 11.196601
_cell_angle_alpha 90.000000
_cell_angle_beta 90.000000
_cell_angle_gamma 90.000000
_cell_volume 2306.622405
_symmetry_space_group_name_H-M "P B C A"
_symmetry_group_IT_number 61
_symmetry_cell_setting 'orthorhombic'
loop_
_space_group_symop_operation_xyz
x,y,z
1/2-x,-y,1/2+z
1/2+x,1/2-y,-z
-x,1/2+y,1/2-z
-x,-y,-z
1/2+x,y,1/2-z
1/2-x,1/2+y,z
x,1/2-y,1/2+z
loop_
_atom_site_type_symbol
_atom_site_label
_atom_site_fract_x
_atom_site_fract_y
_atom_site_fract_z
Si Si1 0.336834 0.086115 0.969337
Si Si2 0.905452 0.321731 0.487391
Si Si3 0.395896 0.583142 0.662797
Si Si4 0.165130 0.457826 0.414478
Si Si5 0.436827 0.453955 0.246707
Si Si6 0.566655 0.328554 0.905877
O O1 0.246055 0.082149 0.963117
O O2 0.369428 0.076720 0.836492
O O3 0.368336 0.982739 0.046579
O O4 0.360464 0.204623 0.030086
O O5 0.848657 0.412124 0.547511
O O6 0.935450 0.362380 0.359200
O O7 0.977467 0.302245 0.574403
O O8 0.339950 0.553040 0.771950
O O9 0.482209 0.547317 0.688646
O O10 0.389224 0.716313 0.634537
O O11 0.100401 0.377159 0.470823
O O12 0.422089 0.580277 0.198632
#
# Coordination Sequence:
#
# PCOD8249836 Si02
#       6
#     8   8   8   8   8   8
#     4  12  30  41  73 110 141 181 238 295 356 421
#     4  11  24  48  71  98 144 188 232 287 357 416
#     4  12  26  44  74 103 139 183 242 288 343 429
#     4  11  27  48  67 103 145 187 229 291 365 412
#     4  11  24  45  71 103 138 184 237 290 352 416
#     4  11  24  45  74  99 136 190 235 289 345 423
#
# _framework density 20.809647999999999
#
# number of rings (size 3 to 8) (size 9 to 14) (size 15 to 20)
#    0.000    0.667    5.000    1.500   14.000    0.000 
#    0.000    0.000    0.000    0.000    0.000    0.000 
#    0.000    0.000    0.000    0.000    0.000    0.000 
#
# Total GULP energy -595628.822772 kJ/mol
# GULP energy per Si atom -12408.933808 kJ/mol
# Density = 2.076228 g / cm^3
# Si number density = 20.809648 Si / 1000 Ang^3
#
#
#
# Elastic Constant Matrix: (Units=GPa)
#
#
# Indices 1 2 3 4 5 6 
#
# 1 108.3419 34.4919 10.9468 0.0000 0.0000 0.0000
# 2 34.4919 132.7561 22.8898 0.0000 0.0000 0.0000
# 3 10.9468 22.8898 75.6984 0.0000 0.0000 0.0000
# 4 0.0000 0.0000 0.0000 22.0907 0.0000 0.0000
# 5 0.0000 0.0000 0.0000 0.0000 33.7201 0.0000
# 6 0.0000 0.0000 0.0000 0.0000 0.0000 25.7635
#
#
#
# Elastic Compliance Matrix: (Units=1/GPa)
#
#
# Indices 1 2 3 4 5 6 
#
# 1 0.010098 -0.002502 -0.000704 0.000000 0.000000 0.000000
# 2 -0.002502 0.008567 -0.002229 0.000000 0.000000 0.000000
# 3 -0.000704 -0.002229 0.013986 0.000000 0.000000 0.000000
# 4 0.000000 0.000000 0.000000 0.045268 0.000000 0.000000
# 5 0.000000 0.000000 0.000000 0.000000 0.029656 0.000000
# 6 0.000000 0.000000 0.000000 0.000000 0.000000 0.038815
#
#
# Mechanical properties :
#
#
# Convention : Reuss Voigt Hill
#
# Bulk Modulus (GPa) = 45.91004 50.38372 48.14688
# Shear Modulus (GPa) = 30.39167 32.87938 31.63553
#
# Velocity S-wave (km/s) = 3.82574 3.97924 3.90325
# Velocity P-wave (km/s) = 6.45173 6.73623 6.59552
#
# Compressibility (1/GPa) = 0.02178173
#
# Stress axis : x y z
#
# Youngs Moduli (GPa) = 99.03202 116.72710 71.50023
#
# Poissons Ratio (x) = 0.29208 0.05031
# Poissons Ratio (y) = 0.24780 0.15935
# Poissons Ratio (z) = 0.06968 0.26014
#
# Static dielectric constant tensor:
#      x y z
#    x 3.713690 0.000000 0.000000 
#    y 0.000000 3.851260 0.000000 
#    z 0.000000 0.000000 3.865040 
# 
# 
# High freq. dielectric constant tensor:
#      x y z
#    x 1.813580 0.000000 0.000000 
#    y 0.000000 1.825940 0.000000 
#    z 0.000000 0.000000 1.822350 
# 
# From -- ./inp_files/6155.got.cif
#   From: 2010.03.12/outbox.cif.g09.slc.cpg/sg61_4_cif.got.tgz:6155.got - 2010.04.10 19:05:03.
