data_PCOD8249594
_publ_section_title
;
Structure prediction by ZEFSAII (Michael W. Deem and Ramdas Pophale) SiO2 
 PCOD8249594
Probable space group: P B C A
;
_chemical_formula_sum "Si O2"
_cell_formula_units_Z 48
_cell_length_a 10.767946
_cell_length_b 10.345424
_cell_length_c 17.141859
_cell_angle_alpha 90.000000
_cell_angle_beta 90.000000
_cell_angle_gamma 90.000000
_cell_volume 1909.585385
_symmetry_space_group_name_H-M "P B C A"
_symmetry_group_IT_number 61
_symmetry_cell_setting 'orthorhombic'
loop_
_space_group_symop_operation_xyz
x,y,z
1/2-x,-y,1/2+z
1/2+x,1/2-y,-z
-x,1/2+y,1/2-z
-x,-y,-z
1/2+x,y,1/2-z
1/2-x,1/2+y,z
x,1/2-y,1/2+z
loop_
_atom_site_type_symbol
_atom_site_label
_atom_site_fract_x
_atom_site_fract_y
_atom_site_fract_z
Si Si1 0.828701 0.724883 0.085372
Si Si2 0.903292 0.872802 0.322954
Si Si3 0.411953 0.349816 0.637439
Si Si4 0.328636 0.304027 0.275452
Si Si5 0.658340 0.623376 0.974904
Si Si6 0.082811 0.360628 0.558578
O O1 0.712186 0.763955 0.138365
O O2 0.940528 0.675276 0.138528
O O3 0.788569 0.616297 0.021376
O O4 0.869151 0.843373 0.030502
O O5 0.788535 0.880651 0.261979
O O6 0.885314 0.745313 0.376147
O O7 0.039235 0.881316 0.281420
O O8 0.889169 0.998360 0.378882
O O9 0.359432 0.321236 0.723447
O O10 0.344566 0.258813 0.573675
O O11 0.639225 0.501307 0.916518
O O12 0.563604 0.628347 0.047468
#
# Coordination Sequence:
#
# PCOD8249594 Si02
#       6
#     8   8   8   8   8   8
#     4  11  24  45  76 114 149 197 255 314 380 451
#     4  12  28  50  80 110 157 200 260 314 385 456
#     4  11  28  48  78 114 151 205 255 313 381 462
#     4  12  27  49  72 117 155 204 248 321 381 454
#     4  10  23  46  75 106 150 192 256 312 380 439
#     4  10  24  45  74 108 143 200 247 317 375 448
#
# _framework density 25.136344999999999
#
# number of rings (size 3 to 8) (size 9 to 14) (size 15 to 20)
#    0.000    1.000    3.333    1.000    4.667    9.333 
#    0.000    0.000    0.000    0.000    0.000    0.000 
#    0.000    0.000    0.000    0.000    0.000    0.000 
#
# Total GULP energy -594654.659416 kJ/mol
# GULP energy per Si atom -12388.638738 kJ/mol
# Density = 2.507913 g / cm^3
# Si number density = 25.136345 Si / 1000 Ang^3
#
#
#
# Elastic Constant Matrix: (Units=GPa)
#
#
# Indices 1 2 3 4 5 6 
#
# 1 166.5103 27.1349 56.4418 0.0000 0.0000 0.0000
# 2 27.1349 157.6017 35.7667 0.0000 0.0000 0.0000
# 3 56.4418 35.7667 78.0586 0.0000 0.0000 0.0000
# 4 0.0000 0.0000 0.0000 35.4557 0.0000 0.0000
# 5 0.0000 0.0000 0.0000 0.0000 62.6572 0.0000
# 6 0.0000 0.0000 0.0000 0.0000 0.0000 10.4520
#
#
#
# Elastic Compliance Matrix: (Units=1/GPa)
#
#
# Indices 1 2 3 4 5 6 
#
# 1 0.007956 -0.000072 -0.005720 0.000000 0.000000 0.000000
# 2 -0.000072 0.007082 -0.003193 0.000000 0.000000 0.000000
# 3 -0.005720 -0.003193 0.018410 0.000000 0.000000 0.000000
# 4 0.000000 0.000000 0.000000 0.028204 0.000000 0.000000
# 5 0.000000 0.000000 0.000000 0.000000 0.015960 0.000000
# 6 0.000000 0.000000 0.000000 0.000000 0.000000 0.095676
#
#
# Mechanical properties :
#
#
# Convention : Reuss Voigt Hill
#
# Bulk Modulus (GPa) = 64.60595 71.20636 67.90615
# Shear Modulus (GPa) = 25.45599 40.56813 33.01206
#
# Velocity S-wave (km/s) = 3.18577 4.02172 3.62791
# Velocity P-wave (km/s) = 6.26819 7.06790 6.68002
#
# Compressibility (1/GPa) = 0.01547845
#
# Stress axis : x y z
#
# Youngs Moduli (GPa) = 125.68755 141.20035 54.31827
#
# Poissons Ratio (x) = 0.01013 0.31070
# Poissons Ratio (y) = 0.00902 0.17345
# Poissons Ratio (z) = 0.71894 0.45088
#
# Static dielectric constant tensor:
#      x y z
#    x 5.147670 0.000000 0.000000 
#    y 0.000000 4.309250 0.000000 
#    z 0.000000 0.000000 4.283730 
# 
# 
# High freq. dielectric constant tensor:
#      x y z
#    x 2.040020 0.000000 0.000000 
#    y 0.000000 1.979510 0.000000 
#    z 0.000000 0.000000 1.993540 
# 
# From -- ./inp_files/9171.got.cif
#   From: 2010.03.12/outbox.cif.g09.slc.cpg/sg61_5_cif.got.tgz:9171.got - 2010.04.10 19:05:03.
