data_PCOD8249385
_publ_section_title
;
Structure prediction by ZEFSAII (Michael W. Deem and Ramdas Pophale) SiO2 
 PCOD8249385
Probable space group: P B C A
;
_chemical_formula_sum "Si O2"
_cell_formula_units_Z 32
_cell_length_a 11.591496
_cell_length_b 5.157146
_cell_length_c 21.467307
_cell_angle_alpha 90.000000
_cell_angle_beta 90.000000
_cell_angle_gamma 90.000000
_cell_volume 1283.294944
_symmetry_space_group_name_H-M "P B C A"
_symmetry_group_IT_number 61
_symmetry_cell_setting 'orthorhombic'
loop_
_space_group_symop_operation_xyz
x,y,z
1/2-x,-y,1/2+z
1/2+x,1/2-y,-z
-x,1/2+y,1/2-z
-x,-y,-z
1/2+x,y,1/2-z
1/2-x,1/2+y,z
x,1/2-y,1/2+z
loop_
_atom_site_type_symbol
_atom_site_label
_atom_site_fract_x
_atom_site_fract_y
_atom_site_fract_z
Si Si1 0.183214 0.748405 0.843782
Si Si2 0.936944 0.323479 0.770911
Si Si3 0.975143 0.517584 0.900939
Si Si4 0.826294 0.883326 0.512639
O O1 0.245370 0.489682 0.869735
O O2 0.178401 0.744067 0.767905
O O3 0.052062 0.747134 0.869613
O O4 0.968303 0.602088 0.740733
O O5 0.918934 0.346432 0.845223
O O6 0.871104 0.636287 0.941291
O O7 0.060676 0.344119 0.943900
O O8 0.729471 0.667254 0.524609
#
# Coordination Sequence:
#
# PCOD8249385 Si02
#       4
#     8   8   8   8
#     4  11  22  38  64  97 131 169 211 257 319 393
#     4  10  22  39  61  92 128 168 211 262 322 382
#     4  10  24  44  68  95 136 175 218 276 332 389
#     4  11  26  44  67  97 129 175 228 276 327 388
#
# _framework density 24.935811999999999
#
# number of rings (size 3 to 8) (size 9 to 14) (size 15 to 20)
#    0.000    1.500    0.000    4.500    0.000   16.000 
#    0.000    0.000    0.000    0.000    0.000    0.000 
#    0.000    0.000    0.000    0.000    0.000    0.000 
#
# Total GULP energy -396644.568549 kJ/mol
# GULP energy per Si atom -12395.142767 kJ/mol
# Density = 2.487906 g / cm^3
# Si number density = 24.935812 Si / 1000 Ang^3
#
#
#
# Elastic Constant Matrix: (Units=GPa)
#
#
# Indices 1 2 3 4 5 6 
#
# 1 47.2359 25.4542 2.8193 0.0000 0.0000 0.0000
# 2 25.4542 127.4714 33.4351 0.0000 0.0000 0.0000
# 3 2.8193 33.4351 124.8110 0.0000 0.0000 0.0000
# 4 0.0000 0.0000 0.0000 32.3630 0.0000 0.0000
# 5 0.0000 0.0000 0.0000 0.0000 59.6681 0.0000
# 6 0.0000 0.0000 0.0000 0.0000 0.0000 24.2587
#
#
#
# Elastic Compliance Matrix: (Units=1/GPa)
#
#
# Indices 1 2 3 4 5 6 
#
# 1 0.023795 -0.004959 0.000791 0.000000 0.000000 0.000000
# 2 -0.004959 0.009471 -0.002425 0.000000 0.000000 0.000000
# 3 0.000791 -0.002425 0.008644 0.000000 0.000000 0.000000
# 4 0.000000 0.000000 0.000000 0.030899 0.000000 0.000000
# 5 0.000000 0.000000 0.000000 0.000000 0.016759 0.000000
# 6 0.000000 0.000000 0.000000 0.000000 0.000000 0.041222
#
#
# Mechanical properties :
#
#
# Convention : Reuss Voigt Hill
#
# Bulk Modulus (GPa) = 34.81407 46.99285 40.90346
# Shear Modulus (GPa) = 32.56204 39.11196 35.83700
#
# Velocity S-wave (km/s) = 3.61755 3.96473 3.79511
# Velocity P-wave (km/s) = 5.60720 6.31231 5.97017
#
# Compressibility (1/GPa) = 0.02872402
#
# Stress axis : x y z
#
# Youngs Moduli (GPa) = 42.02483 105.58249 115.68819
#
# Poissons Ratio (x) = 0.52359 -0.09150
# Poissons Ratio (y) = 0.20840 0.28057
# Poissons Ratio (z) = -0.03324 0.25606
#
# Static dielectric constant tensor:
#      x y z
#    x 4.272710 0.000000 0.000000 
#    y 0.000000 4.214200 0.000000 
#    z 0.000000 0.000000 5.145910 
# 
# 
# High freq. dielectric constant tensor:
#      x y z
#    x 1.964640 0.000000 0.000000 
#    y 0.000000 1.976030 0.000000 
#    z 0.000000 0.000000 2.032990 
# 
# From -- ./inp_files/1128.got.cif
#   From: 2010.03.12/outbox.cif.g09.slc.cpg/sg61_1_cif.got.tgz:1128.got - 2010.04.10 19:05:03.
