data_PCOD8249710
_publ_section_title
;
Structure prediction by ZEFSAII (Michael W. Deem and Ramdas Pophale) SiO2 
 PCOD8249710
Probable space group: P B C A
;
_chemical_formula_sum "Si O2"
_cell_formula_units_Z 56
_cell_length_a 11.164835
_cell_length_b 13.815721
_cell_length_c 15.999834
_cell_angle_alpha 90.000000
_cell_angle_beta 90.000000
_cell_angle_gamma 90.000000
_cell_volume 2467.978320
_symmetry_space_group_name_H-M "P B C A"
_symmetry_group_IT_number 61
_symmetry_cell_setting 'orthorhombic'
loop_
_space_group_symop_operation_xyz
x,y,z
1/2-x,-y,1/2+z
1/2+x,1/2-y,-z
-x,1/2+y,1/2-z
-x,-y,-z
1/2+x,y,1/2-z
1/2-x,1/2+y,z
x,1/2-y,1/2+z
loop_
_atom_site_type_symbol
_atom_site_label
_atom_site_fract_x
_atom_site_fract_y
_atom_site_fract_z
Si Si1 0.268509 0.075900 0.322467
Si Si2 0.739400 0.145841 0.506447
Si Si3 0.463514 0.548241 0.913829
Si Si4 0.852122 0.790198 0.386425
Si Si5 0.871511 0.956098 0.516590
Si Si6 0.383552 0.226145 0.847059
Si Si7 0.322264 0.081173 0.710340
O O1 0.306833 0.186871 0.305646
O O2 0.386764 0.024322 0.357509
O O3 0.157139 0.069310 0.386993
O O4 0.226081 0.025598 0.235854
O O5 0.616977 0.142141 0.562114
O O6 0.724018 0.198098 0.417541
O O7 0.775581 0.035335 0.484668
O O8 0.839173 0.202340 0.559614
O O9 0.581352 0.579469 0.863565
O O10 0.500000 0.500000 0.000000
O O11 0.788231 0.850421 0.314155
O O12 0.976782 0.747364 0.352784
O O13 0.863800 0.857215 0.467205
O O14 0.000000 0.000000 0.500000
O O15 0.376492 0.128449 0.793520
#
# Coordination Sequence:
#
# PCOD8249710 Si02
#       7
#     8   8   8   8   8   8   8
#     4  11  24  45  69 104 145 192 238 303 369 431
#     4  11  24  43  70 105 138 187 246 293 369 433
#     4  11  24  46  74  99 145 191 239 298 364 445
#     4  12  26  44  74 105 140 190 247 301 364 444
#     4  11  21  42  72 101 141 187 237 297 360 441
#     4  12  25  44  70 105 147 185 240 306 359 436
#     4  12  26  47  71 106 144 188 243 301 369 432
#
# _framework density 22.690636999999999
#
# number of rings (size 3 to 8) (size 9 to 14) (size 15 to 20)
#    0.000    0.571    5.714    3.429    2.000    3.429 
#    0.000    0.000    0.000    0.000    0.000    0.000 
#    0.000    0.000    0.000    0.000    0.000    0.000 
#
# Total GULP energy -694505.772675 kJ/mol
# GULP energy per Si atom -12401.888798 kJ/mol
# Density = 2.263899 g / cm^3
# Si number density = 22.690637 Si / 1000 Ang^3
#
#
#
# Elastic Constant Matrix: (Units=GPa)
#
#
# Indices 1 2 3 4 5 6 
#
# 1 125.7672 21.8282 36.9525 0.0000 0.0000 0.0000
# 2 21.8282 95.3369 18.7718 0.0000 0.0000 0.0000
# 3 36.9525 18.7718 73.0568 0.0000 0.0000 0.0000
# 4 0.0000 0.0000 0.0000 48.2898 0.0000 0.0000
# 5 0.0000 0.0000 0.0000 0.0000 33.3189 0.0000
# 6 0.0000 0.0000 0.0000 0.0000 0.0000 36.6387
#
#
#
# Elastic Compliance Matrix: (Units=1/GPa)
#
#
# Indices 1 2 3 4 5 6 
#
# 1 0.009488 -0.001293 -0.004467 0.000000 0.000000 0.000000
# 2 -0.001293 0.011224 -0.002230 0.000000 0.000000 0.000000
# 3 -0.004467 -0.002230 0.016520 0.000000 0.000000 0.000000
# 4 0.000000 0.000000 0.000000 0.020708 0.000000 0.000000
# 5 0.000000 0.000000 0.000000 0.000000 0.030013 0.000000
# 6 0.000000 0.000000 0.000000 0.000000 0.000000 0.027294
#
#
# Mechanical properties :
#
#
# Convention : Reuss Voigt Hill
#
# Bulk Modulus (GPa) = 47.05234 49.91843 48.48539
# Shear Modulus (GPa) = 36.15029 38.09006 37.12017
#
# Velocity S-wave (km/s) = 3.99580 4.10160 4.04904
# Velocity P-wave (km/s) = 6.48614 6.66920 6.57830
#
# Compressibility (1/GPa) = 0.02125293
#
# Stress axis : x y z
#
# Youngs Moduli (GPa) = 105.39595 89.09297 60.53133
#
# Poissons Ratio (x) = 0.11518 0.27039
# Poissons Ratio (y) = 0.13626 0.13499
# Poissons Ratio (z) = 0.47079 0.19869
#
# Static dielectric constant tensor:
#      x y z
#    x 4.363650 0.000000 0.000000 
#    y 0.000000 16.386240 0.000000 
#    z 0.000000 0.000000 3.892580 
# 
# 
# High freq. dielectric constant tensor:
#      x y z
#    x 1.902610 0.000000 0.000000 
#    y 0.000000 1.899280 0.000000 
#    z 0.000000 0.000000 1.886040 
# 
# From -- ./inp_files/7531.got.cif
#   From: 2010.03.12/outbox.cif.g09.slc.cpg/sg61_4_cif.got.tgz:7531.got - 2010.04.10 19:05:03.
