data_PCOD8249542
_publ_section_title
;
Structure prediction by ZEFSAII (Michael W. Deem and Ramdas Pophale) SiO2 
 PCOD8249542
Probable space group: P B C A
;
_chemical_formula_sum "Si O2"
_cell_formula_units_Z 40
_cell_length_a 9.594818
_cell_length_b 13.525132
_cell_length_c 12.452941
_cell_angle_alpha 90.000000
_cell_angle_beta 90.000000
_cell_angle_gamma 90.000000
_cell_volume 1616.032848
_symmetry_space_group_name_H-M "P B C A"
_symmetry_group_IT_number 61
_symmetry_cell_setting 'orthorhombic'
loop_
_space_group_symop_operation_xyz
x,y,z
1/2-x,-y,1/2+z
1/2+x,1/2-y,-z
-x,1/2+y,1/2-z
-x,-y,-z
1/2+x,y,1/2-z
1/2-x,1/2+y,z
x,1/2-y,1/2+z
loop_
_atom_site_type_symbol
_atom_site_label
_atom_site_fract_x
_atom_site_fract_y
_atom_site_fract_z
Si Si1 0.792102 0.981336 0.671742
Si Si2 0.162517 0.353757 0.023686
Si Si3 0.489278 0.116250 0.321244
Si Si4 0.523380 0.818698 0.453799
Si Si5 0.974450 0.344235 0.216844
O O1 0.818645 0.952076 0.547424
O O2 0.632993 0.961258 0.705069
O O3 0.879202 0.911413 0.751311
O O4 0.834459 0.095631 0.685380
O O5 0.310484 0.299312 0.038456
O O6 0.102232 0.379701 0.141455
O O7 0.053663 0.285798 0.959943
O O8 0.527970 0.111205 0.448363
O O9 0.439394 0.228592 0.297121
O O10 0.486411 0.869913 0.340326
#
# Coordination Sequence:
#
# PCOD8249542 Si02
#       5
#     8   8   8   8   8
#     4  11  24  44  68 100 136 176 230 282 343 408
#     4  10  23  44  69 103 138 177 234 283 345 407
#     4  10  25  43  64 100 135 173 228 283 336 411
#     4  10  23  42  69  99 137 182 223 284 349 401
#     4  11  24  41  72  95 136 185 222 274 351 408
#
# _framework density 24.75197
#
# number of rings (size 3 to 8) (size 9 to 14) (size 15 to 20)
#    0.000    1.600    2.000    0.600    8.400    2.400 
#    0.000    0.000    0.000    0.000    0.000    0.000 
#    0.000    0.000    0.000    0.000    0.000    0.000 
#
# Total GULP energy -496053.412597 kJ/mol
# GULP energy per Si atom -12401.335315 kJ/mol
# Density = 2.469563 g / cm^3
# Si number density = 24.751970 Si / 1000 Ang^3
#
#
#
# Elastic Constant Matrix: (Units=GPa)
#
#
# Indices 1 2 3 4 5 6 
#
# 1 42.8426 -1.8358 36.4121 0.0000 0.0000 0.0000
# 2 -1.8358 75.6607 14.1785 0.0000 0.0000 0.0000
# 3 36.4121 14.1785 177.7356 0.0000 0.0000 0.0000
# 4 0.0000 0.0000 0.0000 27.7222 0.0000 0.0000
# 5 0.0000 0.0000 0.0000 0.0000 30.4349 0.0000
# 6 0.0000 0.0000 0.0000 0.0000 0.0000 25.1190
#
#
#
# Elastic Compliance Matrix: (Units=1/GPa)
#
#
# Indices 1 2 3 4 5 6 
#
# 1 0.028505 0.001813 -0.005984 0.000000 0.000000 0.000000
# 2 0.001813 0.013533 -0.001451 0.000000 0.000000 0.000000
# 3 -0.005984 -0.001451 0.006968 0.000000 0.000000 0.000000
# 4 0.000000 0.000000 0.000000 0.036072 0.000000 0.000000
# 5 0.000000 0.000000 0.000000 0.000000 0.032857 0.000000
# 6 0.000000 0.000000 0.000000 0.000000 0.000000 0.039810
#
#
# Mechanical properties :
#
#
# Convention : Reuss Voigt Hill
#
# Bulk Modulus (GPa) = 26.48204 43.74981 35.11592
# Shear Modulus (GPa) = 27.53649 33.15419 30.34534
#
# Velocity S-wave (km/s) = 3.33903 3.66383 3.50519
# Velocity P-wave (km/s) = 5.05843 5.96757 5.53171
#
# Compressibility (1/GPa) = 0.03776145
#
# Stress axis : x y z
#
# Youngs Moduli (GPa) = 35.08141 73.89452 143.51147
#
# Poissons Ratio (x) = -0.13398 0.85883
# Poissons Ratio (y) = -0.06361 0.20823
# Poissons Ratio (z) = 0.20994 0.10722
#
# Static dielectric constant tensor:
#      x y z
#    x 4.263370 0.000000 0.000000 
#    y 0.000000 4.139670 0.000000 
#    z 0.000000 0.000000 4.968230 
# 
# 
# High freq. dielectric constant tensor:
#      x y z
#    x 1.981530 0.000000 0.000000 
#    y 0.000000 1.972280 0.000000 
#    z 0.000000 0.000000 2.007030 
# 
# From -- ./inp_files/6969.got.cif
#   From: 2010.03.12/outbox.cif.g09.slc.cpg/sg61_4_cif.got.tgz:6969.got - 2010.04.10 19:05:03.
