data_PCOD8249000
_publ_section_title
;
Structure prediction by ZEFSAII (Michael W. Deem and Ramdas Pophale) SiO2 
 PCOD8249000
Probable space group: P B C A
;
_chemical_formula_sum "Si O2"
_cell_formula_units_Z 56
_cell_length_a 14.839033
_cell_length_b 20.107007
_cell_length_c 8.801487
_cell_angle_alpha 90.000000
_cell_angle_beta 90.000000
_cell_angle_gamma 90.000000
_cell_volume 2626.086830
_symmetry_space_group_name_H-M "P B C A"
_symmetry_group_IT_number 61
_symmetry_cell_setting 'orthorhombic'
loop_
_space_group_symop_operation_xyz
x,y,z
1/2-x,-y,1/2+z
1/2+x,1/2-y,-z
-x,1/2+y,1/2-z
-x,-y,-z
1/2+x,y,1/2-z
1/2-x,1/2+y,z
x,1/2-y,1/2+z
loop_
_atom_site_type_symbol
_atom_site_label
_atom_site_fract_x
_atom_site_fract_y
_atom_site_fract_z
Si Si1 0.627019 0.055588 0.929640
Si Si2 0.387411 0.337185 0.745936
Si Si3 0.320200 0.265728 0.467644
Si Si4 0.350078 0.467960 0.133357
Si Si5 0.747325 0.659487 0.809233
Si Si6 0.498677 0.046632 0.187396
Si Si7 0.217978 0.542401 0.329244
O O1 0.657876 0.120115 0.832354
O O2 0.600741 0.991292 0.819670
O O3 0.530477 0.064208 0.015790
O O4 0.692287 0.043234 0.069520
O O5 0.382779 0.310960 0.573836
O O6 0.476883 0.382865 0.767847
O O7 0.298621 0.382490 0.773340
O O8 0.389007 0.276722 0.863939
O O9 0.255897 0.219374 0.569750
O O10 0.256667 0.311508 0.361112
O O11 0.340480 0.388590 0.162582
O O12 0.433331 0.501926 0.215464
O O13 0.249338 0.493410 0.191222
O O14 0.358577 0.482185 0.951960
#
# Coordination Sequence:
#
# PCOD8249000 Si02
#       7
#     8   8   8   8   8   8   8
#     4   9  19  39  61  95 122 156 191 264 318 361
#     4  11  21  41  60  91 121 162 210 253 305 377
#     4  10  23  37  66  83 119 170 214 249 291 365
#     4  10  21  37  65  95 119 160 200 264 315 364
#     4  10  20  41  62  89 116 162 219 246 292 374
#     4  10  22  36  65  96 132 156 192 266 336 358
#     4  10  20  37  63  90 119 152 211 253 302 364
#
# _framework density 21.324504999999998
#
# number of rings (size 3 to 8) (size 9 to 14) (size 15 to 20)
#    0.000    2.000    2.857    1.714    8.000    0.571 
#    0.000    1.429    0.000    0.000    0.000    0.000 
#    0.000    0.000    0.000    0.000    0.000    0.000 
#
# Total GULP energy -693962.037443 kJ/mol
# GULP energy per Si atom -12392.179240 kJ/mol
# Density = 2.127597 g / cm^3
# Si number density = 21.324505 Si / 1000 Ang^3
#
#
#
# Elastic Constant Matrix: (Units=GPa)
#
#
# Indices 1 2 3 4 5 6 
#
# 1 82.1951 48.4623 23.7400 0.0000 0.0000 0.0000
# 2 48.4623 117.5515 65.1701 0.0000 0.0000 0.0000
# 3 23.7400 65.1701 133.8822 0.0000 0.0000 0.0000
# 4 0.0000 0.0000 0.0000 44.2625 0.0000 0.0000
# 5 0.0000 0.0000 0.0000 0.0000 23.8375 0.0000
# 6 0.0000 0.0000 0.0000 0.0000 0.0000 29.2475
#
#
#
# Elastic Compliance Matrix: (Units=1/GPa)
#
#
# Indices 1 2 3 4 5 6 
#
# 1 0.016099 -0.006923 0.000515 0.000000 0.000000 0.000000
# 2 -0.006923 0.014628 -0.005893 0.000000 0.000000 0.000000
# 3 0.000515 -0.005893 0.010246 0.000000 0.000000 0.000000
# 4 0.000000 0.000000 0.000000 0.022592 0.000000 0.000000
# 5 0.000000 0.000000 0.000000 0.000000 0.041951 0.000000
# 6 0.000000 0.000000 0.000000 0.000000 0.000000 0.034191
#
#
# Mechanical properties :
#
#
# Convention : Reuss Voigt Hill
#
# Bulk Modulus (GPa) = 61.07853 67.59707 64.33780
# Shear Modulus (GPa) = 29.45236 32.55327 31.00281
#
# Velocity S-wave (km/s) = 3.72042 3.91137 3.81709
# Velocity P-wave (km/s) = 6.86731 7.22264 7.04721
#
# Compressibility (1/GPa) = 0.01637236
#
# Stress axis : x y z
#
# Youngs Moduli (GPa) = 62.11573 68.36279 97.59505
#
# Poissons Ratio (x) = 0.47325 -0.05027
# Poissons Ratio (y) = 0.43000 0.57512
# Poissons Ratio (z) = -0.03199 0.40286
#
# Static dielectric constant tensor:
#      x y z
#    x 3.811640 0.000000 0.000000 
#    y 0.000000 3.889390 0.000000 
#    z 0.000000 0.000000 4.430460 
# 
# 
# High freq. dielectric constant tensor:
#      x y z
#    x 1.816380 0.000000 0.000000 
#    y 0.000000 1.833910 0.000000 
#    z 0.000000 0.000000 1.865950 
# 
# From -- ./inp_files/3034.got.cif
#   From: 2010.03.12/outbox.cif.g09.slc.cpg/sg61_2_cif.got.tgz:3034.got - 2010.04.10 19:05:03.
