data_PCOD8249618
_publ_section_title
;
Structure prediction by ZEFSAII (Michael W. Deem and Ramdas Pophale) SiO2 
 PCOD8249618
Probable space group: P B C A
;
_chemical_formula_sum "Si O2"
_cell_formula_units_Z 64
_cell_length_a 9.001460
_cell_length_b 24.336069
_cell_length_c 14.578801
_cell_angle_alpha 90.000000
_cell_angle_beta 90.000000
_cell_angle_gamma 90.000000
_cell_volume 3193.634358
_symmetry_space_group_name_H-M "P B C A"
_symmetry_group_IT_number 61
_symmetry_cell_setting 'orthorhombic'
loop_
_space_group_symop_operation_xyz
x,y,z
1/2-x,-y,1/2+z
1/2+x,1/2-y,-z
-x,1/2+y,1/2-z
-x,-y,-z
1/2+x,y,1/2-z
1/2-x,1/2+y,z
x,1/2-y,1/2+z
loop_
_atom_site_type_symbol
_atom_site_label
_atom_site_fract_x
_atom_site_fract_y
_atom_site_fract_z
Si Si1 0.423173 0.972423 0.641379
Si Si2 0.968792 0.298200 0.423811
Si Si3 0.360434 0.890501 0.943342
Si Si4 0.126961 0.215721 0.549331
Si Si5 0.259554 0.168398 0.270482
Si Si6 0.931913 0.078530 0.969334
Si Si7 0.010749 0.254044 0.730382
Si Si8 0.397137 0.067776 0.181656
O O1 0.468232 0.932034 0.558969
O O2 0.246817 0.968718 0.660151
O O3 0.514810 0.957726 0.732462
O O4 0.461969 0.034273 0.610469
O O5 0.803091 0.279627 0.446153
O O6 0.983063 0.363554 0.428616
O O7 0.073971 0.270618 0.498940
O O8 0.021410 0.278865 0.324488
O O9 0.261219 0.867226 0.860865
O O10 0.491091 0.930051 0.905800
O O11 0.429882 0.839172 0.998497
O O12 0.244296 0.924004 0.006219
O O13 0.061871 0.212641 0.651550
O O14 0.344931 0.225267 0.290805
O O15 0.102961 0.188690 0.230469
O O16 0.345098 0.130530 0.197505
#
# Coordination Sequence:
#
# PCOD8249618 Si02
#       8
#     8   8   8   8   8   8   8   8
#     4  11  23  43  66  91 120 159 213 268 317 366
#     4  11  24  41  61  93 125 172 205 250 312 380
#     4  11  22  41  64  96 124 160 209 263 311 376
#     4  11  24  39  63  91 134 165 206 253 310 383
#     4  12  20  37  61  95 126 159 211 254 304 369
#     4  10  24  44  63  87 127 163 206 265 320 365
#     4  12  23  38  59  93 133 170 204 250 313 382
#     4  12  22  39  70  94 118 162 215 264 314 366
#
# _framework density 20.039864999999999
#
# number of rings (size 3 to 8) (size 9 to 14) (size 15 to 20)
#    0.000    0.750    6.250    1.500    1.750    0.500 
#    4.500    0.000    0.000    0.000    0.000    0.000 
#    0.000    0.000    0.000    0.000    0.000    0.000 
#
# Total GULP energy -793774.928266 kJ/mol
# GULP energy per Si atom -12402.733254 kJ/mol
# Density = 1.999425 g / cm^3
# Si number density = 20.039865 Si / 1000 Ang^3
#
#
#
# Elastic Constant Matrix: (Units=GPa)
#
#
# Indices 1 2 3 4 5 6 
#
# 1 80.9915 43.2836 39.1710 0.0000 0.0000 0.0000
# 2 43.2836 89.6927 45.1722 0.0000 0.0000 0.0000
# 3 39.1710 45.1722 90.1994 0.0000 0.0000 0.0000
# 4 0.0000 0.0000 0.0000 30.0069 0.0000 0.0000
# 5 0.0000 0.0000 0.0000 0.0000 24.8571 0.0000
# 6 0.0000 0.0000 0.0000 0.0000 0.0000 26.6502
#
#
#
# Elastic Compliance Matrix: (Units=1/GPa)
#
#
# Indices 1 2 3 4 5 6 
#
# 1 0.017976 -0.006343 -0.004630 0.000000 0.000000 0.000000
# 2 -0.006343 0.017148 -0.005833 0.000000 0.000000 0.000000
# 3 -0.004630 -0.005833 0.016018 0.000000 0.000000 0.000000
# 4 0.000000 0.000000 0.000000 0.033326 0.000000 0.000000
# 5 0.000000 0.000000 0.000000 0.000000 0.040230 0.000000
# 6 0.000000 0.000000 0.000000 0.000000 0.000000 0.037523
#
#
# Mechanical properties :
#
#
# Convention : Reuss Voigt Hill
#
# Bulk Modulus (GPa) = 57.04411 57.34857 57.19634
# Shear Modulus (GPa) = 24.79214 25.18663 24.98939
#
# Velocity S-wave (km/s) = 3.52112 3.54902 3.53510
# Velocity P-wave (km/s) = 6.71254 6.74340 6.72799
#
# Compressibility (1/GPa) = 0.01753029
#
# Stress axis : x y z
#
# Youngs Moduli (GPa) = 55.62955 58.31585 62.42817
#
# Poissons Ratio (x) = 0.36990 0.28903
# Poissons Ratio (y) = 0.35286 0.36415
# Poissons Ratio (z) = 0.25755 0.34017
#
# Static dielectric constant tensor:
#      x y z
#    x 3.768980 0.000000 0.000000 
#    y 0.000000 3.473530 0.000000 
#    z 0.000000 0.000000 3.771590 
# 
# 
# High freq. dielectric constant tensor:
#      x y z
#    x 1.793720 0.000000 0.000000 
#    y 0.000000 1.766380 0.000000 
#    z 0.000000 0.000000 1.783260 
# 
# From -- ./inp_files/7248.got.cif
#   From: 2010.03.12/outbox.cif.g09.slc.cpg/sg61_4_cif.got.tgz:7248.got - 2010.04.10 19:05:03.
