data_PCOD8249977
_publ_section_title
;
Structure prediction by ZEFSAII (Michael W. Deem and Ramdas Pophale) SiO2 
 PCOD8249977
Probable space group: P N M A
;
_chemical_formula_sum "Si O2"
_cell_formula_units_Z 48
_cell_length_a 15.547230
_cell_length_b 9.116186
_cell_length_c 23.268889
_cell_angle_alpha 90.000000
_cell_angle_beta 90.000000
_cell_angle_gamma 90.000000
_cell_volume 3297.933156
_symmetry_space_group_name_H-M "P N M A"
_symmetry_group_IT_number 62
_symmetry_cell_setting 'orthorhombic'
loop_
_space_group_symop_operation_xyz
x,y,z
1/2-x,-y,1/2+z
1/2+x,1/2-y,1/2-z
-x,1/2+y,-z
-x,-y,-z
1/2+x,y,1/2-z
1/2-x,1/2+y,1/2+z
x,1/2-y,z
loop_
_atom_site_type_symbol
_atom_site_label
_atom_site_fract_x
_atom_site_fract_y
_atom_site_fract_z
Si Si1 0.548032 0.078664 0.709515
Si Si2 0.870583 0.418477 0.976782
Si Si3 0.775740 0.585308 0.884372
Si Si4 0.714752 0.422687 0.782562
Si Si5 0.378476 0.585657 0.722903
Si Si6 0.445130 0.918052 0.421235
O O1 0.525659 0.250000 0.711934
O O2 0.631002 0.037373 0.746402
O O3 0.565222 0.029446 0.644211
O O4 0.468277 0.992010 0.736898
O O5 0.843469 0.250000 0.981976
O O6 0.794354 0.504559 0.944343
O O7 0.957059 0.439195 0.940518
O O8 0.881722 0.483576 0.040410
O O9 0.741690 0.750000 0.896652
O O10 0.705525 0.494363 0.846516
O O11 0.863610 0.591293 0.846302
O O12 0.728819 0.250000 0.788753
O O13 0.798264 0.493114 0.750320
O O14 0.379253 0.750000 0.748930
O O15 0.416450 0.750000 0.428764
#
# Coordination Sequence:
#
# PCOD8249977 Si02
#       6
#     8   8   8   8   8   8
#     4  10  18  29  45  62  84 115 145 176 211 247
#     4  10  17  25  40  56  78 110 141 172 201 242
#     4   9  17  28  40  56  78 108 138 169 208 241
#     4   9  17  28  43  61  81 108 143 177 210 249
#     4   9  18  28  41  59  82 112 140 171 212 248
#     4   9  17  26  36  55  82 108 138 170 202 245
#
# _framework density 14.55457
#
# number of rings (size 3 to 8) (size 9 to 14) (size 15 to 20)
#    1.000    1.667    1.667    1.500    0.000    2.667 
#    0.000    0.000    0.000    0.000    0.000    0.000 
#    0.000    1.333    0.000    4.000    0.000    5.500 
#
# Total GULP energy -594827.341549 kJ/mol
# GULP energy per Si atom -12392.236282 kJ/mol
# Density = 1.452144 g / cm^3
# Si number density = 14.554570 Si / 1000 Ang^3
#
#
#
# Elastic Constant Matrix: (Units=GPa)
#
#
# Indices 1 2 3 4 5 6 
#
# 1 53.8201 28.0980 3.5702 0.0000 0.0000 0.0000
# 2 28.0980 78.8163 2.0943 0.0000 0.0000 0.0000
# 3 3.5702 2.0943 0.2668 0.0000 0.0000 0.0000
# 4 0.0000 0.0000 0.0000 21.0141 0.0000 0.0000
# 5 0.0000 0.0000 0.0000 0.0000 22.3906 0.0000
# 6 0.0000 0.0000 0.0000 0.0000 0.0000 16.8992
#
#
#
# Elastic Compliance Matrix: (Units=1/GPa)
#
#
# Indices 1 2 3 4 5 6 
#
# 1 0.165298 -0.000201 -2.210179 0.000000 0.000000 0.000000
# 2 -0.000201 0.016031 -0.123138 0.000000 0.000000 0.000000
# 3 -2.210179 -0.123138 34.287593 0.000000 0.000000 0.000000
# 4 0.000000 0.000000 0.000000 0.047587 0.000000 0.000000
# 5 0.000000 0.000000 0.000000 0.000000 0.044662 0.000000
# 6 0.000000 0.000000 0.000000 0.000000 0.000000 0.059174
#
#
# Mechanical properties :
#
#
# Convention : Reuss Voigt Hill
#
# Bulk Modulus (GPa) = 0.03355 22.26978 11.15167
# Shear Modulus (GPa) = 0.10158 18.67018 9.38588
#
# Velocity S-wave (km/s) = 0.26447 3.58546 2.54219
# Velocity P-wave (km/s) = 0.34112 5.69867 4.03678
#
# Compressibility (1/GPa) = 29.80188538
#
# Stress axis : x y z
#
# Youngs Moduli (GPa) = 6.04969 62.37753 0.02917
#
# Poissons Ratio (x) = 0.01255 0.06446
# Poissons Ratio (y) = 0.00122 0.00359
# Poissons Ratio (z) = 13.37091 7.68103
#
# Static dielectric constant tensor:
#      x y z
#    x 2.465680 0.000000 0.000000 
#    y 0.000000 2.919380 0.000000 
#    z 0.000000 0.000000 2.598960 
# 
# 
# High freq. dielectric constant tensor:
#      x y z
#    x 1.514450 0.000000 0.000000 
#    y 0.000000 1.573850 0.000000 
#    z 0.000000 0.000000 1.526070 
# 
# From -- ./inp_files/29540.got.cif
#   From: 2010.03.12/outbox.cif.g09.slc.cpg/sg62_15_cif.got.tgz:29540.got - 2010.04.10 19:12:36.
