data_PCOD8249554
_publ_section_title
;
Structure prediction by ZEFSAII (Michael W. Deem and Ramdas Pophale) SiO2 
 PCOD8249554
Probable space group: P B C A
;
_chemical_formula_sum "Si O2"
_cell_formula_units_Z 64
_cell_length_a 9.922309
_cell_length_b 28.984482
_cell_length_c 9.366249
_cell_angle_alpha 90.000000
_cell_angle_beta 90.000000
_cell_angle_gamma 90.000000
_cell_volume 2693.667523
_symmetry_space_group_name_H-M "P B C A"
_symmetry_group_IT_number 61
_symmetry_cell_setting 'orthorhombic'
loop_
_space_group_symop_operation_xyz
x,y,z
1/2-x,-y,1/2+z
1/2+x,1/2-y,-z
-x,1/2+y,1/2-z
-x,-y,-z
1/2+x,y,1/2-z
1/2-x,1/2+y,z
x,1/2-y,1/2+z
loop_
_atom_site_type_symbol
_atom_site_label
_atom_site_fract_x
_atom_site_fract_y
_atom_site_fract_z
Si Si1 0.228174 0.309114 0.368594
Si Si2 0.241780 0.730761 0.161596
Si Si3 0.792844 0.459199 0.023589
Si Si4 0.416656 0.091544 0.361658
Si Si5 0.936862 0.896623 0.139802
Si Si6 0.020908 0.176835 0.297619
Si Si7 0.165066 0.462472 0.762597
Si Si8 0.537115 0.876480 0.061561
O O1 0.225508 0.270544 0.493162
O O2 0.224936 0.281862 0.218631
O O3 0.102850 0.343287 0.388297
O O4 0.360592 0.339897 0.372008
O O5 0.083765 0.719226 0.183241
O O6 0.336521 0.692945 0.237435
O O7 0.678520 0.433871 0.114540
O O8 0.862348 0.497346 0.123311
O O9 0.894732 0.418649 0.974238
O O10 0.734242 0.482696 0.880909
O O11 0.439886 0.090875 0.533764
O O12 0.443665 0.143140 0.310103
O O13 0.521782 0.058121 0.280927
O O14 0.263307 0.076176 0.331834
O O15 0.964254 0.901281 0.307489
O O16 0.054128 0.150858 0.447544
#
# Coordination Sequence:
#
# PCOD8249554 Si02
#       8
#     8   8   8   8   8   8   8   8
#     4  10  24  43  62  99 133 170 216 283 323 392
#     4  11  25  41  70  96 134 170 225 271 330 387
#     4  10  24  43  63  99 135 171 219 284 329 398
#     4  11  23  45  69  94 134 180 220 271 336 402
#     4  10  23  43  67  90 138 174 223 267 342 394
#     4  11  23  45  68  95 132 179 218 270 330 401
#     4  11  25  41  70  98 134 172 227 276 334 395
#     4  10  23  44  65  92 138 173 222 271 335 392
#
# _framework density 23.759429999999998
#
# number of rings (size 3 to 8) (size 9 to 14) (size 15 to 20)
#    0.000    1.500    2.500    0.750    7.000    4.500 
#    4.500    0.000    0.000    0.000    0.000    0.000 
#    0.000    0.000    0.000    0.000    0.000    0.000 
#
# Total GULP energy -793482.230698 kJ/mol
# GULP energy per Si atom -12398.159855 kJ/mol
# Density = 2.370535 g / cm^3
# Si number density = 23.759430 Si / 1000 Ang^3
#
#
#
# Elastic Constant Matrix: (Units=GPa)
#
#
# Indices 1 2 3 4 5 6 
#
# 1 23.5481 -7.4916 15.3908 0.0000 0.0000 0.0000
# 2 -7.4916 71.4655 2.3160 0.0000 0.0000 0.0000
# 3 15.3908 2.3160 69.5902 0.0000 0.0000 0.0000
# 4 0.0000 0.0000 0.0000 50.3259 0.0000 0.0000
# 5 0.0000 0.0000 0.0000 0.0000 29.3182 0.0000
# 6 0.0000 0.0000 0.0000 0.0000 0.0000 12.3045
#
#
#
# Elastic Compliance Matrix: (Units=1/GPa)
#
#
# Indices 1 2 3 4 5 6 
#
# 1 0.051956 0.005825 -0.011685 0.000000 0.000000 0.000000
# 2 0.005825 0.014661 -0.001776 0.000000 0.000000 0.000000
# 3 -0.011685 -0.001776 0.017013 0.000000 0.000000 0.000000
# 4 0.000000 0.000000 0.000000 0.019870 0.000000 0.000000
# 5 0.000000 0.000000 0.000000 0.000000 0.034109 0.000000
# 6 0.000000 0.000000 0.000000 0.000000 0.000000 0.081271
#
#
# Mechanical properties :
#
#
# Convention : Reuss Voigt Hill
#
# Bulk Modulus (GPa) = 14.62865 20.55936 17.59400
# Shear Modulus (GPa) = 19.45992 28.68230 24.07111
#
# Velocity S-wave (km/s) = 2.86499 3.47824 3.18640
# Velocity P-wave (km/s) = 4.13698 4.98024 4.57807
#
# Compressibility (1/GPa) = 0.06835899
#
# Stress axis : x y z
#
# Youngs Moduli (GPa) = 19.24690 68.20835 58.77800
#
# Poissons Ratio (x) = -0.39732 0.68680
# Poissons Ratio (y) = -0.11212 0.10440
# Poissons Ratio (z) = 0.22489 0.12115
#
# Static dielectric constant tensor:
#      x y z
#    x 4.140300 0.000000 0.000000 
#    y 0.000000 4.113830 0.000000 
#    z 0.000000 0.000000 4.381400 
# 
# 
# High freq. dielectric constant tensor:
#      x y z
#    x 1.926630 0.000000 0.000000 
#    y 0.000000 1.937170 0.000000 
#    z 0.000000 0.000000 1.953190 
# 
# From -- ./inp_files/2430.got.cif
#   From: 2010.03.12/outbox.cif.g09.slc.cpg/sg61_2_cif.got.tgz:2430.got - 2010.04.10 19:05:03.
