data_PCOD8249597
_publ_section_title
;
Structure prediction by ZEFSAII (Michael W. Deem and Ramdas Pophale) SiO2 
 PCOD8249597
Probable space group: P B C A
;
_chemical_formula_sum "Si O2"
_cell_formula_units_Z 64
_cell_length_a 32.367528
_cell_length_b 7.987566
_cell_length_c 11.256816
_cell_angle_alpha 90.000000
_cell_angle_beta 90.000000
_cell_angle_gamma 90.000000
_cell_volume 2910.312063
_symmetry_space_group_name_H-M "P B C A"
_symmetry_group_IT_number 61
_symmetry_cell_setting 'orthorhombic'
loop_
_space_group_symop_operation_xyz
x,y,z
1/2-x,-y,1/2+z
1/2+x,1/2-y,-z
-x,1/2+y,1/2-z
-x,-y,-z
1/2+x,y,1/2-z
1/2-x,1/2+y,z
x,1/2-y,1/2+z
loop_
_atom_site_type_symbol
_atom_site_label
_atom_site_fract_x
_atom_site_fract_y
_atom_site_fract_z
Si Si1 0.936581 0.461448 0.501182
Si Si2 0.807038 0.964539 0.125320
Si Si3 0.892648 0.535729 0.742213
Si Si4 0.111528 0.663521 0.707331
Si Si5 0.044015 0.315319 0.087714
Si Si6 0.543969 0.886332 0.091829
Si Si7 0.750636 0.726004 0.240228
Si Si8 0.694320 0.968820 0.354979
O O1 0.921835 0.507725 0.630882
O O2 0.899037 0.435158 0.411900
O O3 0.962658 0.620873 0.452249
O O4 0.958187 0.277593 0.505306
O O5 0.847841 0.903306 0.197257
O O6 0.771104 0.825347 0.129483
O O7 0.787912 0.124389 0.190416
O O8 0.819342 0.009913 0.991326
O O9 0.888013 0.362628 0.814648
O O10 0.915813 0.670765 0.826423
O O11 0.080511 0.619165 0.813434
O O12 0.157702 0.597705 0.731235
O O13 0.001831 0.380160 0.152859
O O14 0.050789 0.439064 0.976092
O O15 0.732915 0.842977 0.344551
O O16 0.789735 0.640339 0.300907
#
# Coordination Sequence:
#
# PCOD8249597 Si02
#       8
#     8   8   8   8   8   8   8   8
#     4  11  24  44  69  97 135 183 219 279 344 396
#     4  11  22  41  65  93 133 166 221 268 330 404
#     4  11  24  43  68 100 132 176 225 275 336 413
#     4  11  23  43  68  95 137 177 218 277 342 403
#     4  11  25  44  68  97 136 176 232 282 332 398
#     4  10  25  46  66  99 133 180 229 279 338 401
#     4  10  24  40  65  98 126 170 220 273 326 405
#     4  11  22  43  66  95 131 175 214 273 342 392
#
# _framework density 21.990770000000001
#
# number of rings (size 3 to 8) (size 9 to 14) (size 15 to 20)
#    0.000    1.250    3.750    1.125    3.500    3.000 
#    0.000    1.250    0.000    0.000    0.000    0.000 
#    0.000    0.000    0.000    0.000    0.000    0.000 
#
# Total GULP energy -793005.066326 kJ/mol
# GULP energy per Si atom -12390.704161 kJ/mol
# Density = 2.194072 g / cm^3
# Si number density = 21.990770 Si / 1000 Ang^3
#
#
#
# Elastic Constant Matrix: (Units=GPa)
#
#
# Indices 1 2 3 4 5 6 
#
# 1 117.1594 25.0317 35.9688 0.0000 0.0000 0.0000
# 2 25.0317 91.4318 31.3824 0.0000 0.0000 0.0000
# 3 35.9688 31.3824 83.0097 0.0000 0.0000 0.0000
# 4 0.0000 0.0000 0.0000 20.3665 0.0000 0.0000
# 5 0.0000 0.0000 0.0000 0.0000 36.1677 0.0000
# 6 0.0000 0.0000 0.0000 0.0000 0.0000 31.5797
#
#
#
# Elastic Compliance Matrix: (Units=1/GPa)
#
#
# Indices 1 2 3 4 5 6 
#
# 1 0.010007 -0.001438 -0.003792 0.000000 0.000000 0.000000
# 2 -0.001438 0.012775 -0.004206 0.000000 0.000000 0.000000
# 3 -0.003792 -0.004206 0.015280 0.000000 0.000000 0.000000
# 4 0.000000 0.000000 0.000000 0.049100 0.000000 0.000000
# 5 0.000000 0.000000 0.000000 0.000000 0.027649 0.000000
# 6 0.000000 0.000000 0.000000 0.000000 0.000000 0.031666
#
#
# Mechanical properties :
#
#
# Convention : Reuss Voigt Hill
#
# Bulk Modulus (GPa) = 52.11545 52.92963 52.52254
# Shear Modulus (GPa) = 29.11263 30.90397 30.00830
#
# Velocity S-wave (km/s) = 3.64243 3.75282 3.69804
# Velocity P-wave (km/s) = 6.43739 6.54977 6.49382
#
# Compressibility (1/GPa) = 0.01918817
#
# Stress axis : x y z
#
# Youngs Moduli (GPa) = 99.93091 78.28053 65.44347
#
# Poissons Ratio (x) = 0.11256 0.24819
# Poissons Ratio (y) = 0.14369 0.27528
# Poissons Ratio (z) = 0.37898 0.32928
#
# Static dielectric constant tensor:
#      x y z
#    x 3.993860 0.000000 0.000000 
#    y 0.000000 4.165260 0.000000 
#    z 0.000000 0.000000 3.646300 
# 
# 
# High freq. dielectric constant tensor:
#      x y z
#    x 1.879860 0.000000 0.000000 
#    y 0.000000 1.872880 0.000000 
#    z 0.000000 0.000000 1.842910 
# 
# From -- ./inp_files/6780.got.cif
#   From: 2010.03.12/outbox.cif.g09.slc.cpg/sg61_4_cif.got.tgz:6780.got - 2010.04.10 19:05:03.
