data_PCOD8249707
_publ_section_title
;
Structure prediction by ZEFSAII (Michael W. Deem and Ramdas Pophale) SiO2 
 PCOD8249707
Probable space group: P B C A
;
_chemical_formula_sum "Si O2"
_cell_formula_units_Z 64
_cell_length_a 14.681236
_cell_length_b 21.241247
_cell_length_c 9.119188
_cell_angle_alpha 90.000000
_cell_angle_beta 90.000000
_cell_angle_gamma 90.000000
_cell_volume 2843.798352
_symmetry_space_group_name_H-M "P B C A"
_symmetry_group_IT_number 61
_symmetry_cell_setting 'orthorhombic'
loop_
_space_group_symop_operation_xyz
x,y,z
1/2-x,-y,1/2+z
1/2+x,1/2-y,-z
-x,1/2+y,1/2-z
-x,-y,-z
1/2+x,y,1/2-z
1/2-x,1/2+y,z
x,1/2-y,1/2+z
loop_
_atom_site_type_symbol
_atom_site_label
_atom_site_fract_x
_atom_site_fract_y
_atom_site_fract_z
Si Si1 0.550734 0.826966 0.826321
Si Si2 0.633851 0.373179 0.212647
Si Si3 0.807462 0.741465 0.536393
Si Si4 0.647597 0.481531 0.415120
Si Si5 0.011728 0.215507 0.619868
Si Si6 0.746878 0.830100 0.775069
Si Si7 0.470829 0.956885 0.803559
Si Si8 0.335578 0.556535 0.074969
O O1 0.529910 0.767369 0.725509
O O2 0.645268 0.857144 0.771925
O O3 0.475927 0.880954 0.806379
O O4 0.560202 0.808751 0.999030
O O5 0.676449 0.413796 0.346776
O O6 0.540855 0.343152 0.276820
O O7 0.695977 0.315298 0.156222
O O8 0.621805 0.421672 0.078888
O O9 0.908335 0.753800 0.476809
O O10 0.772737 0.804329 0.615084
O O11 0.745755 0.725817 0.396402
O O12 0.595648 0.478225 0.567449
O O13 0.572672 0.513887 0.307252
O O14 0.741678 0.518385 0.442820
O O15 0.816938 0.883614 0.820998
O O16 0.417685 0.980243 0.656758
#
# Coordination Sequence:
#
# PCOD8249707 Si02
#       8
#     8   8   8   8   8   8   8   8
#     4  12  23  41  64 101 136 174 222 275 345 406
#     4  11  23  40  68  95 133 177 225 279 341 398
#     4  11  21  41  63  96 131 175 220 274 338 407
#     4  11  24  46  68  98 131 182 234 276 338 404
#     4  12  22  40  67  97 134 176 220 278 346 405
#     4  11  23  39  64  96 137 171 222 278 333 410
#     4  11  24  43  71  94 137 180 223 284 335 402
#     4  11  24  44  67  97 134 177 230 283 332 407
#
# _framework density 22.505112
#
# number of rings (size 3 to 8) (size 9 to 14) (size 15 to 20)
#    0.000    0.750    5.000    3.750    0.000    0.500 
#    0.000    0.000    0.000    0.000    0.000    0.000 
#    0.000    0.000    0.000    0.000    0.000    0.000 
#
# Total GULP energy -793179.120664 kJ/mol
# GULP energy per Si atom -12393.423760 kJ/mol
# Density = 2.245389 g / cm^3
# Si number density = 22.505112 Si / 1000 Ang^3
#
#
#
# Elastic Constant Matrix: (Units=GPa)
#
#
# Indices 1 2 3 4 5 6 
#
# 1 76.8395 10.1762 34.5351 0.0000 0.0000 0.0000
# 2 10.1762 53.7184 19.8358 0.0000 0.0000 0.0000
# 3 34.5351 19.8358 76.1865 0.0000 0.0000 0.0000
# 4 0.0000 0.0000 0.0000 41.2465 0.0000 0.0000
# 5 0.0000 0.0000 0.0000 0.0000 27.4467 0.0000
# 6 0.0000 0.0000 0.0000 0.0000 0.0000 23.6514
#
#
#
# Elastic Compliance Matrix: (Units=1/GPa)
#
#
# Indices 1 2 3 4 5 6 
#
# 1 0.016352 -0.000399 -0.007308 0.000000 0.000000 0.000000
# 2 -0.000399 0.020605 -0.005184 0.000000 0.000000 0.000000
# 3 -0.007308 -0.005184 0.017788 0.000000 0.000000 0.000000
# 4 0.000000 0.000000 0.000000 0.024244 0.000000 0.000000
# 5 0.000000 0.000000 0.000000 0.000000 0.036434 0.000000
# 6 0.000000 0.000000 0.000000 0.000000 0.000000 0.042281
#
#
# Mechanical properties :
#
#
# Convention : Reuss Voigt Hill
#
# Bulk Modulus (GPa) = 34.52699 37.31539 35.92119
# Shear Modulus (GPa) = 25.88778 27.94874 26.91826
#
# Velocity S-wave (km/s) = 3.39530 3.52786 3.46221
# Velocity P-wave (km/s) = 5.54490 5.76292 5.65496
#
# Compressibility (1/GPa) = 0.02896285
#
# Stress axis : x y z
#
# Youngs Moduli (GPa) = 61.15599 48.53103 56.21718
#
# Poissons Ratio (x) = 0.01936 0.41085
# Poissons Ratio (y) = 0.02440 0.29142
# Poissons Ratio (z) = 0.44694 0.25158
#
# Static dielectric constant tensor:
#      x y z
#    x 3.903030 0.000000 0.000000 
#    y 0.000000 4.084080 0.000000 
#    z 0.000000 0.000000 4.282720 
# 
# 
# High freq. dielectric constant tensor:
#      x y z
#    x 1.872420 0.000000 0.000000 
#    y 0.000000 1.883750 0.000000 
#    z 0.000000 0.000000 1.899600 
# 
# From -- ./inp_files/3714.got.cif
#   From: 2010.03.12/outbox.cif.g09.slc.cpg/sg61_2_cif.got.tgz:3714.got - 2010.04.10 19:05:03.
