data_PCOD8249381
_publ_section_title
;
Structure prediction by ZEFSAII (Michael W. Deem and Ramdas Pophale) SiO2 
 PCOD8249381
Probable space group: P B C A
;
_chemical_formula_sum "Si O2"
_cell_formula_units_Z 56
_cell_length_a 14.151150
_cell_length_b 13.748203
_cell_length_c 14.919704
_cell_angle_alpha 90.000000
_cell_angle_beta 90.000000
_cell_angle_gamma 90.000000
_cell_volume 2902.671425
_symmetry_space_group_name_H-M "P B C A"
_symmetry_group_IT_number 61
_symmetry_cell_setting 'orthorhombic'
loop_
_space_group_symop_operation_xyz
x,y,z
1/2-x,-y,1/2+z
1/2+x,1/2-y,-z
-x,1/2+y,1/2-z
-x,-y,-z
1/2+x,y,1/2-z
1/2-x,1/2+y,z
x,1/2-y,1/2+z
loop_
_atom_site_type_symbol
_atom_site_label
_atom_site_fract_x
_atom_site_fract_y
_atom_site_fract_z
Si Si1 0.764842 0.848836 0.256329
Si Si2 0.689996 0.770379 0.442494
Si Si3 0.992628 0.717165 0.011537
Si Si4 0.366926 0.434971 0.539795
Si Si5 0.058435 0.102224 0.651202
Si Si6 0.812608 0.796822 0.610358
Si Si7 0.360475 0.007325 0.841856
O O1 0.715267 0.817459 0.348370
O O2 0.878228 0.862529 0.265428
O O3 0.752113 0.769121 0.178002
O O4 0.714028 0.947439 0.227117
O O5 0.580575 0.790166 0.472663
O O6 0.703368 0.652842 0.429834
O O7 0.750510 0.818361 0.522059
O O8 0.907005 0.755475 0.072251
O O9 0.024437 0.606304 0.039599
O O10 0.963975 0.699932 0.907118
O O11 0.367463 0.530181 0.600645
O O12 0.332688 0.460220 0.440917
O O13 0.965444 0.045498 0.684550
O O14 0.846648 0.891881 0.664271
#
# Coordination Sequence:
#
# PCOD8249381 Si02
#       7
#     8   8   8   8   8   8   8
#     4  12  26  35  60  98 124 156 209 264 303 366
#     4  10  22  39  60  91 120 154 210 255 302 356
#     4   9  18  35  64  82 114 162 199 247 300 369
#     4   9  17  37  62  82 110 157 205 241 295 364
#     4  11  19  39  63  89 115 167 215 244 306 386
#     4  12  21  42  62  89 125 163 200 252 320 361
#     4  11  21  39  60  88 119 162 210 249 302 374
#
# _framework density 19.292574999999999
#
# number of rings (size 3 to 8) (size 9 to 14) (size 15 to 20)
#    0.857    0.571    5.714    0.857    4.000    0.000 
#    0.000    0.000    0.000    0.857    0.000    0.000 
#    0.000    0.000    0.000    0.000    0.000    0.000 
#
# Total GULP energy -693830.624568 kJ/mol
# GULP energy per Si atom -12389.832582 kJ/mol
# Density = 1.924866 g / cm^3
# Si number density = 19.292575 Si / 1000 Ang^3
#
#
#
# Elastic Constant Matrix: (Units=GPa)
#
#
# Indices 1 2 3 4 5 6 
#
# 1 110.6487 26.8793 41.0971 0.0000 0.0000 0.0000
# 2 26.8793 40.8365 15.2968 0.0000 0.0000 0.0000
# 3 41.0971 15.2968 81.6100 0.0000 0.0000 0.0000
# 4 0.0000 0.0000 0.0000 22.8395 0.0000 0.0000
# 5 0.0000 0.0000 0.0000 0.0000 30.8815 0.0000
# 6 0.0000 0.0000 0.0000 0.0000 0.0000 25.6929
#
#
#
# Elastic Compliance Matrix: (Units=1/GPa)
#
#
# Indices 1 2 3 4 5 6 
#
# 1 0.012458 -0.006292 -0.005094 0.000000 0.000000 0.000000
# 2 -0.006292 0.029515 -0.002364 0.000000 0.000000 0.000000
# 3 -0.005094 -0.002364 0.015262 0.000000 0.000000 0.000000
# 4 0.000000 0.000000 0.000000 0.043784 0.000000 0.000000
# 5 0.000000 0.000000 0.000000 0.000000 0.032382 0.000000
# 6 0.000000 0.000000 0.000000 0.000000 0.000000 0.038921
#
#
# Mechanical properties :
#
#
# Convention : Reuss Voigt Hill
#
# Bulk Modulus (GPa) = 33.63056 44.40463 39.01759
# Shear Modulus (GPa) = 23.83977 25.87089 24.85533
#
# Velocity S-wave (km/s) = 3.51906 3.66591 3.59323
# Velocity P-wave (km/s) = 5.82936 6.40195 6.12235
#
# Compressibility (1/GPa) = 0.02973486
#
# Stress axis : x y z
#
# Youngs Moduli (GPa) = 80.26821 33.88133 65.52275
#
# Poissons Ratio (x) = 0.21318 0.33380
# Poissons Ratio (y) = 0.50504 0.15488
# Poissons Ratio (z) = 0.40892 0.08009
#
# Static dielectric constant tensor:
#      x y z
#    x 3.475590 0.000000 0.000000 
#    y 0.000000 3.308950 0.000000 
#    z 0.000000 0.000000 3.327560 
# 
# 
# High freq. dielectric constant tensor:
#      x y z
#    x 1.749110 0.000000 0.000000 
#    y 0.000000 1.724950 0.000000 
#    z 0.000000 0.000000 1.738680 
# 
# From -- ./inp_files/7908.got.cif
#   From: 2010.03.12/outbox.cif.g09.slc.cpg/sg61_4_cif.got.tgz:7908.got - 2010.04.10 19:05:03.
