data_PCOD8249921
_publ_section_title
;
Structure prediction by ZEFSAII (Michael W. Deem and Ramdas Pophale) SiO2 
 PCOD8249921
Probable space group: P B C A
;
_chemical_formula_sum "Si O2"
_cell_formula_units_Z 40
_cell_length_a 13.693939
_cell_length_b 12.831656
_cell_length_c 9.242471
_cell_angle_alpha 90.000000
_cell_angle_beta 90.000000
_cell_angle_gamma 90.000000
_cell_volume 1624.049244
_symmetry_space_group_name_H-M "P B C A"
_symmetry_group_IT_number 61
_symmetry_cell_setting 'orthorhombic'
loop_
_space_group_symop_operation_xyz
x,y,z
1/2-x,-y,1/2+z
1/2+x,1/2-y,-z
-x,1/2+y,1/2-z
-x,-y,-z
1/2+x,y,1/2-z
1/2-x,1/2+y,z
x,1/2-y,1/2+z
loop_
_atom_site_type_symbol
_atom_site_label
_atom_site_fract_x
_atom_site_fract_y
_atom_site_fract_z
Si Si1 0.521944 0.177241 0.039643
Si Si2 0.007440 0.878316 0.213955
Si Si3 0.128416 0.550436 0.220743
Si Si4 0.273398 0.124679 0.694954
Si Si5 0.734697 0.300394 0.601956
O O1 0.499904 0.295626 0.084589
O O2 0.627651 0.146304 0.107296
O O3 0.471896 0.827343 0.134080
O O4 0.438430 0.099000 0.094876
O O5 0.118616 0.914794 0.229371
O O6 0.941512 0.979346 0.177546
O O7 0.210323 0.476105 0.150269
O O8 0.180812 0.638112 0.313981
O O9 0.270766 0.207620 0.563410
O O10 0.228933 0.183179 0.835375
#
# Coordination Sequence:
#
# PCOD8249921 Si02
#       5
#     8   8   8   8   8
#     4  12  25  51  75 106 150 195 241 305 373 431
#     4  12  26  50  76 106 149 195 245 306 368 440
#     4  12  27  44  78 107 143 196 242 301 367 439
#     4  12  27  48  76 107 149 191 250 305 367 440
#     4  12  26  49  75 110 146 198 241 308 367 439
#
# _framework density 24.629795000000001
#
# number of rings (size 3 to 8) (size 9 to 14) (size 15 to 20)
#    0.000    0.000    6.000    3.000    2.800    0.800 
#    3.600    0.000    0.000    0.000    0.000    0.000 
#    0.000    0.000    0.000    0.000    0.000    0.000 
#
# Total GULP energy -496098.887305 kJ/mol
# GULP energy per Si atom -12402.472183 kJ/mol
# Density = 2.457374 g / cm^3
# Si number density = 24.629795 Si / 1000 Ang^3
#
#
#
# Elastic Constant Matrix: (Units=GPa)
#
#
# Indices 1 2 3 4 5 6 
#
# 1 168.1965 23.9480 18.3829 0.0000 0.0000 0.0000
# 2 23.9480 70.4300 -12.1578 0.0000 0.0000 0.0000
# 3 18.3829 -12.1578 33.1468 0.0000 0.0000 0.0000
# 4 0.0000 0.0000 0.0000 17.7407 0.0000 0.0000
# 5 0.0000 0.0000 0.0000 0.0000 37.5396 0.0000
# 6 0.0000 0.0000 0.0000 0.0000 0.0000 43.5267
#
#
#
# Elastic Compliance Matrix: (Units=1/GPa)
#
#
# Indices 1 2 3 4 5 6 
#
# 1 0.006958 -0.003237 -0.005046 0.000000 0.000000 0.000000
# 2 -0.003237 0.016664 0.007907 0.000000 0.000000 0.000000
# 3 -0.005046 0.007907 0.035868 0.000000 0.000000 0.000000
# 4 0.000000 0.000000 0.000000 0.056368 0.000000 0.000000
# 5 0.000000 0.000000 0.000000 0.000000 0.026639 0.000000
# 6 0.000000 0.000000 0.000000 0.000000 0.000000 0.022974
#
#
# Mechanical properties :
#
#
# Convention : Reuss Voigt Hill
#
# Bulk Modulus (GPa) = 17.02464 36.90217 26.96340
# Shear Modulus (GPa) = 26.91057 35.86807 31.38932
#
# Velocity S-wave (km/s) = 3.30904 3.82027 3.57381
# Velocity P-wave (km/s) = 4.63971 5.87151 5.29157
#
# Compressibility (1/GPa) = 0.05873841
#
# Stress axis : x y z
#
# Youngs Moduli (GPa) = 143.72370 60.00927 27.88033
#
# Poissons Ratio (x) = 0.19424 0.14068
# Poissons Ratio (y) = 0.46522 -0.22046
# Poissons Ratio (z) = 0.72523 -0.47451
#
# Static dielectric constant tensor:
#      x y z
#    x 4.941590 0.000000 0.000000 
#    y 0.000000 4.259660 0.000000 
#    z 0.000000 0.000000 4.250290 
# 
# 
# High freq. dielectric constant tensor:
#      x y z
#    x 2.016610 0.000000 0.000000 
#    y 0.000000 1.968720 0.000000 
#    z 0.000000 0.000000 1.962030 
# 
# From -- ./inp_files/5595.got.cif
#   From: 2010.03.12/outbox.cif.g09.slc.cpg/sg61_3_cif.got.tgz:5595.got - 2010.04.10 19:05:03.
