data_PCOD8249711
_publ_section_title
;
Structure prediction by ZEFSAII (Michael W. Deem and Ramdas Pophale) SiO2 
 PCOD8249711
Probable space group: P B C A
;
_chemical_formula_sum "Si O2"
_cell_formula_units_Z 64
_cell_length_a 17.463287
_cell_length_b 9.289890
_cell_length_c 19.700157
_cell_angle_alpha 90.000000
_cell_angle_beta 90.000000
_cell_angle_gamma 90.000000
_cell_volume 3195.996171
_symmetry_space_group_name_H-M "P B C A"
_symmetry_group_IT_number 61
_symmetry_cell_setting 'orthorhombic'
loop_
_space_group_symop_operation_xyz
x,y,z
1/2-x,-y,1/2+z
1/2+x,1/2-y,-z
-x,1/2+y,1/2-z
-x,-y,-z
1/2+x,y,1/2-z
1/2-x,1/2+y,z
x,1/2-y,1/2+z
loop_
_atom_site_type_symbol
_atom_site_label
_atom_site_fract_x
_atom_site_fract_y
_atom_site_fract_z
Si Si1 0.092023 0.631620 0.197050
Si Si2 0.200371 0.625252 0.656407
Si Si3 0.926559 0.557555 0.579030
Si Si4 0.814262 0.467194 0.190564
Si Si5 0.125539 0.175882 0.664624
Si Si6 0.167560 0.855964 0.839804
Si Si7 0.909242 0.933588 0.925090
Si Si8 0.921202 0.714253 0.191877
O O1 0.151623 0.728540 0.155623
O O2 0.084311 0.479178 0.158747
O O3 0.121983 0.602328 0.272252
O O4 0.011845 0.713586 0.203317
O O5 0.197569 0.548706 0.729192
O O6 0.287284 0.664233 0.638627
O O7 0.166360 0.516517 0.600632
O O8 0.883113 0.408888 0.596828
O O9 0.901691 0.605299 0.504030
O O10 0.899507 0.682777 0.629597
O O11 0.017394 0.535090 0.586235
O O12 0.747737 0.562184 0.158322
O O13 0.818559 0.314094 0.153320
O O14 0.893304 0.552036 0.176860
O O15 0.080075 0.285504 0.616347
O O16 0.123822 0.229302 0.742215
#
# Coordination Sequence:
#
# PCOD8249711 Si02
#       8
#     8   8   8   8   8   8   8   8
#     4  11  23  34  65  98 125 165 219 277 327 380
#     4  11  21  43  62  98 129 169 214 278 335 387
#     4  11  24  47  65  95 134 179 218 265 338 404
#     4  11  23  38  66  99 132 163 213 279 327 376
#     4  12  23  40  68  98 128 171 224 279 327 387
#     4  11  22  40  64  96 130 168 211 270 330 388
#     4  11  25  44  70  91 134 179 215 272 339 395
#     4  12  23  40  64  98 135 167 223 274 323 394
#
# _framework density 20.025055999999999
#
# number of rings (size 3 to 8) (size 9 to 14) (size 15 to 20)
#    0.000    0.750    5.000    3.750    5.250    0.000 
#    4.500    1.875    0.000    0.000    0.000    0.000 
#    0.000    0.000    0.000    0.000    0.000    0.000 
#
# Total GULP energy -793962.789554 kJ/mol
# GULP energy per Si atom -12405.668587 kJ/mol
# Density = 1.997948 g / cm^3
# Si number density = 20.025056 Si / 1000 Ang^3
#
#
#
# Elastic Constant Matrix: (Units=GPa)
#
#
# Indices 1 2 3 4 5 6 
#
# 1 78.6803 21.4856 23.0283 0.0000 0.0000 0.0000
# 2 21.4856 124.8631 39.6600 0.0000 0.0000 0.0000
# 3 23.0283 39.6600 83.2204 0.0000 0.0000 0.0000
# 4 0.0000 0.0000 0.0000 28.2675 0.0000 0.0000
# 5 0.0000 0.0000 0.0000 0.0000 18.7862 0.0000
# 6 0.0000 0.0000 0.0000 0.0000 0.0000 35.3868
#
#
#
# Elastic Compliance Matrix: (Units=1/GPa)
#
#
# Indices 1 2 3 4 5 6 
#
# 1 0.014032 -0.001392 -0.003220 0.000000 0.000000 0.000000
# 2 -0.001392 0.009575 -0.004178 0.000000 0.000000 0.000000
# 3 -0.003220 -0.004178 0.014898 0.000000 0.000000 0.000000
# 4 0.000000 0.000000 0.000000 0.035376 0.000000 0.000000
# 5 0.000000 0.000000 0.000000 0.000000 0.053231 0.000000
# 6 0.000000 0.000000 0.000000 0.000000 0.000000 0.028259
#
#
# Mechanical properties :
#
#
# Convention : Reuss Voigt Hill
#
# Bulk Modulus (GPa) = 47.78611 50.56796 49.17703
# Shear Modulus (GPa) = 27.78913 29.99410 28.89162
#
# Velocity S-wave (km/s) = 3.72925 3.87438 3.80251
# Velocity P-wave (km/s) = 6.51598 6.73213 6.62494
#
# Compressibility (1/GPa) = 0.02092658
#
# Stress axis : x y z
#
# Youngs Moduli (GPa) = 71.26538 104.43456 67.12156
#
# Poissons Ratio (x) = 0.14536 0.21610
# Poissons Ratio (y) = 0.09920 0.28044
# Poissons Ratio (z) = 0.22944 0.43634
#
# Static dielectric constant tensor:
#      x y z
#    x 3.672460 0.000000 0.000000 
#    y 0.000000 3.828240 0.000000 
#    z 0.000000 0.000000 3.344770 
# 
# 
# High freq. dielectric constant tensor:
#      x y z
#    x 1.791880 0.000000 0.000000 
#    y 0.000000 1.797330 0.000000 
#    z 0.000000 0.000000 1.743920 
# 
# From -- ./inp_files/10552.got.cif
#   From: 2010.03.12/outbox.cif.g09.slc.cpg/sg61_6_cif.got.tgz:10552.got - 2010.04.10 19:05:03.
