data_PCOD8249496
_publ_section_title
;
Structure prediction by ZEFSAII (Michael W. Deem and Ramdas Pophale) SiO2 
 PCOD8249496
Probable space group: P B C A
;
_chemical_formula_sum "Si O2"
_cell_formula_units_Z 64
_cell_length_a 7.997042
_cell_length_b 14.507522
_cell_length_c 23.564366
_cell_angle_alpha 90.000000
_cell_angle_beta 90.000000
_cell_angle_gamma 90.000000
_cell_volume 2733.873242
_symmetry_space_group_name_H-M "P B C A"
_symmetry_group_IT_number 61
_symmetry_cell_setting 'orthorhombic'
loop_
_space_group_symop_operation_xyz
x,y,z
1/2-x,-y,1/2+z
1/2+x,1/2-y,-z
-x,1/2+y,1/2-z
-x,-y,-z
1/2+x,y,1/2-z
1/2-x,1/2+y,z
x,1/2-y,1/2+z
loop_
_atom_site_type_symbol
_atom_site_label
_atom_site_fract_x
_atom_site_fract_y
_atom_site_fract_z
Si Si1 0.916416 0.093858 0.949564
Si Si2 0.848747 0.147265 0.071289
Si Si3 0.744404 0.234085 0.874921
Si Si4 0.433816 0.295029 0.817981
Si Si5 0.929776 0.530170 0.111746
Si Si6 0.557139 0.187913 0.194950
Si Si7 0.774994 0.359705 0.073275
Si Si8 0.256589 0.090268 0.050923
O O1 0.769147 0.143987 0.914272
O O2 0.084050 0.113541 0.915616
O O3 0.895525 0.983531 0.955689
O O4 0.947596 0.140911 0.012029
O O5 0.939787 0.124762 0.132199
O O6 0.687672 0.081830 0.064727
O O7 0.799765 0.252984 0.085743
O O8 0.576781 0.219015 0.836762
O O9 0.912666 0.256146 0.838830
O O10 0.697935 0.316983 0.918105
O O11 0.500139 0.333261 0.758650
O O12 0.239180 0.260123 0.809046
O O13 0.879301 0.422990 0.117434
O O14 0.917400 0.584809 0.170723
O O15 0.114990 0.534230 0.088598
O O16 0.834602 0.384062 0.009693
#
# Coordination Sequence:
#
# PCOD8249496 Si02
#       8
#     8   8   8   8   8   8   8   8
#     4  12  25  39  63 106 138 181 226 272 348 431
#     4  11  25  38  68  99 135 185 223 274 353 408
#     4  11  24  44  68 100 140 178 229 287 343 416
#     4  11  22  42  75  95 129 178 234 284 344 400
#     4  10  24  41  62  98 133 175 227 281 340 404
#     4  10  22  44  71 100 124 179 238 288 342 402
#     4  12  23  39  63  96 144 175 221 282 330 422
#     4  11  23  39  65  94 141 180 217 269 343 411
#
# _framework density 23.410011000000001
#
# number of rings (size 3 to 8) (size 9 to 14) (size 15 to 20)
#    0.000    1.000    3.750    3.750    5.250    0.000 
#    0.000    0.000    2.750    0.000    0.000    0.000 
#    0.000    0.000    0.000    0.000    0.000    0.000 
#
# Total GULP energy -792894.138917 kJ/mol
# GULP energy per Si atom -12388.970921 kJ/mol
# Density = 2.335673 g / cm^3
# Si number density = 23.410011 Si / 1000 Ang^3
#
#
#
# Elastic Constant Matrix: (Units=GPa)
#
#
# Indices 1 2 3 4 5 6 
#
# 1 121.2736 14.8033 33.9278 0.0000 0.0000 0.0000
# 2 14.8033 86.3429 10.6174 0.0000 0.0000 0.0000
# 3 33.9278 10.6174 124.4981 0.0000 0.0000 0.0000
# 4 0.0000 0.0000 0.0000 16.0314 0.0000 0.0000
# 5 0.0000 0.0000 0.0000 0.0000 44.1186 0.0000
# 6 0.0000 0.0000 0.0000 0.0000 0.0000 33.1487
#
#
#
# Elastic Compliance Matrix: (Units=1/GPa)
#
#
# Indices 1 2 3 4 5 6 
#
# 1 0.009061 -0.001263 -0.002361 0.000000 0.000000 0.000000
# 2 -0.001263 0.011881 -0.000669 0.000000 0.000000 0.000000
# 3 -0.002361 -0.000669 0.008733 0.000000 0.000000 0.000000
# 4 0.000000 0.000000 0.000000 0.062377 0.000000 0.000000
# 5 0.000000 0.000000 0.000000 0.000000 0.022666 0.000000
# 6 0.000000 0.000000 0.000000 0.000000 0.000000 0.030167
#
#
# Mechanical properties :
#
#
# Convention : Reuss Voigt Hill
#
# Bulk Modulus (GPa) = 47.42252 50.09018 48.75635
# Shear Modulus (GPa) = 31.15251 36.84415 33.99833
#
# Velocity S-wave (km/s) = 3.65188 3.97150 3.81504
# Velocity P-wave (km/s) = 6.17114 6.51719 6.34652
#
# Compressibility (1/GPa) = 0.02108703
#
# Stress axis : x y z
#
# Youngs Moduli (GPa) = 110.36750 84.17124 114.51034
#
# Poissons Ratio (x) = 0.10631 0.27041
# Poissons Ratio (y) = 0.13940 0.07661
# Poissons Ratio (z) = 0.26063 0.05631
#
# Static dielectric constant tensor:
#      x y z
#    x 4.554290 0.000000 0.000000 
#    y 0.000000 3.980420 0.000000 
#    z 0.000000 0.000000 4.302200 
# 
# 
# High freq. dielectric constant tensor:
#      x y z
#    x 1.956510 0.000000 0.000000 
#    y 0.000000 1.899250 0.000000 
#    z 0.000000 0.000000 1.916450 
# 
# From -- ./inp_files/10900.got.cif
#   From: 2010.03.12/outbox.cif.g09.slc.cpg/sg61_6_cif.got.tgz:10900.got - 2010.04.10 19:05:03.
