data_PCOD8249254
_publ_section_title
;
Structure prediction by ZEFSAII (Michael W. Deem and Ramdas Pophale) SiO2 
 PCOD8249254
Probable space group: P B C A
;
_chemical_formula_sum "Si O2"
_cell_formula_units_Z 64
_cell_length_a 21.334860
_cell_length_b 9.193779
_cell_length_c 15.578381
_cell_angle_alpha 90.000000
_cell_angle_beta 90.000000
_cell_angle_gamma 90.000000
_cell_volume 3055.668087
_symmetry_space_group_name_H-M "P B C A"
_symmetry_group_IT_number 61
_symmetry_cell_setting 'orthorhombic'
loop_
_space_group_symop_operation_xyz
x,y,z
1/2-x,-y,1/2+z
1/2+x,1/2-y,-z
-x,1/2+y,1/2-z
-x,-y,-z
1/2+x,y,1/2-z
1/2-x,1/2+y,z
x,1/2-y,1/2+z
loop_
_atom_site_type_symbol
_atom_site_label
_atom_site_fract_x
_atom_site_fract_y
_atom_site_fract_z
Si Si1 0.667253 0.980544 0.168592
Si Si2 0.292308 0.461498 0.071585
Si Si3 0.928692 0.103487 0.914152
Si Si4 0.288638 0.516835 0.726211
Si Si5 0.110910 0.781866 0.734015
Si Si6 0.645938 0.292610 0.149716
Si Si7 0.765444 0.305618 0.036259
Si Si8 0.943880 0.044862 0.105963
O O1 0.630774 0.875080 0.231888
O O2 0.678144 0.900640 0.077066
O O3 0.735797 0.026343 0.204415
O O4 0.623369 0.125055 0.158796
O O5 0.363099 0.478732 0.104866
O O6 0.244962 0.409215 0.145292
O O7 0.293725 0.348216 0.992819
O O8 0.266123 0.616795 0.044251
O O9 0.929177 0.250074 0.853802
O O10 0.934840 0.135747 0.017047
O O11 0.983791 0.997377 0.883852
O O12 0.327318 0.370106 0.705532
O O13 0.339530 0.634244 0.758627
O O14 0.072932 0.862596 0.809642
O O15 0.712330 0.275794 0.104471
O O16 0.596928 0.395218 0.098983
#
# Coordination Sequence:
#
# PCOD8249254 Si02
#       8
#     8   8   8   8   8   8   8   8
#     4  11  21  36  60  92 130 163 208 267 333 401
#     4  12  22  37  61  94 126 162 214 268 330 395
#     4  11  23  42  67  94 126 176 225 270 325 394
#     4  10  22  36  59  93 132 160 204 270 334 400
#     4  11  23  42  69  97 130 174 220 275 340 399
#     4  10  21  40  58  89 124 172 207 257 331 390
#     4  11  22  35  58  91 126 163 206 261 334 396
#     4  10  24  46  69  89 130 180 228 272 324 396
#
# _framework density 20.944683000000001
#
# number of rings (size 3 to 8) (size 9 to 14) (size 15 to 20)
#    0.000    1.250    3.750    3.000    3.500    1.000 
#    0.000    0.000    0.000    9.000    0.000    0.000 
#    0.000    0.000    0.000    0.000    0.000    0.000 
#
# Total GULP energy -793255.970359 kJ/mol
# GULP energy per Si atom -12394.624537 kJ/mol
# Density = 2.089701 g / cm^3
# Si number density = 20.944683 Si / 1000 Ang^3
#
#
#
# Elastic Constant Matrix: (Units=GPa)
#
#
# Indices 1 2 3 4 5 6 
#
# 1 89.9061 42.5096 44.6826 0.0000 0.0000 0.0000
# 2 42.5096 115.2162 46.3717 0.0000 0.0000 0.0000
# 3 44.6826 46.3717 113.4122 0.0000 0.0000 0.0000
# 4 0.0000 0.0000 0.0000 34.9487 0.0000 0.0000
# 5 0.0000 0.0000 0.0000 0.0000 27.4655 0.0000
# 6 0.0000 0.0000 0.0000 0.0000 0.0000 23.2995
#
#
#
# Elastic Compliance Matrix: (Units=1/GPa)
#
#
# Indices 1 2 3 4 5 6 
#
# 1 0.015106 -0.003804 -0.004396 0.000000 0.000000 0.000000
# 2 -0.003804 0.011347 -0.003141 0.000000 0.000000 0.000000
# 3 -0.004396 -0.003141 0.011834 0.000000 0.000000 0.000000
# 4 0.000000 0.000000 0.000000 0.028613 0.000000 0.000000
# 5 0.000000 0.000000 0.000000 0.000000 0.036409 0.000000
# 6 0.000000 0.000000 0.000000 0.000000 0.000000 0.042919
#
#
# Mechanical properties :
#
#
# Convention : Reuss Voigt Hill
#
# Bulk Modulus (GPa) = 64.08350 65.07360 64.57855
# Shear Modulus (GPa) = 28.71703 29.47411 29.09557
#
# Velocity S-wave (km/s) = 3.70684 3.75538 3.73119
# Velocity P-wave (km/s) = 6.99885 7.06687 7.03294
#
# Compressibility (1/GPa) = 0.01560464
#
# Stress axis : x y z
#
# Youngs Moduli (GPa) = 66.19758 88.12919 84.50520
#
# Poissons Ratio (x) = 0.33526 0.37150
# Poissons Ratio (y) = 0.25183 0.26541
# Poissons Ratio (z) = 0.29102 0.27679
#
# Static dielectric constant tensor:
#      x y z
#    x 3.620800 0.000000 0.000000 
#    y 0.000000 3.776880 0.000000 
#    z 0.000000 0.000000 3.974640 
# 
# 
# High freq. dielectric constant tensor:
#      x y z
#    x 1.796700 0.000000 0.000000 
#    y 0.000000 1.811410 0.000000 
#    z 0.000000 0.000000 1.829510 
# 
# From -- ./inp_files/8534.got.cif
#   From: 2010.03.12/outbox.cif.g09.slc.cpg/sg61_5_cif.got.tgz:8534.got - 2010.04.10 19:05:03.
