data_PCOD8249608
_publ_section_title
;
Structure prediction by ZEFSAII (Michael W. Deem and Ramdas Pophale) SiO2 
 PCOD8249608
Probable space group: P B C A
;
_chemical_formula_sum "Si O2"
_cell_formula_units_Z 40
_cell_length_a 22.266945
_cell_length_b 8.675650
_cell_length_c 8.657298
_cell_angle_alpha 90.000000
_cell_angle_beta 90.000000
_cell_angle_gamma 90.000000
_cell_volume 1672.418744
_symmetry_space_group_name_H-M "P B C A"
_symmetry_group_IT_number 61
_symmetry_cell_setting 'orthorhombic'
loop_
_space_group_symop_operation_xyz
x,y,z
1/2-x,-y,1/2+z
1/2+x,1/2-y,-z
-x,1/2+y,1/2-z
-x,-y,-z
1/2+x,y,1/2-z
1/2-x,1/2+y,z
x,1/2-y,1/2+z
loop_
_atom_site_type_symbol
_atom_site_label
_atom_site_fract_x
_atom_site_fract_y
_atom_site_fract_z
Si Si1 0.292555 0.849668 0.630943
Si Si2 0.506528 0.488797 0.252010
Si Si3 0.571566 0.845187 0.011126
Si Si4 0.911260 0.990926 0.991522
Si Si5 0.691527 0.036206 0.020788
O O1 0.301183 0.666704 0.611003
O O2 0.289882 0.897912 0.810738
O O3 0.346327 0.928017 0.539742
O O4 0.232799 0.896522 0.537856
O O5 0.472236 0.352016 0.340763
O O6 0.529877 0.621059 0.365073
O O7 0.458865 0.566589 0.135450
O O8 0.563751 0.425409 0.154774
O O9 0.623864 0.972462 0.029033
O O10 0.597308 0.675112 0.997742
#
# Coordination Sequence:
#
# PCOD8249608 Si02
#       5
#     8   8   8   8   8
#     4  12  28  49  75 107 142 187 241 298 362 431
#     4  10  24  42  66 108 142 190 230 294 346 426
#     4  11  24  45  73 103 144 187 241 290 357 417
#     4  11  24  45  73 103 144 187 241 290 357 417
#     4  12  28  49  75 107 142 187 241 298 362 431
#
# _framework density 23.917455
#
# number of rings (size 3 to 8) (size 9 to 14) (size 15 to 20)
#    0.000    0.800    2.000    3.600    5.600    9.600 
#    0.000    0.000    0.000    0.000    0.000    0.000 
#    0.000    0.000    0.000    0.000    0.000    0.000 
#
# Total GULP energy -496018.372605 kJ/mol
# GULP energy per Si atom -12400.459315 kJ/mol
# Density = 2.386302 g / cm^3
# Si number density = 23.917455 Si / 1000 Ang^3
#
#
#
# Elastic Constant Matrix: (Units=GPa)
#
#
# Indices 1 2 3 4 5 6 
#
# 1 73.8271 38.9648 -1.5077 0.0000 0.0000 0.0000
# 2 38.9648 100.7066 20.8676 0.0000 0.0000 0.0000
# 3 -1.5077 20.8676 -1.0226 0.0000 0.0000 0.0000
# 4 0.0000 0.0000 0.0000 34.6391 0.0000 0.0000
# 5 0.0000 0.0000 0.0000 0.0000 22.3194 0.0000
# 6 0.0000 0.0000 0.0000 0.0000 0.0000 32.1395
#
#
#
# Elastic Compliance Matrix: (Units=1/GPa)
#
#
# Indices 1 2 3 4 5 6 
#
# 1 0.013171 -0.000205 -0.023604 0.000000 0.000000 0.000000
# 2 -0.000205 0.001902 0.039123 0.000000 0.000000 0.000000
# 3 -0.023604 0.039123 -0.144733 0.000000 0.000000 0.000000
# 4 0.000000 0.000000 0.000000 0.028869 0.000000 0.000000
# 5 0.000000 0.000000 0.000000 0.000000 0.044804 0.000000
# 6 0.000000 0.000000 0.000000 0.000000 0.000000 0.031114
#
#
# Mechanical properties :
#
#
# Convention : Reuss Voigt Hill
#
# Bulk Modulus (GPa) = -10.09778 32.24006 11.07114
# Shear Modulus (GPa) = -56.49070 25.49869 -15.49600
#
# Velocity S-wave (km/s) = -4.86521 3.26868 -2.54814
# Velocity P-wave (km/s) = 5.98260 5.26827 2.00460
#
# Compressibility (1/GPa) = -0.09903166
#
# Stress axis : x y z
#
# Youngs Moduli (GPa) = 75.92238 525.66539 -6.90927
#
# Poissons Ratio (x) = 0.10779 -0.16309
# Poissons Ratio (y) = 0.01557 0.27031
# Poissons Ratio (z) = 1.79210 -20.56577
#
# Static dielectric constant tensor:
#      x y z
#    x 4.350440 0.000000 0.000000 
#    y 0.000000 4.396750 0.000000 
#    z 0.000000 0.000000 4.730200 
# 
# 
# High freq. dielectric constant tensor:
#      x y z
#    x 1.953960 0.000000 0.000000 
#    y 0.000000 1.940750 0.000000 
#    z 0.000000 0.000000 1.970040 
# 
# From -- ./inp_files/1767.got.cif
#   From: 2010.03.12/outbox.cif.g09.slc.cpg/sg61_1_cif.got.tgz:1767.got - 2010.04.10 19:05:03.
