data_PCOD8249163
_publ_section_title
;
Structure prediction by ZEFSAII (Michael W. Deem and Ramdas Pophale) SiO2 
 PCOD8249163
Probable space group: P B C A
;
_chemical_formula_sum "Si O2"
_cell_formula_units_Z 56
_cell_length_a 23.238319
_cell_length_b 5.051194
_cell_length_c 23.213105
_cell_angle_alpha 90.000000
_cell_angle_beta 90.000000
_cell_angle_gamma 90.000000
_cell_volume 2724.783455
_symmetry_space_group_name_H-M "P B C A"
_symmetry_group_IT_number 61
_symmetry_cell_setting 'orthorhombic'
loop_
_space_group_symop_operation_xyz
x,y,z
1/2-x,-y,1/2+z
1/2+x,1/2-y,-z
-x,1/2+y,1/2-z
-x,-y,-z
1/2+x,y,1/2-z
1/2-x,1/2+y,z
x,1/2-y,1/2+z
loop_
_atom_site_type_symbol
_atom_site_label
_atom_site_fract_x
_atom_site_fract_y
_atom_site_fract_z
Si Si1 0.596812 0.079344 0.120120
Si Si2 0.065029 0.922825 0.940209
Si Si3 0.287704 0.027525 0.934317
Si Si4 0.434971 0.922825 0.559791
Si Si5 0.000000 0.062306 0.287833
Si Si6 0.712296 0.472475 0.434317
Si Si7 0.096812 0.579344 0.120120
O O1 0.593077 0.393008 0.108757
O O2 0.664593 0.008305 0.116493
O O3 0.559925 0.014870 0.177409
O O4 0.569270 0.888971 0.071310
O O5 0.000000 0.019471 0.943132
O O6 0.096356 0.000000 1.000000
O O7 0.236344 0.821176 0.925111
O O8 0.312672 1.000000 0.000000
O O9 0.430730 0.611029 0.571310
O O10 0.406923 0.106992 0.608757
O O11 0.940075 0.014869 0.322591
O O12 1.000000 0.361201 0.265139
O O13 0.736344 0.178824 0.425111
O O14 0.664593 0.508304 0.383507
#
# Coordination Sequence:
#
# PCOD8249163 Si02
#       7
#     8   8   8   8   8   8   8
#     4  12  22  40  61  86 123 166 199 248 309 363
#     4  11  20  32  54  90 126 153 186 232 295 381
#     4  10  21  37  59  90 126 162 196 232 286 366
#     4  11  20  32  54  90 126 153 186 232 295 381
#     4  12  26  44  63  86 117 156 212 272 318 348
#     4  10  21  37  59  90 126 162 196 232 286 366
#     4  12  22  40  61  86 123 166 199 248 309 363
#
# _framework density 20.552091999999998
#
# number of rings (size 3 to 8) (size 9 to 14) (size 15 to 20)
#    0.000    0.857    2.857    6.000    0.000    4.571 
#    0.000    0.000    0.000    5.143    0.000    0.000 
#    0.000    0.000    0.000    0.000    0.000    0.000 
#
# Total GULP energy -693754.753503 kJ/mol
# GULP energy per Si atom -12388.477741 kJ/mol
# Density = 2.050531 g / cm^3
# Si number density = 20.552092 Si / 1000 Ang^3
#
#
#
# Elastic Constant Matrix: (Units=GPa)
#
#
# Indices 1 2 3 4 5 6 
#
# 1 105.0221 8.6464 35.7249 0.0000 0.0000 0.0000
# 2 8.6464 77.6723 1.0462 0.0000 0.0000 0.0000
# 3 35.7249 1.0462 60.3708 0.0000 0.0000 0.0000
# 4 0.0000 0.0000 0.0000 34.5565 0.0000 0.0000
# 5 0.0000 0.0000 0.0000 0.0000 22.8668 0.0000
# 6 0.0000 0.0000 0.0000 0.0000 0.0000 28.2339
#
#
#
# Elastic Compliance Matrix: (Units=1/GPa)
#
#
# Indices 1 2 3 4 5 6 
#
# 1 0.012041 -0.001245 -0.007104 0.000000 0.000000 0.000000
# 2 -0.001245 0.013006 0.000511 0.000000 0.000000 0.000000
# 3 -0.007104 0.000511 0.020759 0.000000 0.000000 0.000000
# 4 0.000000 0.000000 0.000000 0.028938 0.000000 0.000000
# 5 0.000000 0.000000 0.000000 0.000000 0.043731 0.000000
# 6 0.000000 0.000000 0.000000 0.000000 0.000000 0.035418
#
#
# Mechanical properties :
#
#
# Convention : Reuss Voigt Hill
#
# Bulk Modulus (GPa) = 33.18760 37.10004 35.14382
# Shear Modulus (GPa) = 27.83776 30.30796 29.07286
#
# Velocity S-wave (km/s) = 3.68434 3.84434 3.76519
# Velocity P-wave (km/s) = 5.85511 6.14785 6.00327
#
# Compressibility (1/GPa) = 0.03013174
#
# Stress axis : x y z
#
# Youngs Moduli (GPa) = 83.05179 76.88601 48.17175
#
# Poissons Ratio (x) = 0.09570 0.34219
# Poissons Ratio (y) = 0.10337 -0.02462
# Poissons Ratio (z) = 0.58997 -0.03930
#
# Static dielectric constant tensor:
#      x y z
#    x 3.756870 0.000000 0.000000 
#    y 0.000000 3.828390 0.000000 
#    z 0.000000 0.000000 3.413610 
# 
# 
# High freq. dielectric constant tensor:
#      x y z
#    x 1.801820 0.000000 0.000000 
#    y 0.000000 1.830500 0.000000 
#    z 0.000000 0.000000 1.748600 
# 
# From -- ./inp_files/11158.got.cif
#   From: 2010.03.12/outbox.cif.g09.slc.cpg/sg61_6_cif.got.tgz:11158.got - 2010.04.10 19:05:03.
