data_PCOD8249940
_publ_section_title
;
Structure prediction by ZEFSAII (Michael W. Deem and Ramdas Pophale) SiO2 
 PCOD8249940
Probable space group: P N M A
;
_chemical_formula_sum "Si O2"
_cell_formula_units_Z 32
_cell_length_a 33.345664
_cell_length_b 5.379785
_cell_length_c 7.117406
_cell_angle_alpha 90.000000
_cell_angle_beta 90.000000
_cell_angle_gamma 90.000000
_cell_volume 1276.809277
_symmetry_space_group_name_H-M "P N M A"
_symmetry_group_IT_number 62
_symmetry_cell_setting 'orthorhombic'
loop_
_space_group_symop_operation_xyz
x,y,z
1/2-x,-y,1/2+z
1/2+x,1/2-y,1/2-z
-x,1/2+y,-z
-x,-y,-z
1/2+x,y,1/2-z
1/2-x,1/2+y,1/2+z
x,1/2-y,z
loop_
_atom_site_type_symbol
_atom_site_label
_atom_site_fract_x
_atom_site_fract_y
_atom_site_fract_z
Si Si1 0.789310 0.250000 0.591128
Si Si2 0.802231 0.750000 0.158515
Si Si3 0.913769 0.750000 0.625380
Si Si4 0.039335 0.250000 0.764843
Si Si5 0.679847 0.250000 0.089258
Si Si6 0.929906 0.250000 0.238202
Si Si7 0.551964 0.750000 0.168454
Si Si8 0.836312 0.250000 0.201594
O O1 0.741771 0.250000 0.571300
O O2 0.804496 0.501792 0.697168
O O3 0.809307 0.250000 0.386843
O O4 0.799835 0.750000 0.384108
O O5 0.825803 0.502267 0.086539
O O6 0.940407 0.750000 0.439135
O O7 0.867637 0.750000 0.567517
O O8 0.924432 0.497669 0.739921
O O9 0.054564 0.501931 0.870275
O O10 0.991814 0.250000 0.755969
O O11 0.950706 0.250000 0.442661
O O12 0.882399 0.250000 0.261371
#
# Coordination Sequence:
#
# PCOD8249940 Si02
#       8
#     4   4   4   4   4   4   4   4
#     4  10  18  29  43  58  76  98 129 174 209 235
#     4  10  18  29  43  58  76  98 129 174 209 235
#     4  10  16  25  36  48  72 100 124 164 188 209
#     4  10  16  22  33  51  70  95 129 162 181 207
#     4  10  19  30  42  59  78 103 137 170 198 235
#     4  10  16  25  36  48  72 100 124 164 188 209
#     4  10  16  22  33  51  70  95 129 162 181 207
#     4  10  19  30  42  59  78 103 137 170 198 235
#
# _framework density 25.062473000000001
#
# number of rings (size 3 to 8) (size 9 to 14) (size 15 to 20)
#    0.000    2.000    0.000   12.000    0.000    0.000 
#    0.000    0.000    0.000    0.000    0.000    0.000 
#    0.000    0.000    0.000    0.000    0.000    0.000 
#
# Total GULP energy -396523.401472 kJ/mol
# GULP energy per Si atom -12391.356296 kJ/mol
# Density = 2.500543 g / cm^3
# Si number density = 25.062473 Si / 1000 Ang^3
#
#
#
# Elastic Constant Matrix: (Units=GPa)
#
#
# Indices 1 2 3 4 5 6 
#
# 1 28.4389 16.2688 8.6777 0.0000 0.0000 0.0000
# 2 16.2688 314.4351 -11.5700 0.0000 0.0000 0.0000
# 3 8.6777 -11.5700 20.7761 0.0000 0.0000 0.0000
# 4 0.0000 0.0000 0.0000 -14.4857 0.0000 0.0000
# 5 0.0000 0.0000 0.0000 0.0000 0.2989 0.0000
# 6 0.0000 0.0000 0.0000 0.0000 0.0000 55.1435
#
#
#
# Elastic Compliance Matrix: (Units=1/GPa)
#
#
# Indices 1 2 3 4 5 6 
#
# 1 0.042792 -0.002932 -0.019506 0.000000 0.000000 0.000000
# 2 -0.002932 0.003448 0.003145 0.000000 0.000000 0.000000
# 3 -0.019506 0.003145 0.058031 0.000000 0.000000 0.000000
# 4 0.000000 0.000000 0.000000 -0.069034 0.000000 0.000000
# 5 0.000000 0.000000 0.000000 0.000000 3.345502 0.000000
# 6 0.000000 0.000000 0.000000 0.000000 0.000000 0.018134
#
#
# Mechanical properties :
#
#
# Convention : Reuss Voigt Hill
#
# Bulk Modulus (GPa) = 15.22440 43.37813 29.30126
# Shear Modulus (GPa) = 1.44536 31.54292 16.49414
#
# Velocity S-wave (km/s) = 0.76023 3.55148 2.56817
# Velocity P-wave (km/s) = 2.61885 5.84491 4.52887
#
# Compressibility (1/GPa) = 0.06568404
#
# Stress axis : x y z
#
# Youngs Moduli (GPa) = 23.36877 290.04825 17.23231
#
# Poissons Ratio (x) = 0.85036 0.33613
# Poissons Ratio (y) = 0.06851 -0.05419
# Poissons Ratio (z) = 0.45583 -0.91206
#
# Static dielectric constant tensor:
#      x y z
#    x 4.250150 0.000000 0.000000 
#    y 0.000000 8.935780 0.000000 
#    z 0.000000 0.000000 3.452390 
# 
# 
# High freq. dielectric constant tensor:
#      x y z
#    x 1.999870 0.000000 0.000000 
#    y 0.000000 2.054480 0.000000 
#    z 0.000000 0.000000 1.920080 
# 
# From -- ./inp_files/9628.got.cif
#   From: 2010.03.12/outbox.cif.g09.slc.cpg/sg62_5_cif.got.tgz:9628.got - 2010.04.10 19:12:36.
