data_PCOD8249585
_publ_section_title
;
Structure prediction by ZEFSAII (Michael W. Deem and Ramdas Pophale) SiO2 
 PCOD8249585
Probable space group: P B C A
;
_chemical_formula_sum "Si O2"
_cell_formula_units_Z 40
_cell_length_a 15.099329
_cell_length_b 10.812274
_cell_length_c 10.583001
_cell_angle_alpha 90.000000
_cell_angle_beta 90.000000
_cell_angle_gamma 90.000000
_cell_volume 1727.760449
_symmetry_space_group_name_H-M "P B C A"
_symmetry_group_IT_number 61
_symmetry_cell_setting 'orthorhombic'
loop_
_space_group_symop_operation_xyz
x,y,z
1/2-x,-y,1/2+z
1/2+x,1/2-y,-z
-x,1/2+y,1/2-z
-x,-y,-z
1/2+x,y,1/2-z
1/2-x,1/2+y,z
x,1/2-y,1/2+z
loop_
_atom_site_type_symbol
_atom_site_label
_atom_site_fract_x
_atom_site_fract_y
_atom_site_fract_z
Si Si1 0.967266 0.302707 0.028636
Si Si2 0.866012 0.080443 0.107969
Si Si3 0.009147 0.472924 0.808222
Si Si4 0.148836 0.171333 0.003455
Si Si5 0.194011 0.336524 0.776777
O O1 0.881370 0.215174 0.044613
O O2 0.984622 0.382255 0.155857
O O3 0.048035 0.212743 0.002364
O O4 0.953226 0.397921 0.913850
O O5 0.955285 0.038543 0.179498
O O6 0.782550 0.083866 0.202283
O O7 0.846313 0.977897 0.001343
O O8 0.107940 0.421696 0.794390
O O9 0.195461 0.216399 0.133584
O O10 0.196237 0.226999 0.879869
#
# Coordination Sequence:
#
# PCOD8249585 Si02
#       5
#     8   8   8   8   8
#     4  10  23  45  72  98 143 190 233 295 368 419
#     4  12  26  41  77 103 138 198 235 294 363 433
#     4  10  24  45  69 104 143 187 237 299 355 427
#     4  11  25  49  68 108 144 186 241 303 351 443
#     4  11  27  44  72 106 149 182 245 299 353 432
#
# _framework density 23.151357999999998
#
# number of rings (size 3 to 8) (size 9 to 14) (size 15 to 20)
#    0.000    1.200    2.000    1.800    8.400    4.800 
#    0.000    0.000    0.000    0.000    0.000    0.000 
#    0.000    0.000    0.000    0.000    0.000    0.000 
#
# Total GULP energy -496107.268422 kJ/mol
# GULP energy per Si atom -12402.681711 kJ/mol
# Density = 2.309866 g / cm^3
# Si number density = 23.151358 Si / 1000 Ang^3
#
#
#
# Elastic Constant Matrix: (Units=GPa)
#
#
# Indices 1 2 3 4 5 6 
#
# 1 96.0266 30.3156 18.4208 0.0000 0.0000 0.0000
# 2 30.3156 123.8028 55.6520 0.0000 0.0000 0.0000
# 3 18.4208 55.6520 135.7681 0.0000 0.0000 0.0000
# 4 0.0000 0.0000 0.0000 39.5472 0.0000 0.0000
# 5 0.0000 0.0000 0.0000 0.0000 21.0369 0.0000
# 6 0.0000 0.0000 0.0000 0.0000 0.0000 13.7239
#
#
#
# Elastic Compliance Matrix: (Units=1/GPa)
#
#
# Indices 1 2 3 4 5 6 
#
# 1 0.011313 -0.002550 -0.000490 0.000000 0.000000 0.000000
# 2 -0.002550 0.010477 -0.003948 0.000000 0.000000 0.000000
# 3 -0.000490 -0.003948 0.009050 0.000000 0.000000 0.000000
# 4 0.000000 0.000000 0.000000 0.025286 0.000000 0.000000
# 5 0.000000 0.000000 0.000000 0.000000 0.047536 0.000000
# 6 0.000000 0.000000 0.000000 0.000000 0.000000 0.072865
#
#
# Mechanical properties :
#
#
# Convention : Reuss Voigt Hill
#
# Bulk Modulus (GPa) = 59.29930 62.70828 61.00379
# Shear Modulus (GPa) = 25.49399 31.60887 28.55143
#
# Velocity S-wave (km/s) = 3.32202 3.69902 3.51558
# Velocity P-wave (km/s) = 6.35482 6.73712 6.54876
#
# Compressibility (1/GPa) = 0.01686361
#
# Stress axis : x y z
#
# Youngs Moduli (GPa) = 88.39572 95.44979 110.49206
#
# Poissons Ratio (x) = 0.24340 0.05410
# Poissons Ratio (y) = 0.22541 0.43627
# Poissons Ratio (z) = 0.04328 0.37688
#
# Static dielectric constant tensor:
#      x y z
#    x 4.001300 0.000000 0.000000 
#    y 0.000000 4.204380 0.000000 
#    z 0.000000 0.000000 4.306670 
# 
# 
# High freq. dielectric constant tensor:
#      x y z
#    x 1.910020 0.000000 0.000000 
#    y 0.000000 1.913640 0.000000 
#    z 0.000000 0.000000 1.916610 
# 
# From -- ./inp_files/5593.got.cif
#   From: 2010.03.12/outbox.cif.g09.slc.cpg/sg61_3_cif.got.tgz:5593.got - 2010.04.10 19:05:03.
