data_PCOD8249446
_publ_section_title
;
Structure prediction by ZEFSAII (Michael W. Deem and Ramdas Pophale) SiO2 
 PCOD8249446
Probable space group: P B C A
;
_chemical_formula_sum "Si O2"
_cell_formula_units_Z 64
_cell_length_a 21.710605
_cell_length_b 9.166506
_cell_length_c 15.386028
_cell_angle_alpha 90.000000
_cell_angle_beta 90.000000
_cell_angle_gamma 90.000000
_cell_volume 3061.979448
_symmetry_space_group_name_H-M "P B C A"
_symmetry_group_IT_number 61
_symmetry_cell_setting 'orthorhombic'
loop_
_space_group_symop_operation_xyz
x,y,z
1/2-x,-y,1/2+z
1/2+x,1/2-y,-z
-x,1/2+y,1/2-z
-x,-y,-z
1/2+x,y,1/2-z
1/2-x,1/2+y,z
x,1/2-y,1/2+z
loop_
_atom_site_type_symbol
_atom_site_label
_atom_site_fract_x
_atom_site_fract_y
_atom_site_fract_z
Si Si1 0.923175 0.533846 0.840448
Si Si2 0.369477 0.835453 0.694746
Si Si3 0.111163 0.637542 0.994831
Si Si4 0.229981 0.220144 0.327838
Si Si5 0.437594 0.446997 0.308511
Si Si6 0.851980 0.218067 0.267396
Si Si7 0.161544 0.900050 0.073174
Si Si8 0.740968 0.966941 0.053297
O O1 0.903138 0.700771 0.850432
O O2 0.874522 0.447767 0.779646
O O3 0.989908 0.533405 0.796373
O O4 0.925175 0.455804 0.933541
O O5 0.305830 0.774845 0.736302
O O6 0.407660 0.901833 0.775608
O O7 0.361950 0.951074 0.617073
O O8 0.078173 0.594878 0.906702
O O9 0.184257 0.604310 0.997436
O O10 0.108814 0.812898 0.016774
O O11 0.303820 0.224101 0.311523
O O12 0.215860 0.350535 0.395597
O O13 0.211319 0.069761 0.373265
O O14 0.412539 0.315341 0.249494
O O15 0.818055 0.284690 0.352297
O O16 0.219491 0.938129 0.013431
#
# Coordination Sequence:
#
# PCOD8249446 Si02
#       8
#     8   8   8   8   8   8   8   8
#     4  11  25  38  67  91 124 168 216 260 313 368
#     4  11  25  40  65  97 122 158 218 264 305 384
#     4  11  23  41  60  89 125 171 206 256 317 378
#     4  12  23  39  63  90 127 160 202 254 316 377
#     4  11  21  46  62  89 126 171 214 259 310 375
#     4  10  22  42  62  91 129 165 205 263 322 364
#     4  10  24  39  61  91 128 160 202 256 318 376
#     4  12  22  39  59  90 126 165 195 248 318 376
#
# _framework density 20.901512
#
# number of rings (size 3 to 8) (size 9 to 14) (size 15 to 20)
#    0.000    1.000    3.750    2.625    7.000    0.000 
#    0.000    0.625    0.000    0.000    0.000    0.000 
#    0.000    0.000    0.000    0.000    0.000    0.000 
#
# Total GULP energy -793508.612763 kJ/mol
# GULP energy per Si atom -12398.572074 kJ/mol
# Density = 2.085394 g / cm^3
# Si number density = 20.901512 Si / 1000 Ang^3
#
#
#
# Elastic Constant Matrix: (Units=GPa)
#
#
# Indices 1 2 3 4 5 6 
#
# 1 80.7264 32.3544 23.5899 0.0000 0.0000 0.0000
# 2 32.3544 114.6762 23.0768 0.0000 0.0000 0.0000
# 3 23.5899 23.0768 74.1074 0.0000 0.0000 0.0000
# 4 0.0000 0.0000 0.0000 26.5271 0.0000 0.0000
# 5 0.0000 0.0000 0.0000 0.0000 20.0352 0.0000
# 6 0.0000 0.0000 0.0000 0.0000 0.0000 24.4171
#
#
#
# Elastic Compliance Matrix: (Units=1/GPa)
#
#
# Indices 1 2 3 4 5 6 
#
# 1 0.014837 -0.003452 -0.003648 0.000000 0.000000 0.000000
# 2 -0.003452 0.010106 -0.002048 0.000000 0.000000 0.000000
# 3 -0.003648 -0.002048 0.015293 0.000000 0.000000 0.000000
# 4 0.000000 0.000000 0.000000 0.037697 0.000000 0.000000
# 5 0.000000 0.000000 0.000000 0.000000 0.049912 0.000000
# 6 0.000000 0.000000 0.000000 0.000000 0.000000 0.040955
#
#
# Mechanical properties :
#
#
# Convention : Reuss Voigt Hill
#
# Bulk Modulus (GPa) = 45.57902 47.50578 46.54240
# Shear Modulus (GPa) = 25.71877 26.89514 26.30695
#
# Velocity S-wave (km/s) = 3.51162 3.59103 3.55154
# Velocity P-wave (km/s) = 6.18836 6.32232 6.25570
#
# Compressibility (1/GPa) = 0.02193992
#
# Stress axis : x y z
#
# Youngs Moduli (GPa) = 67.39881 98.94814 65.38951
#
# Poissons Ratio (x) = 0.34157 0.23854
# Poissons Ratio (y) = 0.23266 0.13393
# Poissons Ratio (z) = 0.24587 0.20267
#
# Static dielectric constant tensor:
#      x y z
#    x 3.565550 0.000000 0.000000 
#    y 0.000000 3.900480 0.000000 
#    z 0.000000 0.000000 3.800860 
# 
# 
# High freq. dielectric constant tensor:
#      x y z
#    x 1.792830 0.000000 0.000000 
#    y 0.000000 1.832710 0.000000 
#    z 0.000000 0.000000 1.826070 
# 
# From -- ./inp_files/8535.got.cif
#   From: 2010.03.12/outbox.cif.g09.slc.cpg/sg61_5_cif.got.tgz:8535.got - 2010.04.10 19:05:03.
