data_PCOD8249634
_publ_section_title
;
Structure prediction by ZEFSAII (Michael W. Deem and Ramdas Pophale) SiO2 
 PCOD8249634
Probable space group: P B C A
;
_chemical_formula_sum "Si O2"
_cell_formula_units_Z 56
_cell_length_a 13.479101
_cell_length_b 19.471834
_cell_length_c 8.967475
_cell_angle_alpha 90.000000
_cell_angle_beta 90.000000
_cell_angle_gamma 90.000000
_cell_volume 2353.628751
_symmetry_space_group_name_H-M "P B C A"
_symmetry_group_IT_number 61
_symmetry_cell_setting 'orthorhombic'
loop_
_space_group_symop_operation_xyz
x,y,z
1/2-x,-y,1/2+z
1/2+x,1/2-y,-z
-x,1/2+y,1/2-z
-x,-y,-z
1/2+x,y,1/2-z
1/2-x,1/2+y,z
x,1/2-y,1/2+z
loop_
_atom_site_type_symbol
_atom_site_label
_atom_site_fract_x
_atom_site_fract_y
_atom_site_fract_z
Si Si1 0.421264 0.404244 0.080843
Si Si2 0.434357 0.097619 0.096066
Si Si3 0.178812 0.219883 0.845708
Si Si4 0.282673 0.412897 0.352110
Si Si5 0.382128 0.293926 0.834655
Si Si6 0.092798 0.487997 0.336223
Si Si7 0.052015 0.299162 0.067343
O O1 0.342115 0.388974 0.207630
O O2 0.530336 0.416456 0.155193
O O3 0.418181 0.340819 0.970551
O O4 0.400866 0.475821 0.997043
O O5 0.395839 0.166319 0.178930
O O6 0.459751 0.037921 0.214428
O O7 0.354609 0.063348 0.985023
O O8 0.529599 0.124492 0.000639
O O9 0.221590 0.151138 0.920142
O O10 0.266250 0.276395 0.842358
O O11 0.144376 0.199361 0.679338
O O12 0.084300 0.248540 0.934011
O O13 0.207400 0.472446 0.299170
O O14 0.451960 0.226608 0.847538
#
# Coordination Sequence:
#
# PCOD8249634 Si02
#       7
#     8   8   8   8   8   8   8
#     4  10  24  45  72  95 140 184 235 297 350 427
#     4  11  25  45  70 102 144 188 238 304 357 428
#     4  12  26  41  72 105 143 193 236 289 375 434
#     4  12  24  42  71 103 137 186 241 296 351 430
#     4  11  24  47  68 102 148 185 236 294 366 435
#     4  10  24  48  68 101 136 194 237 294 361 420
#     4  12  25  44  66 107 146 188 233 300 356 439
#
# _framework density 23.793046
#
# number of rings (size 3 to 8) (size 9 to 14) (size 15 to 20)
#    0.000    0.857    2.857    3.429    6.000    0.571 
#   10.286    0.000    0.000    0.000    0.000    0.000 
#    0.000    0.000    0.000    0.000    0.000    0.000 
#
# Total GULP energy -694439.196751 kJ/mol
# GULP energy per Si atom -12400.699942 kJ/mol
# Density = 2.373889 g / cm^3
# Si number density = 23.793046 Si / 1000 Ang^3
#
#
#
# Elastic Constant Matrix: (Units=GPa)
#
#
# Indices 1 2 3 4 5 6 
#
# 1 120.1975 32.4246 40.1474 0.0000 0.0000 0.0000
# 2 32.4246 62.7017 18.7661 0.0000 0.0000 0.0000
# 3 40.1474 18.7661 95.1594 0.0000 0.0000 0.0000
# 4 0.0000 0.0000 0.0000 33.1010 0.0000 0.0000
# 5 0.0000 0.0000 0.0000 0.0000 40.1059 0.0000
# 6 0.0000 0.0000 0.0000 0.0000 0.0000 43.7580
#
#
#
# Elastic Compliance Matrix: (Units=1/GPa)
#
#
# Indices 1 2 3 4 5 6 
#
# 1 0.010743 -0.004463 -0.003653 0.000000 0.000000 0.000000
# 2 -0.004463 0.018802 -0.001825 0.000000 0.000000 0.000000
# 3 -0.003653 -0.001825 0.012410 0.000000 0.000000 0.000000
# 4 0.000000 0.000000 0.000000 0.030211 0.000000 0.000000
# 5 0.000000 0.000000 0.000000 0.000000 0.024934 0.000000
# 6 0.000000 0.000000 0.000000 0.000000 0.000000 0.022853
#
#
# Mechanical properties :
#
#
# Convention : Reuss Voigt Hill
#
# Bulk Modulus (GPa) = 45.30038 51.19275 48.24657
# Shear Modulus (GPa) = 33.96921 35.84101 34.90511
#
# Velocity S-wave (km/s) = 3.78258 3.88540 3.83434
# Velocity P-wave (km/s) = 6.17721 6.45686 6.31858
#
# Compressibility (1/GPa) = 0.02207487
#
# Stress axis : x y z
#
# Youngs Moduli (GPa) = 93.07993 53.18442 80.58242
#
# Poissons Ratio (x) = 0.23734 0.29433
# Poissons Ratio (y) = 0.41537 0.14709
# Poissons Ratio (z) = 0.33998 0.09708
#
# Static dielectric constant tensor:
#      x y z
#    x 4.287690 0.000000 0.000000 
#    y 0.000000 4.107290 0.000000 
#    z 0.000000 0.000000 4.345990 
# 
# 
# High freq. dielectric constant tensor:
#      x y z
#    x 1.942460 0.000000 0.000000 
#    y 0.000000 1.936990 0.000000 
#    z 0.000000 0.000000 1.952870 
# 
# From -- ./inp_files/3069.got.cif
#   From: 2010.03.12/outbox.cif.g09.slc.cpg/sg61_2_cif.got.tgz:3069.got - 2010.04.10 19:05:03.
