data_PCOD8249274
_publ_section_title
;
Structure prediction by ZEFSAII (Michael W. Deem and Ramdas Pophale) SiO2 
 PCOD8249274
Probable space group: P B C A
;
_chemical_formula_sum "Si O2"
_cell_formula_units_Z 64
_cell_length_a 27.417544
_cell_length_b 8.275461
_cell_length_c 13.390083
_cell_angle_alpha 90.000000
_cell_angle_beta 90.000000
_cell_angle_gamma 90.000000
_cell_volume 3038.113640
_symmetry_space_group_name_H-M "P B C A"
_symmetry_group_IT_number 61
_symmetry_cell_setting 'orthorhombic'
loop_
_space_group_symop_operation_xyz
x,y,z
1/2-x,-y,1/2+z
1/2+x,1/2-y,-z
-x,1/2+y,1/2-z
-x,-y,-z
1/2+x,y,1/2-z
1/2-x,1/2+y,z
x,1/2-y,1/2+z
loop_
_atom_site_type_symbol
_atom_site_label
_atom_site_fract_x
_atom_site_fract_y
_atom_site_fract_z
Si Si1 0.851528 0.698872 0.129659
Si Si2 0.903313 0.026776 0.157517
Si Si3 0.751809 0.862976 0.163118
Si Si4 0.936740 0.991098 0.692487
Si Si5 0.193058 0.628533 0.238045
Si Si6 0.181640 0.564386 0.013249
Si Si7 0.080157 0.799187 0.488619
Si Si8 0.532109 0.813399 0.802131
O O1 0.887123 0.853354 0.115118
O O2 0.799997 0.751516 0.173855
O O3 0.881235 0.579074 0.205398
O O4 0.839185 0.608425 0.025085
O O5 0.860352 0.120005 0.215871
O O6 0.925000 0.125622 0.064295
O O7 0.945193 0.032067 0.242611
O O8 0.712478 0.811868 0.248723
O O9 0.726158 0.867434 0.054051
O O10 0.768969 0.042097 0.187168
O O11 0.939300 0.055477 0.579697
O O12 0.948839 0.140512 0.763898
O O13 0.973979 0.841074 0.706517
O O14 0.198716 0.552970 0.128032
O O15 0.137460 0.690991 0.013950
O O16 0.046304 0.814191 0.583408
#
# Coordination Sequence:
#
# PCOD8249274 Si02
#       8
#     8   8   8   8   8   8   8   8
#     4  10  23  43  58  90 132 172 210 269 321 377
#     4  10  21  41  64  93 131 164 211 274 314 390
#     4  11  23  41  60  89 133 163 219 269 318 383
#     4  10  23  41  66  92 134 163 215 270 319 396
#     4  11  23  38  62  91 125 171 214 268 323 385
#     4  11  22  40  63  89 125 173 213 265 327 386
#     4  10  21  40  66  92 127 165 212 262 328 383
#     4  11  21  42  69 101 123 176 209 269 334 389
#
# _framework density 21.065702000000002
#
# number of rings (size 3 to 8) (size 9 to 14) (size 15 to 20)
#    0.000    1.500    3.750    1.125    1.750    0.000 
#    4.500    6.875    0.000    0.000    0.000    0.000 
#    0.000    0.000    0.000    0.000    0.000    0.000 
#
# Total GULP energy -792909.856315 kJ/mol
# GULP energy per Si atom -12389.216505 kJ/mol
# Density = 2.101776 g / cm^3
# Si number density = 21.065702 Si / 1000 Ang^3
#
#
#
# Elastic Constant Matrix: (Units=GPa)
#
#
# Indices 1 2 3 4 5 6 
#
# 1 93.5471 26.6552 23.2202 0.0000 0.0000 0.0000
# 2 26.6552 69.9578 17.5875 0.0000 0.0000 0.0000
# 3 23.2202 17.5875 93.5100 0.0000 0.0000 0.0000
# 4 0.0000 0.0000 0.0000 18.7446 0.0000 0.0000
# 5 0.0000 0.0000 0.0000 0.0000 23.7906 0.0000
# 6 0.0000 0.0000 0.0000 0.0000 0.0000 44.3090
#
#
#
# Elastic Compliance Matrix: (Units=1/GPa)
#
#
# Indices 1 2 3 4 5 6 
#
# 1 0.012449 -0.004163 -0.002308 0.000000 0.000000 0.000000
# 2 -0.004163 0.016396 -0.002050 0.000000 0.000000 0.000000
# 3 -0.002308 -0.002050 0.011653 0.000000 0.000000 0.000000
# 4 0.000000 0.000000 0.000000 0.053349 0.000000 0.000000
# 5 0.000000 0.000000 0.000000 0.000000 0.042033 0.000000
# 6 0.000000 0.000000 0.000000 0.000000 0.000000 0.022569
#
#
# Mechanical properties :
#
#
# Convention : Reuss Voigt Hill
#
# Bulk Modulus (GPa) = 42.63477 43.54897 43.09187
# Shear Modulus (GPa) = 27.27626 30.00564 28.64095
#
# Velocity S-wave (km/s) = 3.60226 3.77820 3.69128
# Velocity P-wave (km/s) = 6.13063 6.30482 6.21834
#
# Compressibility (1/GPa) = 0.02345504
#
# Stress axis : x y z
#
# Youngs Moduli (GPa) = 80.32802 60.99094 85.81621
#
# Poissons Ratio (x) = 0.25390 0.19809
# Poissons Ratio (y) = 0.33440 0.17592
# Poissons Ratio (z) = 0.18542 0.12503
#
# Static dielectric constant tensor:
#      x y z
#    x 4.015170 0.000000 0.000000 
#    y 0.000000 3.984210 0.000000 
#    z 0.000000 0.000000 3.606200 
# 
# 
# High freq. dielectric constant tensor:
#      x y z
#    x 1.843000 0.000000 0.000000 
#    y 0.000000 1.825340 0.000000 
#    z 0.000000 0.000000 1.801640 
# 
# From -- ./inp_files/6768.got.cif
#   From: 2010.03.12/outbox.cif.g09.slc.cpg/sg61_4_cif.got.tgz:6768.got - 2010.04.10 19:05:03.
