data_PCOD8249751
_publ_section_title
;
Structure prediction by ZEFSAII (Michael W. Deem and Ramdas Pophale) SiO2 
 PCOD8249751
Probable space group: P B C A
;
_chemical_formula_sum "Si O2"
_cell_formula_units_Z 48
_cell_length_a 13.335415
_cell_length_b 16.802378
_cell_length_c 9.550382
_cell_angle_alpha 90.000000
_cell_angle_beta 90.000000
_cell_angle_gamma 90.000000
_cell_volume 2139.922422
_symmetry_space_group_name_H-M "P B C A"
_symmetry_group_IT_number 61
_symmetry_cell_setting 'orthorhombic'
loop_
_space_group_symop_operation_xyz
x,y,z
1/2-x,-y,1/2+z
1/2+x,1/2-y,-z
-x,1/2+y,1/2-z
-x,-y,-z
1/2+x,y,1/2-z
1/2-x,1/2+y,z
x,1/2-y,1/2+z
loop_
_atom_site_type_symbol
_atom_site_label
_atom_site_fract_x
_atom_site_fract_y
_atom_site_fract_z
Si Si1 0.955872 0.904677 0.916363
Si Si2 0.161767 0.655812 0.842769
Si Si3 0.258112 0.096410 0.115083
Si Si4 0.167648 0.837633 0.887811
Si Si5 0.786619 0.920485 0.375862
Si Si6 0.984315 0.555343 0.727273
O O1 0.850632 0.858846 0.884043
O O2 0.051624 0.847167 0.931526
O O3 0.966424 0.967399 0.785802
O O4 0.937582 0.939296 0.071746
O O5 0.177485 0.749628 0.826224
O O6 0.256590 0.611824 0.775959
O O7 0.064212 0.624509 0.760930
O O8 0.162698 0.633966 0.006598
O O9 0.309688 0.100010 0.265612
O O10 0.234885 0.003631 0.081679
O O11 0.248188 0.854913 0.011452
O O12 0.905493 0.936882 0.356497
#
# Coordination Sequence:
#
# PCOD8249751 Si02
#       6
#     8   8   8   8   8   8
#     4  11  22  45  73 103 137 187 239 299 358 425
#     4  12  26  44  70 104 145 183 236 304 361 423
#     4  12  25  44  76 104 137 191 242 293 358 441
#     4  12  27  44  69 108 150 181 238 306 364 423
#     4  12  23  46  74 101 137 190 241 290 354 443
#     4  11  23  44  76 101 136 187 245 292 359 431
#
# _framework density 22.430720999999998
#
# number of rings (size 3 to 8) (size 9 to 14) (size 15 to 20)
#    0.000    0.333    6.667    3.000    0.000    4.667 
#    0.000    0.000    0.000    0.000    0.000    0.000 
#    0.000    0.000    0.000    0.000    0.000    0.000 
#
# Total GULP energy -594885.759347 kJ/mol
# GULP energy per Si atom -12393.453320 kJ/mol
# Density = 2.237967 g / cm^3
# Si number density = 22.430721 Si / 1000 Ang^3
#
#
#
# Elastic Constant Matrix: (Units=GPa)
#
#
# Indices 1 2 3 4 5 6 
#
# 1 102.2625 25.4873 37.8099 0.0000 0.0000 0.0000
# 2 25.4873 95.1846 16.8452 0.0000 0.0000 0.0000
# 3 37.8099 16.8452 95.1643 0.0000 0.0000 0.0000
# 4 0.0000 0.0000 0.0000 34.0170 0.0000 0.0000
# 5 0.0000 0.0000 0.0000 0.0000 43.0288 0.0000
# 6 0.0000 0.0000 0.0000 0.0000 0.0000 21.6133
#
#
#
# Elastic Compliance Matrix: (Units=1/GPa)
#
#
# Indices 1 2 3 4 5 6 
#
# 1 0.011989 -0.002444 -0.004331 0.000000 0.000000 0.000000
# 2 -0.002444 0.011344 -0.001037 0.000000 0.000000 0.000000
# 3 -0.004331 -0.001037 0.012412 0.000000 0.000000 0.000000
# 4 0.000000 0.000000 0.000000 0.029397 0.000000 0.000000
# 5 0.000000 0.000000 0.000000 0.000000 0.023240 0.000000
# 6 0.000000 0.000000 0.000000 0.000000 0.000000 0.046268
#
#
# Mechanical properties :
#
#
# Convention : Reuss Voigt Hill
#
# Bulk Modulus (GPa) = 49.69701 50.32179 50.00940
# Shear Modulus (GPa) = 31.85094 33.89641 32.87367
#
# Velocity S-wave (km/s) = 3.77234 3.89158 3.83242
# Velocity P-wave (km/s) = 6.41700 6.53265 6.47509
#
# Compressibility (1/GPa) = 0.02012193
#
# Stress axis : x y z
#
# Youngs Moduli (GPa) = 83.40908 88.15389 80.56461
#
# Poissons Ratio (x) = 0.21543 0.34891
# Poissons Ratio (y) = 0.20384 0.08355
# Poissons Ratio (z) = 0.36123 0.09142
#
# Static dielectric constant tensor:
#      x y z
#    x 3.980660 0.000000 0.000000 
#    y 0.000000 3.719060 0.000000 
#    z 0.000000 0.000000 3.865110 
# 
# 
# High freq. dielectric constant tensor:
#      x y z
#    x 1.891290 0.000000 0.000000 
#    y 0.000000 1.860580 0.000000 
#    z 0.000000 0.000000 1.886900 
# 
# From -- ./inp_files/2823.got.cif
#   From: 2010.03.12/outbox.cif.g09.slc.cpg/sg61_2_cif.got.tgz:2823.got - 2010.04.10 19:05:03.
