data_PCOD8249987
_publ_section_title
;
Structure prediction by ZEFSAII (Michael W. Deem and Ramdas Pophale) SiO2 
 PCOD8249987
Probable space group: P N M A
;
_chemical_formula_sum "Si O2"
_cell_formula_units_Z 64
_cell_length_a 30.322430
_cell_length_b 9.485739
_cell_length_c 14.647215
_cell_angle_alpha 90.000000
_cell_angle_beta 90.000000
_cell_angle_gamma 90.000000
_cell_volume 4212.988071
_symmetry_space_group_name_H-M "P N M A"
_symmetry_group_IT_number 62
_symmetry_cell_setting 'orthorhombic'
loop_
_space_group_symop_operation_xyz
x,y,z
1/2-x,-y,1/2+z
1/2+x,1/2-y,1/2-z
-x,1/2+y,-z
-x,-y,-z
1/2+x,y,1/2-z
1/2-x,1/2+y,1/2+z
x,1/2-y,z
loop_
_atom_site_type_symbol
_atom_site_label
_atom_site_fract_x
_atom_site_fract_y
_atom_site_fract_z
Si Si1 0.637799 0.915070 0.834800
Si Si2 0.794716 0.915299 0.822538
Si Si3 0.324438 0.093350 0.979392
Si Si4 0.862594 0.586840 0.677808
Si Si5 0.951191 0.414018 0.408656
Si Si6 0.950854 0.913719 0.590247
Si Si7 0.778397 0.591978 0.020837
Si Si8 0.211909 0.581904 0.798239
O O1 0.647164 0.750000 0.837653
O O2 0.585059 0.949696 0.829637
O O3 0.666771 0.972917 0.750932
O O4 0.654406 0.977809 0.930907
O O5 0.786612 0.750000 0.831639
O O6 0.842141 0.952259 0.776503
O O7 0.754018 0.973377 0.760572
O O8 0.796900 0.975313 0.925754
O O9 0.343985 0.250000 0.961444
O O10 0.273077 0.102650 0.995071
O O11 0.333942 0.995753 0.894543
O O12 0.854310 0.750000 0.657378
O O13 0.914817 0.550291 0.668969
O O14 0.948303 0.250000 0.434734
O O15 0.939448 0.498337 0.500272
O O16 0.000223 0.453234 0.372588
O O17 0.948687 0.750000 0.563071
O O18 0.797312 0.750000 0.039907
O O19 0.790248 0.488949 0.103084
O O20 0.213549 0.750000 0.811658
#
# Coordination Sequence:
#
# PCOD8249987 Si02
#       8
#     8   8   8   8   8   8   8   8
#     4   9  16  27  44  62  82 115 148 168 201 255
#     4   9  17  29  44  59  82 114 141 166 207 255
#     4  10  17  26  42  62  84 111 143 173 201 245
#     4  10  18  28  42  62  86 115 143 170 207 248
#     4   9  16  27  42  60  85 115 141 168 208 255
#     4   9  17  26  39  63  89 109 138 177 209 245
#     4  10  19  31  44  61  85 112 143 178 209 245
#     4  10  18  30  46  63  82 110 146 177 208 249
#
# _framework density 15.191117999999999
#
# number of rings (size 3 to 8) (size 9 to 14) (size 15 to 20)
#    0.000    2.500    3.750    0.000    0.000    0.000 
#    0.000    2.500    0.000    0.000    0.000    0.875 
#    0.000    0.000    0.000    0.000    0.000    0.000 
#
# Total GULP energy -792951.703977 kJ/mol
# GULP energy per Si atom -12389.870375 kJ/mol
# Density = 1.515654 g / cm^3
# Si number density = 15.191118 Si / 1000 Ang^3
#
#
#
# Elastic Constant Matrix: (Units=GPa)
#
#
# Indices 1 2 3 4 5 6 
#
# 1 109.2048 20.5983 50.8728 0.0000 0.0000 0.0000
# 2 20.5983 27.1190 26.1110 0.0000 0.0000 0.0000
# 3 50.8728 26.1110 102.9820 0.0000 0.0000 0.0000
# 4 0.0000 0.0000 0.0000 19.0859 0.0000 0.0000
# 5 0.0000 0.0000 0.0000 0.0000 23.0986 0.0000
# 6 0.0000 0.0000 0.0000 0.0000 0.0000 -287.6311
#
#
#
# Elastic Compliance Matrix: (Units=1/GPa)
#
#
# Indices 1 2 3 4 5 6 
#
# 1 0.012318 -0.004627 -0.004912 0.000000 0.000000 0.000000
# 2 -0.004627 0.050522 -0.010524 0.000000 0.000000 0.000000
# 3 -0.004912 -0.010524 0.014805 0.000000 0.000000 0.000000
# 4 0.000000 0.000000 0.000000 0.052395 0.000000 0.000000
# 5 0.000000 0.000000 0.000000 0.000000 0.043293 0.000000
# 6 0.000000 0.000000 0.000000 0.000000 0.000000 -0.003477
#
#
# Mechanical properties :
#
#
# Convention : Reuss Voigt Hill
#
# Bulk Modulus (GPa) = 26.65292 48.27445 37.46369
# Shear Modulus (GPa) = 22.47311 -39.64108 -8.58399
#
# Velocity S-wave (km/s) = 3.85042 -5.11386 -2.37969
# Velocity P-wave (km/s) = 6.11153 1.73830 4.14301
#
# Compressibility (1/GPa) = 0.03751934
#
# Stress axis : x y z
#
# Youngs Moduli (GPa) = 81.18173 19.79345 67.54329
#
# Poissons Ratio (x) = 0.09158 0.33177
# Poissons Ratio (y) = 0.37561 0.71083
# Poissons Ratio (z) = 0.39876 0.20831
#
# Static dielectric constant tensor:
#      x y z
#    x 3.176890 0.000000 0.000000 
#    y 0.000000 2.769720 0.000000 
#    z 0.000000 0.000000 2.870150 
# 
# 
# High freq. dielectric constant tensor:
#      x y z
#    x 1.583350 0.000000 0.000000 
#    y 0.000000 1.561010 0.000000 
#    z 0.000000 0.000000 1.555840 
# 
# From -- ./inp_files/21217.got.cif
#   From: 2010.03.12/outbox.cif.g09.slc.cpg/sg62_11_cif.got.tgz:21217.got - 2010.04.10 19:12:36.
