data_PCOD8249301
_publ_section_title
;
Structure prediction by ZEFSAII (Michael W. Deem and Ramdas Pophale) SiO2 
 PCOD8249301
Probable space group: P B C A
;
_chemical_formula_sum "Si O2"
_cell_formula_units_Z 56
_cell_length_a 20.524919
_cell_length_b 13.418062
_cell_length_c 9.223634
_cell_angle_alpha 90.000000
_cell_angle_beta 90.000000
_cell_angle_gamma 90.000000
_cell_volume 2540.231561
_symmetry_space_group_name_H-M "P B C A"
_symmetry_group_IT_number 61
_symmetry_cell_setting 'orthorhombic'
loop_
_space_group_symop_operation_xyz
x,y,z
1/2-x,-y,1/2+z
1/2+x,1/2-y,-z
-x,1/2+y,1/2-z
-x,-y,-z
1/2+x,y,1/2-z
1/2-x,1/2+y,z
x,1/2-y,1/2+z
loop_
_atom_site_type_symbol
_atom_site_label
_atom_site_fract_x
_atom_site_fract_y
_atom_site_fract_z
Si Si1 0.963793 0.715179 0.710515
Si Si2 0.889016 0.960384 0.133245
Si Si3 0.667936 0.173162 0.176996
Si Si4 0.447695 0.074007 0.857753
Si Si5 0.294287 0.847284 0.152232
Si Si6 0.458685 0.400043 0.666430
Si Si7 0.334395 0.028288 0.665622
O O1 0.943995 0.625170 0.599098
O O2 0.901556 0.785599 0.738083
O O3 0.991716 0.652718 0.848742
O O4 0.024730 0.783094 0.665997
O O5 0.843222 0.917589 0.259419
O O6 0.918694 0.064395 0.192418
O O7 0.851405 0.980177 0.987317
O O8 0.719546 0.245856 0.256904
O O9 0.682153 0.060069 0.222659
O O10 0.674614 0.179884 0.003731
O O11 0.393154 0.093034 0.734810
O O12 0.473827 0.961665 0.839332
O O13 0.417264 0.081960 0.018965
O O14 0.225696 0.900686 0.135328
#
# Coordination Sequence:
#
# PCOD8249301 Si02
#       7
#     8   8   8   8   8   8   8
#     4  10  22  38  68  98 130 170 229 273 343 406
#     4  10  24  41  67 103 131 181 227 273 339 406
#     4  11  23  44  75  95 134 180 230 285 340 411
#     4  10  23  39  65 102 128 178 218 281 345 401
#     4  11  25  46  70 101 131 184 235 276 340 405
#     4  10  21  41  65  95 141 167 220 281 339 406
#     4  12  24  46  68  99 142 180 229 283 338 407
#
# _framework density 22.045234000000001
#
# number of rings (size 3 to 8) (size 9 to 14) (size 15 to 20)
#    0.000    1.429    1.429    3.429    8.000    3.429 
#    7.714    0.000    0.000    0.000    0.000    0.000 
#    0.000    0.000    0.000    0.000    0.000    0.000 
#
# Total GULP energy -693967.177534 kJ/mol
# GULP energy per Si atom -12392.271027 kJ/mol
# Density = 2.199506 g / cm^3
# Si number density = 22.045234 Si / 1000 Ang^3
#
#
#
# Elastic Constant Matrix: (Units=GPa)
#
#
# Indices 1 2 3 4 5 6 
#
# 1 67.8476 45.8292 30.0793 0.0000 0.0000 0.0000
# 2 45.8292 101.8446 39.4161 0.0000 0.0000 0.0000
# 3 30.0793 39.4161 128.0666 0.0000 0.0000 0.0000
# 4 0.0000 0.0000 0.0000 24.0577 0.0000 0.0000
# 5 0.0000 0.0000 0.0000 0.0000 23.8876 0.0000
# 6 0.0000 0.0000 0.0000 0.0000 0.0000 46.1277
#
#
#
# Elastic Compliance Matrix: (Units=1/GPa)
#
#
# Indices 1 2 3 4 5 6 
#
# 1 0.021799 -0.008886 -0.002385 0.000000 0.000000 0.000000
# 2 -0.008886 0.014769 -0.002458 0.000000 0.000000 0.000000
# 3 -0.002385 -0.002458 0.009125 0.000000 0.000000 0.000000
# 4 0.000000 0.000000 0.000000 0.041567 0.000000 0.000000
# 5 0.000000 0.000000 0.000000 0.000000 0.041863 0.000000
# 6 0.000000 0.000000 0.000000 0.000000 0.000000 0.021679
#
#
# Mechanical properties :
#
#
# Convention : Reuss Voigt Hill
#
# Bulk Modulus (GPa) = 54.84323 58.71198 56.77761
# Shear Modulus (GPa) = 27.12402 30.97687 29.05045
#
# Velocity S-wave (km/s) = 3.51148 3.75260 3.63404
# Velocity P-wave (km/s) = 6.43213 6.74287 6.58933
#
# Compressibility (1/GPa) = 0.01823379
#
# Stress axis : x y z
#
# Youngs Moduli (GPa) = 45.87445 67.70902 109.58598
#
# Poissons Ratio (x) = 0.60168 0.26135
# Poissons Ratio (y) = 0.40765 0.26941
# Poissons Ratio (z) = 0.10941 0.16646
#
# Static dielectric constant tensor:
#      x y z
#    x 3.790700 0.000000 0.000000 
#    y 0.000000 4.223160 0.000000 
#    z 0.000000 0.000000 3.894670 
# 
# 
# High freq. dielectric constant tensor:
#      x y z
#    x 1.840500 0.000000 0.000000 
#    y 0.000000 1.878940 0.000000 
#    z 0.000000 0.000000 1.867500 
# 
# From -- ./inp_files/3992.got.cif
#   From: 2010.03.12/outbox.cif.g09.slc.cpg/sg61_2_cif.got.tgz:3992.got - 2010.04.10 19:05:03.
