data_PCOD8249967
_publ_section_title
;
Structure prediction by ZEFSAII (Michael W. Deem and Ramdas Pophale) SiO2 
 PCOD8249967
Probable space group: P N M A
;
_chemical_formula_sum "Si O2"
_cell_formula_units_Z 44
_cell_length_a 5.241478
_cell_length_b 15.921087
_cell_length_c 29.526612
_cell_angle_alpha 90.000000
_cell_angle_beta 90.000000
_cell_angle_gamma 90.000000
_cell_volume 2463.996576
_symmetry_space_group_name_H-M "P N M A"
_symmetry_group_IT_number 62
_symmetry_cell_setting 'orthorhombic'
loop_
_space_group_symop_operation_xyz
x,y,z
1/2-x,-y,1/2+z
1/2+x,1/2-y,1/2-z
-x,1/2+y,-z
-x,-y,-z
1/2+x,y,1/2-z
1/2-x,1/2+y,1/2+z
x,1/2-y,z
loop_
_atom_site_type_symbol
_atom_site_label
_atom_site_fract_x
_atom_site_fract_y
_atom_site_fract_z
Si Si1 0.989626 0.444986 0.622270
Si Si2 0.505242 0.653351 0.404627
Si Si3 0.992669 0.899821 0.994310
Si Si4 0.410002 0.750000 0.224217
Si Si5 0.507292 0.432730 0.040530
Si Si6 0.509376 0.066479 0.779668
O O1 0.231432 0.388442 0.610105
O O2 0.012563 0.484526 0.673161
O O3 0.730440 0.391736 0.619526
O O4 0.975643 0.523957 0.589098
O O5 0.510502 0.750000 0.389269
O O6 0.473170 0.647980 0.458471
O O7 0.747366 0.876080 0.963604
O O8 0.247311 0.872754 0.967118
O O9 0.000000 0.000000 0.000000
O O10 0.605093 0.750000 0.267388
O O11 0.481946 0.662491 0.200190
O O12 0.500000 0.500000 0.000000
O O13 0.253614 0.046916 0.751503
#
# Coordination Sequence:
#
# PCOD8249967 Si02
#       6
#     8   8   8   4   8   8
#     4  12  21  34  50  66  86 120 154 196 230 262
#     4  12  23  31  45  71  94 116 150 198 233 260
#     4  10  16  32  47  62  91 115 142 184 217 270
#     4   8  16  30  44  50  68 108 144 176 220 256
#     4  10  16  30  52  66  83 110 149 185 212 271
#     4  10  21  35  44  59  83 112 150 192 233 268
#
# _framework density 17.857168999999999
#
# number of rings (size 3 to 8) (size 9 to 14) (size 15 to 20)
#    0.000    1.455    7.273    1.636    2.545    0.000 
#    3.273    0.000    0.000    0.000    0.000    0.000 
#    0.000    0.000    0.000    0.000    0.000   18.182 
#
# Total GULP energy -545160.571400 kJ/mol
# GULP energy per Si atom -12390.012986 kJ/mol
# Density = 1.781653 g / cm^3
# Si number density = 17.857169 Si / 1000 Ang^3
#
#
#
# Elastic Constant Matrix: (Units=GPa)
#
#
# Indices 1 2 3 4 5 6 
#
# 1 121.3050 -1.4491 3.2164 0.0000 0.0000 0.0000
# 2 -1.4491 5.1716 4.9639 0.0000 0.0000 0.0000
# 3 3.2164 4.9639 99.1851 0.0000 0.0000 0.0000
# 4 0.0000 0.0000 0.0000 14.4170 0.0000 0.0000
# 5 0.0000 0.0000 0.0000 0.0000 15.5329 0.0000
# 6 0.0000 0.0000 0.0000 0.0000 0.0000 8.8761
#
#
#
# Elastic Compliance Matrix: (Units=1/GPa)
#
#
# Indices 1 2 3 4 5 6 
#
# 1 0.008287 0.002710 -0.000404 0.000000 0.000000 0.000000
# 2 0.002710 0.204008 -0.010298 0.000000 0.000000 0.000000
# 3 -0.000404 -0.010298 0.010611 0.000000 0.000000 0.000000
# 4 0.000000 0.000000 0.000000 0.069363 0.000000 0.000000
# 5 0.000000 0.000000 0.000000 0.000000 0.064380 0.000000
# 6 0.000000 0.000000 0.000000 0.000000 0.000000 0.112662
#
#
# Mechanical properties :
#
#
# Convention : Reuss Voigt Hill
#
# Bulk Modulus (GPa) = 4.83275 26.56935 15.70105
# Shear Modulus (GPa) = 9.02092 22.36057 15.69074
#
# Velocity S-wave (km/s) = 2.25004 3.54247 2.96747
# Velocity P-wave (km/s) = 3.07611 5.62523 4.53352
#
# Compressibility (1/GPa) = 0.20692139
#
# Stress axis : x y z
#
# Youngs Moduli (GPa) = 120.67421 4.90177 94.24503
#
# Poissons Ratio (x) = -0.01328 0.03811
# Poissons Ratio (y) = -0.32703 0.97051
# Poissons Ratio (z) = 0.04880 0.05048
#
# Static dielectric constant tensor:
#      x y z
#    x 2.088850 0.000000 0.000000 
#    y 0.000000 2.687440 0.000000 
#    z 0.000000 0.000000 3.300730 
# 
# 
# High freq. dielectric constant tensor:
#      x y z
#    x 1.733460 0.000000 0.000000 
#    y 0.000000 1.607100 0.000000 
#    z 0.000000 0.000000 1.680330 
# 
# From -- ./inp_files/28295.got.cif
#   From: 2010.03.12/outbox.cif.g09.slc.cpg/sg62_15_cif.got.tgz:28295.got - 2010.04.10 19:12:36.
