data_PCOD8249452
_publ_section_title
;
Structure prediction by ZEFSAII (Michael W. Deem and Ramdas Pophale) SiO2 
 PCOD8249452
Probable space group: P B C A
;
_chemical_formula_sum "Si O2"
_cell_formula_units_Z 32
_cell_length_a 8.677574
_cell_length_b 17.806616
_cell_length_c 8.647837
_cell_angle_alpha 90.000000
_cell_angle_beta 90.000000
_cell_angle_gamma 90.000000
_cell_volume 1336.248450
_symmetry_space_group_name_H-M "P B C A"
_symmetry_group_IT_number 61
_symmetry_cell_setting 'orthorhombic'
loop_
_space_group_symop_operation_xyz
x,y,z
1/2-x,-y,1/2+z
1/2+x,1/2-y,-z
-x,1/2+y,1/2-z
-x,-y,-z
1/2+x,y,1/2-z
1/2-x,1/2+y,z
x,1/2-y,1/2+z
loop_
_atom_site_type_symbol
_atom_site_label
_atom_site_fract_x
_atom_site_fract_y
_atom_site_fract_z
Si Si1 0.791891 0.060604 0.560787
Si Si2 0.979618 0.185930 0.177512
Si Si3 0.707705 0.722457 0.463575
Si Si4 0.051406 0.519943 0.249907
O O1 0.783430 0.150489 0.577076
O O2 0.629505 0.025059 0.610122
O O3 0.920034 0.031186 0.678157
O O4 0.823772 0.038516 0.383251
O O5 0.936229 0.212285 0.348373
O O6 0.130750 0.232461 0.125908
O O7 0.016199 0.097155 0.177830
O O8 0.833864 0.204235 0.065242
#
# Coordination Sequence:
#
# PCOD8249452 Si02
#       4
#     8   8   8   8
#     4  10  23  41  65  95 128 172 218 270 328 391
#     4  11  24  44  67  98 135 174 220 276 334 396
#     4  11  25  43  67  96 132 174 221 275 334 400
#     4  10  22  42  65  93 131 170 217 270 328 392
#
# _framework density 23.947642999999999
#
# number of rings (size 3 to 8) (size 9 to 14) (size 15 to 20)
#    0.000    1.500    0.000    4.500    0.000   14.000 
#    0.000    0.000    0.000    0.000    0.000    0.000 
#    0.000    0.000    0.000    0.000    0.000    0.000 
#
# Total GULP energy -396962.633066 kJ/mol
# GULP energy per Si atom -12405.082283 kJ/mol
# Density = 2.389314 g / cm^3
# Si number density = 23.947643 Si / 1000 Ang^3
#
#
#
# Elastic Constant Matrix: (Units=GPa)
#
#
# Indices 1 2 3 4 5 6 
#
# 1 68.5368 19.1220 18.6511 0.0000 0.0000 0.0000
# 2 19.1220 66.7507 35.6066 0.0000 0.0000 0.0000
# 3 18.6511 35.6066 51.3940 0.0000 0.0000 0.0000
# 4 0.0000 0.0000 0.0000 47.1298 0.0000 0.0000
# 5 0.0000 0.0000 0.0000 0.0000 54.0900 0.0000
# 6 0.0000 0.0000 0.0000 0.0000 0.0000 37.1108
#
#
#
# Elastic Compliance Matrix: (Units=1/GPa)
#
#
# Indices 1 2 3 4 5 6 
#
# 1 0.016433 -0.002421 -0.004286 0.000000 0.000000 0.000000
# 2 -0.002421 0.024120 -0.015832 0.000000 0.000000 0.000000
# 3 -0.004286 -0.015832 0.031982 0.000000 0.000000 0.000000
# 4 0.000000 0.000000 0.000000 0.021218 0.000000 0.000000
# 5 0.000000 0.000000 0.000000 0.000000 0.018488 0.000000
# 6 0.000000 0.000000 0.000000 0.000000 0.000000 0.026946
#
#
# Mechanical properties :
#
#
# Convention : Reuss Voigt Hill
#
# Bulk Modulus (GPa) = 36.42232 37.04900 36.73566
# Shear Modulus (GPa) = 25.85094 35.21957 30.53526
#
# Velocity S-wave (km/s) = 3.28910 3.83912 3.57471
# Velocity P-wave (km/s) = 5.44669 5.92927 5.69309
#
# Compressibility (1/GPa) = 0.02745569
#
# Stress axis : x y z
#
# Youngs Moduli (GPa) = 60.85467 41.45948 31.26793
#
# Poissons Ratio (x) = 0.10038 0.13402
# Poissons Ratio (y) = 0.14734 0.49504
# Poissons Ratio (z) = 0.26083 0.65639
#
# Static dielectric constant tensor:
#      x y z
#    x 4.163370 0.000000 0.000000 
#    y 0.000000 4.169700 0.000000 
#    z 0.000000 0.000000 4.304930 
# 
# 
# High freq. dielectric constant tensor:
#      x y z
#    x 1.958660 0.000000 0.000000 
#    y 0.000000 1.935230 0.000000 
#    z 0.000000 0.000000 1.958800 
# 
# From -- ./inp_files/1662.got.cif
#   From: 2010.03.12/outbox.cif.g09.slc.cpg/sg61_1_cif.got.tgz:1662.got - 2010.04.10 19:05:03.
