data_PCOD8249201
_publ_section_title
;
Structure prediction by ZEFSAII (Michael W. Deem and Ramdas Pophale) SiO2 
 PCOD8249201
Probable space group: P B C A
;
_chemical_formula_sum "Si O2"
_cell_formula_units_Z 48
_cell_length_a 7.216123
_cell_length_b 18.575396
_cell_length_c 12.856676
_cell_angle_alpha 90.000000
_cell_angle_beta 90.000000
_cell_angle_gamma 90.000000
_cell_volume 1723.338965
_symmetry_space_group_name_H-M "P B C A"
_symmetry_group_IT_number 61
_symmetry_cell_setting 'orthorhombic'
loop_
_space_group_symop_operation_xyz
x,y,z
1/2-x,-y,1/2+z
1/2+x,1/2-y,-z
-x,1/2+y,1/2-z
-x,-y,-z
1/2+x,y,1/2-z
1/2-x,1/2+y,z
x,1/2-y,1/2+z
loop_
_atom_site_type_symbol
_atom_site_label
_atom_site_fract_x
_atom_site_fract_y
_atom_site_fract_z
Si Si1 0.056614 0.110173 0.226975
Si Si2 0.924025 0.175517 0.942049
Si Si3 0.528046 0.686882 0.574209
Si Si4 0.782147 0.579822 0.077792
Si Si5 0.856340 0.723835 0.732673
Si Si6 0.763753 0.572416 0.472984
O O1 0.041430 0.073898 0.343981
O O2 0.113669 0.192926 0.242709
O O3 0.863509 0.100678 0.168934
O O4 0.212995 0.074080 0.151751
O O5 0.950125 0.192123 0.819122
O O6 0.056611 0.109826 0.976255
O O7 0.994726 0.247924 0.995293
O O8 0.724046 0.147129 0.992974
O O9 0.697044 0.705982 0.651421
O O10 0.346788 0.684444 0.652809
O O11 0.573973 0.612250 0.511962
O O12 0.743754 0.507780 0.015936
#
# Coordination Sequence:
#
# PCOD8249201 Si02
#       6
#     8   8   8   8   8   8
#     4  11  21  43  70  92 134 186 226 271 354 414
#     4  10  21  38  65  94 131 173 225 271 331 399
#     4  11  23  38  65 101 129 172 226 280 330 401
#     4  11  23  43  68  99 136 182 224 281 350 410
#     4  11  22  39  66 100 129 173 228 277 333 401
#     4  10  24  41  67 100 135 179 225 283 342 409
#
# _framework density 27.852906000000001
#
# number of rings (size 3 to 8) (size 9 to 14) (size 15 to 20)
#    0.000    1.333    5.000    2.000    4.667    4.000 
#    0.000    0.833    0.000    0.000    0.000    0.000 
#    0.000    0.000    0.000    0.000    0.000    0.000 
#
# Total GULP energy -594994.492555 kJ/mol
# GULP energy per Si atom -12395.718595 kJ/mol
# Density = 2.778951 g / cm^3
# Si number density = 27.852906 Si / 1000 Ang^3
#
#
#
# Elastic Constant Matrix: (Units=GPa)
#
#
# Indices 1 2 3 4 5 6 
#
# 1 93.1843 17.3697 12.6056 0.0000 0.0000 0.0000
# 2 17.3697 174.8580 115.8564 0.0000 0.0000 0.0000
# 3 12.6056 115.8564 206.1005 0.0000 0.0000 0.0000
# 4 0.0000 0.0000 0.0000 59.7579 0.0000 0.0000
# 5 0.0000 0.0000 0.0000 0.0000 34.0944 0.0000
# 6 0.0000 0.0000 0.0000 0.0000 0.0000 34.0527
#
#
#
# Elastic Compliance Matrix: (Units=1/GPa)
#
#
# Indices 1 2 3 4 5 6 
#
# 1 0.010935 -0.001025 -0.000093 0.000000 0.000000 0.000000
# 2 -0.001025 0.009209 -0.005114 0.000000 0.000000 0.000000
# 3 -0.000093 -0.005114 0.007733 0.000000 0.000000 0.000000
# 4 0.000000 0.000000 0.000000 0.016734 0.000000 0.000000
# 5 0.000000 0.000000 0.000000 0.000000 0.029330 0.000000
# 6 0.000000 0.000000 0.000000 0.000000 0.000000 0.029366
#
#
# Mechanical properties :
#
#
# Convention : Reuss Voigt Hill
#
# Bulk Modulus (GPa) = 64.87875 85.08958 74.98417
# Shear Modulus (GPa) = 41.35351 47.46840 44.41096
#
# Velocity S-wave (km/s) = 3.85737 4.13274 3.99743
# Velocity P-wave (km/s) = 6.57138 7.30675 6.94880
#
# Compressibility (1/GPa) = 0.01541337
#
# Stress axis : x y z
#
# Youngs Moduli (GPa) = 91.44961 108.58665 129.32389
#
# Poissons Ratio (x) = 0.11128 0.01199
# Poissons Ratio (y) = 0.09372 0.66138
# Poissons Ratio (z) = 0.00848 0.55533
#
# Static dielectric constant tensor:
#      x y z
#    x 6.889030 0.000000 0.000000 
#    y 0.000000 4.633060 0.000000 
#    z 0.000000 0.000000 6.730630 
# 
# 
# High freq. dielectric constant tensor:
#      x y z
#    x 2.210630 0.000000 0.000000 
#    y 0.000000 2.082980 0.000000 
#    z 0.000000 0.000000 2.189300 
# 
# From -- ./inp_files/5228.got.cif
#   From: 2010.03.12/outbox.cif.g09.slc.cpg/sg61_3_cif.got.tgz:5228.got - 2010.04.10 19:05:03.
