data_PCOD8249505
_publ_section_title
;
Structure prediction by ZEFSAII (Michael W. Deem and Ramdas Pophale) SiO2 
 PCOD8249505
Probable space group: P B C A
;
_chemical_formula_sum "Si O2"
_cell_formula_units_Z 48
_cell_length_a 8.411284
_cell_length_b 11.307565
_cell_length_c 22.171708
_cell_angle_alpha 90.000000
_cell_angle_beta 90.000000
_cell_angle_gamma 90.000000
_cell_volume 2108.776436
_symmetry_space_group_name_H-M "P B C A"
_symmetry_group_IT_number 61
_symmetry_cell_setting 'orthorhombic'
loop_
_space_group_symop_operation_xyz
x,y,z
1/2-x,-y,1/2+z
1/2+x,1/2-y,-z
-x,1/2+y,1/2-z
-x,-y,-z
1/2+x,y,1/2-z
1/2-x,1/2+y,z
x,1/2-y,1/2+z
loop_
_atom_site_type_symbol
_atom_site_label
_atom_site_fract_x
_atom_site_fract_y
_atom_site_fract_z
Si Si1 0.677839 0.803324 0.945843
Si Si2 0.399425 0.394601 0.837513
Si Si3 0.544875 0.636636 0.851429
Si Si4 0.365867 0.511640 0.642023
Si Si5 0.933787 0.847605 0.722684
Si Si6 0.019303 0.704383 0.929682
O O1 0.552732 0.716397 0.911940
O O2 0.700395 0.924833 0.909692
O O3 0.845664 0.740379 0.951724
O O4 0.619243 0.833489 0.012414
O O5 0.422977 0.528370 0.861224
O O6 0.241282 0.381498 0.798231
O O7 0.550851 0.357357 0.795428
O O8 0.390562 0.310383 0.895449
O O9 0.720805 0.591353 0.833673
O O10 0.479481 0.714800 0.796301
O O11 0.438868 0.440503 0.697240
O O12 0.506267 0.592027 0.614359
#
# Coordination Sequence:
#
# PCOD8249505 Si02
#       6
#     8   8   8   8   8   8
#     4  10  23  44  68 103 138 185 227 287 345 410
#     4  12  27  45  69 104 135 187 231 286 356 406
#     4  10  24  47  70  99 140 183 229 290 342 410
#     4  10  22  47  71  98 140 183 234 284 352 399
#     4  11  28  43  72 100 141 180 238 286 349 419
#     4  11  25  42  71 101 141 182 234 286 347 415
#
# _framework density 22.762014000000001
#
# number of rings (size 3 to 8) (size 9 to 14) (size 15 to 20)
#    0.000    1.333    1.667    1.500   14.000    0.667 
#    0.000    0.000    0.000    0.000    0.000    0.000 
#    0.000    0.000    0.000    0.000    0.000    0.000 
#
# Total GULP energy -595520.408332 kJ/mol
# GULP energy per Si atom -12406.675174 kJ/mol
# Density = 2.271021 g / cm^3
# Si number density = 22.762014 Si / 1000 Ang^3
#
#
#
# Elastic Constant Matrix: (Units=GPa)
#
#
# Indices 1 2 3 4 5 6 
#
# 1 71.1517 6.1810 7.6255 0.0000 0.0000 0.0000
# 2 6.1810 108.7640 9.2224 0.0000 0.0000 0.0000
# 3 7.6255 9.2224 61.5398 0.0000 0.0000 0.0000
# 4 0.0000 0.0000 0.0000 19.6775 0.0000 0.0000
# 5 0.0000 0.0000 0.0000 0.0000 35.6991 0.0000
# 6 0.0000 0.0000 0.0000 0.0000 0.0000 32.3969
#
#
#
# Elastic Compliance Matrix: (Units=1/GPa)
#
#
# Indices 1 2 3 4 5 6 
#
# 1 0.014292 -0.000671 -0.001670 0.000000 0.000000 0.000000
# 2 -0.000671 0.009344 -0.001317 0.000000 0.000000 0.000000
# 3 -0.001670 -0.001317 0.016654 0.000000 0.000000 0.000000
# 4 0.000000 0.000000 0.000000 0.050819 0.000000 0.000000
# 5 0.000000 0.000000 0.000000 0.000000 0.028012 0.000000
# 6 0.000000 0.000000 0.000000 0.000000 0.000000 0.030867
#
#
# Mechanical properties :
#
#
# Convention : Reuss Voigt Hill
#
# Bulk Modulus (GPa) = 30.32746 31.94592 31.13669
# Shear Modulus (GPa) = 29.70959 32.11648 30.91303
#
# Velocity S-wave (km/s) = 3.61671 3.76036 3.68924
# Velocity P-wave (km/s) = 5.54918 5.73751 5.64413
#
# Compressibility (1/GPa) = 0.03297342
#
# Stress axis : x y z
#
# Youngs Moduli (GPa) = 69.97040 107.02037 60.04551
#
# Poissons Ratio (x) = 0.07176 0.10030
# Poissons Ratio (y) = 0.04692 0.07909
# Poissons Ratio (z) = 0.11688 0.14097
#
# Static dielectric constant tensor:
#      x y z
#    x 3.953880 0.000000 0.000000 
#    y 0.000000 4.279770 0.000000 
#    z 0.000000 0.000000 3.928990 
# 
# 
# High freq. dielectric constant tensor:
#      x y z
#    x 1.897080 0.000000 0.000000 
#    y 0.000000 1.911080 0.000000 
#    z 0.000000 0.000000 1.890930 
# 
# From -- ./inp_files/6574.got.cif
#   From: 2010.03.12/outbox.cif.g09.slc.cpg/sg61_4_cif.got.tgz:6574.got - 2010.04.10 19:05:03.
