data_PCOD8249809
_publ_section_title
;
Structure prediction by ZEFSAII (Michael W. Deem and Ramdas Pophale) SiO2 
 PCOD8249809
Probable space group: P B C A
;
_chemical_formula_sum "Si O2"
_cell_formula_units_Z 40
_cell_length_a 14.377965
_cell_length_b 11.054256
_cell_length_c 9.696414
_cell_angle_alpha 90.000000
_cell_angle_beta 90.000000
_cell_angle_gamma 90.000000
_cell_volume 1541.125796
_symmetry_space_group_name_H-M "P B C A"
_symmetry_group_IT_number 61
_symmetry_cell_setting 'orthorhombic'
loop_
_space_group_symop_operation_xyz
x,y,z
1/2-x,-y,1/2+z
1/2+x,1/2-y,-z
-x,1/2+y,1/2-z
-x,-y,-z
1/2+x,y,1/2-z
1/2-x,1/2+y,z
x,1/2-y,1/2+z
loop_
_atom_site_type_symbol
_atom_site_label
_atom_site_fract_x
_atom_site_fract_y
_atom_site_fract_z
Si Si1 0.229476 0.380231 0.761683
Si Si2 0.906537 0.101172 0.772082
Si Si3 0.909551 0.015038 0.320591
Si Si4 0.054106 0.765922 0.491087
Si Si5 0.346294 0.718113 0.533989
O O1 0.169926 0.501721 0.754878
O O2 0.337380 0.417083 0.780865
O O3 0.196282 0.291004 0.881745
O O4 0.221306 0.305938 0.619366
O O5 0.897433 0.206821 0.655844
O O6 0.009633 0.044120 0.770522
O O7 0.890423 0.165097 0.920764
O O8 0.850140 0.915291 0.401934
O O9 0.956036 0.106931 0.428558
O O10 0.948386 0.720652 0.467598
#
# Coordination Sequence:
#
# PCOD8249809 Si02
#       5
#     8   8   8   8   8
#     4  12  27  48  75 112 151 196 255 309 373 451
#     4  11  25  51  73 111 147 198 248 314 373 453
#     4  11  25  45  77 104 151 200 247 310 376 442
#     4  11  23  49  78 101 152 196 244 312 381 440
#     4  11  24  50  72 106 153 190 247 318 367 449
#
# _framework density 25.955051000000001
#
# number of rings (size 3 to 8) (size 9 to 14) (size 15 to 20)
#    0.000    0.800    4.000    3.600    2.800    5.600 
#    3.600    0.000    0.000    0.000    0.000    0.000 
#    0.000    0.000    0.000    0.000    0.000    0.000 
#
# Total GULP energy -496275.269684 kJ/mol
# GULP energy per Si atom -12406.881742 kJ/mol
# Density = 2.589598 g / cm^3
# Si number density = 25.955051 Si / 1000 Ang^3
#
#
#
# Elastic Constant Matrix: (Units=GPa)
#
#
# Indices 1 2 3 4 5 6 
#
# 1 71.1947 30.5326 20.0846 0.0000 0.0000 0.0000
# 2 30.5326 76.5042 37.3368 0.0000 0.0000 0.0000
# 3 20.0846 37.3368 118.3933 0.0000 0.0000 0.0000
# 4 0.0000 0.0000 0.0000 42.3112 0.0000 0.0000
# 5 0.0000 0.0000 0.0000 0.0000 22.3703 0.0000
# 6 0.0000 0.0000 0.0000 0.0000 0.0000 36.3292
#
#
#
# Elastic Compliance Matrix: (Units=1/GPa)
#
#
# Indices 1 2 3 4 5 6 
#
# 1 0.017024 -0.006364 -0.000881 0.000000 0.000000 0.000000
# 2 -0.006364 0.017828 -0.004543 0.000000 0.000000 0.000000
# 3 -0.000881 -0.004543 0.010028 0.000000 0.000000 0.000000
# 4 0.000000 0.000000 0.000000 0.023634 0.000000 0.000000
# 5 0.000000 0.000000 0.000000 0.000000 0.044702 0.000000
# 6 0.000000 0.000000 0.000000 0.000000 0.000000 0.027526
#
#
# Mechanical properties :
#
#
# Convention : Reuss Voigt Hill
#
# Bulk Modulus (GPa) = 46.93792 49.11114 48.02453
# Shear Modulus (GPa) = 29.16805 32.07801 30.62303
#
# Velocity S-wave (km/s) = 3.35594 3.51936 3.43862
# Velocity P-wave (km/s) = 5.75673 5.95627 5.85735
#
# Compressibility (1/GPa) = 0.02130474
#
# Stress axis : x y z
#
# Youngs Moduli (GPa) = 58.74097 56.09117 99.71627
#
# Poissons Ratio (x) = 0.35698 0.08784
# Poissons Ratio (y) = 0.37384 0.45298
# Poissons Ratio (z) = 0.05175 0.25480
#
# Static dielectric constant tensor:
#      x y z
#    x 4.656310 0.000000 0.000000 
#    y 0.000000 4.670970 0.000000 
#    z 0.000000 0.000000 4.621740 
# 
# 
# High freq. dielectric constant tensor:
#      x y z
#    x 2.047470 0.000000 0.000000 
#    y 0.000000 2.047330 0.000000 
#    z 0.000000 0.000000 2.030060 
# 
# From -- ./inp_files/3308.got.cif
#   From: 2010.03.12/outbox.cif.g09.slc.cpg/sg61_2_cif.got.tgz:3308.got - 2010.04.10 19:05:03.
