data_PCOD8249864
_publ_section_title
;
Structure prediction by ZEFSAII (Michael W. Deem and Ramdas Pophale) SiO2 
 PCOD8249864
Probable space group: P B C A
;
_chemical_formula_sum "Si O2"
_cell_formula_units_Z 48
_cell_length_a 17.131207
_cell_length_b 10.281221
_cell_length_c 12.533440
_cell_angle_alpha 90.000000
_cell_angle_beta 90.000000
_cell_angle_gamma 90.000000
_cell_volume 2207.511343
_symmetry_space_group_name_H-M "P B C A"
_symmetry_group_IT_number 61
_symmetry_cell_setting 'orthorhombic'
loop_
_space_group_symop_operation_xyz
x,y,z
1/2-x,-y,1/2+z
1/2+x,1/2-y,-z
-x,1/2+y,1/2-z
-x,-y,-z
1/2+x,y,1/2-z
1/2-x,1/2+y,z
x,1/2-y,1/2+z
loop_
_atom_site_type_symbol
_atom_site_label
_atom_site_fract_x
_atom_site_fract_y
_atom_site_fract_z
Si Si1 0.453435 0.630705 0.984013
Si Si2 0.311550 0.675501 0.127138
Si Si3 0.217894 0.935824 0.806438
Si Si4 0.791044 0.168066 0.568671
Si Si5 0.969672 0.116190 0.570506
Si Si6 0.091029 0.390639 0.247296
O O1 0.428181 0.665152 0.863923
O O2 0.500000 0.500000 0.000000
O O3 0.378116 0.610400 0.056876
O O4 0.507757 0.746549 0.021750
O O5 0.283257 0.571261 0.214483
O O6 0.345715 0.803142 0.184497
O O7 0.237874 0.708083 0.049946
O O8 0.213589 0.796770 0.861324
O O9 0.236159 0.054078 0.886092
O O10 0.132053 0.967632 0.757747
O O11 0.876912 0.107749 0.573132
O O12 0.008662 0.098489 0.686703
O O13 0.000000 0.000000 0.500000
#
# Coordination Sequence:
#
# PCOD8249864 Si02
#       6
#     8   8   8   8   8   8
#     4  11  25  46  69 102 144 196 243 299 367 438
#     4  11  25  45  72 101 149 190 242 309 364 433
#     4  12  25  46  74 108 140 193 244 305 365 446
#     4  12  28  46  75 109 146 190 252 301 374 445
#     4  11  28  44  73 105 147 190 240 303 364 443
#     4  11  25  47  71 104 146 193 240 298 371 435
#
# _framework density 21.743943000000002
#
# number of rings (size 3 to 8) (size 9 to 14) (size 15 to 20)
#    0.000    0.667    3.333    2.000   11.667    4.000 
#    0.000    0.000    0.000    0.000    0.000    0.000 
#    0.000    0.000    0.000    0.000    0.000    0.000 
#
# Total GULP energy -595259.174151 kJ/mol
# GULP energy per Si atom -12401.232795 kJ/mol
# Density = 2.169445 g / cm^3
# Si number density = 21.743943 Si / 1000 Ang^3
#
#
#
# Elastic Constant Matrix: (Units=GPa)
#
#
# Indices 1 2 3 4 5 6 
#
# 1 115.3807 37.5195 40.8565 0.0000 0.0000 0.0000
# 2 37.5195 123.8320 36.5600 0.0000 0.0000 0.0000
# 3 40.8565 36.5600 127.5623 0.0000 0.0000 0.0000
# 4 0.0000 0.0000 0.0000 32.0463 0.0000 0.0000
# 5 0.0000 0.0000 0.0000 0.0000 34.0144 0.0000
# 6 0.0000 0.0000 0.0000 0.0000 0.0000 31.9217
#
#
#
# Elastic Compliance Matrix: (Units=1/GPa)
#
#
# Indices 1 2 3 4 5 6 
#
# 1 0.010371 -0.002362 -0.002645 0.000000 0.000000 0.000000
# 2 -0.002362 0.009360 -0.001926 0.000000 0.000000 0.000000
# 3 -0.002645 -0.001926 0.009239 0.000000 0.000000 0.000000
# 4 0.000000 0.000000 0.000000 0.031205 0.000000 0.000000
# 5 0.000000 0.000000 0.000000 0.000000 0.029399 0.000000
# 6 0.000000 0.000000 0.000000 0.000000 0.000000 0.031327
#
#
# Mechanical properties :
#
#
# Convention : Reuss Voigt Hill
#
# Bulk Modulus (GPa) = 66.20650 66.29408 66.25029
# Shear Modulus (GPa) = 35.76521 36.38574 36.07548
#
# Velocity S-wave (km/s) = 4.06006 4.09513 4.07763
# Velocity P-wave (km/s) = 7.24521 7.27426 7.25975
#
# Compressibility (1/GPa) = 0.01510426
#
# Stress axis : x y z
#
# Youngs Moduli (GPa) = 96.41819 106.84169 108.24240
#
# Poissons Ratio (x) = 0.25231 0.28630
# Poissons Ratio (y) = 0.22769 0.20849
# Poissons Ratio (z) = 0.25503 0.20579
#
# Static dielectric constant tensor:
#      x y z
#    x 4.344650 0.000000 0.000000 
#    y 0.000000 3.799270 0.000000 
#    z 0.000000 0.000000 4.340870 
# 
# 
# High freq. dielectric constant tensor:
#      x y z
#    x 1.869580 0.000000 0.000000 
#    y 0.000000 1.852800 0.000000 
#    z 0.000000 0.000000 1.870210 
# 
# From -- ./inp_files/6146.got.cif
#   From: 2010.03.12/outbox.cif.g09.slc.cpg/sg61_4_cif.got.tgz:6146.got - 2010.04.10 19:05:03.
