data_PCOD8249521
_publ_section_title
;
Structure prediction by ZEFSAII (Michael W. Deem and Ramdas Pophale) SiO2 
 PCOD8249521
Probable space group: P B C A
;
_chemical_formula_sum "Si O2"
_cell_formula_units_Z 48
_cell_length_a 25.851378
_cell_length_b 5.732029
_cell_length_c 12.076298
_cell_angle_alpha 90.000000
_cell_angle_beta 90.000000
_cell_angle_gamma 90.000000
_cell_volume 1789.476083
_symmetry_space_group_name_H-M "P B C A"
_symmetry_group_IT_number 61
_symmetry_cell_setting 'orthorhombic'
loop_
_space_group_symop_operation_xyz
x,y,z
1/2-x,-y,1/2+z
1/2+x,1/2-y,-z
-x,1/2+y,1/2-z
-x,-y,-z
1/2+x,y,1/2-z
1/2-x,1/2+y,z
x,1/2-y,1/2+z
loop_
_atom_site_type_symbol
_atom_site_label
_atom_site_fract_x
_atom_site_fract_y
_atom_site_fract_z
Si Si1 0.114318 0.569097 0.768502
Si Si2 0.890926 0.852765 0.964758
Si Si3 0.226486 0.377895 0.510102
Si Si4 0.228388 0.091859 0.272938
Si Si5 0.067168 0.540016 0.164898
Si Si6 0.035240 0.244105 0.860070
O O1 0.100938 0.510488 0.641423
O O2 0.170323 0.480473 0.802688
O O3 0.106437 0.846701 0.756417
O O4 0.073477 0.468452 0.855159
O O5 0.834310 0.892425 0.016081
O O6 0.897426 0.582229 0.927034
O O7 0.937115 0.921298 0.049047
O O8 0.253392 0.620046 0.461943
O O9 0.238033 0.382555 0.641724
O O10 0.238444 0.362504 0.319662
O O11 0.032730 0.361588 0.237133
O O12 0.023442 0.697607 0.104543
#
# Coordination Sequence:
#
# PCOD8249521 Si02
#       6
#     8   8   8   8   8   8
#     4  10  23  40  63  93 127 170 216 268 335 395
#     4  10  24  39  68  94 124 172 225 264 331 407
#     4   9  19  37  62  96 133 169 216 278 335 395
#     4   9  19  34  62  92 127 171 220 273 331 400
#     4  11  23  42  65  91 130 169 219 272 334 395
#     4  11  23  44  61  95 130 170 215 280 330 390
#
# _framework density 26.823492999999999
#
# number of rings (size 3 to 8) (size 9 to 14) (size 15 to 20)
#    0.000    2.000    1.667    0.500   14.000    2.000 
#    0.000    1.667    0.000    0.000    0.000    0.000 
#    0.000    0.000    0.000    0.000    0.000    0.000 
#
# Total GULP energy -594769.643700 kJ/mol
# GULP energy per Si atom -12391.034244 kJ/mol
# Density = 2.676244 g / cm^3
# Si number density = 26.823493 Si / 1000 Ang^3
#
#
#
# Elastic Constant Matrix: (Units=GPa)
#
#
# Indices 1 2 3 4 5 6 
#
# 1 104.3843 49.1211 -8.0056 0.0000 0.0000 0.0000
# 2 49.1211 116.2231 33.9999 0.0000 0.0000 0.0000
# 3 -8.0056 33.9999 45.7958 0.0000 0.0000 0.0000
# 4 0.0000 0.0000 0.0000 53.0263 0.0000 0.0000
# 5 0.0000 0.0000 0.0000 0.0000 37.7640 0.0000
# 6 0.0000 0.0000 0.0000 0.0000 0.0000 41.0846
#
#
#
# Elastic Compliance Matrix: (Units=1/GPa)
#
#
# Indices 1 2 3 4 5 6 
#
# 1 0.014356 -0.008689 0.008960 0.000000 0.000000 0.000000
# 2 -0.008689 0.016250 -0.013583 0.000000 0.000000 0.000000
# 3 0.008960 -0.013583 0.033487 0.000000 0.000000 0.000000
# 4 0.000000 0.000000 0.000000 0.018859 0.000000 0.000000
# 5 0.000000 0.000000 0.000000 0.000000 0.026480 0.000000
# 6 0.000000 0.000000 0.000000 0.000000 0.000000 0.024340
#
#
# Mechanical properties :
#
#
# Convention : Reuss Voigt Hill
#
# Bulk Modulus (GPa) = 26.68841 46.29268 36.49054
# Shear Modulus (GPa) = 28.92097 39.12751 34.02424
#
# Velocity S-wave (km/s) = 3.28715 3.82344 3.56539
# Velocity P-wave (km/s) = 4.93745 6.06526 5.53018
#
# Compressibility (1/GPa) = 0.03746945
#
# Stress axis : x y z
#
# Youngs Moduli (GPa) = 69.65781 61.53839 29.86238
#
# Poissons Ratio (x) = 0.53469 -0.26757
# Poissons Ratio (y) = 0.60523 0.40563
# Poissons Ratio (z) = -0.62415 0.83589
#
# Static dielectric constant tensor:
#      x y z
#    x 4.570380 0.000000 0.000000 
#    y 0.000000 5.319500 0.000000 
#    z 0.000000 0.000000 5.125460 
# 
# 
# High freq. dielectric constant tensor:
#      x y z
#    x 2.066930 0.000000 0.000000 
#    y 0.000000 2.086960 0.000000 
#    z 0.000000 0.000000 2.109290 
# 
# From -- ./inp_files/8588.got.cif
#   From: 2010.03.12/outbox.cif.g09.slc.cpg/sg61_5_cif.got.tgz:8588.got - 2010.04.10 19:05:03.
