data_PCOD8249995
_publ_section_title
;
Structure prediction by ZEFSAII (Michael W. Deem and Ramdas Pophale) SiO2 
 PCOD8249995
Probable space group: P N M A
;
_chemical_formula_sum "Si O2"
_cell_formula_units_Z 56
_cell_length_a 22.528075
_cell_length_b 8.759868
_cell_length_c 17.779311
_cell_angle_alpha 90.000000
_cell_angle_beta 90.000000
_cell_angle_gamma 90.000000
_cell_volume 3508.621918
_symmetry_space_group_name_H-M "P N M A"
_symmetry_group_IT_number 62
_symmetry_cell_setting 'orthorhombic'
loop_
_space_group_symop_operation_xyz
x,y,z
1/2-x,-y,1/2+z
1/2+x,1/2-y,1/2-z
-x,1/2+y,-z
-x,-y,-z
1/2+x,y,1/2-z
1/2-x,1/2+y,1/2+z
x,1/2-y,z
loop_
_atom_site_type_symbol
_atom_site_label
_atom_site_fract_x
_atom_site_fract_y
_atom_site_fract_z
Si Si1 0.564589 0.930853 0.003083
Si Si2 0.698006 0.925558 0.729902
Si Si3 0.317684 0.427832 0.728208
Si Si4 0.285579 0.929107 0.582197
Si Si5 0.146807 0.428710 0.375287
Si Si6 0.654133 0.926427 0.882118
Si Si7 0.221135 0.924166 0.930803
O O1 0.559211 0.750000 0.000705
O O2 0.597221 0.980994 0.078827
O O3 0.601210 0.999605 0.931093
O O4 0.500000 0.000000 0.000000
O O5 0.722208 0.750000 0.738029
O O6 0.645363 0.952150 0.791423
O O7 0.679077 0.951503 0.643056
O O8 0.749557 0.042408 0.750588
O O9 0.332537 0.250000 0.731023
O O10 0.328620 0.491147 0.643558
O O11 0.358573 0.515181 0.788964
O O12 0.290460 0.750000 0.594532
O O13 0.218325 0.991779 0.593363
O O14 0.304766 0.972166 0.497523
O O15 0.133512 0.250000 0.379199
O O16 0.211617 0.469080 0.408658
O O17 0.654219 0.750000 0.903040
O O18 0.218193 0.750000 0.957806
#
# Coordination Sequence:
#
# PCOD8249995 Si02
#       7
#     8   8   8   8   8   8   8
#     4  11  21  33  47  66  87 117 157 195 231 267
#     4   8  15  28  42  60  83 112 145 180 218 262
#     4  10  18  27  41  62  85 112 146 180 218 264
#     4  10  17  27  42  61  87 118 149 177 212 260
#     4  10  19  32  46  61  85 116 149 187 227 266
#     4   8  15  28  44  58  80 114 149 182 220 261
#     4   9  16  25  41  64  89 112 142 178 217 260
#
# _framework density 15.960682
#
# number of rings (size 3 to 8) (size 9 to 14) (size 15 to 20)
#    0.000    2.571    1.429    4.286    0.000    2.286 
#    0.000    0.714    0.000    0.000    0.000    0.000 
#    0.000    1.143    0.000    3.143    0.000    4.571 
#
# Total GULP energy -693895.816937 kJ/mol
# GULP energy per Si atom -12390.996731 kJ/mol
# Density = 1.592435 g / cm^3
# Si number density = 15.960682 Si / 1000 Ang^3
#
#
#
# Elastic Constant Matrix: (Units=GPa)
#
#
# Indices 1 2 3 4 5 6 
#
# 1 48.4192 14.5029 39.4750 0.0000 0.0000 0.0000
# 2 14.5029 60.6128 34.4838 0.0000 0.0000 0.0000
# 3 39.4750 34.4838 149.9017 0.0000 0.0000 0.0000
# 4 0.0000 0.0000 0.0000 27.4184 0.0000 0.0000
# 5 0.0000 0.0000 0.0000 0.0000 14.2424 0.0000
# 6 0.0000 0.0000 0.0000 0.0000 0.0000 15.1969
#
#
#
# Elastic Compliance Matrix: (Units=1/GPa)
#
#
# Indices 1 2 3 4 5 6 
#
# 1 0.026691 -0.002747 -0.006397 0.000000 0.000000 0.000000
# 2 -0.002747 0.019265 -0.003708 0.000000 0.000000 0.000000
# 3 -0.006397 -0.003708 0.009209 0.000000 0.000000 0.000000
# 4 0.000000 0.000000 0.000000 0.036472 0.000000 0.000000
# 5 0.000000 0.000000 0.000000 0.000000 0.070213 0.000000
# 6 0.000000 0.000000 0.000000 0.000000 0.000000 0.065803
#
#
# Mechanical properties :
#
#
# Convention : Reuss Voigt Hill
#
# Bulk Modulus (GPa) = 33.94412 48.42859 41.18636
# Shear Modulus (GPa) = 18.99859 22.73633 20.86746
#
# Velocity S-wave (km/s) = 3.45387 3.77838 3.61976
# Velocity P-wave (km/s) = 6.10075 7.03158 6.58264
#
# Compressibility (1/GPa) = 0.02946018
#
# Stress axis : x y z
#
# Youngs Moduli (GPa) = 37.46585 51.90689 108.59331
#
# Poissons Ratio (x) = 0.14259 0.69465
# Poissons Ratio (y) = 0.10292 0.40271
# Poissons Ratio (z) = 0.23966 0.19249
#
# Static dielectric constant tensor:
#      x y z
#    x 2.568360 0.000000 0.000000 
#    y 0.000000 2.932350 0.000000 
#    z 0.000000 0.000000 3.523460 
# 
# 
# High freq. dielectric constant tensor:
#      x y z
#    x 1.532720 0.000000 0.000000 
#    y 0.000000 1.612290 0.000000 
#    z 0.000000 0.000000 1.636120 
# 
# From -- ./inp_files/24609.got.cif
#   From: 2010.03.12/outbox.cif.g09.slc.cpg/sg62_13_cif.got.tgz:24609.got - 2010.04.10 19:12:36.
