data_PCOD8249685
_publ_section_title
;
Structure prediction by ZEFSAII (Michael W. Deem and Ramdas Pophale) SiO2 
 PCOD8249685
Probable space group: P B C A
;
_chemical_formula_sum "Si O2"
_cell_formula_units_Z 64
_cell_length_a 7.980322
_cell_length_b 18.230533
_cell_length_c 20.840017
_cell_angle_alpha 90.000000
_cell_angle_beta 90.000000
_cell_angle_gamma 90.000000
_cell_volume 3031.920784
_symmetry_space_group_name_H-M "P B C A"
_symmetry_group_IT_number 61
_symmetry_cell_setting 'orthorhombic'
loop_
_space_group_symop_operation_xyz
x,y,z
1/2-x,-y,1/2+z
1/2+x,1/2-y,-z
-x,1/2+y,1/2-z
-x,-y,-z
1/2+x,y,1/2-z
1/2-x,1/2+y,z
x,1/2-y,1/2+z
loop_
_atom_site_type_symbol
_atom_site_label
_atom_site_fract_x
_atom_site_fract_y
_atom_site_fract_z
Si Si1 0.923003 0.765419 0.249396
Si Si2 0.702522 0.673048 0.586058
Si Si3 0.763886 0.879774 0.711403
Si Si4 0.537171 0.812352 0.623139
Si Si5 0.073984 0.700720 0.624223
Si Si6 0.617212 0.116136 0.839795
Si Si7 0.800989 0.343492 0.940402
Si Si8 0.596858 0.945899 0.832430
O O1 0.798945 0.708468 0.213654
O O2 0.861562 0.847603 0.268269
O O3 0.960903 0.734309 0.319169
O O4 0.077505 0.772783 0.199190
O O5 0.666029 0.760564 0.584218
O O6 0.567319 0.631256 0.630521
O O7 0.681290 0.639994 0.515311
O O8 0.893638 0.661873 0.611228
O O9 0.622447 0.884267 0.655764
O O10 0.711620 0.902756 0.782167
O O11 0.907791 0.933816 0.689405
O O12 0.395698 0.837623 0.574326
O O13 0.231302 0.645693 0.614442
O O14 0.098245 0.770042 0.577912
O O15 0.643815 0.030291 0.831642
O O16 0.877121 0.412775 0.902921
#
# Coordination Sequence:
#
# PCOD8249685 Si02
#       8
#     8   8   8   8   8   8   8   8
#     4  11  20  38  68  98 129 164 220 278 333 402
#     4  11  25  42  69  99 130 177 234 278 334 389
#     4  12  21  40  68  99 132 172 224 276 343 401
#     4  11  20  38  67 101 126 163 226 289 324 391
#     4  12  23  42  71 100 128 176 224 286 338 393
#     4  11  28  44  64 102 143 173 220 279 348 404
#     4  12  22  44  68  96 133 177 234 280 325 399
#     4  12  25  42  64  99 140 181 217 276 345 417
#
# _framework density 21.108730999999999
#
# number of rings (size 3 to 8) (size 9 to 14) (size 15 to 20)
#    0.000    0.500    7.500    1.500    3.500    0.500 
#    4.500    0.625    0.000    0.000    0.000    0.000 
#    0.000    0.000    0.000    0.000    0.000    0.000 
#
# Total GULP energy -793248.666198 kJ/mol
# GULP energy per Si atom -12394.510409 kJ/mol
# Density = 2.106069 g / cm^3
# Si number density = 21.108731 Si / 1000 Ang^3
#
#
#
# Elastic Constant Matrix: (Units=GPa)
#
#
# Indices 1 2 3 4 5 6 
#
# 1 111.4346 26.6070 18.4557 0.0000 0.0000 0.0000
# 2 26.6070 104.7506 17.0130 0.0000 0.0000 0.0000
# 3 18.4557 17.0130 78.0330 0.0000 0.0000 0.0000
# 4 0.0000 0.0000 0.0000 -7.0600 0.0000 0.0000
# 5 0.0000 0.0000 0.0000 0.0000 -8.5604 0.0000
# 6 0.0000 0.0000 0.0000 0.0000 0.0000 23.0010
#
#
#
# Elastic Compliance Matrix: (Units=1/GPa)
#
#
# Indices 1 2 3 4 5 6 
#
# 1 0.009802 -0.002191 -0.001841 0.000000 0.000000 0.000000
# 2 -0.002191 0.010387 -0.001746 0.000000 0.000000 0.000000
# 3 -0.001841 -0.001746 0.013631 0.000000 0.000000 0.000000
# 4 0.000000 0.000000 0.000000 -0.141642 0.000000 0.000000
# 5 0.000000 0.000000 0.000000 0.000000 -0.116816 0.000000
# 6 0.000000 0.000000 0.000000 0.000000 0.000000 0.043476
#
#
# Mechanical properties :
#
#
# Convention : Reuss Voigt Hill
#
# Bulk Modulus (GPa) = 44.91540 46.48552 45.70046
# Shear Modulus (GPa) = -30.82876 16.95228 -6.93824
#
# Velocity S-wave (km/s) = -3.82576 2.83696 -1.81495
# Velocity P-wave (km/s) = 1.34501 5.72721 4.15992
#
# Compressibility (1/GPa) = 0.02226408
#
# Stress axis : x y z
#
# Youngs Moduli (GPa) = 102.02216 96.27815 73.36127
#
# Poissons Ratio (x) = 0.21092 0.13503
# Poissons Ratio (y) = 0.22350 0.12812
# Poissons Ratio (z) = 0.18778 0.16814
#
# Static dielectric constant tensor:
#      x y z
#    x 4.014770 0.000000 0.000000 
#    y 0.000000 3.673590 0.000000 
#    z 0.000000 0.000000 4.117550 
# 
# 
# High freq. dielectric constant tensor:
#      x y z
#    x 1.845630 0.000000 0.000000 
#    y 0.000000 1.792430 0.000000 
#    z 0.000000 0.000000 1.820370 
# 
# From -- ./inp_files/10187.got.cif
#   From: 2010.03.12/outbox.cif.g09.slc.cpg/sg61_6_cif.got.tgz:10187.got - 2010.04.10 19:05:03.
