data_PCOD8249780
_publ_section_title
;
Structure prediction by ZEFSAII (Michael W. Deem and Ramdas Pophale) SiO2 
 PCOD8249780
Probable space group: P B C A
;
_chemical_formula_sum "Si O2"
_cell_formula_units_Z 64
_cell_length_a 18.235600
_cell_length_b 12.245481
_cell_length_c 13.725333
_cell_angle_alpha 90.000000
_cell_angle_beta 90.000000
_cell_angle_gamma 90.000000
_cell_volume 3064.917551
_symmetry_space_group_name_H-M "P B C A"
_symmetry_group_IT_number 61
_symmetry_cell_setting 'orthorhombic'
loop_
_space_group_symop_operation_xyz
x,y,z
1/2-x,-y,1/2+z
1/2+x,1/2-y,-z
-x,1/2+y,1/2-z
-x,-y,-z
1/2+x,y,1/2-z
1/2-x,1/2+y,z
x,1/2-y,1/2+z
loop_
_atom_site_type_symbol
_atom_site_label
_atom_site_fract_x
_atom_site_fract_y
_atom_site_fract_z
Si Si1 0.821298 0.732135 0.301047
Si Si2 0.065799 0.737775 0.356260
Si Si3 0.233720 0.760817 0.886637
Si Si4 0.966905 0.727241 0.687733
Si Si5 0.937307 0.502956 0.577833
Si Si6 0.529125 0.377043 0.505335
Si Si7 0.302385 0.600905 0.548432
Si Si8 0.796929 0.583169 0.483864
O O1 0.765546 0.696076 0.216157
O O2 0.903047 0.738801 0.261198
O O3 0.791509 0.846808 0.344660
O O4 0.825479 0.650078 0.391575
O O5 0.149185 0.771773 0.375790
O O6 0.058499 0.606390 0.357916
O O7 0.042059 0.779856 0.249477
O O8 0.014458 0.797042 0.434417
O O9 0.246037 0.851390 0.968699
O O10 0.278796 0.655314 0.921502
O O11 0.947675 0.610169 0.643171
O O12 0.978367 0.824603 0.611388
O O13 0.860831 0.502827 0.519460
O O14 0.000000 0.500000 0.500000
O O15 0.500000 0.500000 0.500000
O O16 0.614345 0.380401 0.480874
O O17 0.277475 0.475534 0.553288
#
# Coordination Sequence:
#
# PCOD8249780 Si02
#       8
#     8   8   8   8   8   8   8   8
#     4  11  23  43  73 101 137 185 235 287 357 427
#     4  12  27  45  74 109 141 186 250 294 355 439
#     4  11  24  45  69 103 142 183 231 297 355 425
#     4  12  25  46  72 105 144 187 241 297 365 425
#     4  12  24  46  74 100 143 191 238 294 358 423
#     4  12  26  47  72 102 148 192 233 297 370 429
#     4  11  23  45  70  99 140 185 230 286 360 428
#     4  11  24  44  72 102 143 186 234 294 359 431
#
# _framework density 20.881473
#
# number of rings (size 3 to 8) (size 9 to 14) (size 15 to 20)
#    0.000    0.500    6.250    2.250    1.750    6.000 
#    2.250    0.000    0.000    0.000    0.000    0.000 
#    0.000    0.000    0.000    0.000    0.000    0.000 
#
# Total GULP energy -793605.880578 kJ/mol
# GULP energy per Si atom -12400.091884 kJ/mol
# Density = 2.083395 g / cm^3
# Si number density = 20.881473 Si / 1000 Ang^3
#
#
#
# Elastic Constant Matrix: (Units=GPa)
#
#
# Indices 1 2 3 4 5 6 
#
# 1 141.7784 33.7041 51.1127 0.0000 0.0000 0.0000
# 2 33.7041 113.6489 41.3479 0.0000 0.0000 0.0000
# 3 51.1127 41.3479 127.9404 0.0000 0.0000 0.0000
# 4 0.0000 0.0000 0.0000 15.4573 0.0000 0.0000
# 5 0.0000 0.0000 0.0000 0.0000 33.2273 0.0000
# 6 0.0000 0.0000 0.0000 0.0000 0.0000 36.9854
#
#
#
# Elastic Compliance Matrix: (Units=1/GPa)
#
#
# Indices 1 2 3 4 5 6 
#
# 1 0.008445 -0.001447 -0.002906 0.000000 0.000000 0.000000
# 2 -0.001447 0.010219 -0.002725 0.000000 0.000000 0.000000
# 3 -0.002906 -0.002725 0.009858 0.000000 0.000000 0.000000
# 4 0.000000 0.000000 0.000000 0.064694 0.000000 0.000000
# 5 0.000000 0.000000 0.000000 0.000000 0.030096 0.000000
# 6 0.000000 0.000000 0.000000 0.000000 0.000000 0.027038
#
#
# Mechanical properties :
#
#
# Convention : Reuss Voigt Hill
#
# Bulk Modulus (GPa) = 69.60687 70.63301 70.11994
# Shear Modulus (GPa) = 29.53434 34.28086 31.90760
#
# Velocity S-wave (km/s) = 3.76490 4.05617 3.91325
# Velocity P-wave (km/s) = 7.23229 7.47234 7.35329
#
# Compressibility (1/GPa) = 0.01436640
#
# Stress axis : x y z
#
# Youngs Moduli (GPa) = 118.41369 97.85244 101.44381
#
# Poissons Ratio (x) = 0.14161 0.29481
# Poissons Ratio (y) = 0.17136 0.27639
# Poissons Ratio (z) = 0.34412 0.26661
#
# Static dielectric constant tensor:
#      x y z
#    x 3.887230 0.000000 0.000000 
#    y 0.000000 3.334710 0.000000 
#    z 0.000000 0.000000 3.504740 
# 
# 
# High freq. dielectric constant tensor:
#      x y z
#    x 1.832630 0.000000 0.000000 
#    y 0.000000 1.819500 0.000000 
#    z 0.000000 0.000000 1.825870 
# 
# From -- ./inp_files/8202.got.cif
#   From: 2010.03.12/outbox.cif.g09.slc.cpg/sg61_5_cif.got.tgz:8202.got - 2010.04.10 19:05:03.
