data_PCOD8249976
_publ_section_title
;
Structure prediction by ZEFSAII (Michael W. Deem and Ramdas Pophale) SiO2 
 PCOD8249976
Probable space group: P N M A
;
_chemical_formula_sum "Si O2"
_cell_formula_units_Z 64
_cell_length_a 26.278232
_cell_length_b 8.897234
_cell_length_c 18.511515
_cell_angle_alpha 90.000000
_cell_angle_beta 90.000000
_cell_angle_gamma 90.000000
_cell_volume 4328.058464
_symmetry_space_group_name_H-M "P N M A"
_symmetry_group_IT_number 62
_symmetry_cell_setting 'orthorhombic'
loop_
_space_group_symop_operation_xyz
x,y,z
1/2-x,-y,1/2+z
1/2+x,1/2-y,1/2-z
-x,1/2+y,-z
-x,-y,-z
1/2+x,y,1/2-z
1/2-x,1/2+y,1/2+z
x,1/2-y,z
loop_
_atom_site_type_symbol
_atom_site_label
_atom_site_fract_x
_atom_site_fract_y
_atom_site_fract_z
Si Si1 0.262327 0.573238 0.591199
Si Si2 0.354798 0.927606 0.344252
Si Si3 0.305826 0.414449 0.802303
Si Si4 0.857403 0.430006 0.834366
Si Si5 0.204812 0.414911 0.708580
Si Si6 0.557639 0.424894 0.421555
Si Si7 0.059652 0.575064 0.928662
Si Si8 0.256170 0.571115 0.428283
O O1 0.272141 0.750000 0.595359
O O2 0.314133 0.489544 0.611761
O O3 0.214966 0.529432 0.642759
O O4 0.247811 0.520772 0.510388
O O5 0.363735 0.750000 0.351866
O O6 0.340618 0.970450 0.261308
O O7 0.310901 0.984467 0.399315
O O8 0.406252 0.015798 0.362969
O O9 0.327691 0.250000 0.821145
O O10 0.346487 0.492714 0.747821
O O11 0.254223 0.399374 0.757437
O O12 0.290067 0.497176 0.877732
O O13 0.855943 0.250000 0.835489
O O14 0.912025 0.490453 0.858417
O O15 0.191748 0.250000 0.676393
O O16 0.570969 0.250000 0.419212
O O17 0.498531 0.457832 0.407496
O O18 0.575066 0.487023 0.498997
O O19 0.068906 0.750000 0.942781
O O20 0.254223 0.750000 0.419094
#
# Coordination Sequence:
#
# PCOD8249976 Si02
#       8
#     8   8   8   8   8   8   8   8
#     4  10  17  24  39  61  83 108 136 167 201 238
#     4   9  16  28  45  59  77 109 141 168 201 239
#     4   7  12  24  39  54  74 100 130 162 193 229
#     4  10  18  28  43  59  77 105 139 172 203 237
#     4   8  15  27  40  55  78 108 137 164 197 237
#     4  10  20  32  43  57  81 109 135 166 203 242
#     4  10  20  31  43  60  81 105 135 171 204 235
#     4   8  14  24  38  57  79 104 133 161 194 235
#
# _framework density 14.787231
#
# number of rings (size 3 to 8) (size 9 to 14) (size 15 to 20)
#    0.000    3.000    0.000    4.500    0.000    3.000 
#    0.000    0.625    0.000    7.500    0.000    0.000 
#    0.000    1.000    0.000    2.250    0.000    3.500 
#
# Total GULP energy -792977.650679 kJ/mol
# GULP energy per Si atom -12390.275792 kJ/mol
# Density = 1.475357 g / cm^3
# Si number density = 14.787231 Si / 1000 Ang^3
#
#
#
# Elastic Constant Matrix: (Units=GPa)
#
#
# Indices 1 2 3 4 5 6 
#
# 1 67.5021 28.0266 47.4096 0.0000 0.0000 0.0000
# 2 28.0266 50.3141 32.4731 0.0000 0.0000 0.0000
# 3 47.4096 32.4731 101.1724 0.0000 0.0000 0.0000
# 4 0.0000 0.0000 0.0000 19.6782 0.0000 0.0000
# 5 0.0000 0.0000 0.0000 0.0000 27.6525 0.0000
# 6 0.0000 0.0000 0.0000 0.0000 0.0000 20.5656
#
#
#
# Elastic Compliance Matrix: (Units=1/GPa)
#
#
# Indices 1 2 3 4 5 6 
#
# 1 0.024288 -0.007799 -0.008878 0.000000 0.000000 0.000000
# 2 -0.007799 0.027573 -0.005195 0.000000 0.000000 0.000000
# 3 -0.008878 -0.005195 0.015712 0.000000 0.000000 0.000000
# 4 0.000000 0.000000 0.000000 0.050818 0.000000 0.000000
# 5 0.000000 0.000000 0.000000 0.000000 0.036163 0.000000
# 6 0.000000 0.000000 0.000000 0.000000 0.000000 0.048625
#
#
# Mechanical properties :
#
#
# Convention : Reuss Voigt Hill
#
# Bulk Modulus (GPa) = 41.96837 48.31190 45.14013
# Shear Modulus (GPa) = 19.61816 20.98454 20.30135
#
# Velocity S-wave (km/s) = 3.64634 3.77118 3.70928
# Velocity P-wave (km/s) = 6.79491 7.19060 6.99555
#
# Compressibility (1/GPa) = 0.02382747
#
# Stress axis : x y z
#
# Youngs Moduli (GPa) = 41.17245 36.26794 63.64594
#
# Poissons Ratio (x) = 0.28286 0.56506
# Poissons Ratio (y) = 0.32111 0.33065
# Poissons Ratio (z) = 0.36554 0.18842
#
# Static dielectric constant tensor:
#      x y z
#    x 2.768230 0.000000 0.000000 
#    y 0.000000 2.751040 0.000000 
#    z 0.000000 0.000000 3.106700 
# 
# 
# High freq. dielectric constant tensor:
#      x y z
#    x 1.533910 0.000000 0.000000 
#    y 0.000000 1.555050 0.000000 
#    z 0.000000 0.000000 1.558300 
# 
# From -- ./inp_files/24912.got.cif
#   From: 2010.03.12/outbox.cif.g09.slc.cpg/sg62_13_cif.got.tgz:24912.got - 2010.04.10 19:12:36.
