data_PCOD8249072
_publ_section_title
;
Structure prediction by ZEFSAII (Michael W. Deem and Ramdas Pophale) SiO2 
 PCOD8249072
Probable space group: P B C A
;
_chemical_formula_sum "Si O2"
_cell_formula_units_Z 64
_cell_length_a 21.930735
_cell_length_b 8.998168
_cell_length_c 15.362467
_cell_angle_alpha 90.000000
_cell_angle_beta 90.000000
_cell_angle_gamma 90.000000
_cell_volume 3031.574515
_symmetry_space_group_name_H-M "P B C A"
_symmetry_group_IT_number 61
_symmetry_cell_setting 'orthorhombic'
loop_
_space_group_symop_operation_xyz
x,y,z
1/2-x,-y,1/2+z
1/2+x,1/2-y,-z
-x,1/2+y,1/2-z
-x,-y,-z
1/2+x,y,1/2-z
1/2-x,1/2+y,z
x,1/2-y,1/2+z
loop_
_atom_site_type_symbol
_atom_site_label
_atom_site_fract_x
_atom_site_fract_y
_atom_site_fract_z
Si Si1 0.099637 0.067081 0.417736
Si Si2 0.712961 0.147110 0.180415
Si Si3 0.920171 0.240971 0.025859
Si Si4 0.319748 0.950621 0.249460
Si Si5 0.782120 0.234213 0.514951
Si Si6 0.812014 0.924338 0.442876
Si Si7 0.053798 0.942693 0.811275
Si Si8 0.990244 0.258434 0.346995
O O1 0.154297 0.050006 0.347749
O O2 0.128330 0.138175 0.506438
O O3 0.050328 0.178345 0.380858
O O4 0.070158 0.908341 0.439542
O O5 0.689790 0.274155 0.245632
O O6 0.758716 0.036673 0.226775
O O7 0.744152 0.234539 0.101473
O O8 0.954743 0.137002 0.095342
O O9 0.849234 0.195435 0.020575
O O10 0.945552 0.221626 0.928701
O O11 0.376416 0.003179 0.306886
O O12 0.334386 0.985205 0.149055
O O13 0.743094 0.305805 0.435421
O O14 0.786224 0.058455 0.502420
O O15 0.040732 0.833217 0.730828
O O16 0.007413 0.080715 0.808014
#
# Coordination Sequence:
#
# PCOD8249072 Si02
#       8
#     8   8   8   8   8   8   8   8
#     4  10  22  44  66  94 130 180 221 272 351 415
#     4  11  22  40  69  93 138 171 219 277 354 410
#     4  11  23  43  71  97 132 185 226 287 347 406
#     4  12  23  41  64 102 133 174 222 290 339 415
#     4  10  20  40  60  96 125 173 214 268 340 413
#     4  10  22  36  63  92 131 168 217 271 345 404
#     4  12  26  45  69 100 141 181 240 290 340 413
#     4  12  26  47  68  99 138 184 237 285 340 410
#
# _framework density 21.111141
#
# number of rings (size 3 to 8) (size 9 to 14) (size 15 to 20)
#    0.000    1.000    2.500    6.000    0.000    1.000 
#    2.250    0.000    0.000    0.000    0.000    0.000 
#    0.000    0.000    0.000    0.000    0.000    0.000 
#
# Total GULP energy -793666.261023 kJ/mol
# GULP energy per Si atom -12401.035328 kJ/mol
# Density = 2.106309 g / cm^3
# Si number density = 21.111141 Si / 1000 Ang^3
#
#
#
# Elastic Constant Matrix: (Units=GPa)
#
#
# Indices 1 2 3 4 5 6 
#
# 1 77.1242 16.7960 16.4060 0.0000 0.0000 0.0000
# 2 16.7960 77.1409 19.3365 0.0000 0.0000 0.0000
# 3 16.4060 19.3365 94.4011 0.0000 0.0000 0.0000
# 4 0.0000 0.0000 0.0000 31.3144 0.0000 0.0000
# 5 0.0000 0.0000 0.0000 0.0000 31.8968 0.0000
# 6 0.0000 0.0000 0.0000 0.0000 0.0000 35.0211
#
#
#
# Elastic Compliance Matrix: (Units=1/GPa)
#
#
# Indices 1 2 3 4 5 6 
#
# 1 0.013926 -0.002557 -0.001897 0.000000 0.000000 0.000000
# 2 -0.002557 0.014134 -0.002451 0.000000 0.000000 0.000000
# 3 -0.001897 -0.002451 0.011425 0.000000 0.000000 0.000000
# 4 0.000000 0.000000 0.000000 0.031934 0.000000 0.000000
# 5 0.000000 0.000000 0.000000 0.000000 0.031351 0.000000
# 6 0.000000 0.000000 0.000000 0.000000 0.000000 0.028554
#
#
# Mechanical properties :
#
#
# Convention : Reuss Voigt Hill
#
# Bulk Modulus (GPa) = 38.94534 39.30480 39.12507
# Shear Modulus (GPa) = 32.53254 32.72164 32.62709
#
# Velocity S-wave (km/s) = 3.92983 3.94124 3.93554
# Velocity P-wave (km/s) = 6.25134 6.27452 6.26294
#
# Compressibility (1/GPa) = 0.02567702
#
# Stress axis : x y z
#
# Youngs Moduli (GPa) = 71.80628 70.74974 87.52951
#
# Poissons Ratio (x) = 0.18089 0.16600
# Poissons Ratio (y) = 0.18360 0.21452
# Poissons Ratio (z) = 0.13618 0.17340
#
# Static dielectric constant tensor:
#      x y z
#    x 3.928890 0.000000 0.000000 
#    y 0.000000 3.796560 0.000000 
#    z 0.000000 0.000000 3.843300 
# 
# 
# High freq. dielectric constant tensor:
#      x y z
#    x 1.831290 0.000000 0.000000 
#    y 0.000000 1.826970 0.000000 
#    z 0.000000 0.000000 1.831950 
# 
# From -- ./inp_files/8502.got.cif
#   From: 2010.03.12/outbox.cif.g09.slc.cpg/sg61_5_cif.got.tgz:8502.got - 2010.04.10 19:05:03.
