data_PCOD8249342
_publ_section_title
;
Structure prediction by ZEFSAII (Michael W. Deem and Ramdas Pophale) SiO2 
 PCOD8249342
Probable space group: P B C A
;
_chemical_formula_sum "Si O2"
_cell_formula_units_Z 40
_cell_length_a 14.731366
_cell_length_b 7.245466
_cell_length_c 14.694479
_cell_angle_alpha 90.000000
_cell_angle_beta 90.000000
_cell_angle_gamma 90.000000
_cell_volume 1568.424202
_symmetry_space_group_name_H-M "P B C A"
_symmetry_group_IT_number 61
_symmetry_cell_setting 'orthorhombic'
loop_
_space_group_symop_operation_xyz
x,y,z
1/2-x,-y,1/2+z
1/2+x,1/2-y,-z
-x,1/2+y,1/2-z
-x,-y,-z
1/2+x,y,1/2-z
1/2-x,1/2+y,z
x,1/2-y,1/2+z
loop_
_atom_site_type_symbol
_atom_site_label
_atom_site_fract_x
_atom_site_fract_y
_atom_site_fract_z
Si Si1 0.356836 0.352937 0.540505
Si Si2 0.638174 0.351915 0.136333
Si Si3 0.163128 0.929542 0.338512
Si Si4 0.056422 0.579287 0.667109
Si Si5 0.156253 0.222480 0.064980
O O1 0.354352 0.314716 0.431597
O O2 0.435036 0.228826 0.585417
O O3 0.377369 0.567019 0.560901
O O4 0.263415 0.283243 0.586424
O O5 0.728985 0.431174 0.183799
O O6 0.551124 0.450036 0.182137
O O7 0.628728 0.135348 0.150432
O O8 0.641139 0.391454 0.028248
O O9 0.105107 0.839336 0.257132
O O10 0.101348 0.381652 0.643900
#
# Coordination Sequence:
#
# PCOD8249342 Si02
#       5
#     8   8   8   8   8
#     4  10  22  45  72 106 148 192 235 298 358 418
#     4  10  25  49  69 107 143 188 240 305 360 421
#     4  10  26  47  69 106 153 183 236 312 355 422
#     4  12  25  47  76 109 138 200 246 287 367 439
#     4  10  21  43  72 104 144 189 239 296 357 426
#
# _framework density 25.503305000000001
#
# number of rings (size 3 to 8) (size 9 to 14) (size 15 to 20)
#    0.000    1.600    2.000    0.600    5.600    4.800 
#   10.800    0.000    0.000    0.000    0.000    0.000 
#    0.000    0.000    0.000    0.000    0.000    0.000 
#
# Total GULP energy -496267.965357 kJ/mol
# GULP energy per Si atom -12406.699134 kJ/mol
# Density = 2.544526 g / cm^3
# Si number density = 25.503305 Si / 1000 Ang^3
#
#
#
# Elastic Constant Matrix: (Units=GPa)
#
#
# Indices 1 2 3 4 5 6 
#
# 1 125.8535 7.0765 48.9998 0.0000 0.0000 0.0000
# 2 7.0765 42.2290 24.7811 0.0000 0.0000 0.0000
# 3 48.9998 24.7811 103.9048 0.0000 0.0000 0.0000
# 4 0.0000 0.0000 0.0000 28.1401 0.0000 0.0000
# 5 0.0000 0.0000 0.0000 0.0000 31.1684 0.0000
# 6 0.0000 0.0000 0.0000 0.0000 0.0000 33.9298
#
#
#
# Elastic Compliance Matrix: (Units=1/GPa)
#
#
# Indices 1 2 3 4 5 6 
#
# 1 0.009788 0.001242 -0.004912 0.000000 0.000000 0.000000
# 2 0.001242 0.027692 -0.007190 0.000000 0.000000 0.000000
# 3 -0.004912 -0.007190 0.013656 0.000000 0.000000 0.000000
# 4 0.000000 0.000000 0.000000 0.035536 0.000000 0.000000
# 5 0.000000 0.000000 0.000000 0.000000 0.032084 0.000000
# 6 0.000000 0.000000 0.000000 0.000000 0.000000 0.029473
#
#
# Mechanical properties :
#
#
# Convention : Reuss Voigt Hill
#
# Bulk Modulus (GPa) = 33.99596 48.18912 41.09254
# Shear Modulus (GPa) = 27.81572 31.38965 29.60269
#
# Velocity S-wave (km/s) = 3.30611 3.51209 3.41066
# Velocity P-wave (km/s) = 5.28515 5.94833 5.62652
#
# Compressibility (1/GPa) = 0.02941526
#
# Stress axis : x y z
#
# Youngs Moduli (GPa) = 102.16093 36.11190 73.22957
#
# Poissons Ratio (x) = -0.04487 0.35973
# Poissons Ratio (y) = -0.12693 0.52655
# Poissons Ratio (z) = 0.50186 0.25966
#
# Static dielectric constant tensor:
#      x y z
#    x 4.446690 0.000000 0.000000 
#    y 0.000000 4.241700 0.000000 
#    z 0.000000 0.000000 4.641260 
# 
# 
# High freq. dielectric constant tensor:
#      x y z
#    x 2.015900 0.000000 0.000000 
#    y 0.000000 2.014260 0.000000 
#    z 0.000000 0.000000 2.007960 
# 
# From -- ./inp_files/7705.got.cif
#   From: 2010.03.12/outbox.cif.g09.slc.cpg/sg61_4_cif.got.tgz:7705.got - 2010.04.10 19:05:03.
