data_PCOD8249477
_publ_section_title
;
Structure prediction by ZEFSAII (Michael W. Deem and Ramdas Pophale) SiO2 
 PCOD8249477
Probable space group: P B C A
;
_chemical_formula_sum "Si O2"
_cell_formula_units_Z 64
_cell_length_a 11.319432
_cell_length_b 8.538816
_cell_length_c 29.660677
_cell_angle_alpha 90.000000
_cell_angle_beta 90.000000
_cell_angle_gamma 90.000000
_cell_volume 2866.839301
_symmetry_space_group_name_H-M "P B C A"
_symmetry_group_IT_number 61
_symmetry_cell_setting 'orthorhombic'
loop_
_space_group_symop_operation_xyz
x,y,z
1/2-x,-y,1/2+z
1/2+x,1/2-y,-z
-x,1/2+y,1/2-z
-x,-y,-z
1/2+x,y,1/2-z
1/2-x,1/2+y,z
x,1/2-y,1/2+z
loop_
_atom_site_type_symbol
_atom_site_label
_atom_site_fract_x
_atom_site_fract_y
_atom_site_fract_z
Si Si1 0.786766 0.922438 0.829119
Si Si2 0.881112 0.421710 0.949163
Si Si3 0.302238 0.179485 0.394502
Si Si4 0.153076 0.096769 0.834384
Si Si5 0.861415 0.452658 0.236423
Si Si6 0.953746 0.303567 0.796016
Si Si7 0.737890 0.182078 0.892883
Si Si8 0.863789 0.034738 0.550536
O O1 0.648157 0.869819 0.828518
O O2 0.847404 0.796205 0.862992
O O3 0.835024 0.934008 0.778951
O O4 0.805522 0.085441 0.854243
O O5 0.835298 0.273182 0.921990
O O6 0.839036 0.582609 0.926927
O O7 0.022409 0.423042 0.948572
O O8 0.833057 0.411141 0.000023
O O9 0.201874 0.268630 0.366664
O O10 0.383997 0.309550 0.418782
O O11 0.374422 0.065759 0.360677
O O12 0.244115 0.068734 0.432024
O O13 0.245546 0.061458 0.794242
O O14 0.028869 0.159165 0.816216
O O15 0.966750 0.542597 0.211626
O O16 0.897654 0.275643 0.250836
#
# Coordination Sequence:
#
# PCOD8249477 Si02
#       8
#     8   8   8   8   8   8   8   8
#     4  11  24  44  60  96 131 174 224 271 320 386
#     4  10  22  43  69  99 130 173 208 270 331 400
#     4  10  23  41  66  97 133 172 213 277 316 393
#     4  11  24  43  63  96 135 172 225 268 320 387
#     4  12  26  43  64  94 135 174 225 270 325 382
#     4  12  26  41  68  90 129 182 217 273 326 383
#     4  10  23  40  68  94 132 166 215 272 322 385
#     4  10  22  43  70  98 134 168 216 261 337 397
#
# _framework density 22.324238000000001
#
# number of rings (size 3 to 8) (size 9 to 14) (size 15 to 20)
#    0.000    1.250    2.500    2.250    7.000    1.000 
#    0.000    0.000    0.000   10.500    0.000    0.000 
#    0.000    0.000    0.000    0.000    0.000    0.000 
#
# Total GULP energy -793328.625581 kJ/mol
# GULP energy per Si atom -12395.759775 kJ/mol
# Density = 2.227343 g / cm^3
# Si number density = 22.324238 Si / 1000 Ang^3
#
#
#
# Elastic Constant Matrix: (Units=GPa)
#
#
# Indices 1 2 3 4 5 6 
#
# 1 57.2575 11.9736 22.5111 0.0000 0.0000 0.0000
# 2 11.9736 97.8771 30.9121 0.0000 0.0000 0.0000
# 3 22.5111 30.9121 117.3945 0.0000 0.0000 0.0000
# 4 0.0000 0.0000 0.0000 25.4214 0.0000 0.0000
# 5 0.0000 0.0000 0.0000 0.0000 19.9302 0.0000
# 6 0.0000 0.0000 0.0000 0.0000 0.0000 32.8035
#
#
#
# Elastic Compliance Matrix: (Units=1/GPa)
#
#
# Indices 1 2 3 4 5 6 
#
# 1 0.019035 -0.001283 -0.003312 0.000000 0.000000 0.000000
# 2 -0.001283 0.011230 -0.002711 0.000000 0.000000 0.000000
# 3 -0.003312 -0.002711 0.009867 0.000000 0.000000 0.000000
# 4 0.000000 0.000000 0.000000 0.039337 0.000000 0.000000
# 5 0.000000 0.000000 0.000000 0.000000 0.050175 0.000000
# 6 0.000000 0.000000 0.000000 0.000000 0.000000 0.030485
#
#
# Mechanical properties :
#
#
# Convention : Reuss Voigt Hill
#
# Bulk Modulus (GPa) = 39.18396 44.81364 41.99880
# Shear Modulus (GPa) = 27.28534 29.43984 28.36259
#
# Velocity S-wave (km/s) = 3.49983 3.63538 3.56825
# Velocity P-wave (km/s) = 5.82427 6.14320 5.98586
#
# Compressibility (1/GPa) = 0.02552065
#
# Stress axis : x y z
#
# Youngs Moduli (GPa) = 52.53347 89.04692 101.34414
#
# Poissons Ratio (x) = 0.11420 0.33570
# Poissons Ratio (y) = 0.06737 0.27476
# Poissons Ratio (z) = 0.17402 0.24142
#
# Static dielectric constant tensor:
#      x y z
#    x 3.709530 0.000000 0.000000 
#    y 0.000000 4.288280 0.000000 
#    z 0.000000 0.000000 4.267020 
# 
# 
# High freq. dielectric constant tensor:
#      x y z
#    x 1.855920 0.000000 0.000000 
#    y 0.000000 1.897440 0.000000 
#    z 0.000000 0.000000 1.893810 
# 
# From -- ./inp_files/11774.got.cif
#   From: 2010.03.12/outbox.cif.g09.slc.cpg/sg61_6_cif.got.tgz:11774.got - 2010.04.10 19:05:03.
