data_PCOD8249753
_publ_section_title
;
Structure prediction by ZEFSAII (Michael W. Deem and Ramdas Pophale) SiO2 
 PCOD8249753
Probable space group: P B C A
;
_chemical_formula_sum "Si O2"
_cell_formula_units_Z 48
_cell_length_a 8.655317
_cell_length_b 11.641005
_cell_length_c 21.642648
_cell_angle_alpha 90.000000
_cell_angle_beta 90.000000
_cell_angle_gamma 90.000000
_cell_volume 2180.639378
_symmetry_space_group_name_H-M "P B C A"
_symmetry_group_IT_number 61
_symmetry_cell_setting 'orthorhombic'
loop_
_space_group_symop_operation_xyz
x,y,z
1/2-x,-y,1/2+z
1/2+x,1/2-y,-z
-x,1/2+y,1/2-z
-x,-y,-z
1/2+x,y,1/2-z
1/2-x,1/2+y,z
x,1/2-y,1/2+z
loop_
_atom_site_type_symbol
_atom_site_label
_atom_site_fract_x
_atom_site_fract_y
_atom_site_fract_z
Si Si1 0.032672 0.130999 0.309345
Si Si2 0.957424 0.247310 0.927517
Si Si3 0.884871 0.336372 0.678063
Si Si4 0.194272 0.366499 0.015346
Si Si5 0.146566 0.025087 0.924311
Si Si6 0.963100 0.398787 0.122305
O O1 0.203809 0.185026 0.310332
O O2 0.934328 0.207875 0.357648
O O3 0.962383 0.131804 0.242113
O O4 0.026339 0.997533 0.326882
O O5 0.790789 0.245531 0.961646
O O6 0.008908 0.114984 0.931104
O O7 0.077685 0.331924 0.960720
O O8 0.906293 0.437683 0.628959
O O9 0.975711 0.224956 0.653938
O O10 0.098450 0.418955 0.072248
O O11 0.315807 0.458233 0.987840
O O12 0.297173 0.098987 0.909186
#
# Coordination Sequence:
#
# PCOD8249753 Si02
#       6
#     8   8   8   8   8   8
#     4  11  27  44  71  98 136 181 231 282 341 405
#     4  12  25  43  68 105 137 182 229 285 340 419
#     4  11  25  46  69 100 134 185 227 286 336 403
#     4  12  25  42  72 103 140 183 221 285 351 417
#     4  11  22  46  68 100 140 176 227 282 347 404
#     4  11  24  45  72  98 139 179 224 287 342 406
#
# _framework density 22.011893000000001
#
# number of rings (size 3 to 8) (size 9 to 14) (size 15 to 20)
#    0.000    0.667    5.000    3.000    7.000    1.333 
#    0.000    0.000    0.000    0.000    0.000    0.000 
#    0.000    0.000    0.000    0.000    0.000    0.000 
#
# Total GULP energy -595334.122265 kJ/mol
# GULP energy per Si atom -12402.794214 kJ/mol
# Density = 2.196179 g / cm^3
# Si number density = 22.011893 Si / 1000 Ang^3
#
#
#
# Elastic Constant Matrix: (Units=GPa)
#
#
# Indices 1 2 3 4 5 6 
#
# 1 34.7678 15.0771 32.8508 0.0000 0.0000 0.0000
# 2 15.0771 75.4873 24.7957 0.0000 0.0000 0.0000
# 3 32.8508 24.7957 115.2101 0.0000 0.0000 0.0000
# 4 0.0000 0.0000 0.0000 20.3283 0.0000 0.0000
# 5 0.0000 0.0000 0.0000 0.0000 43.5727 0.0000
# 6 0.0000 0.0000 0.0000 0.0000 0.0000 19.9456
#
#
#
# Elastic Compliance Matrix: (Units=1/GPa)
#
#
# Indices 1 2 3 4 5 6 
#
# 1 0.040838 -0.004661 -0.010641 0.000000 0.000000 0.000000
# 2 -0.004661 0.014787 -0.001853 0.000000 0.000000 0.000000
# 3 -0.010641 -0.001853 0.012113 0.000000 0.000000 0.000000
# 4 0.000000 0.000000 0.000000 0.049192 0.000000 0.000000
# 5 0.000000 0.000000 0.000000 0.000000 0.022950 0.000000
# 6 0.000000 0.000000 0.000000 0.000000 0.000000 0.050136
#
#
# Mechanical properties :
#
#
# Convention : Reuss Voigt Hill
#
# Bulk Modulus (GPa) = 29.91657 41.21249 35.56453
# Shear Modulus (GPa) = 21.23400 26.95209 24.09304
#
# Velocity S-wave (km/s) = 3.10927 3.50299 3.31198
# Velocity P-wave (km/s) = 5.14885 5.92661 5.55137
#
# Compressibility (1/GPa) = 0.03342629
#
# Stress axis : x y z
#
# Youngs Moduli (GPa) = 24.48683 67.62679 82.55631
#
# Poissons Ratio (x) = 0.31522 0.87851
# Poissons Ratio (y) = 0.11414 0.15301
# Poissons Ratio (z) = 0.26057 0.12534
#
# Static dielectric constant tensor:
#      x y z
#    x 4.009900 0.000000 0.000000 
#    y 0.000000 3.882020 0.000000 
#    z 0.000000 0.000000 3.990650 
# 
# 
# High freq. dielectric constant tensor:
#      x y z
#    x 1.865060 0.000000 0.000000 
#    y 0.000000 1.871030 0.000000 
#    z 0.000000 0.000000 1.872890 
# 
# From -- ./inp_files/10843.got.cif
#   From: 2010.03.12/outbox.cif.g09.slc.cpg/sg61_6_cif.got.tgz:10843.got - 2010.04.10 19:05:03.
