data_PCOD8249243
_publ_section_title
;
Structure prediction by ZEFSAII (Michael W. Deem and Ramdas Pophale) SiO2 
 PCOD8249243
Probable space group: P B C A
;
_chemical_formula_sum "Si O2"
_cell_formula_units_Z 48
_cell_length_a 15.942150
_cell_length_b 16.014633
_cell_length_c 9.415518
_cell_angle_alpha 90.000000
_cell_angle_beta 90.000000
_cell_angle_gamma 90.000000
_cell_volume 2403.854071
_symmetry_space_group_name_H-M "P B C A"
_symmetry_group_IT_number 61
_symmetry_cell_setting 'orthorhombic'
loop_
_space_group_symop_operation_xyz
x,y,z
1/2-x,-y,1/2+z
1/2+x,1/2-y,-z
-x,1/2+y,1/2-z
-x,-y,-z
1/2+x,y,1/2-z
1/2-x,1/2+y,z
x,1/2-y,1/2+z
loop_
_atom_site_type_symbol
_atom_site_label
_atom_site_fract_x
_atom_site_fract_y
_atom_site_fract_z
Si Si1 0.995737 0.426445 0.392174
Si Si2 0.588887 0.674110 0.445836
Si Si3 0.924840 0.508525 0.890984
Si Si4 0.418324 0.762632 0.408203
Si Si5 0.166351 0.171263 0.634510
Si Si6 0.350931 0.174955 0.730665
O O1 0.902031 0.398542 0.348130
O O2 0.000000 0.500000 0.500000
O O3 0.043643 0.462626 0.259610
O O4 0.042609 0.348692 0.467248
O O5 0.616662 0.583103 0.387658
O O6 0.488656 0.689802 0.427817
O O7 0.617727 0.683295 0.608531
O O8 0.637987 0.737466 0.346957
O O9 0.859129 0.581072 0.930697
O O10 0.000000 0.500000 0.000000
O O11 0.397192 0.783000 0.244361
O O12 0.336059 0.733982 0.498058
O O13 0.253027 0.155664 0.715761
#
# Coordination Sequence:
#
# PCOD8249243 Si02
#       6
#     8   8   8   8   8   8
#     4  10  23  39  62  93 123 166 222 258 304 387
#     4  11  22  42  68  90 125 172 217 257 320 394
#     4  11  21  42  65  89 123 171 215 256 314 387
#     4  10  21  39  66  87 124 168 216 252 315 396
#     4  11  23  42  61  97 129 164 212 268 323 372
#     4  11  24  42  61  96 133 163 212 272 326 373
#
# _framework density 19.967932999999999
#
# number of rings (size 3 to 8) (size 9 to 14) (size 15 to 20)
#    0.000    1.333    3.333    3.000    7.000    0.000 
#    9.000    0.000    0.000    0.000    0.000    0.000 
#    0.000    0.000    0.000    0.000    0.000    0.000 
#
# Total GULP energy -594826.055116 kJ/mol
# GULP energy per Si atom -12392.209482 kJ/mol
# Density = 1.992249 g / cm^3
# Si number density = 19.967933 Si / 1000 Ang^3
#
#
#
# Elastic Constant Matrix: (Units=GPa)
#
#
# Indices 1 2 3 4 5 6 
#
# 1 83.2380 40.4579 32.9941 0.0000 0.0000 0.0000
# 2 40.4579 147.6679 66.6136 0.0000 0.0000 0.0000
# 3 32.9941 66.6136 73.2954 0.0000 0.0000 0.0000
# 4 0.0000 0.0000 0.0000 39.2858 0.0000 0.0000
# 5 0.0000 0.0000 0.0000 0.0000 28.3402 0.0000
# 6 0.0000 0.0000 0.0000 0.0000 0.0000 25.2754
#
#
#
# Elastic Compliance Matrix: (Units=1/GPa)
#
#
# Indices 1 2 3 4 5 6 
#
# 1 0.014897 -0.001790 -0.005079 0.000000 0.000000 0.000000
# 2 -0.001790 0.011693 -0.009821 0.000000 0.000000 0.000000
# 3 -0.005079 -0.009821 0.024855 0.000000 0.000000 0.000000
# 4 0.000000 0.000000 0.000000 0.025454 0.000000 0.000000
# 5 0.000000 0.000000 0.000000 0.000000 0.035286 0.000000
# 6 0.000000 0.000000 0.000000 0.000000 0.000000 0.039564
#
#
# Mechanical properties :
#
#
# Convention : Reuss Voigt Hill
#
# Bulk Modulus (GPa) = 55.35572 64.92584 60.14078
# Shear Modulus (GPa) = 26.15734 29.52265 27.83999
#
# Velocity S-wave (km/s) = 3.62327 3.84930 3.73800
# Velocity P-wave (km/s) = 6.72953 7.23476 6.98672
#
# Compressibility (1/GPa) = 0.01806498
#
# Stress axis : x y z
#
# Youngs Moduli (GPa) = 67.12704 85.52344 40.23311
#
# Poissons Ratio (x) = 0.15313 0.20433
# Poissons Ratio (y) = 0.12019 0.39512
# Poissons Ratio (z) = 0.34092 0.83991
#
# Static dielectric constant tensor:
#      x y z
#    x 3.537160 0.000000 0.000000 
#    y 0.000000 6.143060 0.000000 
#    z 0.000000 0.000000 3.556310 
# 
# 
# High freq. dielectric constant tensor:
#      x y z
#    x 1.760640 0.000000 0.000000 
#    y 0.000000 1.794700 0.000000 
#    z 0.000000 0.000000 1.784050 
# 
# From -- ./inp_files/3439.got.cif
#   From: 2010.03.12/outbox.cif.g09.slc.cpg/sg61_2_cif.got.tgz:3439.got - 2010.04.10 19:05:03.
