data_PCOD8249741
_publ_section_title
;
Structure prediction by ZEFSAII (Michael W. Deem and Ramdas Pophale) SiO2 
 PCOD8249741
Probable space group: P B C A
;
_chemical_formula_sum "Si O2"
_cell_formula_units_Z 48
_cell_length_a 19.487228
_cell_length_b 9.462210
_cell_length_c 12.184404
_cell_angle_alpha 90.000000
_cell_angle_beta 90.000000
_cell_angle_gamma 90.000000
_cell_volume 2246.709591
_symmetry_space_group_name_H-M "P B C A"
_symmetry_group_IT_number 61
_symmetry_cell_setting 'orthorhombic'
loop_
_space_group_symop_operation_xyz
x,y,z
1/2-x,-y,1/2+z
1/2+x,1/2-y,-z
-x,1/2+y,1/2-z
-x,-y,-z
1/2+x,y,1/2-z
1/2-x,1/2+y,z
x,1/2-y,1/2+z
loop_
_atom_site_type_symbol
_atom_site_label
_atom_site_fract_x
_atom_site_fract_y
_atom_site_fract_z
Si Si1 0.377033 0.563000 0.993293
Si Si2 0.573960 0.316261 0.784428
Si Si3 0.764410 0.375228 0.416087
Si Si4 0.299827 0.110667 0.211777
Si Si5 0.805487 0.803180 0.622702
Si Si6 0.442581 0.002149 0.280660
O O1 0.405625 0.665047 0.088172
O O2 0.337929 0.434120 0.048574
O O3 0.325122 0.643006 0.909612
O O4 0.437280 0.505991 0.913725
O O5 0.635804 0.363775 0.703446
O O6 0.511629 0.416542 0.750238
O O7 0.553548 0.153373 0.771382
O O8 0.734499 0.457631 0.310566
O O9 0.779726 0.211367 0.390171
O O10 0.705091 0.388596 0.508973
O O11 0.268213 0.186137 0.318743
O O12 0.380625 0.093154 0.228976
#
# Coordination Sequence:
#
# PCOD8249741 Si02
#       6
#     8   8   8   8   8   8
#     4  11  22  45  69  99 136 177 223 283 334 403
#     4  11  25  47  69  97 143 182 228 279 338 407
#     4  12  23  41  69 103 131 170 225 281 338 396
#     4  12  25  42  71 101 135 172 232 279 338 407
#     4  11  22  43  69 100 133 175 220 282 340 395
#     4  11  26  46  69 101 136 187 227 277 342 408
#
# _framework density 21.364577000000001
#
# number of rings (size 3 to 8) (size 9 to 14) (size 15 to 20)
#    0.000    0.667    5.000    3.500    2.333    0.000 
#    3.000    4.167    0.000    0.000    0.000    0.000 
#    0.000    0.000    0.000    0.000    0.000    0.000 
#
# Total GULP energy -595184.561925 kJ/mol
# GULP energy per Si atom -12399.678373 kJ/mol
# Density = 2.131595 g / cm^3
# Si number density = 21.364577 Si / 1000 Ang^3
#
#
#
# Elastic Constant Matrix: (Units=GPa)
#
#
# Indices 1 2 3 4 5 6 
#
# 1 104.0328 45.1727 40.4023 0.0000 0.0000 0.0000
# 2 45.1727 85.8428 31.2334 0.0000 0.0000 0.0000
# 3 40.4023 31.2334 109.9414 0.0000 0.0000 0.0000
# 4 0.0000 0.0000 0.0000 27.2213 0.0000 0.0000
# 5 0.0000 0.0000 0.0000 0.0000 36.2607 0.0000
# 6 0.0000 0.0000 0.0000 0.0000 0.0000 37.7086
#
#
#
# Elastic Compliance Matrix: (Units=1/GPa)
#
#
# Indices 1 2 3 4 5 6 
#
# 1 0.013435 -0.005881 -0.003266 0.000000 0.000000 0.000000
# 2 -0.005881 0.015567 -0.002261 0.000000 0.000000 0.000000
# 3 -0.003266 -0.002261 0.010938 0.000000 0.000000 0.000000
# 4 0.000000 0.000000 0.000000 0.036736 0.000000 0.000000
# 5 0.000000 0.000000 0.000000 0.000000 0.027578 0.000000
# 6 0.000000 0.000000 0.000000 0.000000 0.000000 0.026519
#
#
# Mechanical properties :
#
#
# Convention : Reuss Voigt Hill
#
# Bulk Modulus (GPa) = 58.40235 59.27044 58.83639
# Shear Modulus (GPa) = 31.38781 32.43868 31.91324
#
# Velocity S-wave (km/s) = 3.83711 3.90082 3.86909
# Velocity P-wave (km/s) = 6.85760 6.93477 6.89629
#
# Compressibility (1/GPa) = 0.01712260
#
# Stress axis : x y z
#
# Youngs Moduli (GPa) = 74.43489 64.23954 91.42084
#
# Poissons Ratio (x) = 0.37781 0.29860
# Poissons Ratio (y) = 0.43777 0.20671
# Poissons Ratio (z) = 0.24312 0.14525
#
# Static dielectric constant tensor:
#      x y z
#    x 3.800980 0.000000 0.000000 
#    y 0.000000 3.777490 0.000000 
#    z 0.000000 0.000000 4.085390 
# 
# 
# High freq. dielectric constant tensor:
#      x y z
#    x 1.831010 0.000000 0.000000 
#    y 0.000000 1.833110 0.000000 
#    z 0.000000 0.000000 1.852920 
# 
# From -- ./inp_files/2241.got.cif
#   From: 2010.03.12/outbox.cif.g09.slc.cpg/sg61_2_cif.got.tgz:2241.got - 2010.04.10 19:05:03.
