data_PCOD8249731
_publ_section_title
;
Structure prediction by ZEFSAII (Michael W. Deem and Ramdas Pophale) SiO2 
 PCOD8249731
Probable space group: P B C A
;
_chemical_formula_sum "Si O2"
_cell_formula_units_Z 48
_cell_length_a 8.755560
_cell_length_b 16.467670
_cell_length_c 15.245822
_cell_angle_alpha 90.000000
_cell_angle_beta 90.000000
_cell_angle_gamma 90.000000
_cell_volume 2198.198610
_symmetry_space_group_name_H-M "P B C A"
_symmetry_group_IT_number 61
_symmetry_cell_setting 'orthorhombic'
loop_
_space_group_symop_operation_xyz
x,y,z
1/2-x,-y,1/2+z
1/2+x,1/2-y,-z
-x,1/2+y,1/2-z
-x,-y,-z
1/2+x,y,1/2-z
1/2-x,1/2+y,z
x,1/2-y,1/2+z
loop_
_atom_site_type_symbol
_atom_site_label
_atom_site_fract_x
_atom_site_fract_y
_atom_site_fract_z
Si Si1 0.609599 0.559295 0.944661
Si Si2 0.055998 0.410010 0.002114
Si Si3 0.673946 0.040991 0.274213
Si Si4 0.866469 0.391334 0.171206
Si Si5 0.547223 0.174587 0.676182
Si Si6 0.055122 0.646029 0.182819
O O1 0.759269 0.592639 0.995161
O O2 0.674034 0.511701 0.861570
O O3 0.513579 0.639262 0.916693
O O4 0.500000 0.500000 0.000000
O O5 0.965825 0.373230 0.084925
O O6 0.000000 0.500000 0.000000
O O7 0.002074 0.363132 0.916414
O O8 0.772442 0.121096 0.297556
O O9 0.516378 0.082911 0.251068
O O10 0.710232 0.981508 0.188951
O O11 0.731345 0.324616 0.173688
O O12 0.989109 0.385868 0.248884
O O13 0.477593 0.260733 0.703688
#
# Coordination Sequence:
#
# PCOD8249731 Si02
#       6
#     8   8   8   8   8   8
#     4  11  24  44  69  97 130 180 232 273 333 417
#     4  12  23  43  70 100 135 175 230 284 331 401
#     4  11  22  41  69  94 129 178 223 266 330 416
#     4  11  22  45  70  95 134 187 223 273 337 419
#     4  11  25  43  66 100 138 174 224 281 348 402
#     4  12  26  42  67 103 136 172 223 288 344 391
#
# _framework density 21.83606
#
# number of rings (size 3 to 8) (size 9 to 14) (size 15 to 20)
#    0.000    0.667    3.333    6.000    2.333    1.333 
#    3.000    0.000    0.000    0.000    0.000    0.000 
#    0.000    0.000    0.000    0.000    0.000    0.000 
#
# Total GULP energy -594714.729983 kJ/mol
# GULP energy per Si atom -12389.890208 kJ/mol
# Density = 2.178636 g / cm^3
# Si number density = 21.836060 Si / 1000 Ang^3
#
#
#
# Elastic Constant Matrix: (Units=GPa)
#
#
# Indices 1 2 3 4 5 6 
#
# 1 104.9979 -2.1080 22.6199 0.0000 0.0000 0.0000
# 2 -2.1080 70.7626 -9.8960 0.0000 0.0000 0.0000
# 3 22.6199 -9.8960 62.6443 0.0000 0.0000 0.0000
# 4 0.0000 0.0000 0.0000 25.9824 0.0000 0.0000
# 5 0.0000 0.0000 0.0000 0.0000 36.8918 0.0000
# 6 0.0000 0.0000 0.0000 0.0000 0.0000 33.7932
#
#
#
# Elastic Compliance Matrix: (Units=1/GPa)
#
#
# Indices 1 2 3 4 5 6 
#
# 1 0.010331 -0.000219 -0.003765 0.000000 0.000000 0.000000
# 2 -0.000219 0.014456 0.002363 0.000000 0.000000 0.000000
# 3 -0.003765 0.002363 0.017696 0.000000 0.000000 0.000000
# 4 0.000000 0.000000 0.000000 0.038488 0.000000 0.000000
# 5 0.000000 0.000000 0.000000 0.000000 0.027106 0.000000
# 6 0.000000 0.000000 0.000000 0.000000 0.000000 0.029592
#
#
# Mechanical properties :
#
#
# Convention : Reuss Voigt Hill
#
# Bulk Modulus (GPa) = 25.48416 28.84853 27.16634
# Shear Modulus (GPa) = 32.46968 34.51939 33.49454
#
# Velocity S-wave (km/s) = 3.86032 3.98030 3.92076
# Velocity P-wave (km/s) = 5.61831 5.86206 5.74148
#
# Compressibility (1/GPa) = 0.03924007
#
# Stress axis : x y z
#
# Youngs Moduli (GPa) = 96.79912 69.17720 56.51065
#
# Poissons Ratio (x) = 0.01513 0.21275
# Poissons Ratio (y) = 0.02117 -0.13351
# Poissons Ratio (z) = 0.36443 -0.16343
#
# Static dielectric constant tensor:
#      x y z
#    x 3.724860 0.000000 0.000000 
#    y 0.000000 3.936730 0.000000 
#    z 0.000000 0.000000 3.453410 
# 
# 
# High freq. dielectric constant tensor:
#      x y z
#    x 1.870290 0.000000 0.000000 
#    y 0.000000 1.847370 0.000000 
#    z 0.000000 0.000000 1.858450 
# 
# From -- ./inp_files/7071.got.cif
#   From: 2010.03.12/outbox.cif.g09.slc.cpg/sg61_4_cif.got.tgz:7071.got - 2010.04.10 19:05:03.
