data_PCOD8249651
_publ_section_title
;
Structure prediction by ZEFSAII (Michael W. Deem and Ramdas Pophale) SiO2 
 PCOD8249651
Probable space group: P B C A
;
_chemical_formula_sum "Si O2"
_cell_formula_units_Z 64
_cell_length_a 8.964710
_cell_length_b 30.711423
_cell_length_c 10.178914
_cell_angle_alpha 90.000000
_cell_angle_beta 90.000000
_cell_angle_gamma 90.000000
_cell_volume 2802.448433
_symmetry_space_group_name_H-M "P B C A"
_symmetry_group_IT_number 61
_symmetry_cell_setting 'orthorhombic'
loop_
_space_group_symop_operation_xyz
x,y,z
1/2-x,-y,1/2+z
1/2+x,1/2-y,-z
-x,1/2+y,1/2-z
-x,-y,-z
1/2+x,y,1/2-z
1/2-x,1/2+y,z
x,1/2-y,1/2+z
loop_
_atom_site_type_symbol
_atom_site_label
_atom_site_fract_x
_atom_site_fract_y
_atom_site_fract_z
Si Si1 0.114277 0.287133 0.070616
Si Si2 0.339395 0.471665 0.885953
Si Si3 0.173426 0.877546 0.819596
Si Si4 0.626754 0.896579 0.177902
Si Si5 0.569280 0.792640 0.536968
Si Si6 0.996949 0.633665 0.074259
Si Si7 0.644031 0.513519 0.820106
Si Si8 0.594005 0.159169 0.677909
O O1 0.155000 0.316887 0.193603
O O2 0.016001 0.245650 0.115904
O O3 0.272344 0.273371 0.008899
O O4 0.015505 0.315851 0.969198
O O5 0.395335 0.421608 0.882608
O O6 0.470623 0.504410 0.844466
O O7 0.214029 0.475976 0.771946
O O8 0.280813 0.482803 0.034197
O O9 0.090386 0.836034 0.879667
O O10 0.349373 0.879017 0.845451
O O11 0.141557 0.874377 0.664494
O O12 0.668087 0.943522 0.232814
O O13 0.773932 0.871724 0.126237
O O14 0.550970 0.870340 0.296430
O O15 0.514103 0.897914 0.053110
O O16 0.453664 0.803353 0.421541
#
# Coordination Sequence:
#
# PCOD8249651 Si02
#       8
#     8   8   8   8   8   8   8   8
#     4  10  25  43  64 105 132 186 236 288 355 418
#     4  11  26  45  72 107 143 185 241 294 363 430
#     4  11  25  47  67 102 145 190 229 294 361 426
#     4  11  24  45  74 101 136 187 239 291 364 422
#     4  11  25  43  71  95 146 183 233 294 350 427
#     4  10  26  44  70 101 140 187 239 287 359 433
#     4  11  26  45  73 107 140 184 240 297 356 433
#     4  11  23  44  69 100 137 180 237 293 348 427
#
# _framework density 22.837173
#
# number of rings (size 3 to 8) (size 9 to 14) (size 15 to 20)
#    0.000    1.250    1.250    2.250   14.000    1.500 
#    0.000    0.000    0.000    0.000    0.000    0.000 
#    0.000    0.000    0.000    0.000    0.000    0.000 
#
# Total GULP energy -793628.951322 kJ/mol
# GULP energy per Si atom -12400.452364 kJ/mol
# Density = 2.278519 g / cm^3
# Si number density = 22.837173 Si / 1000 Ang^3
#
#
#
# Elastic Constant Matrix: (Units=GPa)
#
#
# Indices 1 2 3 4 5 6 
#
# 1 86.1329 35.3357 41.3103 0.0000 0.0000 0.0000
# 2 35.3357 117.2683 39.6522 0.0000 0.0000 0.0000
# 3 41.3103 39.6522 121.0583 0.0000 0.0000 0.0000
# 4 0.0000 0.0000 0.0000 24.1255 0.0000 0.0000
# 5 0.0000 0.0000 0.0000 0.0000 39.2901 0.0000
# 6 0.0000 0.0000 0.0000 0.0000 0.0000 35.6453
#
#
#
# Elastic Compliance Matrix: (Units=1/GPa)
#
#
# Indices 1 2 3 4 5 6 
#
# 1 0.014820 -0.003099 -0.004042 0.000000 0.000000 0.000000
# 2 -0.003099 0.010237 -0.002296 0.000000 0.000000 0.000000
# 3 -0.004042 -0.002296 0.010392 0.000000 0.000000 0.000000
# 4 0.000000 0.000000 0.000000 0.041450 0.000000 0.000000
# 5 0.000000 0.000000 0.000000 0.000000 0.025452 0.000000
# 6 0.000000 0.000000 0.000000 0.000000 0.000000 0.028054
#
#
# Mechanical properties :
#
#
# Convention : Reuss Voigt Hill
#
# Bulk Modulus (GPa) = 60.32948 61.89510 61.11229
# Shear Modulus (GPa) = 32.29893 33.68960 32.99427
#
# Velocity S-wave (km/s) = 3.76482 3.84501 3.80513
# Velocity P-wave (km/s) = 6.73595 6.84644 6.79142
#
# Compressibility (1/GPa) = 0.01657564
#
# Stress axis : x y z
#
# Youngs Moduli (GPa) = 67.47672 97.68025 96.22934
#
# Poissons Ratio (x) = 0.30269 0.38898
# Poissons Ratio (y) = 0.20910 0.22092
# Poissons Ratio (z) = 0.27275 0.22426
#
# Static dielectric constant tensor:
#      x y z
#    x 3.930640 0.000000 0.000000 
#    y 0.000000 4.115160 0.000000 
#    z 0.000000 0.000000 4.176280 
# 
# 
# High freq. dielectric constant tensor:
#      x y z
#    x 1.898180 0.000000 0.000000 
#    y 0.000000 1.904620 0.000000 
#    z 0.000000 0.000000 1.900670 
# 
# From -- ./inp_files/4959.got.cif
#   From: 2010.03.12/outbox.cif.g09.slc.cpg/sg61_3_cif.got.tgz:4959.got - 2010.04.10 19:05:03.
