data_PCOD8249182
_publ_section_title
;
Structure prediction by ZEFSAII (Michael W. Deem and Ramdas Pophale) SiO2 
 PCOD8249182
Probable space group: P B C A
;
_chemical_formula_sum "Si O2"
_cell_formula_units_Z 64
_cell_length_a 7.980308
_cell_length_b 21.615876
_cell_length_c 17.764842
_cell_angle_alpha 90.000000
_cell_angle_beta 90.000000
_cell_angle_gamma 90.000000
_cell_volume 3064.459195
_symmetry_space_group_name_H-M "P B C A"
_symmetry_group_IT_number 61
_symmetry_cell_setting 'orthorhombic'
loop_
_space_group_symop_operation_xyz
x,y,z
1/2-x,-y,1/2+z
1/2+x,1/2-y,-z
-x,1/2+y,1/2-z
-x,-y,-z
1/2+x,y,1/2-z
1/2-x,1/2+y,z
x,1/2-y,1/2+z
loop_
_atom_site_type_symbol
_atom_site_label
_atom_site_fract_x
_atom_site_fract_y
_atom_site_fract_z
Si Si1 0.327375 0.439008 0.711751
Si Si2 0.542751 0.865332 0.983173
Si Si3 0.713326 0.946876 0.521027
Si Si4 0.642834 0.442398 0.928944
Si Si5 0.646757 0.991454 0.159903
Si Si6 0.319625 0.775493 0.243699
Si Si7 0.940533 0.307957 0.823123
Si Si8 0.908020 0.347620 0.152168
O O1 0.159019 0.437187 0.661087
O O2 0.285199 0.478017 0.785436
O O3 0.473684 0.471644 0.664290
O O4 0.382380 0.368247 0.723923
O O5 0.574479 0.832231 0.063308
O O6 0.364023 0.899651 0.993183
O O7 0.704422 0.907469 0.969345
O O8 0.527232 0.819170 0.912107
O O9 0.540198 0.914313 0.549473
O O10 0.775972 0.999770 0.577984
O O11 0.659196 0.984331 0.446602
O O12 0.611484 0.919699 0.172377
O O13 0.394428 0.713330 0.279776
O O14 0.183856 0.750338 0.184431
O O15 0.253459 0.813595 0.315197
O O16 0.433402 0.821288 0.196064
#
# Coordination Sequence:
#
# PCOD8249182 Si02
#       8
#     8   8   8   8   8   8   8   8
#     4  11  22  36  64  98 130 164 218 270 339 394
#     4  11  22  43  66  99 130 173 217 284 331 392
#     4  11  21  37  62  94 138 170 205 261 338 403
#     4  10  21  38  57  94 136 173 205 257 327 410
#     4  12  21  37  63  98 135 169 211 275 340 411
#     4  10  24  46  63  90 126 180 227 274 325 396
#     4  10  22  43  68  91 128 169 229 280 329 385
#     4  11  24  43  67  91 134 175 219 271 337 401
#
# _framework density 20.884599000000001
#
# number of rings (size 3 to 8) (size 9 to 14) (size 15 to 20)
#    0.000    1.250    3.750    3.375    0.000    2.000 
#    9.000    0.000    0.000    0.000    0.000    0.000 
#    0.000    0.000    0.000    0.000    0.000    0.000 
#
# Total GULP energy -793210.363075 kJ/mol
# GULP energy per Si atom -12393.911923 kJ/mol
# Density = 2.083706 g / cm^3
# Si number density = 20.884599 Si / 1000 Ang^3
#
#
#
# Elastic Constant Matrix: (Units=GPa)
#
#
# Indices 1 2 3 4 5 6 
#
# 1 67.2301 27.5103 -3.6180 0.0000 0.0000 0.0000
# 2 27.5103 97.9239 38.6028 0.0000 0.0000 0.0000
# 3 -3.6180 38.6028 97.4425 0.0000 0.0000 0.0000
# 4 0.0000 0.0000 0.0000 26.7423 0.0000 0.0000
# 5 0.0000 0.0000 0.0000 0.0000 7.7402 0.0000
# 6 0.0000 0.0000 0.0000 0.0000 0.0000 22.8780
#
#
#
# Elastic Compliance Matrix: (Units=1/GPa)
#
#
# Indices 1 2 3 4 5 6 
#
# 1 0.017557 -0.006150 0.003088 0.000000 0.000000 0.000000
# 2 -0.006150 0.014256 -0.005876 0.000000 0.000000 0.000000
# 3 0.003088 -0.005876 0.012705 0.000000 0.000000 0.000000
# 4 0.000000 0.000000 0.000000 0.037394 0.000000 0.000000
# 5 0.000000 0.000000 0.000000 0.000000 0.129196 0.000000
# 6 0.000000 0.000000 0.000000 0.000000 0.000000 0.043710
#
#
# Mechanical properties :
#
#
# Convention : Reuss Voigt Hill
#
# Bulk Modulus (GPa) = 37.53366 43.06519 40.29943
# Shear Modulus (GPa) = 17.75728 24.81219 21.28473
#
# Velocity S-wave (km/s) = 2.91908 3.45057 3.19589
# Velocity P-wave (km/s) = 5.41962 6.04488 5.74077
#
# Compressibility (1/GPa) = 0.02664275
#
# Stress axis : x y z
#
# Youngs Moduli (GPa) = 56.95756 70.14538 78.70935
#
# Poissons Ratio (x) = 0.43138 -0.24307
# Poissons Ratio (y) = 0.35028 0.46250
# Poissons Ratio (z) = -0.17589 0.41218
#
# Static dielectric constant tensor:
#      x y z
#    x 3.979560 0.000000 0.000000 
#    y 0.000000 3.595000 0.000000 
#    z 0.000000 0.000000 3.971420 
# 
# 
# High freq. dielectric constant tensor:
#      x y z
#    x 1.835550 0.000000 0.000000 
#    y 0.000000 1.799610 0.000000 
#    z 0.000000 0.000000 1.822590 
# 
# From -- ./inp_files/9041.got.cif
#   From: 2010.03.12/outbox.cif.g09.slc.cpg/sg61_5_cif.got.tgz:9041.got - 2010.04.10 19:05:03.
