data_PCOD8249949
_publ_section_title
;
Structure prediction by ZEFSAII (Michael W. Deem and Ramdas Pophale) SiO2 
 PCOD8249949
Probable space group: P N M A
;
_chemical_formula_sum "Si O2"
_cell_formula_units_Z 56
_cell_length_a 17.890867
_cell_length_b 8.513405
_cell_length_c 22.395493
_cell_angle_alpha 90.000000
_cell_angle_beta 90.000000
_cell_angle_gamma 90.000000
_cell_volume 3411.106732
_symmetry_space_group_name_H-M "P N M A"
_symmetry_group_IT_number 62
_symmetry_cell_setting 'orthorhombic'
loop_
_space_group_symop_operation_xyz
x,y,z
1/2-x,-y,1/2+z
1/2+x,1/2-y,1/2-z
-x,1/2+y,-z
-x,-y,-z
1/2+x,y,1/2-z
1/2-x,1/2+y,1/2+z
x,1/2-y,z
loop_
_atom_site_type_symbol
_atom_site_label
_atom_site_fract_x
_atom_site_fract_y
_atom_site_fract_z
Si Si1 0.742849 0.568194 0.314838
Si Si2 0.512301 0.065839 0.065152
Si Si3 0.888633 0.068355 0.340275
Si Si4 0.588444 0.936231 0.276233
Si Si5 0.862816 0.435356 0.646857
Si Si6 0.721204 0.932743 0.688737
Si Si7 0.424946 0.566652 0.285999
O O1 0.751486 0.750000 0.331538
O O2 0.801105 0.469464 0.355523
O O3 0.655889 0.512093 0.321174
O O4 0.762548 0.542166 0.245624
O O5 0.525937 0.250000 0.062993
O O6 0.438961 0.022341 0.103414
O O7 0.585443 0.985325 0.092246
O O8 0.500000 0.000000 0.000000
O O9 0.897367 0.250000 0.322971
O O10 0.912921 0.962938 0.284407
O O11 0.587887 0.750000 0.270520
O O12 0.601877 0.001164 0.208922
O O13 0.508793 0.995124 0.301677
O O14 0.852677 0.250000 0.646625
O O15 0.780741 0.515884 0.638129
O O16 0.729146 0.750000 0.704188
O O17 0.634592 0.972515 0.672452
O O18 0.417067 0.750000 0.299453
#
# Coordination Sequence:
#
# PCOD8249949 Si02
#       7
#     8   8   8   8   8   8   8
#     4   9  16  27  42  61  83 115 151 180 216 265
#     4  11  23  35  48  66  88 116 154 194 231 269
#     4  10  19  30  42  61  86 113 146 186 227 264
#     4   8  15  25  41  64  87 113 148 181 212 258
#     4  10  18  32  48  62  83 115 151 187 227 267
#     4  10  18  27  39  61  88 115 146 181 219 263
#     4  10  16  26  43  63  87 119 151 179 214 260
#
# _framework density 16.416958999999999
#
# number of rings (size 3 to 8) (size 9 to 14) (size 15 to 20)
#    0.000    2.286    1.429    6.000    0.000    1.714 
#    0.000    2.143    0.000    0.000    0.000    0.000 
#    0.000    1.143    0.000    3.429    0.000    5.286 
#
# Total GULP energy -693945.254848 kJ/mol
# GULP energy per Si atom -12391.879551 kJ/mol
# Density = 1.637959 g / cm^3
# Si number density = 16.416959 Si / 1000 Ang^3
#
#
#
# Elastic Constant Matrix: (Units=GPa)
#
#
# Indices 1 2 3 4 5 6 
#
# 1 163.5237 31.4339 36.5408 0.0000 0.0000 0.0000
# 2 31.4339 53.1892 11.5372 0.0000 0.0000 0.0000
# 3 36.5408 11.5372 40.3121 0.0000 0.0000 0.0000
# 4 0.0000 0.0000 0.0000 16.3506 0.0000 0.0000
# 5 0.0000 0.0000 0.0000 0.0000 17.4614 0.0000
# 6 0.0000 0.0000 0.0000 0.0000 0.0000 26.4588
#
#
#
# Elastic Compliance Matrix: (Units=1/GPa)
#
#
# Indices 1 2 3 4 5 6 
#
# 1 0.008225 -0.003458 -0.006466 0.000000 0.000000 0.000000
# 2 -0.003458 0.021499 -0.003018 0.000000 0.000000 0.000000
# 3 -0.006466 -0.003018 0.031531 0.000000 0.000000 0.000000
# 4 0.000000 0.000000 0.000000 0.061160 0.000000 0.000000
# 5 0.000000 0.000000 0.000000 0.000000 0.057269 0.000000
# 6 0.000000 0.000000 0.000000 0.000000 0.000000 0.037795
#
#
# Mechanical properties :
#
#
# Convention : Reuss Voigt Hill
#
# Bulk Modulus (GPa) = 28.27195 46.22764 37.24980
# Shear Modulus (GPa) = 19.59604 23.88837 21.74221
#
# Velocity S-wave (km/s) = 3.45867 3.81872 3.64314
# Velocity P-wave (km/s) = 5.76267 6.90385 6.35891
#
# Compressibility (1/GPa) = 0.03537074
#
# Stress axis : x y z
#
# Youngs Moduli (GPa) = 121.58162 46.51318 31.71475
#
# Poissons Ratio (x) = 0.16086 0.20506
# Poissons Ratio (y) = 0.42047 0.09572
# Poissons Ratio (z) = 0.78611 0.14039
#
# Static dielectric constant tensor:
#      x y z
#    x 4.070960 0.000000 0.000000 
#    y 0.000000 3.031440 0.000000 
#    z 0.000000 0.000000 2.520330 
# 
# 
# High freq. dielectric constant tensor:
#      x y z
#    x 1.659550 0.000000 0.000000 
#    y 0.000000 1.636920 0.000000 
#    z 0.000000 0.000000 1.545570 
# 
# From -- ./inp_files/27835.got.cif
#   From: 2010.03.12/outbox.cif.g09.slc.cpg/sg62_14_cif.got.tgz:27835.got - 2010.04.10 19:12:36.
