data_PCOD8249945
_publ_section_title
;
Structure prediction by ZEFSAII (Michael W. Deem and Ramdas Pophale) SiO2 
 PCOD8249945
Probable space group: P N M A
;
_chemical_formula_sum "Si O2"
_cell_formula_units_Z 48
_cell_length_a 17.587884
_cell_length_b 15.769645
_cell_length_c 8.552145
_cell_angle_alpha 90.000000
_cell_angle_beta 90.000000
_cell_angle_gamma 90.000000
_cell_volume 2371.977499
_symmetry_space_group_name_H-M "P N M A"
_symmetry_group_IT_number 62
_symmetry_cell_setting 'orthorhombic'
loop_
_space_group_symop_operation_xyz
x,y,z
1/2-x,-y,1/2+z
1/2+x,1/2-y,1/2-z
-x,1/2+y,-z
-x,-y,-z
1/2+x,y,1/2-z
1/2-x,1/2+y,1/2+z
x,1/2-y,z
loop_
_atom_site_type_symbol
_atom_site_label
_atom_site_fract_x
_atom_site_fract_y
_atom_site_fract_z
Si Si1 0.232879 0.066840 0.049271
Si Si2 0.558621 0.750000 0.361300
Si Si3 0.479803 0.913927 0.296208
Si Si4 0.071136 0.069479 0.152779
Si Si5 0.939222 0.750000 0.874429
Si Si6 0.685445 0.417340 0.808230
Si Si7 0.734005 0.750000 0.332912
Si Si8 0.271911 0.750000 0.521564
O O1 0.157737 0.037011 0.142836
O O2 0.254873 0.162938 0.106571
O O3 0.298931 0.000781 0.088245
O O4 0.217982 0.068582 0.864681
O O5 0.534548 0.833675 0.263485
O O6 0.516686 0.750000 0.527602
O O7 0.648220 0.750000 0.395782
O O8 0.460527 0.917610 0.478523
O O9 0.404966 0.904806 0.191573
O O10 0.523479 0.000792 0.249398
O O11 0.064764 0.163954 0.230887
O O12 0.864831 0.750000 0.991197
O O13 0.723185 0.335240 0.891403
O O14 0.734370 0.750000 0.147022
#
# Coordination Sequence:
#
# PCOD8249945 Si02
#       8
#     8   4   8   8   4   8   4   4
#     4   9  17  31  51  71  94 125 162 197 236 287
#     4  10  16  24  42  66  89 118 157 198 230 268
#     4   9  16  26  42  66  93 117 150 195 238 271
#     4   8  14  26  44  65  89 119 152 190 234 278
#     4   8  14  26  45  68  92 116 154 200 238 274
#     4  10  19  32  49  72  99 127 158 198 242 289
#     4  10  18  28  47  70  95 124 159 196 236 286
#     4   8  16  32  50  68  96 134 160 186 240 306
#
# _framework density 20.236280000000001
#
# number of rings (size 3 to 8) (size 9 to 14) (size 15 to 20)
#    0.000    3.000    0.000    4.500    0.000    1.333 
#    0.000    1.667    0.000   11.000    0.000    2.333 
#    0.000    0.000    0.000    0.000    0.000    0.000 
#
# Total GULP energy -594787.904765 kJ/mol
# GULP energy per Si atom -12391.414683 kJ/mol
# Density = 2.019022 g / cm^3
# Si number density = 20.236280 Si / 1000 Ang^3
#
#
#
# Elastic Constant Matrix: (Units=GPa)
#
#
# Indices 1 2 3 4 5 6 
#
# 1 42.8918 17.7423 0.7376 0.0000 0.0000 0.0000
# 2 17.7423 159.1399 6.7929 0.0000 0.0000 0.0000
# 3 0.7376 6.7929 8.2163 0.0000 0.0000 0.0000
# 4 0.0000 0.0000 0.0000 14.9156 0.0000 0.0000
# 5 0.0000 0.0000 0.0000 0.0000 10.7053 0.0000
# 6 0.0000 0.0000 0.0000 0.0000 0.0000 37.9993
#
#
#
# Elastic Compliance Matrix: (Units=1/GPa)
#
#
# Indices 1 2 3 4 5 6 
#
# 1 0.024442 -0.002728 0.000061 0.000000 0.000000 0.000000
# 2 -0.002728 0.006818 -0.005392 0.000000 0.000000 0.000000
# 3 0.000061 -0.005392 0.126161 0.000000 0.000000 0.000000
# 4 0.000000 0.000000 0.000000 0.067044 0.000000 0.000000
# 5 0.000000 0.000000 0.000000 0.000000 0.093412 0.000000
# 6 0.000000 0.000000 0.000000 0.000000 0.000000 0.026316
#
#
# Mechanical properties :
#
#
# Convention : Reuss Voigt Hill
#
# Bulk Modulus (GPa) = 7.07696 28.97705 18.02701
# Shear Modulus (GPa) = 12.27261 25.05572 18.66416
#
# Velocity S-wave (km/s) = 2.46532 3.52256 3.04025
# Velocity P-wave (km/s) = 3.40713 5.55833 4.60997
#
# Compressibility (1/GPa) = 0.14130354
#
# Stress axis : x y z
#
# Youngs Moduli (GPa) = 40.91367 146.66991 7.92638
#
# Poissons Ratio (x) = 0.40005 -0.00048
# Poissons Ratio (y) = 0.11159 0.04274
# Poissons Ratio (z) = -0.00249 0.79084
#
# Static dielectric constant tensor:
#      x y z
#    x 3.583150 0.000000 0.000000 
#    y 0.000000 4.465190 0.000000 
#    z 0.000000 0.000000 2.838930 
# 
# 
# High freq. dielectric constant tensor:
#      x y z
#    x 1.782700 0.000000 0.000000 
#    y 0.000000 1.824030 0.000000 
#    z 0.000000 0.000000 1.704080 
# 
# From -- ./inp_files/6576.got.cif
#   From: 2010.03.12/outbox.cif.g09.slc.cpg/sg62_4_cif.got.tgz:6576.got - 2010.04.10 19:12:36.
