data_PCOD8249828
_publ_section_title
;
Structure prediction by ZEFSAII (Michael W. Deem and Ramdas Pophale) SiO2 
 PCOD8249828
Probable space group: P B C A
;
_chemical_formula_sum "Si O2"
_cell_formula_units_Z 48
_cell_length_a 9.138657
_cell_length_b 8.857938
_cell_length_c 26.724979
_cell_angle_alpha 90.000000
_cell_angle_beta 90.000000
_cell_angle_gamma 90.000000
_cell_volume 2163.377886
_symmetry_space_group_name_H-M "P B C A"
_symmetry_group_IT_number 61
_symmetry_cell_setting 'orthorhombic'
loop_
_space_group_symop_operation_xyz
x,y,z
1/2-x,-y,1/2+z
1/2+x,1/2-y,-z
-x,1/2+y,1/2-z
-x,-y,-z
1/2+x,y,1/2-z
1/2-x,1/2+y,z
x,1/2-y,1/2+z
loop_
_atom_site_type_symbol
_atom_site_label
_atom_site_fract_x
_atom_site_fract_y
_atom_site_fract_z
Si Si1 0.371890 0.578853 0.278909
Si Si2 0.356200 0.163743 0.616398
Si Si3 0.565280 0.077545 0.700964
Si Si4 0.898960 0.079904 0.538793
Si Si5 0.141895 0.593549 0.502342
Si Si6 0.076625 0.497334 0.132669
O O1 0.206291 0.533098 0.295061
O O2 0.386087 0.760753 0.275938
O O3 0.424782 0.500054 0.227606
O O4 0.489359 0.514927 0.316916
O O5 0.504952 0.101953 0.643661
O O6 0.319144 0.102135 0.560903
O O7 0.363064 0.343684 0.612363
O O8 0.211526 0.112842 0.646446
O O9 0.878899 0.248771 0.523023
O O10 0.964913 0.077282 0.593859
O O11 0.748586 0.991991 0.535255
O O12 0.000000 0.000000 0.500000
O O13 0.000000 0.500000 0.500000
#
# Coordination Sequence:
#
# PCOD8249828 Si02
#       6
#     8   8   8   8   8   8
#     4  11  25  46  70 103 135 178 221 284 333 407
#     4  11  24  44  65  98 132 177 223 275 336 396
#     4  11  25  45  71  99 137 171 227 272 342 398
#     4  12  24  44  66  97 135 178 229 271 334 398
#     4  12  26  42  67  96 137 179 223 281 332 397
#     4  11  26  43  69  97 138 177 230 277 337 401
#
# _framework density 22.187522999999999
#
# number of rings (size 3 to 8) (size 9 to 14) (size 15 to 20)
#    0.000    0.667    3.333    3.000    4.667    6.667 
#    0.000    0.000    0.000    0.000    0.000    0.000 
#    0.000    0.000    0.000    0.000    0.000    0.000 
#
# Total GULP energy -594995.597809 kJ/mol
# GULP energy per Si atom -12395.741621 kJ/mol
# Density = 2.213702 g / cm^3
# Si number density = 22.187523 Si / 1000 Ang^3
#
#
#
# Elastic Constant Matrix: (Units=GPa)
#
#
# Indices 1 2 3 4 5 6 
#
# 1 130.1157 48.1553 6.6995 0.0000 0.0000 0.0000
# 2 48.1553 123.8259 19.5799 0.0000 0.0000 0.0000
# 3 6.6995 19.5799 57.4595 0.0000 0.0000 0.0000
# 4 0.0000 0.0000 0.0000 29.1592 0.0000 0.0000
# 5 0.0000 0.0000 0.0000 0.0000 30.7519 0.0000
# 6 0.0000 0.0000 0.0000 0.0000 0.0000 29.3469
#
#
#
# Elastic Compliance Matrix: (Units=1/GPa)
#
#
# Indices 1 2 3 4 5 6 
#
# 1 0.008979 -0.003516 0.000151 0.000000 0.000000 0.000000
# 2 -0.003516 0.009912 -0.002968 0.000000 0.000000 0.000000
# 3 0.000151 -0.002968 0.018397 0.000000 0.000000 0.000000
# 4 0.000000 0.000000 0.000000 0.034295 0.000000 0.000000
# 5 0.000000 0.000000 0.000000 0.000000 0.032518 0.000000
# 6 0.000000 0.000000 0.000000 0.000000 0.000000 0.034075
#
#
# Mechanical properties :
#
#
# Convention : Reuss Voigt Hill
#
# Bulk Modulus (GPa) = 40.61139 51.14117 45.87628
# Shear Modulus (GPa) = 31.43682 33.64936 32.54309
#
# Velocity S-wave (km/s) = 3.76822 3.89857 3.83395
# Velocity P-wave (km/s) = 6.10541 6.58518 6.34983
#
# Compressibility (1/GPa) = 0.02462363
#
# Stress axis : x y z
#
# Youngs Moduli (GPa) = 111.37294 100.88382 54.35595
#
# Poissons Ratio (x) = 0.35468 -0.00821
# Poissons Ratio (y) = 0.39156 0.16132
# Poissons Ratio (z) = -0.01683 0.29941
#
# Static dielectric constant tensor:
#      x y z
#    x 3.733570 0.000000 0.000000 
#    y 0.000000 3.792100 0.000000 
#    z 0.000000 0.000000 3.221480 
# 
# 
# High freq. dielectric constant tensor:
#      x y z
#    x 1.888660 0.000000 0.000000 
#    y 0.000000 1.886500 0.000000 
#    z 0.000000 0.000000 1.876010 
# 
# From -- ./inp_files/4582.got.cif
#   From: 2010.03.12/outbox.cif.g09.slc.cpg/sg61_3_cif.got.tgz:4582.got - 2010.04.10 19:05:03.
