data_PCOD8249043
_publ_section_title
;
Structure prediction by ZEFSAII (Michael W. Deem and Ramdas Pophale) SiO2 
 PCOD8249043
Probable space group: P B C A
;
_chemical_formula_sum "Si O2"
_cell_formula_units_Z 64
_cell_length_a 29.861925
_cell_length_b 8.645596
_cell_length_c 12.585965
_cell_angle_alpha 90.000000
_cell_angle_beta 90.000000
_cell_angle_gamma 90.000000
_cell_volume 3249.370682
_symmetry_space_group_name_H-M "P B C A"
_symmetry_group_IT_number 61
_symmetry_cell_setting 'orthorhombic'
loop_
_space_group_symop_operation_xyz
x,y,z
1/2-x,-y,1/2+z
1/2+x,1/2-y,-z
-x,1/2+y,1/2-z
-x,-y,-z
1/2+x,y,1/2-z
1/2-x,1/2+y,z
x,1/2-y,1/2+z
loop_
_atom_site_type_symbol
_atom_site_label
_atom_site_fract_x
_atom_site_fract_y
_atom_site_fract_z
Si Si1 0.467385 0.430577 0.341595
Si Si2 0.971044 0.793787 0.175880
Si Si3 0.758163 0.791680 0.674987
Si Si4 0.199953 0.022856 0.954513
Si Si5 0.951812 0.225025 0.974207
Si Si6 0.610475 0.773334 0.282756
Si Si7 0.396208 0.012739 0.377217
Si Si8 0.296479 0.057213 0.693751
O O1 0.471558 0.611075 0.327348
O O2 0.510765 0.349884 0.289569
O O3 0.466342 0.381897 0.465216
O O4 0.421500 0.379723 0.286911
O O5 0.005873 0.851434 0.085588
O O6 0.920684 0.856036 0.160608
O O7 0.782481 0.687637 0.586723
O O8 0.718078 0.882779 0.617386
O O9 0.738873 0.686829 0.769890
O O10 0.793608 0.911068 0.726339
O O11 0.146087 0.027530 0.950169
O O12 0.215845 0.997986 0.075251
O O13 0.912196 0.271175 0.893978
O O14 0.934313 0.102309 0.058826
O O15 0.620918 0.612498 0.223066
O O16 0.654574 0.871290 0.303814
#
# Coordination Sequence:
#
# PCOD8249043 Si02
#       8
#     8   8   8   8   8   8   8   8
#     4  10  22  38  59  85 121 160 205 252 305 361
#     4  11  22  38  60  86 120 161 205 253 302 364
#     4  10  24  40  67  92 125 163 209 259 317 378
#     4  11  22  42  64  94 125 164 209 255 315 380
#     4  10  20  39  59  84 118 165 203 247 311 364
#     4  10  21  38  60  88 122 162 198 256 308 368
#     4  11  22  37  60  90 123 158 205 254 306 366
#     4  11  21  42  65  92 127 165 205 259 318 376
#
# _framework density 19.696123
#
# number of rings (size 3 to 8) (size 9 to 14) (size 15 to 20)
#    0.000    1.500    2.500    3.750    1.750    1.000 
#    0.000    1.250    0.000    0.000    0.000    0.000 
#    0.000    0.000    0.000    0.000    0.000    0.000 
#
# Total GULP energy -793753.986280 kJ/mol
# GULP energy per Si atom -12402.406036 kJ/mol
# Density = 1.965129 g / cm^3
# Si number density = 19.696123 Si / 1000 Ang^3
#
#
#
# Elastic Constant Matrix: (Units=GPa)
#
#
# Indices 1 2 3 4 5 6 
#
# 1 88.6762 42.9335 29.6735 0.0000 0.0000 0.0000
# 2 42.9335 95.4585 34.6087 0.0000 0.0000 0.0000
# 3 29.6735 34.6087 108.4906 0.0000 0.0000 0.0000
# 4 0.0000 0.0000 0.0000 25.5514 0.0000 0.0000
# 5 0.0000 0.0000 0.0000 0.0000 25.4298 0.0000
# 6 0.0000 0.0000 0.0000 0.0000 0.0000 28.4375
#
#
#
# Elastic Compliance Matrix: (Units=1/GPa)
#
#
# Indices 1 2 3 4 5 6 
#
# 1 0.014861 -0.005891 -0.002185 0.000000 0.000000 0.000000
# 2 -0.005891 0.014181 -0.002913 0.000000 0.000000 0.000000
# 3 -0.002185 -0.002913 0.010744 0.000000 0.000000 0.000000
# 4 0.000000 0.000000 0.000000 0.039137 0.000000 0.000000
# 5 0.000000 0.000000 0.000000 0.000000 0.039324 0.000000
# 6 0.000000 0.000000 0.000000 0.000000 0.000000 0.035165
#
#
# Mechanical properties :
#
#
# Convention : Reuss Voigt Hill
#
# Bulk Modulus (GPa) = 56.15486 56.33962 56.24724
# Shear Modulus (GPa) = 27.57462 28.24438 27.90950
#
# Velocity S-wave (km/s) = 3.74572 3.79094 3.76840
# Velocity P-wave (km/s) = 6.87603 6.91579 6.89594
#
# Compressibility (1/GPa) = 0.01780790
#
# Stress axis : x y z
#
# Youngs Moduli (GPa) = 67.29189 70.51469 93.07386
#
# Poissons Ratio (x) = 0.41544 0.20338
# Poissons Ratio (y) = 0.39645 0.27108
# Poissons Ratio (z) = 0.14704 0.20537
#
# Static dielectric constant tensor:
#      x y z
#    x 3.519640 0.000000 0.000000 
#    y 0.000000 3.547920 0.000000 
#    z 0.000000 0.000000 3.738010 
# 
# 
# High freq. dielectric constant tensor:
#      x y z
#    x 1.765850 0.000000 0.000000 
#    y 0.000000 1.767980 0.000000 
#    z 0.000000 0.000000 1.775300 
# 
# From -- ./inp_files/2459.got.cif
#   From: 2010.03.12/outbox.cif.g09.slc.cpg/sg61_2_cif.got.tgz:2459.got - 2010.04.10 19:05:03.
