data_PCOD8249822
_publ_section_title
;
Structure prediction by ZEFSAII (Michael W. Deem and Ramdas Pophale) SiO2 
 PCOD8249822
Probable space group: P B C A
;
_chemical_formula_sum "Si O2"
_cell_formula_units_Z 48
_cell_length_a 8.491375
_cell_length_b 26.253335
_cell_length_c 9.191747
_cell_angle_alpha 90.000000
_cell_angle_beta 90.000000
_cell_angle_gamma 90.000000
_cell_volume 2049.087779
_symmetry_space_group_name_H-M "P B C A"
_symmetry_group_IT_number 61
_symmetry_cell_setting 'orthorhombic'
loop_
_space_group_symop_operation_xyz
x,y,z
1/2-x,-y,1/2+z
1/2+x,1/2-y,-z
-x,1/2+y,1/2-z
-x,-y,-z
1/2+x,y,1/2-z
1/2-x,1/2+y,z
x,1/2-y,1/2+z
loop_
_atom_site_type_symbol
_atom_site_label
_atom_site_fract_x
_atom_site_fract_y
_atom_site_fract_z
Si Si1 0.113936 0.548471 0.663870
Si Si2 0.570306 0.105131 0.896789
Si Si3 0.884669 0.122073 0.318449
Si Si4 0.916787 0.564046 0.391777
Si Si5 0.633353 0.724645 0.145696
Si Si6 0.671636 0.213385 0.859864
O O1 0.270513 0.572729 0.598205
O O2 0.068544 0.573694 0.817651
O O3 0.144059 0.488197 0.681872
O O4 0.962469 0.556023 0.559755
O O5 0.597193 0.159006 0.816879
O O6 0.520400 0.117074 0.061280
O O7 0.716136 0.107263 0.383795
O O8 0.879430 0.179853 0.263704
O O9 0.927238 0.083896 0.188540
O O10 0.729665 0.770300 0.219313
O O11 0.461113 0.744932 0.103337
O O12 0.716420 0.705768 0.999306
#
# Coordination Sequence:
#
# PCOD8249822 Si02
#       6
#     8   8   8   8   8   8
#     4  11  25  43  67 100 135 176 227 276 335 401
#     4  12  25  43  67  97 133 176 223 277 337 403
#     4  12  25  44  69  97 134 176 222 277 341 401
#     4  11  24  43  67  98 136 177 224 281 335 400
#     4  12  26  45  70 101 135 178 226 278 337 402
#     4  12  25  44  68  98 135 175 224 276 333 399
#
# _framework density 23.425059000000001
#
# number of rings (size 3 to 8) (size 9 to 14) (size 15 to 20)
#    0.000    0.333    0.000   10.000    0.000    8.000 
#    0.000    0.000    0.000    0.000    0.000    0.000 
#    0.000    0.000    0.000    0.000    0.000    0.000 
#
# Total GULP energy -595692.844202 kJ/mol
# GULP energy per Si atom -12410.267588 kJ/mol
# Density = 2.337174 g / cm^3
# Si number density = 23.425059 Si / 1000 Ang^3
#
#
#
# Elastic Constant Matrix: (Units=GPa)
#
#
# Indices 1 2 3 4 5 6 
#
# 1 100.1977 14.0373 -1.5983 0.0000 0.0000 0.0000
# 2 14.0373 109.3336 4.7451 0.0000 0.0000 0.0000
# 3 -1.5983 4.7451 47.2098 0.0000 0.0000 0.0000
# 4 0.0000 0.0000 0.0000 38.0726 0.0000 0.0000
# 5 0.0000 0.0000 0.0000 0.0000 46.4860 0.0000
# 6 0.0000 0.0000 0.0000 0.0000 0.0000 40.4829
#
#
#
# Elastic Compliance Matrix: (Units=1/GPa)
#
#
# Indices 1 2 3 4 5 6 
#
# 1 0.010174 -0.001327 0.000478 0.000000 0.000000 0.000000
# 2 -0.001327 0.009359 -0.000986 0.000000 0.000000 0.000000
# 3 0.000478 -0.000986 0.021297 0.000000 0.000000 0.000000
# 4 0.000000 0.000000 0.000000 0.026266 0.000000 0.000000
# 5 0.000000 0.000000 0.000000 0.000000 0.021512 0.000000
# 6 0.000000 0.000000 0.000000 0.000000 0.000000 0.024702
#
#
# Mechanical properties :
#
#
# Convention : Reuss Voigt Hill
#
# Bulk Modulus (GPa) = 26.90998 32.34550 29.62774
# Shear Modulus (GPa) = 38.64993 40.97876 39.81434
#
# Velocity S-wave (km/s) = 4.06635 4.18707 4.12715
# Velocity P-wave (km/s) = 5.79306 6.10028 5.94866
#
# Compressibility (1/GPa) = 0.03716093
#
# Stress axis : x y z
#
# Youngs Moduli (GPa) = 98.29179 106.84372 46.95438
#
# Poissons Ratio (x) = 0.14178 -0.02244
# Poissons Ratio (y) = 0.13043 0.04628
# Poissons Ratio (z) = -0.04696 0.10531
#
# Static dielectric constant tensor:
#      x y z
#    x 4.177040 0.000000 0.000000 
#    y 0.000000 4.279320 0.000000 
#    z 0.000000 0.000000 4.054070 
# 
# 
# High freq. dielectric constant tensor:
#      x y z
#    x 1.938100 0.000000 0.000000 
#    y 0.000000 1.939530 0.000000 
#    z 0.000000 0.000000 1.925000 
# 
# From -- ./inp_files/1889.got.cif
#   From: 2010.03.12/outbox.cif.g09.slc.cpg/sg61_1_cif.got.tgz:1889.got - 2010.04.10 19:05:03.
