data_PCOD8249417
_publ_section_title
;
Structure prediction by ZEFSAII (Michael W. Deem and Ramdas Pophale) SiO2 
 PCOD8249417
Probable space group: P B C A
;
_chemical_formula_sum "Si O2"
_cell_formula_units_Z 40
_cell_length_a 9.594125
_cell_length_b 29.419349
_cell_length_c 4.659432
_cell_angle_alpha 90.000000
_cell_angle_beta 90.000000
_cell_angle_gamma 90.000000
_cell_volume 1315.138249
_symmetry_space_group_name_H-M "P B C A"
_symmetry_group_IT_number 61
_symmetry_cell_setting 'orthorhombic'
loop_
_space_group_symop_operation_xyz
x,y,z
1/2-x,-y,1/2+z
1/2+x,1/2-y,-z
-x,1/2+y,1/2-z
-x,-y,-z
1/2+x,y,1/2-z
1/2-x,1/2+y,z
x,1/2-y,1/2+z
loop_
_atom_site_type_symbol
_atom_site_label
_atom_site_fract_x
_atom_site_fract_y
_atom_site_fract_z
Si Si1 0.879676 0.658899 0.143353
Si Si2 0.436283 0.420161 0.806635
Si Si3 0.854576 0.217947 0.335729
Si Si4 0.656700 0.010450 0.873907
Si Si5 0.753510 0.599457 0.694421
O O1 0.925274 0.612143 0.313786
O O2 0.011310 0.689679 0.070235
O O3 0.781359 0.686122 0.364255
O O4 0.807087 0.646117 0.840373
O O5 0.468368 0.470959 0.660509
O O6 0.318139 0.393153 0.616477
O O7 0.374813 0.422623 0.123973
O O8 0.851365 0.265059 0.508246
O O9 0.626229 0.059447 0.718153
O O10 0.779556 0.984670 0.691063
#
# Coordination Sequence:
#
# PCOD8249417 Si02
#       5
#     8   8   8   8   8
#     4  12  26  49  80 108 144 188 242 304 366 444
#     4  10  22  40  68 108 149 194 243 293 352 429
#     4  12  30  52  76 106 142 182 236 306 384 444
#     4   8  16  35  60  97 150 195 234 287 348 409
#     4  10  22  40  68 108 149 194 243 293 352 429
#
# _framework density 30.415056
#
# number of rings (size 3 to 8) (size 9 to 14) (size 15 to 20)
#    0.000    1.600    2.000    1.200    2.800    5.600 
#    0.000    0.000    0.000   14.400    0.000    0.000 
#    0.000    0.000    0.000    0.000    0.000    0.000 
#
# Total GULP energy -496101.906226 kJ/mol
# GULP energy per Si atom -12402.547656 kJ/mol
# Density = 3.034583 g / cm^3
# Si number density = 30.415056 Si / 1000 Ang^3
#
#
#
# Elastic Constant Matrix: (Units=GPa)
#
#
# Indices 1 2 3 4 5 6 
#
# 1 115.7037 34.0549 1.0152 0.0000 0.0000 0.0000
# 2 34.0549 150.6749 5.2093 0.0000 0.0000 0.0000
# 3 1.0152 5.2093 62.4136 0.0000 0.0000 0.0000
# 4 0.0000 0.0000 0.0000 56.6340 0.0000 0.0000
# 5 0.0000 0.0000 0.0000 0.0000 6.7766 0.0000
# 6 0.0000 0.0000 0.0000 0.0000 0.0000 54.8125
#
#
#
# Elastic Compliance Matrix: (Units=1/GPa)
#
#
# Indices 1 2 3 4 5 6 
#
# 1 0.009259 -0.002093 0.000024 0.000000 0.000000 0.000000
# 2 -0.002093 0.007129 -0.000561 0.000000 0.000000 0.000000
# 3 0.000024 -0.000561 0.016069 0.000000 0.000000 0.000000
# 4 0.000000 0.000000 0.000000 0.017657 0.000000 0.000000
# 5 0.000000 0.000000 0.000000 0.000000 0.147566 0.000000
# 6 0.000000 0.000000 0.000000 0.000000 0.000000 0.018244
#
#
# Mechanical properties :
#
#
# Convention : Reuss Voigt Hill
#
# Bulk Modulus (GPa) = 36.77008 45.48344 41.12676
# Shear Modulus (GPa) = 21.71551 42.87883 32.29717
#
# Velocity S-wave (km/s) = 2.67493 3.75879 3.26219
# Velocity P-wave (km/s) = 4.65360 5.81590 5.26691
#
# Compressibility (1/GPa) = 0.02719603
#
# Stress axis : x y z
#
# Youngs Moduli (GPa) = 108.00638 140.26524 62.23326
#
# Poissons Ratio (x) = 0.29364 -0.00150
# Poissons Ratio (y) = 0.22611 0.03491
# Poissons Ratio (z) = -0.00261 0.07869
#
# Static dielectric constant tensor:
#      x y z
#    x 5.669360 0.000000 0.000000 
#    y 0.000000 5.722300 0.000000 
#    z 0.000000 0.000000 5.419820 
# 
# 
# High freq. dielectric constant tensor:
#      x y z
#    x 2.271120 0.000000 0.000000 
#    y 0.000000 2.258700 0.000000 
#    z 0.000000 0.000000 2.257700 
# 
# From -- ./inp_files/242.got.cif
#   From: 2010.03.12/outbox.cif.g09.slc.cpg/sg61_1_cif.got.tgz:242.got - 2010.04.10 19:05:03.
