data_PCOD8249526
_publ_section_title
;
Structure prediction by ZEFSAII (Michael W. Deem and Ramdas Pophale) SiO2 
 PCOD8249526
Probable space group: P B C A
;
_chemical_formula_sum "Si O2"
_cell_formula_units_Z 40
_cell_length_a 24.009060
_cell_length_b 5.230780
_cell_length_c 13.324594
_cell_angle_alpha 90.000000
_cell_angle_beta 90.000000
_cell_angle_gamma 90.000000
_cell_volume 1673.383939
_symmetry_space_group_name_H-M "P B C A"
_symmetry_group_IT_number 61
_symmetry_cell_setting 'orthorhombic'
loop_
_space_group_symop_operation_xyz
x,y,z
1/2-x,-y,1/2+z
1/2+x,1/2-y,-z
-x,1/2+y,1/2-z
-x,-y,-z
1/2+x,y,1/2-z
1/2-x,1/2+y,z
x,1/2-y,1/2+z
loop_
_atom_site_type_symbol
_atom_site_label
_atom_site_fract_x
_atom_site_fract_y
_atom_site_fract_z
Si Si1 0.890806 0.752751 0.436026
Si Si2 0.725640 0.358682 0.358342
Si Si3 0.889434 0.245101 0.063304
Si Si4 0.500880 0.810405 0.687249
Si Si5 0.772368 0.169071 0.635547
O O1 0.840458 0.813036 0.359637
O O2 0.879722 0.471097 0.479719
O O3 0.948213 0.767801 0.377602
O O4 0.104952 0.029189 0.480138
O O5 0.740870 0.627297 0.413023
O O6 0.747598 0.400474 0.245032
O O7 0.837079 0.251592 0.139407
O O8 0.944626 0.164489 0.120449
O O9 0.510996 0.589659 0.768268
O O10 0.736677 0.394167 0.579836
#
# Coordination Sequence:
#
# PCOD8249526 Si02
#       5
#     8   8   8   8   8
#     4  12  26  46  73 105 144 180 232 296 351 403
#     4  10  23  40  68  98 143 180 230 276 342 414
#     4  12  26  46  73 105 144 180 232 296 351 403
#     4  12  28  46  78 102 138 188 238 282 354 420
#     4  10  23  40  68  98 143 180 230 276 342 414
#
# _framework density 23.903659000000001
#
# number of rings (size 3 to 8) (size 9 to 14) (size 15 to 20)
#    0.000    0.800    0.000    6.000   11.200    4.800 
#    0.000    0.000    0.000    0.000    0.000    0.000 
#    0.000    0.000    0.000    0.000    0.000    0.000 
#
# Total GULP energy -496063.345399 kJ/mol
# GULP energy per Si atom -12401.583635 kJ/mol
# Density = 2.384925 g / cm^3
# Si number density = 23.903659 Si / 1000 Ang^3
#
#
#
# Elastic Constant Matrix: (Units=GPa)
#
#
# Indices 1 2 3 4 5 6 
#
# 1 157.5492 26.2176 28.2936 0.0000 0.0000 0.0000
# 2 26.2176 168.0539 9.6417 0.0000 0.0000 0.0000
# 3 28.2936 9.6417 42.5258 0.0000 0.0000 0.0000
# 4 0.0000 0.0000 0.0000 69.5562 0.0000 0.0000
# 5 0.0000 0.0000 0.0000 0.0000 42.9279 0.0000
# 6 0.0000 0.0000 0.0000 0.0000 0.0000 42.0274
#
#
#
# Elastic Compliance Matrix: (Units=1/GPa)
#
#
# Indices 1 2 3 4 5 6 
#
# 1 0.007334 -0.000876 -0.004681 0.000000 0.000000 0.000000
# 2 -0.000876 0.006133 -0.000808 0.000000 0.000000 0.000000
# 3 -0.004681 -0.000808 0.026813 0.000000 0.000000 0.000000
# 4 0.000000 0.000000 0.000000 0.014377 0.000000 0.000000
# 5 0.000000 0.000000 0.000000 0.000000 0.023295 0.000000
# 6 0.000000 0.000000 0.000000 0.000000 0.000000 0.023794
#
#
# Mechanical properties :
#
#
# Convention : Reuss Voigt Hill
#
# Bulk Modulus (GPa) = 36.29651 55.15942 45.72797
# Shear Modulus (GPa) = 40.43430 51.16737 45.80084
#
# Velocity S-wave (km/s) = 4.11731 4.63164 4.38203
# Velocity P-wave (km/s) = 6.14983 7.19226 6.69138
#
# Compressibility (1/GPa) = 0.02755085
#
# Stress axis : x y z
#
# Youngs Moduli (GPa) = 136.36049 163.04110 37.29600
#
# Poissons Ratio (x) = 0.14275 0.17457
# Poissons Ratio (y) = 0.11939 0.03014
# Poissons Ratio (z) = 0.63826 0.13175
#
# Static dielectric constant tensor:
#      x y z
#    x 4.429030 0.000000 0.000000 
#    y 0.000000 7.208060 0.000000 
#    z 0.000000 0.000000 4.214740 
# 
# 
# High freq. dielectric constant tensor:
#      x y z
#    x 1.958760 0.000000 0.000000 
#    y 0.000000 1.992270 0.000000 
#    z 0.000000 0.000000 1.939770 
# 
# From -- ./inp_files/9735.got.cif
#   From: 2010.03.12/outbox.cif.g09.slc.cpg/sg61_5_cif.got.tgz:9735.got - 2010.04.10 19:05:03.
