data_PCOD8249543
_publ_section_title
;
Structure prediction by ZEFSAII (Michael W. Deem and Ramdas Pophale) SiO2 
 PCOD8249543
Probable space group: P B C A
;
_chemical_formula_sum "Si O2"
_cell_formula_units_Z 40
_cell_length_a 8.992949
_cell_length_b 8.487164
_cell_length_c 19.848077
_cell_angle_alpha 90.000000
_cell_angle_beta 90.000000
_cell_angle_gamma 90.000000
_cell_volume 1514.897193
_symmetry_space_group_name_H-M "P B C A"
_symmetry_group_IT_number 61
_symmetry_cell_setting 'orthorhombic'
loop_
_space_group_symop_operation_xyz
x,y,z
1/2-x,-y,1/2+z
1/2+x,1/2-y,-z
-x,1/2+y,1/2-z
-x,-y,-z
1/2+x,y,1/2-z
1/2-x,1/2+y,z
x,1/2-y,1/2+z
loop_
_atom_site_type_symbol
_atom_site_label
_atom_site_fract_x
_atom_site_fract_y
_atom_site_fract_z
Si Si1 0.458907 0.237596 0.952928
Si Si2 0.289365 0.957179 0.996079
Si Si3 0.564087 0.327495 0.187395
Si Si4 0.646193 0.051078 0.371967
Si Si5 0.648693 0.502578 0.725169
O O1 0.372190 0.392545 0.977696
O O2 0.545673 0.292259 0.885702
O O3 0.342683 0.093224 0.943532
O O4 0.586134 0.180127 0.005461
O O5 0.274162 0.032640 0.071497
O O6 0.459730 0.394110 0.127224
O O7 0.723871 0.411470 0.183590
O O8 0.483194 0.373627 0.258328
O O9 0.585659 0.140615 0.179895
O O10 0.712607 0.072080 0.296354
#
# Coordination Sequence:
#
# PCOD8249543 Si02
#       5
#     8   8   8   8   8
#     4  11  24  45  71 102 143 183 239 289 350 423
#     4  11  24  46  70 105 139 185 238 292 343 434
#     4  10  23  42  70  98 140 176 236 286 345 430
#     4  10  25  42  72  97 145 181 233 287 369 393
#     4  10  23  43  65 101 134 182 224 291 344 428
#
# _framework density 26.404430999999999
#
# number of rings (size 3 to 8) (size 9 to 14) (size 15 to 20)
#    1.200    0.400    2.000    1.800    2.800    1.600 
#    0.000    0.000    0.000    0.000    0.000    0.000 
#    0.000    0.000    0.000    0.000    0.000    0.000 
#
# Total GULP energy -495607.378964 kJ/mol
# GULP energy per Si atom -12390.184474 kJ/mol
# Density = 2.634433 g / cm^3
# Si number density = 26.404431 Si / 1000 Ang^3
#
#
#
# Elastic Constant Matrix: (Units=GPa)
#
#
# Indices 1 2 3 4 5 6 
#
# 1 103.3342 26.2306 -2.9210 0.0000 0.0000 0.0000
# 2 26.2306 57.3291 -6.1837 0.0000 0.0000 0.0000
# 3 -2.9210 -6.1837 28.1989 0.0000 0.0000 0.0000
# 4 0.0000 0.0000 0.0000 38.4140 0.0000 0.0000
# 5 0.0000 0.0000 0.0000 0.0000 26.1052 0.0000
# 6 0.0000 0.0000 0.0000 0.0000 0.0000 53.1770
#
#
#
# Elastic Compliance Matrix: (Units=1/GPa)
#
#
# Indices 1 2 3 4 5 6 
#
# 1 0.010949 -0.005006 0.000036 0.000000 0.000000 0.000000
# 2 -0.005006 0.020154 0.003901 0.000000 0.000000 0.000000
# 3 0.000036 0.003901 0.036322 0.000000 0.000000 0.000000
# 4 0.000000 0.000000 0.000000 0.026032 0.000000 0.000000
# 5 0.000000 0.000000 0.000000 0.000000 0.038307 0.000000
# 6 0.000000 0.000000 0.000000 0.000000 0.000000 0.018805
#
#
# Mechanical properties :
#
#
# Convention : Reuss Voigt Hill
#
# Bulk Modulus (GPa) = 15.31661 24.79044 20.05352
# Shear Modulus (GPa) = 28.65854 34.98832 31.82343
#
# Velocity S-wave (km/s) = 3.29807 3.64413 3.47541
# Velocity P-wave (km/s) = 4.50737 5.20724 4.86989
#
# Compressibility (1/GPa) = 0.06528861
#
# Stress axis : x y z
#
# Youngs Moduli (GPa) = 91.33222 49.61730 27.53179
#
# Poissons Ratio (x) = 0.24837 -0.00100
# Poissons Ratio (y) = 0.45718 -0.10740
# Poissons Ratio (z) = -0.00333 -0.19356
#
# Static dielectric constant tensor:
#      x y z
#    x 4.644540 0.000000 0.000000 
#    y 0.000000 4.607300 0.000000 
#    z 0.000000 0.000000 4.128780 
# 
# 
# High freq. dielectric constant tensor:
#      x y z
#    x 2.060370 0.000000 0.000000 
#    y 0.000000 2.057750 0.000000 
#    z 0.000000 0.000000 2.022100 
# 
# From -- ./inp_files/11329.got.cif
#   From: 2010.03.12/outbox.cif.g09.slc.cpg/sg61_6_cif.got.tgz:11329.got - 2010.04.10 19:05:03.
