data_PCOD8249422
_publ_section_title
;
Structure prediction by ZEFSAII (Michael W. Deem and Ramdas Pophale) SiO2 
 PCOD8249422
Probable space group: P B C A
;
_chemical_formula_sum "Si O2"
_cell_formula_units_Z 40
_cell_length_a 9.095827
_cell_length_b 20.370668
_cell_length_c 9.340927
_cell_angle_alpha 90.000000
_cell_angle_beta 90.000000
_cell_angle_gamma 90.000000
_cell_volume 1730.762355
_symmetry_space_group_name_H-M "P B C A"
_symmetry_group_IT_number 61
_symmetry_cell_setting 'orthorhombic'
loop_
_space_group_symop_operation_xyz
x,y,z
1/2-x,-y,1/2+z
1/2+x,1/2-y,-z
-x,1/2+y,1/2-z
-x,-y,-z
1/2+x,y,1/2-z
1/2-x,1/2+y,z
x,1/2-y,1/2+z
loop_
_atom_site_type_symbol
_atom_site_label
_atom_site_fract_x
_atom_site_fract_y
_atom_site_fract_z
Si Si1 0.490879 0.020457 0.836586
Si Si2 0.281419 0.598956 0.827794
Si Si3 0.885520 0.760117 0.171579
Si Si4 0.420649 0.300988 0.914662
Si Si5 0.956808 0.935707 0.914584
O O1 0.645868 0.042102 0.770174
O O2 0.391345 0.085489 0.815888
O O3 0.425395 0.957685 0.749011
O O4 0.500000 0.000000 0.000000
O O5 0.321610 0.670754 0.769282
O O6 0.318326 0.594199 0.998385
O O7 0.746174 0.721527 0.107490
O O8 0.959658 0.718846 0.296231
O O9 0.017787 0.770382 0.060509
O O10 0.415814 0.380421 0.919216
O O11 0.000000 0.000000 0.000000
#
# Coordination Sequence:
#
# PCOD8249422 Si02
#       5
#     8   8   8   8   8
#     4  11  22  38  65  92 122 168 215 260 314 377
#     4  10  22  41  61  89 128 162 207 264 317 375
#     4  11  24  42  64  95 127 169 214 264 323 382
#     4  11  24  42  67  94 130 169 214 264 320 386
#     4   9  22  41  60  90 129 164 204 260 317 374
#
# _framework density 23.111203
#
# number of rings (size 3 to 8) (size 9 to 14) (size 15 to 20)
#    0.000    1.600    0.000    3.600    0.000   12.800 
#    0.000    0.000    0.000    0.000    0.000    0.000 
#    0.000    0.000    0.000    0.000    0.000    0.000 
#
# Total GULP energy -495841.505308 kJ/mol
# GULP energy per Si atom -12396.037633 kJ/mol
# Density = 2.305860 g / cm^3
# Si number density = 23.111203 Si / 1000 Ang^3
#
#
#
# Elastic Constant Matrix: (Units=GPa)
#
#
# Indices 1 2 3 4 5 6 
#
# 1 61.7732 11.4559 2.2972 0.0000 0.0000 0.0000
# 2 11.4559 121.9432 29.9960 0.0000 0.0000 0.0000
# 3 2.2972 29.9960 117.4408 0.0000 0.0000 0.0000
# 4 0.0000 0.0000 0.0000 30.4710 0.0000 0.0000
# 5 0.0000 0.0000 0.0000 0.0000 24.8828 0.0000
# 6 0.0000 0.0000 0.0000 0.0000 0.0000 34.1636
#
#
#
# Elastic Compliance Matrix: (Units=1/GPa)
#
#
# Indices 1 2 3 4 5 6 
#
# 1 0.016476 -0.001567 0.000078 0.000000 0.000000 0.000000
# 2 -0.001567 0.008899 -0.002242 0.000000 0.000000 0.000000
# 3 0.000078 -0.002242 0.009086 0.000000 0.000000 0.000000
# 4 0.000000 0.000000 0.000000 0.032818 0.000000 0.000000
# 5 0.000000 0.000000 0.000000 0.000000 0.040188 0.000000
# 6 0.000000 0.000000 0.000000 0.000000 0.000000 0.029271
#
#
# Mechanical properties :
#
#
# Convention : Reuss Voigt Hill
#
# Bulk Modulus (GPa) = 37.03893 43.18392 40.11143
# Shear Modulus (GPa) = 32.63683 35.06403 33.85043
#
# Velocity S-wave (km/s) = 3.76196 3.89933 3.83126
# Velocity P-wave (km/s) = 5.91024 6.24491 6.07988
#
# Compressibility (1/GPa) = 0.02699862
#
# Stress axis : x y z
#
# Youngs Moduli (GPa) = 60.69447 112.36796 110.05779
#
# Poissons Ratio (x) = 0.17608 -0.00858
# Poissons Ratio (y) = 0.09511 0.24679
# Poissons Ratio (z) = -0.00473 0.25197
#
# Static dielectric constant tensor:
#      x y z
#    x 3.902420 0.000000 0.000000 
#    y 0.000000 4.753120 0.000000 
#    z 0.000000 0.000000 4.577180 
# 
# 
# High freq. dielectric constant tensor:
#      x y z
#    x 1.903950 0.000000 0.000000 
#    y 0.000000 1.921670 0.000000 
#    z 0.000000 0.000000 1.920180 
# 
# From -- ./inp_files/1753.got.cif
#   From: 2010.03.12/outbox.cif.g09.slc.cpg/sg61_1_cif.got.tgz:1753.got - 2010.04.10 19:05:03.
