data_PCOD8249048
_publ_section_title
;
Structure prediction by ZEFSAII (Michael W. Deem and Ramdas Pophale) SiO2 
 PCOD8249048
Probable space group: P B C A
;
_chemical_formula_sum "Si O2"
_cell_formula_units_Z 48
_cell_length_a 8.105550
_cell_length_b 27.813937
_cell_length_c 8.679389
_cell_angle_alpha 90.000000
_cell_angle_beta 90.000000
_cell_angle_gamma 90.000000
_cell_volume 1956.744443
_symmetry_space_group_name_H-M "P B C A"
_symmetry_group_IT_number 61
_symmetry_cell_setting 'orthorhombic'
loop_
_space_group_symop_operation_xyz
x,y,z
1/2-x,-y,1/2+z
1/2+x,1/2-y,-z
-x,1/2+y,1/2-z
-x,-y,-z
1/2+x,y,1/2-z
1/2-x,1/2+y,z
x,1/2-y,1/2+z
loop_
_atom_site_type_symbol
_atom_site_label
_atom_site_fract_x
_atom_site_fract_y
_atom_site_fract_z
Si Si1 0.691191 0.959944 0.562152
Si Si2 0.962703 0.198415 0.461260
Si Si3 0.077637 0.510533 0.749603
Si Si4 0.598025 0.217604 0.360044
Si Si5 0.982360 0.129456 0.955543
Si Si6 0.647882 0.889404 0.136674
O O1 0.710747 0.976502 0.385293
O O2 0.607398 0.907614 0.573080
O O3 0.867906 0.964094 0.648489
O O4 0.589908 0.999822 0.660014
O O5 0.024406 0.229732 0.606555
O O6 0.089357 0.204541 0.320149
O O7 0.786798 0.217392 0.407126
O O8 0.952712 0.142815 0.513293
O O9 0.065533 0.557631 0.860027
O O10 0.493056 0.180107 0.460833
O O11 0.160307 0.107904 0.909440
O O12 0.868831 0.135599 0.804446
#
# Coordination Sequence:
#
# PCOD8249048 Si02
#       6
#     8   8   8   8   8   8
#     4  10  22  38  60  89 122 159 205 252 306 366
#     4  11  24  42  65  93 126 163 208 258 313 376
#     4  10  20  39  61  87 122 160 202 253 305 365
#     4  11  24  42  65  94 128 165 209 260 315 375
#     4  10  23  41  62  90 124 163 208 259 310 371
#     4  10  21  39  63  89 122 161 204 252 307 366
#
# _framework density 24.530542000000001
#
# number of rings (size 3 to 8) (size 9 to 14) (size 15 to 20)
#    0.000    1.667    0.000    5.000    0.000   10.000 
#    0.000    5.000    0.000    0.000    0.000    0.000 
#    0.000    0.000    0.000    0.000    0.000    0.000 
#
# Total GULP energy -595229.623305 kJ/mol
# GULP energy per Si atom -12400.617152 kJ/mol
# Density = 2.447471 g / cm^3
# Si number density = 24.530542 Si / 1000 Ang^3
#
#
#
# Elastic Constant Matrix: (Units=GPa)
#
#
# Indices 1 2 3 4 5 6 
#
# 1 26.6179 35.3736 20.8541 0.0000 0.0000 0.0000
# 2 35.3736 84.2873 24.8436 0.0000 0.0000 0.0000
# 3 20.8541 24.8436 89.7248 0.0000 0.0000 0.0000
# 4 0.0000 0.0000 0.0000 53.4971 0.0000 0.0000
# 5 0.0000 0.0000 0.0000 0.0000 39.9656 0.0000
# 6 0.0000 0.0000 0.0000 0.0000 0.0000 32.3501
#
#
#
# Elastic Compliance Matrix: (Units=1/GPa)
#
#
# Indices 1 2 3 4 5 6 
#
# 1 0.095669 -0.036582 -0.012107 0.000000 0.000000 0.000000
# 2 -0.036582 0.026907 0.001052 0.000000 0.000000 0.000000
# 3 -0.012107 0.001052 0.013668 0.000000 0.000000 0.000000
# 4 0.000000 0.000000 0.000000 0.018693 0.000000 0.000000
# 5 0.000000 0.000000 0.000000 0.000000 0.025022 0.000000
# 6 0.000000 0.000000 0.000000 0.000000 0.000000 0.030912
#
#
# Mechanical properties :
#
#
# Convention : Reuss Voigt Hill
#
# Bulk Modulus (GPa) = 24.40744 40.30806 32.35775
# Shear Modulus (GPa) = 15.63483 33.13315 24.38399
#
# Velocity S-wave (km/s) = 2.52734 3.67916 3.15624
# Velocity P-wave (km/s) = 4.29977 5.87501 5.14800
#
# Compressibility (1/GPa) = 0.04097111
#
# Stress axis : x y z
#
# Youngs Moduli (GPa) = 10.45269 37.16552 73.16549
#
# Poissons Ratio (x) = 1.35959 0.88579
# Poissons Ratio (y) = 0.38238 -0.07700
# Poissons Ratio (z) = 0.12655 -0.03911
#
# Static dielectric constant tensor:
#      x y z
#    x 4.199760 0.000000 0.000000 
#    y 0.000000 4.281050 0.000000 
#    z 0.000000 0.000000 4.643090 
# 
# 
# High freq. dielectric constant tensor:
#      x y z
#    x 1.971320 0.000000 0.000000 
#    y 0.000000 1.969670 0.000000 
#    z 0.000000 0.000000 1.978850 
# 
# From -- ./inp_files/1858.got.cif
#   From: 2010.03.12/outbox.cif.g09.slc.cpg/sg61_1_cif.got.tgz:1858.got - 2010.04.10 19:05:03.
