data_PCOD8249290
_publ_section_title
;
Structure prediction by ZEFSAII (Michael W. Deem and Ramdas Pophale) SiO2 
 PCOD8249290
Probable space group: P B C A
;
_chemical_formula_sum "Si O2"
_cell_formula_units_Z 56
_cell_length_a 21.702335
_cell_length_b 10.082926
_cell_length_c 12.345371
_cell_angle_alpha 90.000000
_cell_angle_beta 90.000000
_cell_angle_gamma 90.000000
_cell_volume 2701.451585
_symmetry_space_group_name_H-M "P B C A"
_symmetry_group_IT_number 61
_symmetry_cell_setting 'orthorhombic'
loop_
_space_group_symop_operation_xyz
x,y,z
1/2-x,-y,1/2+z
1/2+x,1/2-y,-z
-x,1/2+y,1/2-z
-x,-y,-z
1/2+x,y,1/2-z
1/2-x,1/2+y,z
x,1/2-y,1/2+z
loop_
_atom_site_type_symbol
_atom_site_label
_atom_site_fract_x
_atom_site_fract_y
_atom_site_fract_z
Si Si1 0.560073 0.049103 0.789375
Si Si2 0.607999 0.064745 0.025743
Si Si3 0.913090 0.223000 0.505285
Si Si4 0.342518 0.088882 0.345584
Si Si5 0.985289 0.709657 0.156409
Si Si6 0.795997 0.215602 0.358806
Si Si7 0.746622 0.463325 0.472805
O O1 0.521017 0.169948 0.739971
O O2 0.623712 0.025262 0.723154
O O3 0.519791 0.914733 0.788161
O O4 0.579108 0.094986 0.908572
O O5 0.582317 0.167814 0.113971
O O6 0.681511 0.075526 0.025282
O O7 0.583864 0.919840 0.064035
O O8 0.896054 0.332465 0.592472
O O9 0.863614 0.207498 0.409277
O O10 0.977024 0.261375 0.448371
O O11 0.303432 0.189065 0.269217
O O12 0.296119 0.025400 0.431520
O O13 0.765082 0.356909 0.381010
O O14 0.753422 0.104241 0.413869
#
# Coordination Sequence:
#
# PCOD8249290 Si02
#       7
#     8   8   8   8   8   8   8
#     4  11  24  43  67  94 128 171 212 262 328 379
#     4  10  22  43  63  92 135 166 206 268 326 373
#     4   9  20  40  63  91 123 170 212 254 323 383
#     4  11  22  40  69  87 127 174 215 262 320 382
#     4  11  24  40  69  94 131 164 213 269 315 388
#     4  10  21  41  61  89 127 165 209 267 312 385
#     4  10  23  39  63  94 125 165 219 260 318 377
#
# _framework density 20.729596999999998
#
# number of rings (size 3 to 8) (size 9 to 14) (size 15 to 20)
#    0.000    1.714    4.286    1.714    6.000    5.143 
#    0.000    1.429    0.000    0.000    0.000    0.000 
#    0.000    0.000    0.000    0.000    0.000    0.000 
#
# Total GULP energy -694505.071411 kJ/mol
# GULP energy per Si atom -12401.876275 kJ/mol
# Density = 2.068242 g / cm^3
# Si number density = 20.729597 Si / 1000 Ang^3
#
#
#
# Elastic Constant Matrix: (Units=GPa)
#
#
# Indices 1 2 3 4 5 6 
#
# 1 78.1153 28.9318 21.0881 0.0000 0.0000 0.0000
# 2 28.9318 67.4535 22.9522 0.0000 0.0000 0.0000
# 3 21.0881 22.9522 59.7564 0.0000 0.0000 0.0000
# 4 0.0000 0.0000 0.0000 26.0013 0.0000 0.0000
# 5 0.0000 0.0000 0.0000 0.0000 23.5227 0.0000
# 6 0.0000 0.0000 0.0000 0.0000 0.0000 31.5686
#
#
#
# Elastic Compliance Matrix: (Units=1/GPa)
#
#
# Indices 1 2 3 4 5 6 
#
# 1 0.015805 -0.005615 -0.003421 0.000000 0.000000 0.000000
# 2 -0.005615 0.019049 -0.005335 0.000000 0.000000 0.000000
# 3 -0.003421 -0.005335 0.019991 0.000000 0.000000 0.000000
# 4 0.000000 0.000000 0.000000 0.038460 0.000000 0.000000
# 5 0.000000 0.000000 0.000000 0.000000 0.042512 0.000000
# 6 0.000000 0.000000 0.000000 0.000000 0.000000 0.031677
#
#
# Mechanical properties :
#
#
# Convention : Reuss Voigt Hill
#
# Bulk Modulus (GPa) = 38.30997 39.02994 38.66996
# Shear Modulus (GPa) = 24.39791 25.04205 24.71998
#
# Velocity S-wave (km/s) = 3.43441 3.47945 3.45700
# Velocity P-wave (km/s) = 5.85216 5.91702 5.88468
#
# Compressibility (1/GPa) = 0.02610287
#
# Stress axis : x y z
#
# Youngs Moduli (GPa) = 63.27243 52.49713 50.02252
#
# Poissons Ratio (x) = 0.29476 0.17112
# Poissons Ratio (y) = 0.35527 0.26687
# Poissons Ratio (z) = 0.21644 0.28007
#
# Static dielectric constant tensor:
#      x y z
#    x 3.789860 0.000000 0.000000 
#    y 0.000000 3.652960 0.000000 
#    z 0.000000 0.000000 3.653910 
# 
# 
# High freq. dielectric constant tensor:
#      x y z
#    x 1.817150 0.000000 0.000000 
#    y 0.000000 1.799590 0.000000 
#    z 0.000000 0.000000 1.809400 
# 
# From -- ./inp_files/6443.got.cif
#   From: 2010.03.12/outbox.cif.g09.slc.cpg/sg61_4_cif.got.tgz:6443.got - 2010.04.10 19:05:03.
