data_PCOD8249094
_publ_section_title
;
Structure prediction by ZEFSAII (Michael W. Deem and Ramdas Pophale) SiO2 
 PCOD8249094
Probable space group: P B C A
;
_chemical_formula_sum "Si O2"
_cell_formula_units_Z 56
_cell_length_a 14.257163
_cell_length_b 11.702650
_cell_length_c 13.990209
_cell_angle_alpha 90.000000
_cell_angle_beta 90.000000
_cell_angle_gamma 90.000000
_cell_volume 2334.218645
_symmetry_space_group_name_H-M "P B C A"
_symmetry_group_IT_number 61
_symmetry_cell_setting 'orthorhombic'
loop_
_space_group_symop_operation_xyz
x,y,z
1/2-x,-y,1/2+z
1/2+x,1/2-y,-z
-x,1/2+y,1/2-z
-x,-y,-z
1/2+x,y,1/2-z
1/2-x,1/2+y,z
x,1/2-y,1/2+z
loop_
_atom_site_type_symbol
_atom_site_label
_atom_site_fract_x
_atom_site_fract_y
_atom_site_fract_z
Si Si1 0.359157 0.737678 0.684442
Si Si2 0.522611 0.615674 0.137331
Si Si3 0.386857 0.886282 0.367815
Si Si4 0.325444 0.062465 0.891156
Si Si5 0.852823 0.239045 0.768177
Si Si6 0.664683 0.170088 0.021919
Si Si7 0.630463 0.762798 0.486184
O O1 0.415645 0.855974 0.667343
O O2 0.410960 0.661118 0.762809
O O3 0.256882 0.772703 0.723742
O O4 0.357746 0.658253 0.590334
O O5 0.533909 0.481776 0.112951
O O6 0.593774 0.653996 0.221647
O O7 0.541534 0.686741 0.040926
O O8 0.285755 0.945936 0.376154
O O9 0.390034 0.781745 0.441779
O O10 0.368662 0.125812 0.797570
O O11 0.367172 0.936169 0.911320
O O12 0.354397 0.129716 0.988091
O O13 0.890737 0.216821 0.874691
O O14 0.777182 0.176082 0.028827
#
# Coordination Sequence:
#
# PCOD8249094 Si02
#       7
#     8   8   8   8   8   8   8
#     4  10  24  42  64 102 133 176 233 277 345 414
#     4  11  22  43  65  95 137 175 225 286 336 400
#     4  10  22  41  64  97 140 174 228 289 338 418
#     4   9  18  37  67  95 131 177 218 287 336 399
#     4   9  21  42  67 101 131 178 228 271 352 410
#     4  10  20  41  64  98 130 173 231 276 342 411
#     4   9  19  38  63  95 126 172 222 271 338 405
#
# _framework density 23.990897
#
# number of rings (size 3 to 8) (size 9 to 14) (size 15 to 20)
#    0.000    2.286    1.429    0.857    2.000    1.714 
#    7.714    2.857    0.000    0.000    0.000    0.000 
#    0.000    0.000    0.000    0.000    0.000    0.000 
#
# Total GULP energy -694224.686552 kJ/mol
# GULP energy per Si atom -12396.869403 kJ/mol
# Density = 2.393629 g / cm^3
# Si number density = 23.990897 Si / 1000 Ang^3
#
#
#
# Elastic Constant Matrix: (Units=GPa)
#
#
# Indices 1 2 3 4 5 6 
#
# 1 36.8937 7.7205 35.3446 0.0000 0.0000 0.0000
# 2 7.7205 98.8256 48.5399 0.0000 0.0000 0.0000
# 3 35.3446 48.5399 136.4524 0.0000 0.0000 0.0000
# 4 0.0000 0.0000 0.0000 23.3427 0.0000 0.0000
# 5 0.0000 0.0000 0.0000 0.0000 20.2485 0.0000
# 6 0.0000 0.0000 0.0000 0.0000 0.0000 25.1550
#
#
#
# Elastic Compliance Matrix: (Units=1/GPa)
#
#
# Indices 1 2 3 4 5 6 
#
# 1 0.036430 0.002167 -0.010207 0.000000 0.000000 0.000000
# 2 0.002167 0.012390 -0.004969 0.000000 0.000000 0.000000
# 3 -0.010207 -0.004969 0.011740 0.000000 0.000000 0.000000
# 4 0.000000 0.000000 0.000000 0.042840 0.000000 0.000000
# 5 0.000000 0.000000 0.000000 0.000000 0.049386 0.000000
# 6 0.000000 0.000000 0.000000 0.000000 0.000000 0.039753
#
#
# Mechanical properties :
#
#
# Convention : Reuss Voigt Hill
#
# Bulk Modulus (GPa) = 28.94969 50.59797 39.77383
# Shear Modulus (GPa) = 21.73235 25.78703 23.75969
#
# Velocity S-wave (km/s) = 3.01301 3.28207 3.15042
# Velocity P-wave (km/s) = 4.91909 5.95810 5.46335
#
# Compressibility (1/GPa) = 0.03454268
#
# Stress axis : x y z
#
# Youngs Moduli (GPa) = 27.44989 80.70970 85.17812
#
# Poissons Ratio (x) = -0.17494 0.86944
# Poissons Ratio (y) = -0.05950 0.42324
# Poissons Ratio (z) = 0.28019 0.40104
#
# Static dielectric constant tensor:
#      x y z
#    x 4.104010 0.000000 0.000000 
#    y 0.000000 4.017300 0.000000 
#    z 0.000000 0.000000 4.481670 
# 
# 
# High freq. dielectric constant tensor:
#      x y z
#    x 1.942670 0.000000 0.000000 
#    y 0.000000 1.928500 0.000000 
#    z 0.000000 0.000000 1.966110 
# 
# From -- ./inp_files/7862.got.cif
#   From: 2010.03.12/outbox.cif.g09.slc.cpg/sg61_4_cif.got.tgz:7862.got - 2010.04.10 19:05:03.
