data_PCOD8249908
_publ_section_title
;
Structure prediction by ZEFSAII (Michael W. Deem and Ramdas Pophale) SiO2 
 PCOD8249908
Probable space group: P B C A
;
_chemical_formula_sum "Si O2"
_cell_formula_units_Z 48
_cell_length_a 13.706255
_cell_length_b 16.990680
_cell_length_c 9.199864
_cell_angle_alpha 90.000000
_cell_angle_beta 90.000000
_cell_angle_gamma 90.000000
_cell_volume 2142.451381
_symmetry_space_group_name_H-M "P B C A"
_symmetry_group_IT_number 61
_symmetry_cell_setting 'orthorhombic'
loop_
_space_group_symop_operation_xyz
x,y,z
1/2-x,-y,1/2+z
1/2+x,1/2-y,-z
-x,1/2+y,1/2-z
-x,-y,-z
1/2+x,y,1/2-z
1/2-x,1/2+y,z
x,1/2-y,1/2+z
loop_
_atom_site_type_symbol
_atom_site_label
_atom_site_fract_x
_atom_site_fract_y
_atom_site_fract_z
Si Si1 0.096548 0.164646 0.927270
Si Si2 0.514115 0.915475 0.196790
Si Si3 0.506189 0.588939 0.175121
Si Si4 0.269138 0.080026 0.794696
Si Si5 0.286990 0.422013 0.948114
Si Si6 0.591435 0.342911 0.561594
O O1 0.199196 0.151625 0.843048
O O2 0.090817 0.252749 0.990680
O O3 0.008636 0.152228 0.813455
O O4 0.080923 0.102791 0.058757
O O5 0.623834 0.905606 0.138683
O O6 0.496458 0.999494 0.271460
O O7 0.439980 0.904239 0.063562
O O8 0.608647 0.612938 0.100780
O O9 0.485159 0.647507 0.307863
O O10 0.279798 0.070328 0.621869
O O11 0.221881 0.004200 0.866593
O O12 0.200976 0.365550 0.890185
#
# Coordination Sequence:
#
# PCOD8249908 Si02
#       6
#     8   8   8   8   8   8
#     4  12  26  47  70 106 151 188 240 310 371 426
#     4  12  24  48  74 105 142 193 251 297 358 448
#     4  12  25  46  78 105 144 197 248 300 365 446
#     4  12  26  44  77 104 141 190 247 304 360 444
#     4  12  25  46  73 107 139 190 251 301 366 441
#     4  12  28  44  73 109 151 188 245 311 369 430
#
# _framework density 22.404242
#
# number of rings (size 3 to 8) (size 9 to 14) (size 15 to 20)
#    0.000    0.000    6.667    3.000    2.333    2.667 
#    0.000    0.000    0.000    0.000    0.000    0.000 
#    0.000    0.000    0.000    0.000    0.000    0.000 
#
# Total GULP energy -595259.622790 kJ/mol
# GULP energy per Si atom -12401.242141 kJ/mol
# Density = 2.235325 g / cm^3
# Si number density = 22.404242 Si / 1000 Ang^3
#
#
#
# Elastic Constant Matrix: (Units=GPa)
#
#
# Indices 1 2 3 4 5 6 
#
# 1 141.8922 59.7570 44.2146 0.0000 0.0000 0.0000
# 2 59.7570 103.3655 44.9852 0.0000 0.0000 0.0000
# 3 44.2146 44.9852 131.1243 0.0000 0.0000 0.0000
# 4 0.0000 0.0000 0.0000 31.4833 0.0000 0.0000
# 5 0.0000 0.0000 0.0000 0.0000 36.3702 0.0000
# 6 0.0000 0.0000 0.0000 0.0000 0.0000 24.5072
#
#
#
# Elastic Compliance Matrix: (Units=1/GPa)
#
#
# Indices 1 2 3 4 5 6 
#
# 1 0.009581 -0.004858 -0.001564 0.000000 0.000000 0.000000
# 2 -0.004858 0.013836 -0.003109 0.000000 0.000000 0.000000
# 3 -0.001564 -0.003109 0.009220 0.000000 0.000000 0.000000
# 4 0.000000 0.000000 0.000000 0.031763 0.000000 0.000000
# 5 0.000000 0.000000 0.000000 0.000000 0.027495 0.000000
# 6 0.000000 0.000000 0.000000 0.000000 0.000000 0.040804
#
#
# Mechanical properties :
#
#
# Convention : Reuss Voigt Hill
#
# Bulk Modulus (GPa) = 73.66173 74.92173 74.29173
# Shear Modulus (GPa) = 31.99265 33.63381 32.81323
#
# Velocity S-wave (km/s) = 3.78295 3.87877 3.83116
# Velocity P-wave (km/s) = 7.21324 7.31938 7.26650
#
# Compressibility (1/GPa) = 0.01357557
#
# Stress axis : x y z
#
# Youngs Moduli (GPa) = 104.37374 72.27587 108.45803
#
# Poissons Ratio (x) = 0.35113 0.16962
# Poissons Ratio (y) = 0.50707 0.33715
# Poissons Ratio (z) = 0.16323 0.22467
#
# Static dielectric constant tensor:
#      x y z
#    x 4.480750 0.000000 0.000000 
#    y 0.000000 3.767550 0.000000 
#    z 0.000000 0.000000 4.265100 
# 
# 
# High freq. dielectric constant tensor:
#      x y z
#    x 1.898340 0.000000 0.000000 
#    y 0.000000 1.863470 0.000000 
#    z 0.000000 0.000000 1.895570 
# 
# From -- ./inp_files/2874.got.cif
#   From: 2010.03.12/outbox.cif.g09.slc.cpg/sg61_2_cif.got.tgz:2874.got - 2010.04.10 19:05:03.
