data_PCOD8249483
_publ_section_title
;
Structure prediction by ZEFSAII (Michael W. Deem and Ramdas Pophale) SiO2 
 PCOD8249483
Probable space group: P B C A
;
_chemical_formula_sum "Si O2"
_cell_formula_units_Z 32
_cell_length_a 13.129261
_cell_length_b 11.972719
_cell_length_c 9.167885
_cell_angle_alpha 90.000000
_cell_angle_beta 90.000000
_cell_angle_gamma 90.000000
_cell_volume 1441.126913
_symmetry_space_group_name_H-M "P B C A"
_symmetry_group_IT_number 61
_symmetry_cell_setting 'orthorhombic'
loop_
_space_group_symop_operation_xyz
x,y,z
1/2-x,-y,1/2+z
1/2+x,1/2-y,-z
-x,1/2+y,1/2-z
-x,-y,-z
1/2+x,y,1/2-z
1/2-x,1/2+y,z
x,1/2-y,1/2+z
loop_
_atom_site_type_symbol
_atom_site_label
_atom_site_fract_x
_atom_site_fract_y
_atom_site_fract_z
Si Si1 0.397594 0.874067 0.185921
Si Si2 0.427119 0.262643 0.899540
Si Si3 0.328856 0.382631 0.648009
Si Si4 0.633777 0.171285 0.489288
O O1 0.515988 0.834434 0.195383
O O2 0.342881 0.800379 0.058786
O O3 0.343005 0.850465 0.340965
O O4 0.390624 0.002392 0.140418
O O5 0.342608 0.328865 0.807629
O O6 0.514596 0.352261 0.951292
O O7 0.373319 0.205552 0.034729
O O8 0.210031 0.404869 0.608910
#
# Coordination Sequence:
#
# PCOD8249483 Si02
#       4
#     8   8   8   8
#     4  10  23  45  64  96 134 173 213 279 321 391
#     4  10  22  44  62 100 131 162 230 266 311 408
#     4  12  23  42  72  92 134 184 205 275 344 366
#     4  10  23  44  62 100 134 163 229 269 309 412
#
# _framework density 22.204846
#
# number of rings (size 3 to 8) (size 9 to 14) (size 15 to 20)
#    1.500    0.000    2.500    2.250    0.000    5.000 
#    9.000    0.000    0.000    0.000    0.000    0.000 
#    0.000    0.000    0.000    0.000    0.000    0.000 
#
# Total GULP energy -396445.983829 kJ/mol
# GULP energy per Si atom -12388.936995 kJ/mol
# Density = 2.215431 g / cm^3
# Si number density = 22.204846 Si / 1000 Ang^3
#
#
#
# Elastic Constant Matrix: (Units=GPa)
#
#
# Indices 1 2 3 4 5 6 
#
# 1 69.7877 -9.6150 27.4777 0.0000 0.0000 0.0000
# 2 -9.6150 41.5197 18.4153 0.0000 0.0000 0.0000
# 3 27.4777 18.4153 89.0418 0.0000 0.0000 0.0000
# 4 0.0000 0.0000 0.0000 23.4853 0.0000 0.0000
# 5 0.0000 0.0000 0.0000 0.0000 30.9575 0.0000
# 6 0.0000 0.0000 0.0000 0.0000 0.0000 21.2628
#
#
#
# Elastic Compliance Matrix: (Units=1/GPa)
#
#
# Indices 1 2 3 4 5 6 
#
# 1 0.018148 0.007362 -0.007123 0.000000 0.000000 0.000000
# 2 0.007362 0.029504 -0.008374 0.000000 0.000000 0.000000
# 3 -0.007123 -0.008374 0.015161 0.000000 0.000000 0.000000
# 4 0.000000 0.000000 0.000000 0.042580 0.000000 0.000000
# 5 0.000000 0.000000 0.000000 0.000000 0.032302 0.000000
# 6 0.000000 0.000000 0.000000 0.000000 0.000000 0.047030
#
#
# Mechanical properties :
#
#
# Convention : Reuss Voigt Hill
#
# Bulk Modulus (GPa) = 21.48556 30.32280 25.90418
# Shear Modulus (GPa) = 23.09377 26.07921 24.58649
#
# Velocity S-wave (km/s) = 3.22845 3.43079 3.33116
# Velocity P-wave (km/s) = 4.85739 5.42027 5.14653
#
# Compressibility (1/GPa) = 0.04654289
#
# Stress axis : x y z
#
# Youngs Moduli (GPa) = 55.10262 33.89395 65.96057
#
# Poissons Ratio (x) = -0.24952 0.46983
# Poissons Ratio (y) = -0.40566 0.55233
# Poissons Ratio (z) = 0.39249 0.28382
#
# Static dielectric constant tensor:
#      x y z
#    x 4.148660 0.000000 0.000000 
#    y 0.000000 3.589380 0.000000 
#    z 0.000000 0.000000 3.855280 
# 
# 
# High freq. dielectric constant tensor:
#      x y z
#    x 1.869070 0.000000 0.000000 
#    y 0.000000 1.844380 0.000000 
#    z 0.000000 0.000000 1.877030 
# 
# From -- ./inp_files/2513.got.cif
#   From: 2010.03.12/outbox.cif.g09.slc.cpg/sg61_2_cif.got.tgz:2513.got - 2010.04.10 19:05:03.
