data_PCOD8249818
_publ_section_title
;
Structure prediction by ZEFSAII (Michael W. Deem and Ramdas Pophale) SiO2 
 PCOD8249818
Probable space group: P B C A
;
_chemical_formula_sum "Si O2"
_cell_formula_units_Z 64
_cell_length_a 11.580921
_cell_length_b 26.318269
_cell_length_c 9.845175
_cell_angle_alpha 90.000000
_cell_angle_beta 90.000000
_cell_angle_gamma 90.000000
_cell_volume 3000.708862
_symmetry_space_group_name_H-M "P B C A"
_symmetry_group_IT_number 61
_symmetry_cell_setting 'orthorhombic'
loop_
_space_group_symop_operation_xyz
x,y,z
1/2-x,-y,1/2+z
1/2+x,1/2-y,-z
-x,1/2+y,1/2-z
-x,-y,-z
1/2+x,y,1/2-z
1/2-x,1/2+y,z
x,1/2-y,1/2+z
loop_
_atom_site_type_symbol
_atom_site_label
_atom_site_fract_x
_atom_site_fract_y
_atom_site_fract_z
Si Si1 0.346840 0.991514 0.281524
Si Si2 0.751200 0.796704 0.333109
Si Si3 0.399582 0.130681 0.061956
Si Si4 0.019529 0.907189 0.831815
Si Si5 0.710926 0.209915 0.528290
Si Si6 0.423280 0.887268 0.168132
Si Si7 0.289217 0.950110 0.577077
Si Si8 0.471634 0.343994 0.076126
O O1 0.392179 0.946178 0.186237
O O2 0.324574 0.976191 0.436476
O O3 0.438730 0.036758 0.292680
O O4 0.233464 0.010552 0.200498
O O5 0.756408 0.773489 0.181525
O O6 0.815513 0.759145 0.436652
O O7 0.808792 0.852492 0.327779
O O8 0.620419 0.800430 0.388080
O O9 0.452604 0.132957 0.213051
O O10 0.325787 0.080107 0.040811
O O11 0.320103 0.179432 0.033014
O O12 0.511639 0.125564 0.969388
O O13 0.884174 0.910948 0.867019
O O14 0.080521 0.882777 0.964261
O O15 0.592265 0.178774 0.523940
O O16 0.511077 0.875633 0.288289
#
# Coordination Sequence:
#
# PCOD8249818 Si02
#       8
#     8   8   8   8   8   8   8   8
#     4  11  26  39  69  96 141 179 233 286 344 419
#     4  11  27  43  74 103 137 182 233 280 353 419
#     4  11  25  44  68  95 142 171 229 287 344 409
#     4  11  25  41  66 102 131 185 230 288 342 412
#     4  11  25  48  67 105 135 180 227 287 350 411
#     4  11  25  45  68 101 139 189 223 288 346 419
#     4  11  24  43  62 100 132 181 226 285 343 414
#     4  11  24  46  72  96 144 178 232 282 348 415
#
# _framework density 21.328294
#
# number of rings (size 3 to 8) (size 9 to 14) (size 15 to 20)
#    0.000    1.000    3.750    1.125    8.750    3.000 
#    0.000    0.000    0.000    0.000    0.000    0.000 
#    0.000    0.000    0.000    0.000    0.000    0.000 
#
# Total GULP energy -793512.091043 kJ/mol
# GULP energy per Si atom -12398.626423 kJ/mol
# Density = 2.127975 g / cm^3
# Si number density = 21.328294 Si / 1000 Ang^3
#
#
#
# Elastic Constant Matrix: (Units=GPa)
#
#
# Indices 1 2 3 4 5 6 
#
# 1 68.7235 16.6839 45.9714 0.0000 0.0000 0.0000
# 2 16.6839 76.5202 20.5599 0.0000 0.0000 0.0000
# 3 45.9714 20.5599 79.2925 0.0000 0.0000 0.0000
# 4 0.0000 0.0000 0.0000 40.4933 0.0000 0.0000
# 5 0.0000 0.0000 0.0000 0.0000 31.9972 0.0000
# 6 0.0000 0.0000 0.0000 0.0000 0.0000 24.2343
#
#
#
# Elastic Compliance Matrix: (Units=1/GPa)
#
#
# Indices 1 2 3 4 5 6 
#
# 1 0.023951 -0.001603 -0.013470 0.000000 0.000000 0.000000
# 2 -0.001603 0.014154 -0.002741 0.000000 0.000000 0.000000
# 3 -0.013470 -0.002741 0.021132 0.000000 0.000000 0.000000
# 4 0.000000 0.000000 0.000000 0.024695 0.000000 0.000000
# 5 0.000000 0.000000 0.000000 0.000000 0.031253 0.000000
# 6 0.000000 0.000000 0.000000 0.000000 0.000000 0.041264
#
#
# Mechanical properties :
#
#
# Convention : Reuss Voigt Hill
#
# Bulk Modulus (GPa) = 42.35656 43.44074 42.89865
# Shear Modulus (GPa) = 25.00659 28.76635 26.88647
#
# Velocity S-wave (km/s) = 3.42784 3.67651 3.55435
# Velocity P-wave (km/s) = 5.96399 6.19953 6.08290
#
# Compressibility (1/GPa) = 0.02360909
#
# Stress axis : x y z
#
# Youngs Moduli (GPa) = 41.75189 70.64972 47.32162
#
# Poissons Ratio (x) = 0.11324 0.63744
# Poissons Ratio (y) = 0.06692 0.12970
# Poissons Ratio (z) = 0.56242 0.19364
#
# Static dielectric constant tensor:
#      x y z
#    x 3.840780 0.000000 0.000000 
#    y 0.000000 3.811340 0.000000 
#    z 0.000000 0.000000 4.123400 
# 
# 
# High freq. dielectric constant tensor:
#      x y z
#    x 1.834880 0.000000 0.000000 
#    y 0.000000 1.831970 0.000000 
#    z 0.000000 0.000000 1.855440 
# 
# From -- ./inp_files/2436.got.cif
#   From: 2010.03.12/outbox.cif.g09.slc.cpg/sg61_2_cif.got.tgz:2436.got - 2010.04.10 19:05:03.
