data_PCOD8249186
_publ_section_title
;
Structure prediction by ZEFSAII (Michael W. Deem and Ramdas Pophale) SiO2 
 PCOD8249186
Probable space group: P B C A
;
_chemical_formula_sum "Si O2"
_cell_formula_units_Z 48
_cell_length_a 8.947186
_cell_length_b 15.787443
_cell_length_c 15.030403
_cell_angle_alpha 90.000000
_cell_angle_beta 90.000000
_cell_angle_gamma 90.000000
_cell_volume 2123.092355
_symmetry_space_group_name_H-M "P B C A"
_symmetry_group_IT_number 61
_symmetry_cell_setting 'orthorhombic'
loop_
_space_group_symop_operation_xyz
x,y,z
1/2-x,-y,1/2+z
1/2+x,1/2-y,-z
-x,1/2+y,1/2-z
-x,-y,-z
1/2+x,y,1/2-z
1/2-x,1/2+y,z
x,1/2-y,1/2+z
loop_
_atom_site_type_symbol
_atom_site_label
_atom_site_fract_x
_atom_site_fract_y
_atom_site_fract_z
Si Si1 0.984002 0.947350 0.398691
Si Si2 0.737895 0.071791 0.402954
Si Si3 0.498452 0.180883 0.049827
Si Si4 0.000280 0.877920 0.035188
Si Si5 0.011479 0.006865 0.801705
Si Si6 0.254460 0.571113 0.405872
O O1 0.010575 0.948836 0.292891
O O2 0.000920 0.857329 0.448401
O O3 0.815252 0.980063 0.414190
O O4 0.110209 0.009854 0.440027
O O5 0.869870 0.140660 0.385982
O O6 0.661395 0.102512 0.494249
O O7 0.616412 0.064038 0.322963
O O8 0.466833 0.278967 0.039068
O O9 0.659627 0.162173 0.098443
O O10 0.002052 0.913524 0.133633
O O11 0.121147 0.928551 0.977126
O O12 0.174905 0.960428 0.813844
#
# Coordination Sequence:
#
# PCOD8249186 Si02
#       6
#     8   8   8   8   8   8
#     4  11  21  37  58  84 115 154 200 247 286 336
#     4  10  21  38  60  82 111 154 200 232 282 356
#     4  11  21  37  61  88 117 154 192 239 296 354
#     4  11  21  37  61  88 117 154 192 239 296 354
#     4  11  21  37  58  84 115 154 200 247 286 336
#     4  10  21  38  60  82 111 154 200 232 282 356
#
# _framework density 22.608532
#
# number of rings (size 3 to 8) (size 9 to 14) (size 15 to 20)
#    0.000    1.333    0.000   10.000    0.000    0.000 
#    0.000   10.000    0.000    0.000    0.000    0.000 
#    0.000    0.000    0.000    0.000    0.000    0.000 
#
# Total GULP energy -594788.256351 kJ/mol
# GULP energy per Si atom -12391.422007 kJ/mol
# Density = 2.255707 g / cm^3
# Si number density = 22.608532 Si / 1000 Ang^3
#
#
#
# Elastic Constant Matrix: (Units=GPa)
#
#
# Indices 1 2 3 4 5 6 
#
# 1 128.2647 18.9526 15.3811 0.0000 0.0000 0.0000
# 2 18.9526 100.9465 31.6134 0.0000 0.0000 0.0000
# 3 15.3811 31.6134 89.2293 0.0000 0.0000 0.0000
# 4 0.0000 0.0000 0.0000 14.6067 0.0000 0.0000
# 5 0.0000 0.0000 0.0000 0.0000 28.0110 0.0000
# 6 0.0000 0.0000 0.0000 0.0000 0.0000 19.6076
#
#
#
# Elastic Compliance Matrix: (Units=1/GPa)
#
#
# Indices 1 2 3 4 5 6 
#
# 1 0.008092 -0.001217 -0.000963 0.000000 0.000000 0.000000
# 2 -0.001217 0.011326 -0.003803 0.000000 0.000000 0.000000
# 3 -0.000963 -0.003803 0.012720 0.000000 0.000000 0.000000
# 4 0.000000 0.000000 0.000000 0.068462 0.000000 0.000000
# 5 0.000000 0.000000 0.000000 0.000000 0.035700 0.000000
# 6 0.000000 0.000000 0.000000 0.000000 0.000000 0.051001
#
#
# Mechanical properties :
#
#
# Convention : Reuss Voigt Hill
#
# Bulk Modulus (GPa) = 49.57734 50.03717 49.80725
# Shear Modulus (GPa) = 24.27285 29.27797 26.77541
#
# Velocity S-wave (km/s) = 3.28016 3.60251 3.44511
# Velocity P-wave (km/s) = 6.02679 6.28364 6.15655
#
# Compressibility (1/GPa) = 0.02017051
#
# Stress axis : x y z
#
# Youngs Moduli (GPa) = 123.58163 88.29450 78.61350
#
# Poissons Ratio (x) = 0.10750 0.07574
# Poissons Ratio (y) = 0.15046 0.29895
# Poissons Ratio (z) = 0.11907 0.33576
#
# Static dielectric constant tensor:
#      x y z
#    x 4.674980 0.000000 0.000000 
#    y 0.000000 3.687340 0.000000 
#    z 0.000000 0.000000 3.919360 
# 
# 
# High freq. dielectric constant tensor:
#      x y z
#    x 1.930510 0.000000 0.000000 
#    y 0.000000 1.850600 0.000000 
#    z 0.000000 0.000000 1.883010 
# 
# From -- ./inp_files/8894.got.cif
#   From: 2010.03.12/outbox.cif.g09.slc.cpg/sg61_5_cif.got.tgz:8894.got - 2010.04.10 19:05:03.
