data_PCOD8249688
_publ_section_title
;
Structure prediction by ZEFSAII (Michael W. Deem and Ramdas Pophale) SiO2 
 PCOD8249688
Probable space group: P B C A
;
_chemical_formula_sum "Si O2"
_cell_formula_units_Z 48
_cell_length_a 14.377299
_cell_length_b 8.733511
_cell_length_c 17.149964
_cell_angle_alpha 90.000000
_cell_angle_beta 90.000000
_cell_angle_gamma 90.000000
_cell_volume 2153.423207
_symmetry_space_group_name_H-M "P B C A"
_symmetry_group_IT_number 61
_symmetry_cell_setting 'orthorhombic'
loop_
_space_group_symop_operation_xyz
x,y,z
1/2-x,-y,1/2+z
1/2+x,1/2-y,-z
-x,1/2+y,1/2-z
-x,-y,-z
1/2+x,y,1/2-z
1/2-x,1/2+y,z
x,1/2-y,1/2+z
loop_
_atom_site_type_symbol
_atom_site_label
_atom_site_fract_x
_atom_site_fract_y
_atom_site_fract_z
Si Si1 0.215518 0.770758 0.689565
Si Si2 0.712554 0.999751 0.413337
Si Si3 0.488821 0.907039 0.642710
Si Si4 0.447457 0.390032 0.280940
Si Si5 0.831458 0.536042 0.585161
Si Si6 0.820248 0.649806 0.166747
O O1 0.224321 0.674674 0.609910
O O2 0.208424 0.932360 0.645143
O O3 0.128569 0.717704 0.739650
O O4 0.306040 0.778344 0.746737
O O5 0.611674 0.070402 0.393958
O O6 0.727151 0.021864 0.505201
O O7 0.493912 0.727171 0.666378
O O8 0.507947 0.023166 0.715374
O O9 0.567854 0.953749 0.579625
O O10 0.402724 0.524685 0.333788
O O11 0.774362 0.442138 0.649514
O O12 0.841825 0.715610 0.605757
#
# Coordination Sequence:
#
# PCOD8249688 Si02
#       6
#     8   8   8   8   8   8
#     4  11  20  41  61  89 118 159 218 252 295 375
#     4  11  25  39  62  92 129 165 203 259 328 365
#     4  11  23  39  61  91 132 157 210 258 323 377
#     4  11  23  38  66  96 118 169 212 267 305 365
#     4  12  23  40  62  93 129 167 203 265 315 384
#     4  12  21  41  67  91 119 167 224 255 306 368
#
# _framework density 22.290092999999999
#
# number of rings (size 3 to 8) (size 9 to 14) (size 15 to 20)
#    0.000    0.667    6.667    2.500    0.000    0.000 
#    0.000    0.833    0.000    0.000    0.000    0.000 
#    0.000    0.000    0.000    0.000    0.000    0.000 
#
# Total GULP energy -594780.029309 kJ/mol
# GULP energy per Si atom -12391.250611 kJ/mol
# Density = 2.223936 g / cm^3
# Si number density = 22.290093 Si / 1000 Ang^3
#
#
#
# Elastic Constant Matrix: (Units=GPa)
#
#
# Indices 1 2 3 4 5 6 
#
# 1 27.4782 28.0169 -1.9597 0.0000 0.0000 0.0000
# 2 28.0169 83.5666 22.3529 0.0000 0.0000 0.0000
# 3 -1.9597 22.3529 83.8972 0.0000 0.0000 0.0000
# 4 0.0000 0.0000 0.0000 36.7729 0.0000 0.0000
# 5 0.0000 0.0000 0.0000 0.0000 22.4084 0.0000
# 6 0.0000 0.0000 0.0000 0.0000 0.0000 38.6656
#
#
#
# Elastic Compliance Matrix: (Units=1/GPa)
#
#
# Indices 1 2 3 4 5 6 
#
# 1 0.059039 -0.021710 0.007163 0.000000 0.000000 0.000000
# 2 -0.021710 0.020868 -0.006067 0.000000 0.000000 0.000000
# 3 0.007163 -0.006067 0.013703 0.000000 0.000000 0.000000
# 4 0.000000 0.000000 0.000000 0.027194 0.000000 0.000000
# 5 0.000000 0.000000 0.000000 0.000000 0.044626 0.000000
# 6 0.000000 0.000000 0.000000 0.000000 0.000000 0.025863
#
#
# Mechanical properties :
#
#
# Convention : Reuss Voigt Hill
#
# Bulk Modulus (GPa) = 19.09026 32.41804 25.75415
# Shear Modulus (GPa) = 20.00161 29.33818 24.66990
#
# Velocity S-wave (km/s) = 2.99880 3.63188 3.33042
# Velocity P-wave (km/s) = 4.53580 5.67121 5.13498
#
# Compressibility (1/GPa) = 0.05238273
#
# Stress axis : x y z
#
# Youngs Moduli (GPa) = 16.93807 47.92079 72.97625
#
# Poissons Ratio (x) = 1.04034 -0.52274
# Poissons Ratio (y) = 0.36772 0.44274
# Poissons Ratio (z) = -0.12133 0.29073
#
# Static dielectric constant tensor:
#      x y z
#    x 3.771450 0.000000 0.000000 
#    y 0.000000 4.280620 0.000000 
#    z 0.000000 0.000000 3.912800 
# 
# 
# High freq. dielectric constant tensor:
#      x y z
#    x 1.857200 0.000000 0.000000 
#    y 0.000000 1.897790 0.000000 
#    z 0.000000 0.000000 1.866460 
# 
# From -- ./inp_files/7093.got.cif
#   From: 2010.03.12/outbox.cif.g09.slc.cpg/sg61_4_cif.got.tgz:7093.got - 2010.04.10 19:05:03.
