data_PCOD8249340
_publ_section_title
;
Structure prediction by ZEFSAII (Michael W. Deem and Ramdas Pophale) SiO2 
 PCOD8249340
Probable space group: P B C A
;
_chemical_formula_sum "Si O2"
_cell_formula_units_Z 64
_cell_length_a 19.245802
_cell_length_b 13.431637
_cell_length_c 9.596151
_cell_angle_alpha 90.000000
_cell_angle_beta 90.000000
_cell_angle_gamma 90.000000
_cell_volume 2480.630235
_symmetry_space_group_name_H-M "P B C A"
_symmetry_group_IT_number 61
_symmetry_cell_setting 'orthorhombic'
loop_
_space_group_symop_operation_xyz
x,y,z
1/2-x,-y,1/2+z
1/2+x,1/2-y,-z
-x,1/2+y,1/2-z
-x,-y,-z
1/2+x,y,1/2-z
1/2-x,1/2+y,z
x,1/2-y,1/2+z
loop_
_atom_site_type_symbol
_atom_site_label
_atom_site_fract_x
_atom_site_fract_y
_atom_site_fract_z
Si Si1 0.789937 0.126595 0.979685
Si Si2 0.246595 0.798049 0.307601
Si Si3 0.575528 0.832255 0.097468
Si Si4 0.949745 0.540922 0.810155
Si Si5 0.624823 0.170089 0.283322
Si Si6 0.653732 0.483915 0.555637
Si Si7 0.972752 0.316772 0.794404
Si Si8 0.649038 0.430988 0.064743
O O1 0.790551 0.217142 0.091081
O O2 0.720331 0.058652 0.976547
O O3 0.850014 0.047444 0.019616
O O4 0.801735 0.170803 0.824483
O O5 0.316097 0.750922 0.241719
O O6 0.272495 0.896737 0.391312
O O7 0.521577 0.902679 0.176234
O O8 0.584198 0.737053 0.196216
O O9 0.649261 0.894026 0.081258
O O10 0.547256 0.791773 0.951947
O O11 0.968445 0.431730 0.759098
O O12 0.901600 0.588868 0.693418
O O13 0.913168 0.539885 0.960693
O O14 0.644019 0.069477 0.202156
O O15 0.551423 0.218858 0.238998
O O16 0.621813 0.142417 0.445277
#
# Coordination Sequence:
#
# PCOD8249340 Si02
#       8
#     8   8   8   8   8   8   8   8
#     4  11  26  47  74 102 134 184 236 295 350 424
#     4  11  24  45  71 104 129 174 241 291 340 415
#     4  11  23  43  67 104 137 187 226 291 346 415
#     4  11  22  46  66 101 137 178 230 281 350 416
#     4  11  23  41  66 104 132 179 231 285 338 415
#     4  10  21  43  71  91 141 178 226 280 349 402
#     4  11  24  39  69 100 138 184 230 278 351 414
#     4  12  27  43  70 105 140 183 231 294 361 411
#
# _framework density 25.799896
#
# number of rings (size 3 to 8) (size 9 to 14) (size 15 to 20)
#    0.000    1.000    5.000    1.500    7.000    1.500 
#    2.250    1.250    0.000    0.000    0.000    0.000 
#    0.000    0.000    0.000    0.000    0.000    0.000 
#
# Total GULP energy -793816.869304 kJ/mol
# GULP energy per Si atom -12403.388583 kJ/mol
# Density = 2.574117 g / cm^3
# Si number density = 25.799896 Si / 1000 Ang^3
#
#
#
# Elastic Constant Matrix: (Units=GPa)
#
#
# Indices 1 2 3 4 5 6 
#
# 1 52.6607 -6.7598 19.0009 0.0000 0.0000 0.0000
# 2 -6.7598 107.2819 49.6348 0.0000 0.0000 0.0000
# 3 19.0009 49.6348 155.4431 0.0000 0.0000 0.0000
# 4 0.0000 0.0000 0.0000 29.7979 0.0000 0.0000
# 5 0.0000 0.0000 0.0000 0.0000 23.5055 0.0000
# 6 0.0000 0.0000 0.0000 0.0000 0.0000 25.4622
#
#
#
# Elastic Compliance Matrix: (Units=1/GPa)
#
#
# Indices 1 2 3 4 5 6 
#
# 1 0.020602 0.002890 -0.003441 0.000000 0.000000 0.000000
# 2 0.002890 0.011342 -0.003975 0.000000 0.000000 0.000000
# 3 -0.003441 -0.003975 0.008123 0.000000 0.000000 0.000000
# 4 0.000000 0.000000 0.000000 0.033559 0.000000 0.000000
# 5 0.000000 0.000000 0.000000 0.000000 0.042543 0.000000
# 6 0.000000 0.000000 0.000000 0.000000 0.000000 0.039274
#
#
# Mechanical properties :
#
#
# Convention : Reuss Voigt Hill
#
# Bulk Modulus (GPa) = 32.24182 48.79308 40.51745
# Shear Modulus (GPa) = 28.59841 32.65378 30.62610
#
# Velocity S-wave (km/s) = 3.33298 3.56146 3.44912
# Velocity P-wave (km/s) = 5.22836 5.98876 5.62143
#
# Compressibility (1/GPa) = 0.03101562
#
# Stress axis : x y z
#
# Youngs Moduli (GPa) = 48.53863 88.16439 123.10483
#
# Poissons Ratio (x) = -0.25482 0.42363
# Poissons Ratio (y) = -0.14029 0.48935
# Poissons Ratio (z) = 0.16703 0.35046
#
# Static dielectric constant tensor:
#      x y z
#    x 4.631180 0.000000 0.000000 
#    y 0.000000 5.018080 0.000000 
#    z 0.000000 0.000000 4.565560 
# 
# 
# High freq. dielectric constant tensor:
#      x y z
#    x 2.035510 0.000000 0.000000 
#    y 0.000000 2.049940 0.000000 
#    z 0.000000 0.000000 2.035470 
# 
# From -- ./inp_files/4345.got.cif
#   From: 2010.03.12/outbox.cif.g09.slc.cpg/sg61_3_cif.got.tgz:4345.got - 2010.04.10 19:05:03.
