data_PCOD8249544
_publ_section_title
;
Structure prediction by ZEFSAII (Michael W. Deem and Ramdas Pophale) SiO2 
 PCOD8249544
Probable space group: P B C A
;
_chemical_formula_sum "Si O2"
_cell_formula_units_Z 40
_cell_length_a 8.848743
_cell_length_b 15.735020
_cell_length_c 11.258765
_cell_angle_alpha 90.000000
_cell_angle_beta 90.000000
_cell_angle_gamma 90.000000
_cell_volume 1567.615812
_symmetry_space_group_name_H-M "P B C A"
_symmetry_group_IT_number 61
_symmetry_cell_setting 'orthorhombic'
loop_
_space_group_symop_operation_xyz
x,y,z
1/2-x,-y,1/2+z
1/2+x,1/2-y,-z
-x,1/2+y,1/2-z
-x,-y,-z
1/2+x,y,1/2-z
1/2-x,1/2+y,z
x,1/2-y,1/2+z
loop_
_atom_site_type_symbol
_atom_site_label
_atom_site_fract_x
_atom_site_fract_y
_atom_site_fract_z
Si Si1 0.094002 0.707494 0.950837
Si Si2 0.927377 0.424172 0.871085
Si Si3 0.063671 0.861574 0.096650
Si Si4 0.870392 0.608197 0.801079
Si Si5 0.727378 0.631902 0.131022
O O1 0.222086 0.764398 0.884705
O O2 0.958591 0.687233 0.859893
O O3 0.154876 0.621928 0.016406
O O4 0.025866 0.764645 0.059909
O O5 0.907140 0.525142 0.880447
O O6 0.849556 0.393909 0.751730
O O7 0.103554 0.401129 0.873282
O O8 0.193867 0.869005 0.198743
O O9 0.918606 0.903457 0.162180
O O10 0.128010 0.909185 0.978235
#
# Coordination Sequence:
#
# PCOD8249544 Si02
#       5
#     8   8   8   8   8
#     4  10  23  42  70  98 140 188 232 280 347 424
#     4  12  24  48  75 106 143 184 236 300 351 411
#     4  10  26  45  69 103 141 187 237 279 362 419
#     4  12  24  48  75 106 143 184 236 300 351 411
#     4  10  26  45  69 103 141 187 237 279 362 419
#
# _framework density 25.516455000000001
#
# number of rings (size 3 to 8) (size 9 to 14) (size 15 to 20)
#    1.200    0.000    2.000    3.000    0.000   10.400 
#    3.600    0.000    0.000    0.000    0.000    0.000 
#    0.000    0.000    0.000    0.000    0.000    0.000 
#
# Total GULP energy -495583.560958 kJ/mol
# GULP energy per Si atom -12389.589024 kJ/mol
# Density = 2.545838 g / cm^3
# Si number density = 25.516455 Si / 1000 Ang^3
#
#
#
# Elastic Constant Matrix: (Units=GPa)
#
#
# Indices 1 2 3 4 5 6 
#
# 1 50.6941 8.5374 46.2923 0.0000 0.0000 0.0000
# 2 8.5374 84.1985 8.5891 0.0000 0.0000 0.0000
# 3 46.2923 8.5891 64.6990 0.0000 0.0000 0.0000
# 4 0.0000 0.0000 0.0000 45.3382 0.0000 0.0000
# 5 0.0000 0.0000 0.0000 0.0000 36.1932 0.0000
# 6 0.0000 0.0000 0.0000 0.0000 0.0000 19.2038
#
#
#
# Elastic Compliance Matrix: (Units=1/GPa)
#
#
# Indices 1 2 3 4 5 6 
#
# 1 0.057133 -0.001645 -0.040661 0.000000 0.000000 0.000000
# 2 -0.001645 0.012087 -0.000427 0.000000 0.000000 0.000000
# 3 -0.040661 -0.000427 0.044606 0.000000 0.000000 0.000000
# 4 0.000000 0.000000 0.000000 0.022056 0.000000 0.000000
# 5 0.000000 0.000000 0.000000 0.000000 0.027629 0.000000
# 6 0.000000 0.000000 0.000000 0.000000 0.000000 0.052073
#
#
# Mechanical properties :
#
#
# Convention : Reuss Voigt Hill
#
# Bulk Modulus (GPa) = 35.26158 36.26993 35.76575
# Shear Modulus (GPa) = 16.10279 29.22521 22.66400
#
# Velocity S-wave (km/s) = 2.51485 3.38797 2.98352
# Velocity P-wave (km/s) = 4.72035 5.43596 5.09075
#
# Compressibility (1/GPa) = 0.02835948
#
# Stress axis : x y z
#
# Youngs Moduli (GPa) = 17.50291 82.73263 22.41860
#
# Poissons Ratio (x) = 0.13612 0.91156
# Poissons Ratio (y) = 0.02880 0.00958
# Poissons Ratio (z) = 0.71168 0.03536
#
# Static dielectric constant tensor:
#      x y z
#    x 4.252260 0.000000 0.000000 
#    y 0.000000 4.663110 0.000000 
#    z 0.000000 0.000000 4.895870 
# 
# 
# High freq. dielectric constant tensor:
#      x y z
#    x 2.001290 0.000000 0.000000 
#    y 0.000000 2.007030 0.000000 
#    z 0.000000 0.000000 2.038560 
# 
# From -- ./inp_files/4789.got.cif
#   From: 2010.03.12/outbox.cif.g09.slc.cpg/sg61_3_cif.got.tgz:4789.got - 2010.04.10 19:05:03.
