data_PCOD8249529
_publ_section_title
;
Structure prediction by ZEFSAII (Michael W. Deem and Ramdas Pophale) SiO2 
 PCOD8249529
Probable space group: P B C A
;
_chemical_formula_sum "Si O2"
_cell_formula_units_Z 48
_cell_length_a 28.565683
_cell_length_b 8.808230
_cell_length_c 9.408944
_cell_angle_alpha 90.000000
_cell_angle_beta 90.000000
_cell_angle_gamma 90.000000
_cell_volume 2367.413624
_symmetry_space_group_name_H-M "P B C A"
_symmetry_group_IT_number 61
_symmetry_cell_setting 'orthorhombic'
loop_
_space_group_symop_operation_xyz
x,y,z
1/2-x,-y,1/2+z
1/2+x,1/2-y,-z
-x,1/2+y,1/2-z
-x,-y,-z
1/2+x,y,1/2-z
1/2-x,1/2+y,z
x,1/2-y,1/2+z
loop_
_atom_site_type_symbol
_atom_site_label
_atom_site_fract_x
_atom_site_fract_y
_atom_site_fract_z
Si Si1 0.780593 0.072105 0.533970
Si Si2 0.532984 0.070978 0.114810
Si Si3 0.131899 0.143473 0.485574
Si Si4 0.483536 0.575951 0.858726
Si Si5 0.707997 0.879160 0.703810
Si Si6 0.120520 0.074187 0.798783
O O1 0.772666 0.119478 0.367749
O O2 0.790443 0.213868 0.635647
O O3 0.822453 0.952973 0.550294
O O4 0.734947 0.993694 0.599536
O O5 0.587274 0.054345 0.076258
O O6 0.518494 0.244209 0.134885
O O7 0.524549 0.973394 0.254049
O O8 0.500000 0.000000 0.000000
O O9 0.125219 0.168088 0.653039
O O10 0.136185 0.312096 0.423229
O O11 0.432280 0.512964 0.816358
O O12 0.500000 0.500000 0.000000
O O13 0.653794 0.928021 0.704786
#
# Coordination Sequence:
#
# PCOD8249529 Si02
#       6
#     8   8   8   8   8   8
#     4  11  24  43  65  96 127 164 209 259 319 376
#     4  11  22  42  63  90 130 164 214 263 315 380
#     4  10  23  41  64  90 124 166 206 258 311 373
#     4  11  24  40  63  94 124 172 213 263 323 375
#     4  11  24  43  66  95 128 164 208 261 315 382
#     4  10  23  42  63  90 125 164 210 253 315 373
#
# _framework density 20.275290999999999
#
# number of rings (size 3 to 8) (size 9 to 14) (size 15 to 20)
#    0.000    1.333    1.667    3.000    7.000    8.000 
#    0.000    0.000    0.000    0.000    0.000    0.000 
#    0.000    0.000    0.000    0.000    0.000    0.000 
#
# Total GULP energy -595211.107873 kJ/mol
# GULP energy per Si atom -12400.231414 kJ/mol
# Density = 2.022914 g / cm^3
# Si number density = 20.275291 Si / 1000 Ang^3
#
#
#
# Elastic Constant Matrix: (Units=GPa)
#
#
# Indices 1 2 3 4 5 6 
#
# 1 76.8573 11.4856 15.8032 0.0000 0.0000 0.0000
# 2 11.4856 46.6501 5.6837 0.0000 0.0000 0.0000
# 3 15.8032 5.6837 106.8501 0.0000 0.0000 0.0000
# 4 0.0000 0.0000 0.0000 41.3034 0.0000 0.0000
# 5 0.0000 0.0000 0.0000 0.0000 33.5167 0.0000
# 6 0.0000 0.0000 0.0000 0.0000 0.0000 28.5042
#
#
#
# Elastic Compliance Matrix: (Units=1/GPa)
#
#
# Indices 1 2 3 4 5 6 
#
# 1 0.013874 -0.003187 -0.001883 0.000000 0.000000 0.000000
# 2 -0.003187 0.022308 -0.000715 0.000000 0.000000 0.000000
# 3 -0.001883 -0.000715 0.009675 0.000000 0.000000 0.000000
# 4 0.000000 0.000000 0.000000 0.024211 0.000000 0.000000
# 5 0.000000 0.000000 0.000000 0.000000 0.029836 0.000000
# 6 0.000000 0.000000 0.000000 0.000000 0.000000 0.035083
#
#
# Mechanical properties :
#
#
# Convention : Reuss Voigt Hill
#
# Bulk Modulus (GPa) = 29.16410 32.92251 31.04331
# Shear Modulus (GPa) = 31.64841 33.82384 32.73613
#
# Velocity S-wave (km/s) = 3.95515 4.08883 4.02255
# Velocity P-wave (km/s) = 5.93910 6.21002 6.07607
#
# Compressibility (1/GPa) = 0.03428874
#
# Stress axis : x y z
#
# Youngs Moduli (GPa) = 72.07509 44.82714 103.35505
#
# Poissons Ratio (x) = 0.14285 0.19457
# Poissons Ratio (y) = 0.22968 0.07393
# Poissons Ratio (z) = 0.13568 0.03207
#
# Static dielectric constant tensor:
#      x y z
#    x 3.972210 0.000000 0.000000 
#    y 0.000000 3.530630 0.000000 
#    z 0.000000 0.000000 3.961740 
# 
# 
# High freq. dielectric constant tensor:
#      x y z
#    x 1.803730 0.000000 0.000000 
#    y 0.000000 1.788370 0.000000 
#    z 0.000000 0.000000 1.812800 
# 
# From -- ./inp_files/1896.got.cif
#   From: 2010.03.12/outbox.cif.g09.slc.cpg/sg61_1_cif.got.tgz:1896.got - 2010.04.10 19:05:03.
