data_PCOD8249006
_publ_section_title
;
Structure prediction by ZEFSAII (Michael W. Deem and Ramdas Pophale) SiO2 
 PCOD8249006
Probable space group: P B C A
;
_chemical_formula_sum "Si O2"
_cell_formula_units_Z 48
_cell_length_a 8.885400
_cell_length_b 15.260488
_cell_length_c 17.600979
_cell_angle_alpha 90.000000
_cell_angle_beta 90.000000
_cell_angle_gamma 90.000000
_cell_volume 2386.614253
_symmetry_space_group_name_H-M "P B C A"
_symmetry_group_IT_number 61
_symmetry_cell_setting 'orthorhombic'
loop_
_space_group_symop_operation_xyz
x,y,z
1/2-x,-y,1/2+z
1/2+x,1/2-y,-z
-x,1/2+y,1/2-z
-x,-y,-z
1/2+x,y,1/2-z
1/2-x,1/2+y,z
x,1/2-y,1/2+z
loop_
_atom_site_type_symbol
_atom_site_label
_atom_site_fract_x
_atom_site_fract_y
_atom_site_fract_z
Si Si1 0.182145 0.534551 0.057733
Si Si2 0.178804 0.322075 0.658473
Si Si3 0.992115 0.436172 0.244286
Si Si4 0.750249 0.131943 0.849051
Si Si5 0.854101 0.983644 0.604726
Si Si6 0.631012 0.883554 0.699939
O O1 0.296000 0.600451 0.098146
O O2 0.213061 0.434549 0.083224
O O3 0.012246 0.561291 0.080900
O O4 0.208021 0.538696 0.967276
O O5 0.238585 0.231592 0.621510
O O6 0.266694 0.338615 0.736542
O O7 0.999328 0.316628 0.673365
O O8 0.914694 0.389135 0.315611
O O9 0.873943 0.449414 0.175077
O O10 0.130636 0.376522 0.219251
O O11 0.049088 0.532099 0.265917
O O12 0.735760 0.908463 0.628193
#
# Coordination Sequence:
#
# PCOD8249006 Si02
#       6
#     8   8   8   8   8   8
#     4  10  21  41  60  83 126 160 189 237 301 360
#     4  12  22  37  61  88 120 152 197 251 294 349
#     4  11  18  38  62  84 112 153 198 243 291 344
#     4  11  22  37  59  88 117 154 196 245 294 350
#     4  10  20  37  67  82 116 164 192 236 305 347
#     4  12  19  38  64  88 112 155 201 246 293 345
#
# _framework density 20.112172000000001
#
# number of rings (size 3 to 8) (size 9 to 14) (size 15 to 20)
#    0.000    1.000    8.333    1.000    0.000    0.667 
#    0.000    6.667    0.000    0.000    0.000    0.000 
#    0.000    0.000    0.000    0.000    0.000    0.000 
#
# Total GULP energy -595287.559613 kJ/mol
# GULP energy per Si atom -12401.824159 kJ/mol
# Density = 2.006640 g / cm^3
# Si number density = 20.112172 Si / 1000 Ang^3
#
#
#
# Elastic Constant Matrix: (Units=GPa)
#
#
# Indices 1 2 3 4 5 6 
#
# 1 74.1401 17.3222 23.6375 0.0000 0.0000 0.0000
# 2 17.3222 102.4965 22.0458 0.0000 0.0000 0.0000
# 3 23.6375 22.0458 88.5019 0.0000 0.0000 0.0000
# 4 0.0000 0.0000 0.0000 11.5331 0.0000 0.0000
# 5 0.0000 0.0000 0.0000 0.0000 25.9048 0.0000
# 6 0.0000 0.0000 0.0000 0.0000 0.0000 22.7672
#
#
#
# Elastic Compliance Matrix: (Units=1/GPa)
#
#
# Indices 1 2 3 4 5 6 
#
# 1 0.015042 -0.001773 -0.003576 0.000000 0.000000 0.000000
# 2 -0.001773 0.010518 -0.002146 0.000000 0.000000 0.000000
# 3 -0.003576 -0.002146 0.012789 0.000000 0.000000 0.000000
# 4 0.000000 0.000000 0.000000 0.086707 0.000000 0.000000
# 5 0.000000 0.000000 0.000000 0.000000 0.038603 0.000000
# 6 0.000000 0.000000 0.000000 0.000000 0.000000 0.043923
#
#
# Mechanical properties :
#
#
# Convention : Reuss Voigt Hill
#
# Bulk Modulus (GPa) = 42.81143 43.46106 43.13625
# Shear Modulus (GPa) = 21.70534 25.51658 23.61096
#
# Velocity S-wave (km/s) = 3.28870 3.56576 3.43003
# Velocity P-wave (km/s) = 5.97941 6.21363 6.09764
#
# Compressibility (1/GPa) = 0.02335825
#
# Stress axis : x y z
#
# Youngs Moduli (GPa) = 66.47913 95.07739 78.19267
#
# Poissons Ratio (x) = 0.16858 0.27961
# Poissons Ratio (y) = 0.11787 0.16783
# Poissons Ratio (z) = 0.23772 0.20408
#
# Static dielectric constant tensor:
#      x y z
#    x 3.851580 0.000000 0.000000 
#    y 0.000000 3.432080 0.000000 
#    z 0.000000 0.000000 3.627250 
# 
# 
# High freq. dielectric constant tensor:
#      x y z
#    x 1.795700 0.000000 0.000000 
#    y 0.000000 1.759270 0.000000 
#    z 0.000000 0.000000 1.771460 
# 
# From -- ./inp_files/2920.got.cif
#   From: 2010.03.12/outbox.cif.g09.slc.cpg/sg61_2_cif.got.tgz:2920.got - 2010.04.10 19:05:03.
