data_PCOD8249445
_publ_section_title
;
Structure prediction by ZEFSAII (Michael W. Deem and Ramdas Pophale) SiO2 
 PCOD8249445
Probable space group: P B C A
;
_chemical_formula_sum "Si O2"
_cell_formula_units_Z 64
_cell_length_a 18.913156
_cell_length_b 12.518200
_cell_length_c 12.411279
_cell_angle_alpha 90.000000
_cell_angle_beta 90.000000
_cell_angle_gamma 90.000000
_cell_volume 2938.477902
_symmetry_space_group_name_H-M "P B C A"
_symmetry_group_IT_number 61
_symmetry_cell_setting 'orthorhombic'
loop_
_space_group_symop_operation_xyz
x,y,z
1/2-x,-y,1/2+z
1/2+x,1/2-y,-z
-x,1/2+y,1/2-z
-x,-y,-z
1/2+x,y,1/2-z
1/2-x,1/2+y,z
x,1/2-y,1/2+z
loop_
_atom_site_type_symbol
_atom_site_label
_atom_site_fract_x
_atom_site_fract_y
_atom_site_fract_z
Si Si1 0.177936 0.352459 0.690865
Si Si2 0.790752 0.309128 0.290215
Si Si3 0.772707 0.505608 0.683285
Si Si4 0.851661 0.032774 0.964568
Si Si5 0.956204 0.757692 0.869262
Si Si6 0.997829 0.129713 0.926240
Si Si7 0.082060 0.043525 0.720650
Si Si8 0.071431 0.694841 0.214576
O O1 0.221196 0.246313 0.663070
O O2 0.215483 0.414454 0.788142
O O3 0.172167 0.420529 0.582976
O O4 0.098125 0.312790 0.716920
O O5 0.772559 0.383301 0.185136
O O6 0.823197 0.376476 0.386858
O O7 0.846019 0.215680 0.258580
O O8 0.812479 0.464482 0.578084
O O9 0.833271 0.529493 0.771810
O O10 0.938319 0.044954 0.972997
O O11 0.938101 0.630464 0.871109
O O12 0.034881 0.773980 0.826766
O O13 0.950942 0.817877 0.983893
O O14 0.047085 0.075501 0.835810
O O15 0.954799 0.230125 0.880708
O O16 0.053937 0.927566 0.683759
#
# Coordination Sequence:
#
# PCOD8249445 Si02
#       8
#     8   8   8   8   8   8   8   8
#     4  11  22  40  63  93 130 165 211 273 314 380
#     4  10  22  42  61  93 134 164 213 271 325 378
#     4  11  22  40  64  94 123 178 211 257 330 383
#     4  10  23  41  66  94 126 173 218 260 322 394
#     4  11  23  41  67  94 128 169 217 268 315 388
#     4  10  23  42  66  98 128 171 219 265 323 386
#     4  11  21  39  67  96 128 171 216 262 325 383
#     4  10  22  42  66  92 133 171 212 272 322 382
#
# _framework density 21.779983999999999
#
# number of rings (size 3 to 8) (size 9 to 14) (size 15 to 20)
#    0.000    1.500    2.500    2.250    0.000    4.000 
#    6.750    0.000    0.000    0.000    0.000    0.000 
#    0.000    0.000    0.000    0.000    0.000    0.000 
#
# Total GULP energy -793080.771264 kJ/mol
# GULP energy per Si atom -12391.887051 kJ/mol
# Density = 2.173041 g / cm^3
# Si number density = 21.779984 Si / 1000 Ang^3
#
#
#
# Elastic Constant Matrix: (Units=GPa)
#
#
# Indices 1 2 3 4 5 6 
#
# 1 99.8826 41.8515 39.0692 0.0000 0.0000 0.0000
# 2 41.8515 111.6926 12.1123 0.0000 0.0000 0.0000
# 3 39.0692 12.1123 51.6135 0.0000 0.0000 0.0000
# 4 0.0000 0.0000 0.0000 15.4168 0.0000 0.0000
# 5 0.0000 0.0000 0.0000 0.0000 29.8368 0.0000
# 6 0.0000 0.0000 0.0000 0.0000 0.0000 36.4804
#
#
#
# Elastic Compliance Matrix: (Units=1/GPa)
#
#
# Indices 1 2 3 4 5 6 
#
# 1 0.016530 -0.004963 -0.011348 0.000000 0.000000 0.000000
# 2 -0.004963 0.010677 0.001251 0.000000 0.000000 0.000000
# 3 -0.011348 0.001251 0.027671 0.000000 0.000000 0.000000
# 4 0.000000 0.000000 0.000000 0.064864 0.000000 0.000000
# 5 0.000000 0.000000 0.000000 0.000000 0.033516 0.000000
# 6 0.000000 0.000000 0.000000 0.000000 0.000000 0.027412
#
#
# Mechanical properties :
#
#
# Convention : Reuss Voigt Hill
#
# Bulk Modulus (GPa) = 40.38983 49.91718 45.15351
# Shear Modulus (GPa) = 22.82657 27.69050 25.25854
#
# Velocity S-wave (km/s) = 3.24088 3.56950 3.40915
# Velocity P-wave (km/s) = 5.70869 6.32116 6.02271
#
# Compressibility (1/GPa) = 0.02475871
#
# Stress axis : x y z
#
# Youngs Moduli (GPa) = 60.49553 93.65754 36.13894
#
# Poissons Ratio (x) = 0.46485 0.41010
# Poissons Ratio (y) = 0.30026 -0.04522
# Poissons Ratio (z) = 0.68650 -0.11720
#
# Static dielectric constant tensor:
#      x y z
#    x 4.289800 0.000000 0.000000 
#    y 0.000000 4.302000 0.000000 
#    z 0.000000 0.000000 3.436510 
# 
# 
# High freq. dielectric constant tensor:
#      x y z
#    x 1.877490 0.000000 0.000000 
#    y 0.000000 1.883660 0.000000 
#    z 0.000000 0.000000 1.808460 
# 
# From -- ./inp_files/8221.got.cif
#   From: 2010.03.12/outbox.cif.g09.slc.cpg/sg61_5_cif.got.tgz:8221.got - 2010.04.10 19:05:03.
