data_PCOD8249227
_publ_section_title
;
Structure prediction by ZEFSAII (Michael W. Deem and Ramdas Pophale) SiO2 
 PCOD8249227
Probable space group: P B C A
;
_chemical_formula_sum "Si O2"
_cell_formula_units_Z 48
_cell_length_a 9.455753
_cell_length_b 16.396082
_cell_length_c 15.616264
_cell_angle_alpha 90.000000
_cell_angle_beta 90.000000
_cell_angle_gamma 90.000000
_cell_volume 2421.103431
_symmetry_space_group_name_H-M "P B C A"
_symmetry_group_IT_number 61
_symmetry_cell_setting 'orthorhombic'
loop_
_space_group_symop_operation_xyz
x,y,z
1/2-x,-y,1/2+z
1/2+x,1/2-y,-z
-x,1/2+y,1/2-z
-x,-y,-z
1/2+x,y,1/2-z
1/2-x,1/2+y,z
x,1/2-y,1/2+z
loop_
_atom_site_type_symbol
_atom_site_label
_atom_site_fract_x
_atom_site_fract_y
_atom_site_fract_z
Si Si1 0.458585 0.843332 0.903969
Si Si2 0.240001 0.293549 0.337487
Si Si3 0.852684 0.554025 0.248936
Si Si4 0.757273 0.708857 0.339178
Si Si5 0.903571 0.943370 0.241083
Si Si6 0.458558 0.842916 0.096187
O O1 0.346584 0.770795 0.892875
O O2 0.425778 0.916617 0.839078
O O3 0.616289 0.809677 0.891390
O O4 0.444661 0.877423 0.000199
O O5 0.288409 0.254947 0.247509
O O6 0.138362 0.371196 0.322943
O O7 0.379132 0.320220 0.387073
O O8 0.844248 0.626894 0.317046
O O9 0.697124 0.521126 0.230406
O O10 0.942677 0.477793 0.285852
O O11 0.862334 0.762528 0.395963
O O12 0.905441 0.912259 0.339008
#
# Coordination Sequence:
#
# PCOD8249227 Si02
#       6
#     8   8   8   8   8   8
#     4  11  23  39  61  90 120 153 196 249 296 341
#     4  10  21  39  63  85 117 159 201 237 287 362
#     4  11  22  40  63  88 116 159 202 239 289 360
#     4  10  21  39  63  85 117 159 201 237 287 362
#     4  11  22  40  63  88 116 159 202 239 289 360
#     4  11  23  39  61  90 120 153 196 249 296 341
#
# _framework density 19.825671
#
# number of rings (size 3 to 8) (size 9 to 14) (size 15 to 20)
#    0.000    1.333    3.333    4.000    4.667    0.667 
#    0.000    0.000    0.000    5.000    0.000    0.000 
#    0.000    0.000    0.000    0.000    0.000    0.000 
#
# Total GULP energy -595392.296796 kJ/mol
# GULP energy per Si atom -12404.006183 kJ/mol
# Density = 1.978055 g / cm^3
# Si number density = 19.825671 Si / 1000 Ang^3
#
#
#
# Elastic Constant Matrix: (Units=GPa)
#
#
# Indices 1 2 3 4 5 6 
#
# 1 85.3535 15.5645 29.3511 0.0000 0.0000 0.0000
# 2 15.5645 71.5979 4.6784 0.0000 0.0000 0.0000
# 3 29.3511 4.6784 67.0020 0.0000 0.0000 0.0000
# 4 0.0000 0.0000 0.0000 15.0500 0.0000 0.0000
# 5 0.0000 0.0000 0.0000 0.0000 14.5940 0.0000
# 6 0.0000 0.0000 0.0000 0.0000 0.0000 45.9629
#
#
#
# Elastic Compliance Matrix: (Units=1/GPa)
#
#
# Indices 1 2 3 4 5 6 
#
# 1 0.014299 -0.002712 -0.006075 0.000000 0.000000 0.000000
# 2 -0.002712 0.014545 0.000172 0.000000 0.000000 0.000000
# 3 -0.006075 0.000172 0.017574 0.000000 0.000000 0.000000
# 4 0.000000 0.000000 0.000000 0.066445 0.000000 0.000000
# 5 0.000000 0.000000 0.000000 0.000000 0.068521 0.000000
# 6 0.000000 0.000000 0.000000 0.000000 0.000000 0.021757
#
#
# Mechanical properties :
#
#
# Convention : Reuss Voigt Hill
#
# Bulk Modulus (GPa) = 34.25784 35.90461 35.08122
# Shear Modulus (GPa) = 21.72967 26.74534 24.23751
#
# Velocity S-wave (km/s) = 3.31424 3.67689 3.50027
# Velocity P-wave (km/s) = 5.65355 6.01461 5.83687
#
# Compressibility (1/GPa) = 0.02919040
#
# Stress axis : x y z
#
# Youngs Moduli (GPa) = 69.93308 68.75171 56.90228
#
# Poissons Ratio (x) = 0.18643 0.34566
# Poissons Ratio (y) = 0.18963 -0.00980
# Poissons Ratio (z) = 0.42482 -0.01184
#
# Static dielectric constant tensor:
#      x y z
#    x 3.647730 0.000000 0.000000 
#    y 0.000000 3.695380 0.000000 
#    z 0.000000 0.000000 3.440590 
# 
# 
# High freq. dielectric constant tensor:
#      x y z
#    x 1.788890 0.000000 0.000000 
#    y 0.000000 1.781350 0.000000 
#    z 0.000000 0.000000 1.747890 
# 
# From -- ./inp_files/3429.got.cif
#   From: 2010.03.12/outbox.cif.g09.slc.cpg/sg61_2_cif.got.tgz:3429.got - 2010.04.10 19:05:03.
