data_PCOD8249847
_publ_section_title
;
Structure prediction by ZEFSAII (Michael W. Deem and Ramdas Pophale) SiO2 
 PCOD8249847
Probable space group: P B C A
;
_chemical_formula_sum "Si O2"
_cell_formula_units_Z 56
_cell_length_a 14.433601
_cell_length_b 9.307422
_cell_length_c 17.598995
_cell_angle_alpha 90.000000
_cell_angle_beta 90.000000
_cell_angle_gamma 90.000000
_cell_volume 2364.242221
_symmetry_space_group_name_H-M "P B C A"
_symmetry_group_IT_number 61
_symmetry_cell_setting 'orthorhombic'
loop_
_space_group_symop_operation_xyz
x,y,z
1/2-x,-y,1/2+z
1/2+x,1/2-y,-z
-x,1/2+y,1/2-z
-x,-y,-z
1/2+x,y,1/2-z
1/2-x,1/2+y,z
x,1/2-y,1/2+z
loop_
_atom_site_type_symbol
_atom_site_label
_atom_site_fract_x
_atom_site_fract_y
_atom_site_fract_z
Si Si1 0.361470 0.469027 0.912850
Si Si2 0.136372 0.212708 0.236995
Si Si3 0.561026 0.274921 0.597629
Si Si4 0.339321 0.466703 0.441913
Si Si5 0.304406 0.102154 0.704826
Si Si6 0.440284 0.224505 0.822489
Si Si7 0.140792 0.735091 0.554466
O O1 0.419340 0.612180 0.922954
O O2 0.254383 0.504108 0.894976
O O3 0.399701 0.382359 0.840343
O O4 0.376251 0.382757 0.990173
O O5 0.095903 0.176888 0.319557
O O6 0.210271 0.342805 0.245257
O O7 0.051421 0.264335 0.183921
O O8 0.187499 0.070796 0.204153
O O9 0.613823 0.380049 0.537840
O O10 0.452324 0.296453 0.591349
O O11 0.413699 0.380253 0.391536
O O12 0.311329 0.375873 0.516856
O O13 0.396027 0.166842 0.744527
O O14 0.296720 0.162571 0.619044
#
# Coordination Sequence:
#
# PCOD8249847 Si02
#       7
#     8   8   8   8   8   8   8
#     4  11  25  47  75 105 150 199 249 305 377 460
#     4  12  28  46  79 109 153 200 261 319 385 453
#     4  12  23  45  74 107 146 198 249 308 378 453
#     4  11  24  47  73 108 146 196 252 304 371 460
#     4  12  27  49  73 110 152 198 255 325 380 449
#     4  11  25  49  76 109 148 200 252 311 382 453
#     4  11  26  47  69 108 148 192 249 316 381 444
#
# _framework density 23.686236999999998
#
# number of rings (size 3 to 8) (size 9 to 14) (size 15 to 20)
#    0.000    0.571    2.857    5.143    4.000    2.286 
#    5.143    0.000    0.000    0.000    0.000    0.000 
#    0.000    0.000    0.000    0.000    0.000    0.000 
#
# Total GULP energy -694613.201954 kJ/mol
# GULP energy per Si atom -12403.807178 kJ/mol
# Density = 2.363233 g / cm^3
# Si number density = 23.686237 Si / 1000 Ang^3
#
#
#
# Elastic Constant Matrix: (Units=GPa)
#
#
# Indices 1 2 3 4 5 6 
#
# 1 124.7668 23.9877 -3.9248 0.0000 0.0000 0.0000
# 2 23.9877 73.7348 8.7895 0.0000 0.0000 0.0000
# 3 -3.9248 8.7895 68.0318 0.0000 0.0000 0.0000
# 4 0.0000 0.0000 0.0000 32.4340 0.0000 0.0000
# 5 0.0000 0.0000 0.0000 0.0000 33.9165 0.0000
# 6 0.0000 0.0000 0.0000 0.0000 0.0000 40.1947
#
#
#
# Elastic Compliance Matrix: (Units=1/GPa)
#
#
# Indices 1 2 3 4 5 6 
#
# 1 0.008600 -0.002902 0.000871 0.000000 0.000000 0.000000
# 2 -0.002902 0.014753 -0.002073 0.000000 0.000000 0.000000
# 3 0.000871 -0.002073 0.015017 0.000000 0.000000 0.000000
# 4 0.000000 0.000000 0.000000 0.030832 0.000000 0.000000
# 5 0.000000 0.000000 0.000000 0.000000 0.029484 0.000000
# 6 0.000000 0.000000 0.000000 0.000000 0.000000 0.024879
#
#
# Mechanical properties :
#
#
# Convention : Reuss Voigt Hill
#
# Bulk Modulus (GPa) = 33.15387 36.02647 34.59017
# Shear Modulus (GPa) = 35.25397 37.15443 36.20420
#
# Velocity S-wave (km/s) = 3.86213 3.96486 3.91383
# Velocity P-wave (km/s) = 5.82371 6.01690 5.92109
#
# Compressibility (1/GPa) = 0.03016239
#
# Stress axis : x y z
#
# Youngs Moduli (GPa) = 116.27591 67.78157 66.59059
#
# Poissons Ratio (x) = 0.19668 -0.05800
# Poissons Ratio (y) = 0.33740 0.13807
# Poissons Ratio (z) = -0.10128 0.14054
#
# Static dielectric constant tensor:
#      x y z
#    x 4.164630 0.000000 0.000000 
#    y 0.000000 4.451880 0.000000 
#    z 0.000000 0.000000 4.178870 
# 
# 
# High freq. dielectric constant tensor:
#      x y z
#    x 1.936700 0.000000 0.000000 
#    y 0.000000 1.955670 0.000000 
#    z 0.000000 0.000000 1.929290 
# 
# From -- ./inp_files/10472.got.cif
#   From: 2010.03.12/outbox.cif.g09.slc.cpg/sg61_6_cif.got.tgz:10472.got - 2010.04.10 19:05:03.
