data_PCOD8249886
_publ_section_title
;
Structure prediction by ZEFSAII (Michael W. Deem and Ramdas Pophale) SiO2 
 PCOD8249886
Probable space group: P B C A
;
_chemical_formula_sum "Si O2"
_cell_formula_units_Z 40
_cell_length_a 7.226283
_cell_length_b 25.419528
_cell_length_c 8.725261
_cell_angle_alpha 90.000000
_cell_angle_beta 90.000000
_cell_angle_gamma 90.000000
_cell_volume 1602.731877
_symmetry_space_group_name_H-M "P B C A"
_symmetry_group_IT_number 61
_symmetry_cell_setting 'orthorhombic'
loop_
_space_group_symop_operation_xyz
x,y,z
1/2-x,-y,1/2+z
1/2+x,1/2-y,-z
-x,1/2+y,1/2-z
-x,-y,-z
1/2+x,y,1/2-z
1/2-x,1/2+y,z
x,1/2-y,1/2+z
loop_
_atom_site_type_symbol
_atom_site_label
_atom_site_fract_x
_atom_site_fract_y
_atom_site_fract_z
Si Si1 0.747750 0.451929 0.049904
Si Si2 0.476643 0.630962 0.474610
Si Si3 0.809703 0.224011 0.559103
Si Si4 0.406889 0.784588 0.731477
Si Si5 0.329337 0.439876 0.100107
O O1 0.538898 0.430076 0.045113
O O2 0.833868 0.450870 0.219374
O O3 0.876252 0.415552 0.941495
O O4 0.760408 0.510754 0.986992
O O5 0.574850 0.671113 0.597493
O O6 0.421163 0.658998 0.314983
O O7 0.290896 0.610935 0.557070
O O8 0.614394 0.235892 0.645493
O O9 0.780184 0.218463 0.375033
O O10 0.925948 0.275342 0.612625
#
# Coordination Sequence:
#
# PCOD8249886 Si02
#       5
#     8   8   8   8   8
#     4  11  26  50  82 118 162 209 265 341 409 481
#     4  12  27  47  81 114 160 213 267 323 409 480
#     4  12  26  49  74 108 155 204 262 330 392 467
#     4  12  26  51  74 110 157 206 265 329 394 474
#     4  11  26  51  80 120 163 205 270 338 405 490
#
# _framework density 24.957384000000001
#
# number of rings (size 3 to 8) (size 9 to 14) (size 15 to 20)
#    0.000    0.400    6.000    0.600    2.800    3.200 
#   10.800    0.000    0.000    0.000    0.000    0.000 
#    0.000    0.000    0.000    0.000    0.000    0.000 
#
# Total GULP energy -495875.212464 kJ/mol
# GULP energy per Si atom -12396.880312 kJ/mol
# Density = 2.490058 g / cm^3
# Si number density = 24.957384 Si / 1000 Ang^3
#
#
#
# Elastic Constant Matrix: (Units=GPa)
#
#
# Indices 1 2 3 4 5 6 
#
# 1 96.8362 64.9770 52.0106 0.0000 0.0000 0.0000
# 2 64.9770 99.4677 65.1348 0.0000 0.0000 0.0000
# 3 52.0106 65.1348 142.2543 0.0000 0.0000 0.0000
# 4 0.0000 0.0000 0.0000 49.0626 0.0000 0.0000
# 5 0.0000 0.0000 0.0000 0.0000 40.9371 0.0000
# 6 0.0000 0.0000 0.0000 0.0000 0.0000 52.0854
#
#
#
# Elastic Compliance Matrix: (Units=1/GPa)
#
#
# Indices 1 2 3 4 5 6 
#
# 1 0.018695 -0.011049 -0.001776 0.000000 0.000000 0.000000
# 2 -0.011049 0.020889 -0.005525 0.000000 0.000000 0.000000
# 3 -0.001776 -0.005525 0.010209 0.000000 0.000000 0.000000
# 4 0.000000 0.000000 0.000000 0.020382 0.000000 0.000000
# 5 0.000000 0.000000 0.000000 0.000000 0.024428 0.000000
# 6 0.000000 0.000000 0.000000 0.000000 0.000000 0.019199
#
#
# Mechanical properties :
#
#
# Convention : Reuss Voigt Hill
#
# Bulk Modulus (GPa) = 76.37978 78.08922 77.23450
# Shear Modulus (GPa) = 32.28598 38.84609 35.56603
#
# Velocity S-wave (km/s) = 3.60063 3.94953 3.77911
# Velocity P-wave (km/s) = 6.92507 7.22186 7.07502
#
# Compressibility (1/GPa) = 0.01309247
#
# Stress axis : x y z
#
# Youngs Moduli (GPa) = 53.49133 47.87127 97.95605
#
# Poissons Ratio (x) = 0.52895 0.17395
# Poissons Ratio (y) = 0.59104 0.54120
# Poissons Ratio (z) = 0.09499 0.26448
#
# Static dielectric constant tensor:
#      x y z
#    x 4.967070 0.000000 0.000000 
#    y 0.000000 4.308440 0.000000 
#    z 0.000000 0.000000 4.487380 
# 
# 
# High freq. dielectric constant tensor:
#      x y z
#    x 2.032250 0.000000 0.000000 
#    y 0.000000 1.975460 0.000000 
#    z 0.000000 0.000000 1.990930 
# 
# From -- ./inp_files/1801.got.cif
#   From: 2010.03.12/outbox.cif.g09.slc.cpg/sg61_1_cif.got.tgz:1801.got - 2010.04.10 19:05:03.
