data_PCOD8249586
_publ_section_title
;
Structure prediction by ZEFSAII (Michael W. Deem and Ramdas Pophale) SiO2 
 PCOD8249586
Probable space group: P B C A
;
_chemical_formula_sum "Si O2"
_cell_formula_units_Z 64
_cell_length_a 9.961507
_cell_length_b 9.566046
_cell_length_c 26.132216
_cell_angle_alpha 90.000000
_cell_angle_beta 90.000000
_cell_angle_gamma 90.000000
_cell_volume 2490.197247
_symmetry_space_group_name_H-M "P B C A"
_symmetry_group_IT_number 61
_symmetry_cell_setting 'orthorhombic'
loop_
_space_group_symop_operation_xyz
x,y,z
1/2-x,-y,1/2+z
1/2+x,1/2-y,-z
-x,1/2+y,1/2-z
-x,-y,-z
1/2+x,y,1/2-z
1/2-x,1/2+y,z
x,1/2-y,1/2+z
loop_
_atom_site_type_symbol
_atom_site_label
_atom_site_fract_x
_atom_site_fract_y
_atom_site_fract_z
Si Si1 0.542419 0.899773 0.279328
Si Si2 0.801269 0.430181 0.462076
Si Si3 0.081400 0.849233 0.656448
Si Si4 0.124518 0.409390 0.628298
Si Si5 0.255640 0.448858 0.308242
Si Si6 0.685012 0.825711 0.027739
Si Si7 0.040430 0.376107 0.104522
Si Si8 0.805275 0.708885 0.122960
O O1 0.606179 0.986487 0.325397
O O2 0.618418 0.958976 0.229924
O O3 0.382835 0.930542 0.275425
O O4 0.577283 0.732381 0.288183
O O5 0.906018 0.507002 0.424156
O O6 0.864237 0.286270 0.484694
O O7 0.766989 0.545363 0.504875
O O8 0.677945 0.391020 0.425847
O O9 0.226449 0.839456 0.630658
O O10 0.965811 0.764049 0.626035
O O11 0.031476 0.011982 0.651658
O O12 0.023990 0.277550 0.629570
O O13 0.280012 0.321418 0.345781
O O14 0.252030 0.571823 0.349103
O O15 0.569092 0.899928 0.060449
O O16 0.774329 0.723599 0.063248
#
# Coordination Sequence:
#
# PCOD8249586 Si02
#       8
#     8   8   8   8   8   8   8   8
#     4  11  27  47  77 107 145 190 236 314 369 447
#     4  11  24  44  66 108 139 185 253 292 370 442
#     4  10  23  45  74 100 140 188 237 295 370 428
#     4  11  24  46  71 106 143 188 241 309 365 439
#     4  11  27  49  72 110 144 189 247 295 378 442
#     4  12  24  44  71 103 145 199 239 307 365 437
#     4  11  23  44  70 101 144 189 242 302 362 442
#     4  11  25  47  70 105 148 189 239 301 364 444
#
# _framework density 25.700778
#
# number of rings (size 3 to 8) (size 9 to 14) (size 15 to 20)
#    0.000    1.000    1.250    4.875    5.250    3.500 
#    4.500    0.000    0.000    0.000    0.000    0.000 
#    0.000    0.000    0.000    0.000    0.000    0.000 
#
# Total GULP energy -792987.300949 kJ/mol
# GULP energy per Si atom -12390.426577 kJ/mol
# Density = 2.564228 g / cm^3
# Si number density = 25.700778 Si / 1000 Ang^3
#
#
#
# Elastic Constant Matrix: (Units=GPa)
#
#
# Indices 1 2 3 4 5 6 
#
# 1 60.3047 -1.5799 17.9370 0.0000 0.0000 0.0000
# 2 -1.5799 154.7090 56.3679 0.0000 0.0000 0.0000
# 3 17.9370 56.3679 90.5612 0.0000 0.0000 0.0000
# 4 0.0000 0.0000 0.0000 35.7993 0.0000 0.0000
# 5 0.0000 0.0000 0.0000 0.0000 21.9218 0.0000
# 6 0.0000 0.0000 0.0000 0.0000 0.0000 30.7575
#
#
#
# Elastic Compliance Matrix: (Units=1/GPa)
#
#
# Indices 1 2 3 4 5 6 
#
# 1 0.018052 0.001923 -0.004773 0.000000 0.000000 0.000000
# 2 0.001923 0.008564 -0.005712 0.000000 0.000000 0.000000
# 3 -0.004773 -0.005712 0.015543 0.000000 0.000000 0.000000
# 4 0.000000 0.000000 0.000000 0.027934 0.000000 0.000000
# 5 0.000000 0.000000 0.000000 0.000000 0.045617 0.000000
# 6 0.000000 0.000000 0.000000 0.000000 0.000000 0.032512
#
#
# Mechanical properties :
#
#
# Convention : Reuss Voigt Hill
#
# Bulk Modulus (GPa) = 39.94027 50.11387 45.02707
# Shear Modulus (GPa) = 28.78690 33.21902 31.00296
#
# Velocity S-wave (km/s) = 3.35039 3.59908 3.47696
# Velocity P-wave (km/s) = 5.52639 6.06733 5.80317
#
# Compressibility (1/GPa) = 0.02503739
#
# Stress axis : x y z
#
# Youngs Moduli (GPa) = 55.39426 116.76205 64.33903
#
# Poissons Ratio (x) = -0.22456 0.30707
# Poissons Ratio (y) = -0.10654 0.36748
# Poissons Ratio (z) = 0.26438 0.66691
#
# Static dielectric constant tensor:
#      x y z
#    x 4.753100 0.000000 0.000000 
#    y 0.000000 4.894120 0.000000 
#    z 0.000000 0.000000 4.581940 
# 
# 
# High freq. dielectric constant tensor:
#      x y z
#    x 2.027540 0.000000 0.000000 
#    y 0.000000 2.047370 0.000000 
#    z 0.000000 0.000000 2.021470 
# 
# From -- ./inp_files/11785.got.cif
#   From: 2010.03.12/outbox.cif.g09.slc.cpg/sg61_6_cif.got.tgz:11785.got - 2010.04.10 19:05:03.
