data_PCOD8249900
_publ_section_title
;
Structure prediction by ZEFSAII (Michael W. Deem and Ramdas Pophale) SiO2 
 PCOD8249900
Probable space group: P B C A
;
_chemical_formula_sum "Si O2"
_cell_formula_units_Z 48
_cell_length_a 8.674595
_cell_length_b 17.738905
_cell_length_c 13.784153
_cell_angle_alpha 90.000000
_cell_angle_beta 90.000000
_cell_angle_gamma 90.000000
_cell_volume 2121.075368
_symmetry_space_group_name_H-M "P B C A"
_symmetry_group_IT_number 61
_symmetry_cell_setting 'orthorhombic'
loop_
_space_group_symop_operation_xyz
x,y,z
1/2-x,-y,1/2+z
1/2+x,1/2-y,-z
-x,1/2+y,1/2-z
-x,-y,-z
1/2+x,y,1/2-z
1/2-x,1/2+y,z
x,1/2-y,1/2+z
loop_
_atom_site_type_symbol
_atom_site_label
_atom_site_fract_x
_atom_site_fract_y
_atom_site_fract_z
Si Si1 0.673260 0.774051 0.166596
Si Si2 0.019416 0.793373 0.135631
Si Si3 0.588657 0.897720 0.673881
Si Si4 0.794384 0.085096 0.975249
Si Si5 0.536874 0.849588 0.984985
Si Si6 0.744374 0.439834 0.860957
O O1 0.609992 0.808403 0.265698
O O2 0.670533 0.683646 0.170932
O O3 0.840025 0.811099 0.150037
O O4 0.566299 0.800696 0.079766
O O5 0.098909 0.843859 0.053230
O O6 0.026441 0.705563 0.107185
O O7 0.640702 0.944632 0.578488
O O8 0.403061 0.890469 0.671965
O O9 0.638155 0.942940 0.770359
O O10 0.808795 0.023579 0.890352
O O11 0.618230 0.106161 0.993365
O O12 0.673713 0.906813 0.957255
#
# Coordination Sequence:
#
# PCOD8249900 Si02
#       6
#     8   8   8   8   8   8
#     4  12  25  42  75 103 139 183 249 298 361 420
#     4  12  24  43  70 104 137 187 240 301 351 430
#     4  12  24  46  71 101 142 193 237 301 366 433
#     4  12  27  47  71 109 149 189 242 300 368 433
#     4  12  24  45  73 103 140 187 241 299 356 427
#     4  12  28  45  74 104 149 191 243 295 372 438
#
# _framework density 22.630029
#
# number of rings (size 3 to 8) (size 9 to 14) (size 15 to 20)
#    0.000    0.000    5.000    5.000    2.333    4.000 
#    0.000    0.000    0.000    0.000    0.000    0.000 
#    0.000    0.000    0.000    0.000    0.000    0.000 
#
# Total GULP energy -595476.374657 kJ/mol
# GULP energy per Si atom -12405.757805 kJ/mol
# Density = 2.257852 g / cm^3
# Si number density = 22.630029 Si / 1000 Ang^3
#
#
#
# Elastic Constant Matrix: (Units=GPa)
#
#
# Indices 1 2 3 4 5 6 
#
# 1 134.3026 27.1142 30.5618 0.0000 0.0000 0.0000
# 2 27.1142 64.6637 24.0215 0.0000 0.0000 0.0000
# 3 30.5618 24.0215 126.8557 0.0000 0.0000 0.0000
# 4 0.0000 0.0000 0.0000 2.3813 0.0000 0.0000
# 5 0.0000 0.0000 0.0000 0.0000 43.4381 0.0000
# 6 0.0000 0.0000 0.0000 0.0000 0.0000 27.1846
#
#
#
# Elastic Compliance Matrix: (Units=1/GPa)
#
#
# Indices 1 2 3 4 5 6 
#
# 1 0.008377 -0.002972 -0.001455 0.000000 0.000000 0.000000
# 2 -0.002972 0.017689 -0.002634 0.000000 0.000000 0.000000
# 3 -0.001455 -0.002634 0.008732 0.000000 0.000000 0.000000
# 4 0.000000 0.000000 0.000000 0.419938 0.000000 0.000000
# 5 0.000000 0.000000 0.000000 0.000000 0.023021 0.000000
# 6 0.000000 0.000000 0.000000 0.000000 0.000000 0.036786
#
#
# Mechanical properties :
#
#
# Convention : Reuss Voigt Hill
#
# Bulk Modulus (GPa) = 48.36397 54.35745 51.36071
# Shear Modulus (GPa) = 9.33606 30.87574 20.10590
#
# Velocity S-wave (km/s) = 2.03334 3.69775 2.98394
# Velocity P-wave (km/s) = 5.18947 6.50410 5.88362
#
# Compressibility (1/GPa) = 0.02067655
#
# Stress axis : x y z
#
# Youngs Moduli (GPa) = 119.37350 56.53182 114.51710
#
# Poissons Ratio (x) = 0.16801 0.16667
# Poissons Ratio (y) = 0.35477 0.30160
# Poissons Ratio (z) = 0.17374 0.14888
#
# Static dielectric constant tensor:
#      x y z
#    x 4.120160 0.000000 0.000000 
#    y 0.000000 3.731540 0.000000 
#    z 0.000000 0.000000 4.327680 
# 
# 
# High freq. dielectric constant tensor:
#      x y z
#    x 1.908590 0.000000 0.000000 
#    y 0.000000 1.870030 0.000000 
#    z 0.000000 0.000000 1.912370 
# 
# From -- ./inp_files/7060.got.cif
#   From: 2010.03.12/outbox.cif.g09.slc.cpg/sg61_4_cif.got.tgz:7060.got - 2010.04.10 19:05:03.
