data_PCOD8249838
_publ_section_title
;
Structure prediction by ZEFSAII (Michael W. Deem and Ramdas Pophale) SiO2 
 PCOD8249838
Probable space group: P B C A
;
_chemical_formula_sum "Si O2"
_cell_formula_units_Z 48
_cell_length_a 8.736683
_cell_length_b 21.933093
_cell_length_c 11.347380
_cell_angle_alpha 90.000000
_cell_angle_beta 90.000000
_cell_angle_gamma 90.000000
_cell_volume 2174.413106
_symmetry_space_group_name_H-M "P B C A"
_symmetry_group_IT_number 61
_symmetry_cell_setting 'orthorhombic'
loop_
_space_group_symop_operation_xyz
x,y,z
1/2-x,-y,1/2+z
1/2+x,1/2-y,-z
-x,1/2+y,1/2-z
-x,-y,-z
1/2+x,y,1/2-z
1/2-x,1/2+y,z
x,1/2-y,1/2+z
loop_
_atom_site_type_symbol
_atom_site_label
_atom_site_fract_x
_atom_site_fract_y
_atom_site_fract_z
Si Si1 0.263202 0.324307 0.008982
Si Si2 0.108146 0.412332 0.175651
Si Si3 0.900522 0.796658 0.951840
Si Si4 0.781720 0.111172 0.594808
Si Si5 0.627198 0.374740 0.720961
Si Si6 0.652901 0.550883 0.365037
O O1 0.438310 0.302867 0.019515
O O2 0.231325 0.339639 0.872955
O O3 0.236913 0.383815 0.090079
O O4 0.147307 0.273539 0.059697
O O5 0.153299 0.405775 0.310980
O O6 0.089303 0.483552 0.149116
O O7 0.945857 0.379354 0.155995
O O8 0.912962 0.827066 0.823562
O O9 0.766807 0.826801 0.030074
O O10 0.787169 0.057068 0.498631
O O11 0.711261 0.434556 0.773319
O O12 0.476698 0.398083 0.654868
#
# Coordination Sequence:
#
# PCOD8249838 Si02
#       6
#     8   8   8   8   8   8
#     4  12  26  45  72 104 141 191 233 300 353 426
#     4  12  25  43  73 103 146 184 242 294 357 424
#     4  11  27  46  72 103 145 186 244 292 360 427
#     4  11  25  45  67 105 139 188 233 295 357 422
#     4  11  24  46  73 102 140 186 235 290 365 422
#     4  11  24  45  73 103 143 186 235 294 358 435
#
# _framework density 22.074921
#
# number of rings (size 3 to 8) (size 9 to 14) (size 15 to 20)
#    0.000    0.667    3.333    3.500    7.000    0.000 
#    0.000    4.167    0.000    0.000    0.000    0.000 
#    0.000    0.000    0.000    0.000    0.000    0.000 
#
# Total GULP energy -595518.848973 kJ/mol
# GULP energy per Si atom -12406.642687 kJ/mol
# Density = 2.202468 g / cm^3
# Si number density = 22.074921 Si / 1000 Ang^3
#
#
#
# Elastic Constant Matrix: (Units=GPa)
#
#
# Indices 1 2 3 4 5 6 
#
# 1 100.6291 28.2675 48.7580 0.0000 0.0000 0.0000
# 2 28.2675 94.3149 48.3059 0.0000 0.0000 0.0000
# 3 48.7580 48.3059 124.3847 0.0000 0.0000 0.0000
# 4 0.0000 0.0000 0.0000 23.2679 0.0000 0.0000
# 5 0.0000 0.0000 0.0000 0.0000 40.6231 0.0000
# 6 0.0000 0.0000 0.0000 0.0000 0.0000 29.9764
#
#
#
# Elastic Compliance Matrix: (Units=1/GPa)
#
#
# Indices 1 2 3 4 5 6 
#
# 1 0.012443 -0.001537 -0.004281 0.000000 0.000000 0.000000
# 2 -0.001537 0.013425 -0.004611 0.000000 0.000000 0.000000
# 3 -0.004281 -0.004611 0.011509 0.000000 0.000000 0.000000
# 4 0.000000 0.000000 0.000000 0.042978 0.000000 0.000000
# 5 0.000000 0.000000 0.000000 0.000000 0.024617 0.000000
# 6 0.000000 0.000000 0.000000 0.000000 0.000000 0.033360
#
#
# Mechanical properties :
#
#
# Convention : Reuss Voigt Hill
#
# Bulk Modulus (GPa) = 60.53667 63.33239 61.93453
# Shear Modulus (GPa) = 30.35905 31.70663 31.03284
#
# Velocity S-wave (km/s) = 3.71249 3.79399 3.75346
# Velocity P-wave (km/s) = 6.77197 6.92420 6.84851
#
# Compressibility (1/GPa) = 0.01651891
#
# Stress axis : x y z
#
# Youngs Moduli (GPa) = 80.36363 74.48655 86.89225
#
# Poissons Ratio (x) = 0.11448 0.37197
# Poissons Ratio (y) = 0.12351 0.40069
# Poissons Ratio (z) = 0.34403 0.34348
#
# Static dielectric constant tensor:
#      x y z
#    x 3.992040 0.000000 0.000000 
#    y 0.000000 3.770890 0.000000 
#    z 0.000000 0.000000 4.088800 
# 
# 
# High freq. dielectric constant tensor:
#      x y z
#    x 1.878070 0.000000 0.000000 
#    y 0.000000 1.861360 0.000000 
#    z 0.000000 0.000000 1.880520 
# 
# From -- ./inp_files/4241.got.cif
#   From: 2010.03.12/outbox.cif.g09.slc.cpg/sg61_3_cif.got.tgz:4241.got - 2010.04.10 19:05:03.
