data_PCOD8249078
_publ_section_title
;
Structure prediction by ZEFSAII (Michael W. Deem and Ramdas Pophale) SiO2 
 PCOD8249078
Probable space group: P B C A
;
_chemical_formula_sum "Si O2"
_cell_formula_units_Z 64
_cell_length_a 14.113378
_cell_length_b 22.757089
_cell_length_c 9.843886
_cell_angle_alpha 90.000000
_cell_angle_beta 90.000000
_cell_angle_gamma 90.000000
_cell_volume 3161.653392
_symmetry_space_group_name_H-M "P B C A"
_symmetry_group_IT_number 61
_symmetry_cell_setting 'orthorhombic'
loop_
_space_group_symop_operation_xyz
x,y,z
1/2-x,-y,1/2+z
1/2+x,1/2-y,-z
-x,1/2+y,1/2-z
-x,-y,-z
1/2+x,y,1/2-z
1/2-x,1/2+y,z
x,1/2-y,1/2+z
loop_
_atom_site_type_symbol
_atom_site_label
_atom_site_fract_x
_atom_site_fract_y
_atom_site_fract_z
Si Si1 0.365253 0.997825 0.607154
Si Si2 0.716823 0.300739 0.887714
Si Si3 0.215354 0.302550 0.300919
Si Si4 0.862018 0.100258 0.692286
Si Si5 0.502484 0.697668 0.788787
Si Si6 0.182463 0.919692 0.606308
Si Si7 0.003166 0.698321 0.400566
Si Si8 0.058049 0.930989 0.858123
O O1 0.353770 0.037105 0.739983
O O2 0.383205 0.038529 0.477310
O O3 0.268810 0.963603 0.578176
O O4 0.450151 0.952733 0.636779
O O5 0.757317 0.247879 0.796118
O O6 0.774608 0.358052 0.843331
O O7 0.606046 0.312426 0.860715
O O8 0.731621 0.282777 0.044174
O O9 0.266801 0.363977 0.274145
O O10 0.107374 0.313719 0.261726
O O11 0.950472 0.135662 0.753174
O O12 0.875936 0.090119 0.532049
O O13 0.543976 0.749000 0.692407
O O14 0.518173 0.717350 0.943733
O O15 0.109703 0.946269 0.716348
O O16 0.061049 0.639056 0.374823
#
# Coordination Sequence:
#
# PCOD8249078 Si02
#       8
#     8   8   8   8   8   8   8   8
#     4  11  24  46  65  90 125 171 219 259 311 378
#     4   9  19  39  60  90 127 159 204 253 311 373
#     4   9  21  37  60  89 126 165 194 259 312 374
#     4  11  24  40  65  93 126 166 207 262 322 371
#     4  10  22  38  63  94 128 160 208 257 311 385
#     4  11  24  41  64  95 126 163 214 270 307 377
#     4  10  20  40  63  93 126 168 204 254 317 373
#     4  11  24  41  70  90 124 174 212 261 314 380
#
# _framework density 20.242573
#
# number of rings (size 3 to 8) (size 9 to 14) (size 15 to 20)
#    0.000    1.750    2.500    0.750    3.500    3.500 
#    0.000    1.250    0.000    0.000    0.000    0.000 
#    0.000    0.000    0.000    0.000    0.000    0.000 
#
# Total GULP energy -793865.595409 kJ/mol
# GULP energy per Si atom -12404.149928 kJ/mol
# Density = 2.019650 g / cm^3
# Si number density = 20.242573 Si / 1000 Ang^3
#
#
#
# Elastic Constant Matrix: (Units=GPa)
#
#
# Indices 1 2 3 4 5 6 
#
# 1 40.6800 7.8514 30.2975 0.0000 0.0000 0.0000
# 2 7.8514 69.0032 26.6643 0.0000 0.0000 0.0000
# 3 30.2975 26.6643 90.6865 0.0000 0.0000 0.0000
# 4 0.0000 0.0000 0.0000 39.2834 0.0000 0.0000
# 5 0.0000 0.0000 0.0000 0.0000 29.5259 0.0000
# 6 0.0000 0.0000 0.0000 0.0000 0.0000 18.2833
#
#
#
# Elastic Compliance Matrix: (Units=1/GPa)
#
#
# Indices 1 2 3 4 5 6 
#
# 1 0.032744 0.000566 -0.011106 0.000000 0.000000 0.000000
# 2 0.000566 0.016359 -0.004999 0.000000 0.000000 0.000000
# 3 -0.011106 -0.004999 0.016207 0.000000 0.000000 0.000000
# 4 0.000000 0.000000 0.000000 0.025456 0.000000 0.000000
# 5 0.000000 0.000000 0.000000 0.000000 0.033869 0.000000
# 6 0.000000 0.000000 0.000000 0.000000 0.000000 0.054695
#
#
# Mechanical properties :
#
#
# Convention : Reuss Voigt Hill
#
# Bulk Modulus (GPa) = 29.21199 36.66624 32.93912
# Shear Modulus (GPa) = 22.54084 26.45565 24.49825
#
# Velocity S-wave (km/s) = 3.34059 3.61907 3.48262
# Velocity P-wave (km/s) = 5.41680 5.96794 5.69904
#
# Compressibility (1/GPa) = 0.03423252
#
# Stress axis : x y z
#
# Youngs Moduli (GPa) = 30.53969 61.12661 61.70070
#
# Poissons Ratio (x) = -0.03459 0.68524
# Poissons Ratio (y) = -0.01728 0.30845
# Poissons Ratio (z) = 0.33917 0.30558
#
# Static dielectric constant tensor:
#      x y z
#    x 3.632870 0.000000 0.000000 
#    y 0.000000 3.718630 0.000000 
#    z 0.000000 0.000000 3.705770 
# 
# 
# High freq. dielectric constant tensor:
#      x y z
#    x 1.791820 0.000000 0.000000 
#    y 0.000000 1.792090 0.000000 
#    z 0.000000 0.000000 1.795700 
# 
# From -- ./inp_files/3195.got.cif
#   From: 2010.03.12/outbox.cif.g09.slc.cpg/sg61_2_cif.got.tgz:3195.got - 2010.04.10 19:05:03.
