data_PCOD8249285
_publ_section_title
;
Structure prediction by ZEFSAII (Michael W. Deem and Ramdas Pophale) SiO2 
 PCOD8249285
Probable space group: P B C A
;
_chemical_formula_sum "Si O2"
_cell_formula_units_Z 64
_cell_length_a 9.382426
_cell_length_b 21.968538
_cell_length_c 14.897292
_cell_angle_alpha 90.000000
_cell_angle_beta 90.000000
_cell_angle_gamma 90.000000
_cell_volume 3070.602745
_symmetry_space_group_name_H-M "P B C A"
_symmetry_group_IT_number 61
_symmetry_cell_setting 'orthorhombic'
loop_
_space_group_symop_operation_xyz
x,y,z
1/2-x,-y,1/2+z
1/2+x,1/2-y,-z
-x,1/2+y,1/2-z
-x,-y,-z
1/2+x,y,1/2-z
1/2-x,1/2+y,z
x,1/2-y,1/2+z
loop_
_atom_site_type_symbol
_atom_site_label
_atom_site_fract_x
_atom_site_fract_y
_atom_site_fract_z
Si Si1 0.187244 0.122137 0.107015
Si Si2 0.599105 0.039098 0.232520
Si Si3 0.463648 0.748489 0.855716
Si Si4 0.216839 0.249028 0.683674
Si Si5 0.351249 0.955925 0.278259
Si Si6 0.513956 0.377222 0.569624
Si Si7 0.811004 0.620841 0.897937
Si Si8 0.486200 0.879857 0.435267
O O1 0.178650 0.076567 0.190058
O O2 0.152077 0.190227 0.140088
O O3 0.343698 0.118147 0.063573
O O4 0.070498 0.102384 0.033524
O O5 0.577332 0.081153 0.147099
O O6 0.449346 0.015301 0.269226
O O7 0.692244 0.980422 0.205256
O O8 0.613550 0.754650 0.804131
O O9 0.341126 0.738697 0.783065
O O10 0.433641 0.808524 0.913357
O O11 0.463186 0.692066 0.923369
O O12 0.176908 0.192731 0.620060
O O13 0.358447 0.915265 0.189623
O O14 0.395325 0.915385 0.361928
O O15 0.579827 0.398686 0.475559
O O16 0.651538 0.601931 0.927087
#
# Coordination Sequence:
#
# PCOD8249285 Si02
#       8
#     8   8   8   8   8   8   8   8
#     4  11  25  43  68 100 131 170 216 267 327 388
#     4  12  26  45  66  94 131 174 225 268 317 378
#     4  10  21  40  68  99 129 167 209 265 331 388
#     4  10  21  40  68  99 131 165 211 263 331 390
#     4  12  26  45  66  94 131 174 225 268 317 378
#     4  11  25  43  68  99 132 169 215 269 327 386
#     4  11  25  43  68 100 131 170 216 267 327 388
#     4  11  25  43  68  99 132 169 215 269 327 386
#
# _framework density 20.842815000000002
#
# number of rings (size 3 to 8) (size 9 to 14) (size 15 to 20)
#    0.000    1.000    5.000    0.750    3.500    4.000 
#    0.000    0.000    0.000    0.000    0.000    0.000 
#    0.000    0.000    0.000    0.000    0.000    0.000 
#
# Total GULP energy -794059.298381 kJ/mol
# GULP energy per Si atom -12407.176537 kJ/mol
# Density = 2.079538 g / cm^3
# Si number density = 20.842815 Si / 1000 Ang^3
#
#
#
# Elastic Constant Matrix: (Units=GPa)
#
#
# Indices 1 2 3 4 5 6 
#
# 1 55.8577 10.2404 18.7011 0.0000 0.0000 0.0000
# 2 10.2404 87.2601 23.4515 0.0000 0.0000 0.0000
# 3 18.7011 23.4515 68.0290 0.0000 0.0000 0.0000
# 4 0.0000 0.0000 0.0000 -591.5243 0.0000 0.0000
# 5 0.0000 0.0000 0.0000 0.0000 34.8912 0.0000
# 6 0.0000 0.0000 0.0000 0.0000 0.0000 36.0240
#
#
#
# Elastic Compliance Matrix: (Units=1/GPa)
#
#
# Indices 1 2 3 4 5 6 
#
# 1 0.019788 -0.000948 -0.005113 0.000000 0.000000 0.000000
# 2 -0.000948 0.012676 -0.004109 0.000000 0.000000 0.000000
# 3 -0.005113 -0.004109 0.017522 0.000000 0.000000 0.000000
# 4 0.000000 0.000000 0.000000 -0.001691 0.000000 0.000000
# 5 0.000000 0.000000 0.000000 0.000000 0.028661 0.000000
# 6 0.000000 0.000000 0.000000 0.000000 0.000000 0.027759
#
#
# Mechanical properties :
#
#
# Convention : Reuss Voigt Hill
#
# Bulk Modulus (GPa) = 33.73207 35.10364 34.41785
# Shear Modulus (GPa) = 37.05445 -93.53823 -28.24189
#
# Velocity S-wave (km/s) = 4.22098 -6.70637 -3.68502
# Velocity P-wave (km/s) = 6.32255 6.56418 1.24776
#
# Compressibility (1/GPa) = 0.02964538
#
# Stress axis : x y z
#
# Youngs Moduli (GPa) = 50.53502 78.89200 57.07229
#
# Poissons Ratio (x) = 0.07480 0.29181
# Poissons Ratio (y) = 0.04791 0.23451
# Poissons Ratio (z) = 0.25838 0.32417
#
# Static dielectric constant tensor:
#      x y z
#    x 3.797040 0.000000 0.000000 
#    y 0.000000 3.884750 0.000000 
#    z 0.000000 0.000000 3.575430 
# 
# 
# High freq. dielectric constant tensor:
#      x y z
#    x 1.822060 0.000000 0.000000 
#    y 0.000000 1.827370 0.000000 
#    z 0.000000 0.000000 1.814150 
# 
# From -- ./inp_files/7242.got.cif
#   From: 2010.03.12/outbox.cif.g09.slc.cpg/sg61_4_cif.got.tgz:7242.got - 2010.04.10 19:05:03.
