data_PCOD8249658
_publ_section_title
;
Structure prediction by ZEFSAII (Michael W. Deem and Ramdas Pophale) SiO2 
 PCOD8249658
Probable space group: P B C A
;
_chemical_formula_sum "Si O2"
_cell_formula_units_Z 24
_cell_length_a 12.798354
_cell_length_b 8.641630
_cell_length_c 7.798553
_cell_angle_alpha 90.000000
_cell_angle_beta 90.000000
_cell_angle_gamma 90.000000
_cell_volume 862.509355
_symmetry_space_group_name_H-M "P B C A"
_symmetry_group_IT_number 61
_symmetry_cell_setting 'orthorhombic'
loop_
_space_group_symop_operation_xyz
x,y,z
1/2-x,-y,1/2+z
1/2+x,1/2-y,-z
-x,1/2+y,1/2-z
-x,-y,-z
1/2+x,y,1/2-z
1/2-x,1/2+y,z
x,1/2-y,1/2+z
loop_
_atom_site_type_symbol
_atom_site_label
_atom_site_fract_x
_atom_site_fract_y
_atom_site_fract_z
Si Si1 0.790520 0.434673 0.043675
Si Si2 0.890229 0.329780 0.722796
Si Si3 0.089094 0.987633 0.140388
O O1 0.840980 0.455704 0.854166
O O2 0.668312 0.485730 0.025513
O O3 0.801993 0.253283 0.100402
O O4 0.851132 0.541525 0.184228
O O5 0.941108 0.193247 0.838087
O O6 0.984536 0.409211 0.611443
#
# Coordination Sequence:
#
# PCOD8249658 Si02
#       3
#     8   8   8
#     4  10  25  44  76 111 152 203 248 318 381 450
#     4  10  25  46  77 108 151 203 252 315 380 460
#     4  10  25  49  76 110 157 196 258 311 385 451
#
# _framework density 27.825785
#
# number of rings (size 3 to 8) (size 9 to 14) (size 15 to 20)
#    2.000    0.000    0.000    1.000    4.667    6.667 
#    0.000    0.000    0.000    0.000    0.000    0.000 
#    0.000    0.000    0.000    0.000    0.000    0.000 
#
# Total GULP energy -297436.921159 kJ/mol
# GULP energy per Si atom -12393.205048 kJ/mol
# Density = 2.776245 g / cm^3
# Si number density = 27.825785 Si / 1000 Ang^3
#
#
#
# Elastic Constant Matrix: (Units=GPa)
#
#
# Indices 1 2 3 4 5 6 
#
# 1 223.3995 95.9806 85.7251 0.0000 0.0000 0.0000
# 2 95.9806 109.8453 33.6657 0.0000 0.0000 0.0000
# 3 85.7251 33.6657 168.7823 0.0000 0.0000 0.0000
# 4 0.0000 0.0000 0.0000 57.8502 0.0000 0.0000
# 5 0.0000 0.0000 0.0000 0.0000 65.2017 0.0000
# 6 0.0000 0.0000 0.0000 0.0000 0.0000 51.7704
#
#
#
# Elastic Compliance Matrix: (Units=1/GPa)
#
#
# Indices 1 2 3 4 5 6 
#
# 1 0.008366 -0.006399 -0.002973 0.000000 0.000000 0.000000
# 2 -0.006399 0.014591 0.000340 0.000000 0.000000 0.000000
# 3 -0.002973 0.000340 0.007367 0.000000 0.000000 0.000000
# 4 0.000000 0.000000 0.000000 0.017286 0.000000 0.000000
# 5 0.000000 0.000000 0.000000 0.000000 0.015337 0.000000
# 6 0.000000 0.000000 0.000000 0.000000 0.000000 0.019316
#
#
# Mechanical properties :
#
#
# Convention : Reuss Voigt Hill
#
# Bulk Modulus (GPa) = 81.56747 103.64111 92.60429
# Shear Modulus (GPa) = 47.88582 54.07483 50.98032
#
# Velocity S-wave (km/s) = 4.15289 4.41311 4.28498
# Velocity P-wave (km/s) = 7.23689 7.95580 7.60484
#
# Compressibility (1/GPa) = 0.01225979
#
# Stress axis : x y z
#
# Youngs Moduli (GPa) = 119.52483 68.53479 135.74097
#
# Poissons Ratio (x) = 0.43857 0.40355
# Poissons Ratio (y) = 0.76487 -0.04613
# Poissons Ratio (z) = 0.35534 -0.02329
#
# Static dielectric constant tensor:
#      x y z
#    x 4.742950 0.000000 0.000000 
#    y 0.000000 4.639760 0.000000 
#    z 0.000000 0.000000 5.666540 
# 
# 
# High freq. dielectric constant tensor:
#      x y z
#    x 2.117720 0.000000 0.000000 
#    y 0.000000 2.100390 0.000000 
#    z 0.000000 0.000000 2.192180 
# 
# From -- ./inp_files/1571.got.cif
#   From: 2010.03.12/outbox.cif.g09.slc.cpg/sg61_1_cif.got.tgz:1571.got - 2010.04.10 19:05:03.
