data_PCOD8249566
_publ_section_title
;
Structure prediction by ZEFSAII (Michael W. Deem and Ramdas Pophale) SiO2 
 PCOD8249566
Probable space group: P B C A
;
_chemical_formula_sum "Si O2"
_cell_formula_units_Z 40
_cell_length_a 14.508397
_cell_length_b 13.194264
_cell_length_c 7.668161
_cell_angle_alpha 90.000000
_cell_angle_beta 90.000000
_cell_angle_gamma 90.000000
_cell_volume 1467.897812
_symmetry_space_group_name_H-M "P B C A"
_symmetry_group_IT_number 61
_symmetry_cell_setting 'orthorhombic'
loop_
_space_group_symop_operation_xyz
x,y,z
1/2-x,-y,1/2+z
1/2+x,1/2-y,-z
-x,1/2+y,1/2-z
-x,-y,-z
1/2+x,y,1/2-z
1/2-x,1/2+y,z
x,1/2-y,1/2+z
loop_
_atom_site_type_symbol
_atom_site_label
_atom_site_fract_x
_atom_site_fract_y
_atom_site_fract_z
Si Si1 0.199011 0.411540 0.370235
Si Si2 0.591855 0.918966 0.173422
Si Si3 0.379792 0.125090 0.447144
Si Si4 0.508884 0.367115 0.648784
Si Si5 0.187157 0.208669 0.512749
O O1 0.302931 0.454067 0.359864
O O2 0.131741 0.504956 0.406060
O O3 0.188735 0.331668 0.530698
O O4 0.172675 0.353822 0.190100
O O5 0.583834 0.859108 0.356090
O O6 0.524294 0.013858 0.176959
O O7 0.558449 0.846265 0.016666
O O8 0.455759 0.173892 0.319572
O O9 0.283120 0.181415 0.417551
O O10 0.605466 0.311889 0.624010
#
# Coordination Sequence:
#
# PCOD8249566 Si02
#       5
#     8   8   8   8   8
#     4  11  25  46  74 107 151 197 242 303 382 431
#     4  10  23  43  74 106 140 190 245 298 365 436
#     4  11  25  48  77 104 147 199 244 306 373 437
#     4  11  23  47  74 107 142 192 249 304 362 437
#     4  11  27  47  71 112 151 194 248 310 364 448
#
# _framework density 27.249856000000001
#
# number of rings (size 3 to 8) (size 9 to 14) (size 15 to 20)
#    0.000    1.200    2.000    3.000    8.400    0.000 
#    7.200    0.000    0.000    0.000    0.000    0.000 
#    0.000    0.000    0.000    0.000    0.000    0.000 
#
# Total GULP energy -496188.625633 kJ/mol
# GULP energy per Si atom -12404.715641 kJ/mol
# Density = 2.718783 g / cm^3
# Si number density = 27.249856 Si / 1000 Ang^3
#
#
#
# Elastic Constant Matrix: (Units=GPa)
#
#
# Indices 1 2 3 4 5 6 
#
# 1 124.5493 0.7363 67.9285 0.0000 0.0000 0.0000
# 2 0.7363 63.7757 7.6245 0.0000 0.0000 0.0000
# 3 67.9285 7.6245 139.2622 0.0000 0.0000 0.0000
# 4 0.0000 0.0000 0.0000 36.1774 0.0000 0.0000
# 5 0.0000 0.0000 0.0000 0.0000 40.9425 0.0000
# 6 0.0000 0.0000 0.0000 0.0000 0.0000 15.6933
#
#
#
# Elastic Compliance Matrix: (Units=1/GPa)
#
#
# Indices 1 2 3 4 5 6 
#
# 1 0.010956 0.000516 -0.005372 0.000000 0.000000 0.000000
# 2 0.000516 0.015808 -0.001117 0.000000 0.000000 0.000000
# 3 -0.005372 -0.001117 0.009862 0.000000 0.000000 0.000000
# 4 0.000000 0.000000 0.000000 0.027642 0.000000 0.000000
# 5 0.000000 0.000000 0.000000 0.000000 0.024424 0.000000
# 6 0.000000 0.000000 0.000000 0.000000 0.000000 0.063722
#
#
# Mechanical properties :
#
#
# Convention : Reuss Voigt Hill
#
# Bulk Modulus (GPa) = 40.52072 53.35177 46.93624
# Shear Modulus (GPa) = 28.97096 35.31584 32.14340
#
# Velocity S-wave (km/s) = 3.26415 3.60391 3.43823
# Velocity P-wave (km/s) = 5.39524 6.07773 5.74662
#
# Compressibility (1/GPa) = 0.02467873
#
# Stress axis : x y z
#
# Youngs Moduli (GPa) = 91.27513 63.26095 101.39626
#
# Poissons Ratio (x) = -0.03263 0.54472
# Poissons Ratio (y) = -0.04708 0.11326
# Poissons Ratio (z) = 0.49035 0.07067
#
# Static dielectric constant tensor:
#      x y z
#    x 4.867170 0.000000 0.000000 
#    y 0.000000 4.684760 0.000000 
#    z 0.000000 0.000000 4.983520 
# 
# 
# High freq. dielectric constant tensor:
#      x y z
#    x 2.104010 0.000000 0.000000 
#    y 0.000000 2.099820 0.000000 
#    z 0.000000 0.000000 2.098010 
# 
# From -- ./inp_files/2695.got.cif
#   From: 2010.03.12/outbox.cif.g09.slc.cpg/sg61_2_cif.got.tgz:2695.got - 2010.04.10 19:05:03.
