data_PCOD8249359
_publ_section_title
;
Structure prediction by ZEFSAII (Michael W. Deem and Ramdas Pophale) SiO2 
 PCOD8249359
Probable space group: P B C A
;
_chemical_formula_sum "Si O2"
_cell_formula_units_Z 48
_cell_length_a 13.674096
_cell_length_b 15.221576
_cell_length_c 10.110862
_cell_angle_alpha 90.000000
_cell_angle_beta 90.000000
_cell_angle_gamma 90.000000
_cell_volume 2104.487875
_symmetry_space_group_name_H-M "P B C A"
_symmetry_group_IT_number 61
_symmetry_cell_setting 'orthorhombic'
loop_
_space_group_symop_operation_xyz
x,y,z
1/2-x,-y,1/2+z
1/2+x,1/2-y,-z
-x,1/2+y,1/2-z
-x,-y,-z
1/2+x,y,1/2-z
1/2-x,1/2+y,z
x,1/2-y,1/2+z
loop_
_atom_site_type_symbol
_atom_site_label
_atom_site_fract_x
_atom_site_fract_y
_atom_site_fract_z
Si Si1 0.637910 0.047961 0.903585
Si Si2 0.643368 0.682102 0.644507
Si Si3 0.860189 0.855894 0.146052
Si Si4 0.567357 0.803666 0.420532
Si Si5 0.936860 0.515829 0.167644
Si Si6 0.355743 0.497292 0.061792
O O1 0.636530 0.130574 0.804788
O O2 0.553302 0.979949 0.856951
O O3 0.742778 0.002128 0.895063
O O4 0.615975 0.076479 0.056257
O O5 0.758025 0.688886 0.608151
O O6 0.586008 0.734795 0.534505
O O7 0.624644 0.725043 0.788003
O O8 0.604367 0.582891 0.648147
O O9 0.951320 0.796384 0.105657
O O10 0.871313 0.949668 0.072739
O O11 0.601493 0.900725 0.464384
O O12 0.912111 0.545985 0.316582
#
# Coordination Sequence:
#
# PCOD8249359 Si02
#       6
#     8   8   8   8   8   8
#     4  11  19  38  68  92 131 163 206 267 319 375
#     4  11  24  46  61  95 128 180 213 263 325 388
#     4  12  23  43  70  92 134 168 214 274 325 376
#     4  11  26  43  65  93 134 169 221 265 322 392
#     4  10  22  37  64  98 130 162 212 265 322 382
#     4  11  21  41  66 102 123 166 214 271 324 385
#
# _framework density 22.808399000000001
#
# number of rings (size 3 to 8) (size 9 to 14) (size 15 to 20)
#    0.000    1.000    8.333    0.500    0.000    4.000 
#    6.000    0.000    0.000    0.000    0.000    0.000 
#    0.000    0.000    0.000    0.000    0.000    0.000 
#
# Total GULP energy -595121.302655 kJ/mol
# GULP energy per Si atom -12398.360472 kJ/mol
# Density = 2.275649 g / cm^3
# Si number density = 22.808399 Si / 1000 Ang^3
#
#
#
# Elastic Constant Matrix: (Units=GPa)
#
#
# Indices 1 2 3 4 5 6 
#
# 1 140.0042 14.0133 1.0475 0.0000 0.0000 0.0000
# 2 14.0133 37.0621 38.8955 0.0000 0.0000 0.0000
# 3 1.0475 38.8955 94.3354 0.0000 0.0000 0.0000
# 4 0.0000 0.0000 0.0000 29.6061 0.0000 0.0000
# 5 0.0000 0.0000 0.0000 0.0000 37.2351 0.0000
# 6 0.0000 0.0000 0.0000 0.0000 0.0000 27.5414
#
#
#
# Elastic Compliance Matrix: (Units=1/GPa)
#
#
# Indices 1 2 3 4 5 6 
#
# 1 0.007621 -0.004923 0.001945 0.000000 0.000000 0.000000
# 2 -0.004923 0.050742 -0.020867 0.000000 0.000000 0.000000
# 3 0.001945 -0.020867 0.019183 0.000000 0.000000 0.000000
# 4 0.000000 0.000000 0.000000 0.033777 0.000000 0.000000
# 5 0.000000 0.000000 0.000000 0.000000 0.026856 0.000000
# 6 0.000000 0.000000 0.000000 0.000000 0.000000 0.036309
#
#
# Mechanical properties :
#
#
# Convention : Reuss Voigt Hill
#
# Bulk Modulus (GPa) = 33.49362 42.14602 37.81982
# Shear Modulus (GPa) = 21.53973 33.37287 27.45630
#
# Velocity S-wave (km/s) = 3.07641 3.82931 3.47332
# Velocity P-wave (km/s) = 5.22835 6.17008 5.71863
#
# Compressibility (1/GPa) = 0.02985643
#
# Stress axis : x y z
#
# Youngs Moduli (GPa) = 131.21949 19.70743 52.13077
#
# Poissons Ratio (x) = 0.09701 -0.10140
# Poissons Ratio (y) = 0.64596 1.08781
# Poissons Ratio (z) = -0.25523 0.41123
#
# Static dielectric constant tensor:
#      x y z
#    x 4.580270 0.000000 0.000000 
#    y 0.000000 3.439380 0.000000 
#    z 0.000000 0.000000 4.608130 
# 
# 
# High freq. dielectric constant tensor:
#      x y z
#    x 1.929360 0.000000 0.000000 
#    y 0.000000 1.834210 0.000000 
#    z 0.000000 0.000000 1.921150 
# 
# From -- ./inp_files/2846.got.cif
#   From: 2010.03.12/outbox.cif.g09.slc.cpg/sg61_2_cif.got.tgz:2846.got - 2010.04.10 19:05:03.
