data_PCOD8249593
_publ_section_title
;
Structure prediction by ZEFSAII (Michael W. Deem and Ramdas Pophale) SiO2 
 PCOD8249593
Probable space group: P B C A
;
_chemical_formula_sum "Si O2"
_cell_formula_units_Z 64
_cell_length_a 15.703130
_cell_length_b 14.953877
_cell_length_c 12.608859
_cell_angle_alpha 90.000000
_cell_angle_beta 90.000000
_cell_angle_gamma 90.000000
_cell_volume 2960.845993
_symmetry_space_group_name_H-M "P B C A"
_symmetry_group_IT_number 61
_symmetry_cell_setting 'orthorhombic'
loop_
_space_group_symop_operation_xyz
x,y,z
1/2-x,-y,1/2+z
1/2+x,1/2-y,-z
-x,1/2+y,1/2-z
-x,-y,-z
1/2+x,y,1/2-z
1/2-x,1/2+y,z
x,1/2-y,1/2+z
loop_
_atom_site_type_symbol
_atom_site_label
_atom_site_fract_x
_atom_site_fract_y
_atom_site_fract_z
Si Si1 0.901077 0.472880 0.776111
Si Si2 0.752426 0.610086 0.755122
Si Si3 0.660952 0.370761 0.048133
Si Si4 0.476556 0.333307 0.100277
Si Si5 0.159649 0.570856 0.453164
Si Si6 0.567929 0.582365 0.698149
Si Si7 0.087070 0.841881 0.530222
Si Si8 0.752975 0.277459 0.457660
O O1 0.829148 0.547805 0.796937
O O2 0.879286 0.425006 0.664631
O O3 0.999094 0.506069 0.773691
O O4 0.893367 0.406576 0.873363
O O5 0.782171 0.658517 0.648149
O O6 0.665440 0.554202 0.728433
O O7 0.736184 0.689756 0.837582
O O8 0.564089 0.384480 0.081754
O O9 0.688416 0.470727 0.010655
O O10 0.670141 0.287506 0.966276
O O11 0.454763 0.333422 0.225926
O O12 0.406204 0.390329 0.038155
O O13 0.484718 0.230636 0.062742
O O14 0.243426 0.635310 0.464219
O O15 0.557108 0.606128 0.574648
O O16 0.171991 0.788008 0.505745
#
# Coordination Sequence:
#
# PCOD8249593 Si02
#       8
#     8   8   8   8   8   8   8   8
#     4  11  27  45  71 102 138 187 229 286 351 420
#     4  11  24  45  69  99 139 182 229 288 341 420
#     4  11  24  45  67 104 137 181 234 280 346 418
#     4  11  24  43  74 100 138 183 231 288 343 420
#     4  10  23  46  71  98 139 181 231 285 346 417
#     4  12  23  47  68  98 140 182 225 291 343 411
#     4  11  26  43  69  98 142 182 228 288 355 401
#     4  11  25  40  72  99 141 180 231 290 343 415
#
# _framework density 21.615445000000001
#
# number of rings (size 3 to 8) (size 9 to 14) (size 15 to 20)
#    0.000    1.000    6.250    0.750    8.750    0.000 
#    4.500    0.000    0.000    0.000    0.000    0.000 
#    0.000    0.000    0.000    0.000    0.000    0.000 
#
# Total GULP energy -793015.444045 kJ/mol
# GULP energy per Si atom -12390.866313 kJ/mol
# Density = 2.156625 g / cm^3
# Si number density = 21.615445 Si / 1000 Ang^3
#
#
#
# Elastic Constant Matrix: (Units=GPa)
#
#
# Indices 1 2 3 4 5 6 
#
# 1 60.0315 37.4401 9.7588 0.0000 0.0000 0.0000
# 2 37.4401 116.5208 52.5978 0.0000 0.0000 0.0000
# 3 9.7588 52.5978 111.4818 0.0000 0.0000 0.0000
# 4 0.0000 0.0000 0.0000 31.1773 0.0000 0.0000
# 5 0.0000 0.0000 0.0000 0.0000 25.5273 0.0000
# 6 0.0000 0.0000 0.0000 0.0000 0.0000 31.7935
#
#
#
# Elastic Compliance Matrix: (Units=1/GPa)
#
#
# Indices 1 2 3 4 5 6 
#
# 1 0.021088 -0.007551 0.001717 0.000000 0.000000 0.000000
# 2 -0.007551 0.013608 -0.005759 0.000000 0.000000 0.000000
# 3 0.001717 -0.005759 0.011537 0.000000 0.000000 0.000000
# 4 0.000000 0.000000 0.000000 0.032075 0.000000 0.000000
# 5 0.000000 0.000000 0.000000 0.000000 0.039174 0.000000
# 6 0.000000 0.000000 0.000000 0.000000 0.000000 0.031453
#
#
# Mechanical properties :
#
#
# Convention : Reuss Voigt Hill
#
# Bulk Modulus (GPa) = 43.39149 54.18083 48.78616
# Shear Modulus (GPa) = 27.80802 30.24879 29.02841
#
# Velocity S-wave (km/s) = 3.59066 3.74492 3.66860
# Velocity P-wave (km/s) = 6.10805 6.61963 6.36898
#
# Compressibility (1/GPa) = 0.02304600
#
# Stress axis : x y z
#
# Youngs Moduli (GPa) = 47.42010 73.48512 86.67642
#
# Poissons Ratio (x) = 0.55487 -0.14878
# Poissons Ratio (y) = 0.35806 0.49921
# Poissons Ratio (z) = -0.08140 0.42323
#
# Static dielectric constant tensor:
#      x y z
#    x 4.090460 0.000000 0.000000 
#    y 0.000000 4.178450 0.000000 
#    z 0.000000 0.000000 4.012740 
# 
# 
# High freq. dielectric constant tensor:
#      x y z
#    x 1.850200 0.000000 0.000000 
#    y 0.000000 1.839470 0.000000 
#    z 0.000000 0.000000 1.855920 
# 
# From -- ./inp_files/6302.got.cif
#   From: 2010.03.12/outbox.cif.g09.slc.cpg/sg61_4_cif.got.tgz:6302.got - 2010.04.10 19:05:03.
