data_PCOD8249209
_publ_section_title
;
Structure prediction by ZEFSAII (Michael W. Deem and Ramdas Pophale) SiO2 
 PCOD8249209
Probable space group: P B C A
;
_chemical_formula_sum "Si O2"
_cell_formula_units_Z 64
_cell_length_a 9.690170
_cell_length_b 22.080609
_cell_length_c 13.625914
_cell_angle_alpha 90.000000
_cell_angle_beta 90.000000
_cell_angle_gamma 90.000000
_cell_volume 2915.466712
_symmetry_space_group_name_H-M "P B C A"
_symmetry_group_IT_number 61
_symmetry_cell_setting 'orthorhombic'
loop_
_space_group_symop_operation_xyz
x,y,z
1/2-x,-y,1/2+z
1/2+x,1/2-y,-z
-x,1/2+y,1/2-z
-x,-y,-z
1/2+x,y,1/2-z
1/2-x,1/2+y,z
x,1/2-y,1/2+z
loop_
_atom_site_type_symbol
_atom_site_label
_atom_site_fract_x
_atom_site_fract_y
_atom_site_fract_z
Si Si1 0.004353 0.466553 0.355933
Si Si2 0.682437 0.535854 0.672947
Si Si3 0.365071 0.166755 0.857979
Si Si4 0.672656 0.403885 0.623243
Si Si5 0.952024 0.189198 0.432263
Si Si6 0.677457 0.337790 0.823358
Si Si7 0.525208 0.593732 0.049058
Si Si8 0.581434 0.220927 0.711586
O O1 0.885224 0.458280 0.278201
O O2 0.989596 0.410364 0.431505
O O3 0.154331 0.466514 0.306807
O O4 0.975597 0.529889 0.408503
O O5 0.637052 0.595509 0.612584
O O6 0.636681 0.475421 0.613756
O O7 0.474827 0.179038 0.771354
O O8 0.213159 0.182616 0.820294
O O9 0.402231 0.203572 0.957065
O O10 0.565129 0.363992 0.562512
O O11 0.670418 0.387978 0.738376
O O12 0.820626 0.388432 0.578281
O O13 0.832032 0.164978 0.362234
O O14 0.011744 0.250989 0.386084
O O15 0.575950 0.354417 0.912015
O O16 0.631101 0.273477 0.783398
#
# Coordination Sequence:
#
# PCOD8249209 Si02
#       8
#     8   8   8   8   8   8   8   8
#     4  10  22  40  62  98 136 179 215 274 341 411
#     4  11  23  42  66  98 144 177 217 278 346 415
#     4  12  27  47  68 101 136 184 228 278 351 403
#     4  10  22  40  69 104 136 175 220 282 346 404
#     4  11  26  44  73 103 130 176 233 288 337 407
#     4  11  21  43  70 100 132 176 226 286 334 407
#     4  10  21  38  67  98 133 173 227 270 338 410
#     4  11  26  48  68  97 138 179 230 285 340 401
#
# _framework density 21.951888
#
# number of rings (size 3 to 8) (size 9 to 14) (size 15 to 20)
#    0.000    1.250    2.500    3.000    5.250    2.500 
#    0.000    0.000    0.000    0.000    0.000    0.000 
#    0.000    0.000    0.000    0.000    0.000    0.000 
#
# Total GULP energy -793878.155295 kJ/mol
# GULP energy per Si atom -12404.346176 kJ/mol
# Density = 2.190192 g / cm^3
# Si number density = 21.951888 Si / 1000 Ang^3
#
#
#
# Elastic Constant Matrix: (Units=GPa)
#
#
# Indices 1 2 3 4 5 6 
#
# 1 97.2795 27.3038 28.0920 0.0000 0.0000 0.0000
# 2 27.3038 85.8991 -5.5940 0.0000 0.0000 0.0000
# 3 28.0920 -5.5940 69.1834 0.0000 0.0000 0.0000
# 4 0.0000 0.0000 0.0000 18.0792 0.0000 0.0000
# 5 0.0000 0.0000 0.0000 0.0000 23.2708 0.0000
# 6 0.0000 0.0000 0.0000 0.0000 0.0000 31.8572
#
#
#
# Elastic Compliance Matrix: (Units=1/GPa)
#
#
# Indices 1 2 3 4 5 6 
#
# 1 0.013221 -0.004576 -0.005739 0.000000 0.000000 0.000000
# 2 -0.004576 0.013287 0.002933 0.000000 0.000000 0.000000
# 3 -0.005739 0.002933 0.017022 0.000000 0.000000 0.000000
# 4 0.000000 0.000000 0.000000 0.055312 0.000000 0.000000
# 5 0.000000 0.000000 0.000000 0.000000 0.042972 0.000000
# 6 0.000000 0.000000 0.000000 0.000000 0.000000 0.031390
#
#
# Mechanical properties :
#
#
# Convention : Reuss Voigt Hill
#
# Bulk Modulus (GPa) = 34.76376 39.10729 36.93552
# Shear Modulus (GPa) = 25.30912 28.14546 26.72729
#
# Velocity S-wave (km/s) = 3.39917 3.58459 3.49311
# Velocity P-wave (km/s) = 5.59255 5.91490 5.75598
#
# Compressibility (1/GPa) = 0.02876559
#
# Stress axis : x y z
#
# Youngs Moduli (GPa) = 75.63603 75.26079 58.74899
#
# Poissons Ratio (x) = 0.34441 0.33713
# Poissons Ratio (y) = 0.34613 -0.17228
# Poissons Ratio (z) = 0.43404 -0.22071
#
# Static dielectric constant tensor:
#      x y z
#    x 4.010400 0.000000 0.000000 
#    y 0.000000 4.072970 0.000000 
#    z 0.000000 0.000000 3.908980 
# 
# 
# High freq. dielectric constant tensor:
#      x y z
#    x 1.874180 0.000000 0.000000 
#    y 0.000000 1.869700 0.000000 
#    z 0.000000 0.000000 1.856820 
# 
# From -- ./inp_files/7226.got.cif
#   From: 2010.03.12/outbox.cif.g09.slc.cpg/sg61_4_cif.got.tgz:7226.got - 2010.04.10 19:05:03.
