data_PCOD8249490
_publ_section_title
;
Structure prediction by ZEFSAII (Michael W. Deem and Ramdas Pophale) SiO2 
 PCOD8249490
Probable space group: P B C A
;
_chemical_formula_sum "Si O2"
_cell_formula_units_Z 64
_cell_length_a 13.989801
_cell_length_b 9.343808
_cell_length_c 23.214474
_cell_angle_alpha 90.000000
_cell_angle_beta 90.000000
_cell_angle_gamma 90.000000
_cell_volume 3034.549949
_symmetry_space_group_name_H-M "P B C A"
_symmetry_group_IT_number 61
_symmetry_cell_setting 'orthorhombic'
loop_
_space_group_symop_operation_xyz
x,y,z
1/2-x,-y,1/2+z
1/2+x,1/2-y,-z
-x,1/2+y,1/2-z
-x,-y,-z
1/2+x,y,1/2-z
1/2-x,1/2+y,z
x,1/2-y,1/2+z
loop_
_atom_site_type_symbol
_atom_site_label
_atom_site_fract_x
_atom_site_fract_y
_atom_site_fract_z
Si Si1 0.263923 0.730303 0.319553
Si Si2 0.564464 0.895309 0.708419
Si Si3 0.640585 0.608727 0.979079
Si Si4 0.673271 0.941705 0.980353
Si Si5 0.407284 0.834423 0.224598
Si Si6 0.512407 0.932352 0.580522
Si Si7 0.054899 0.131926 0.602034
Si Si8 0.846199 0.468781 0.114822
O O1 0.173101 0.654349 0.292268
O O2 0.319263 0.788704 0.264096
O O3 0.233434 0.858998 0.361720
O O4 0.330132 0.622982 0.356252
O O5 0.494049 0.774197 0.729630
O O6 0.536477 0.958967 0.646462
O O7 0.550802 0.015942 0.755412
O O8 0.670566 0.772532 0.969183
O O9 0.726267 0.505910 0.959399
O O10 0.548310 0.568521 0.940819
O O11 0.612652 0.581002 0.045847
O O12 0.589437 0.013853 0.943019
O O13 0.659997 0.983943 0.046345
O O14 0.374913 0.850763 0.157393
O O15 0.454195 0.784583 0.569811
O O16 0.951536 0.090687 0.629196
#
# Coordination Sequence:
#
# PCOD8249490 Si02
#       8
#     8   8   8   8   8   8   8   8
#     4  12  24  44  72 101 136 178 233 289 346 401
#     4  11  23  46  67 101 133 176 232 283 333 417
#     4  11  24  41  68 100 139 181 227 281 355 402
#     4  12  24  44  67 104 138 187 230 289 343 425
#     4  11  25  43  71  97 139 181 225 284 352 414
#     4  10  22  44  68  97 138 181 224 292 334 410
#     4  11  24  47  65 100 146 178 230 290 350 417
#     4  12  23  43  73 102 136 183 232 291 338 413
#
# _framework density 21.090441999999999
#
# number of rings (size 3 to 8) (size 9 to 14) (size 15 to 20)
#    0.000    0.750    5.000    3.375    0.000    2.000 
#    9.000    0.000    0.000    0.000    0.000    0.000 
#    0.000    0.000    0.000    0.000    0.000    0.000 
#
# Total GULP energy -793824.602151 kJ/mol
# GULP energy per Si atom -12403.509409 kJ/mol
# Density = 2.104244 g / cm^3
# Si number density = 21.090442 Si / 1000 Ang^3
#
#
#
# Elastic Constant Matrix: (Units=GPa)
#
#
# Indices 1 2 3 4 5 6 
#
# 1 83.3255 36.5858 46.6628 0.0000 0.0000 0.0000
# 2 36.5858 112.4323 55.7748 0.0000 0.0000 0.0000
# 3 46.6628 55.7748 96.3357 0.0000 0.0000 0.0000
# 4 0.0000 0.0000 0.0000 37.2603 0.0000 0.0000
# 5 0.0000 0.0000 0.0000 0.0000 36.4177 0.0000
# 6 0.0000 0.0000 0.0000 0.0000 0.0000 30.6997
#
#
#
# Elastic Compliance Matrix: (Units=1/GPa)
#
#
# Indices 1 2 3 4 5 6 
#
# 1 0.016784 -0.002004 -0.006969 0.000000 0.000000 0.000000
# 2 -0.002004 0.012717 -0.006392 0.000000 0.000000 0.000000
# 3 -0.006969 -0.006392 0.017457 0.000000 0.000000 0.000000
# 4 0.000000 0.000000 0.000000 0.026838 0.000000 0.000000
# 5 0.000000 0.000000 0.000000 0.000000 0.027459 0.000000
# 6 0.000000 0.000000 0.000000 0.000000 0.000000 0.032574
#
#
# Mechanical properties :
#
#
# Convention : Reuss Voigt Hill
#
# Bulk Modulus (GPa) = 61.62603 63.34894 62.48749
# Shear Modulus (GPa) = 29.41697 31.08020 30.24858
#
# Velocity S-wave (km/s) = 3.73875 3.84300 3.79123
# Velocity P-wave (km/s) = 6.92250 7.05645 6.98980
#
# Compressibility (1/GPa) = 0.01622691
#
# Stress axis : x y z
#
# Youngs Moduli (GPa) = 59.58034 78.63258 57.28368
#
# Poissons Ratio (x) = 0.15760 0.39924
# Poissons Ratio (y) = 0.11941 0.36616
# Poissons Ratio (z) = 0.41524 0.50263
#
# Static dielectric constant tensor:
#      x y z
#    x 3.853060 0.000000 0.000000 
#    y 0.000000 3.938540 0.000000 
#    z 0.000000 0.000000 3.898040 
# 
# 
# High freq. dielectric constant tensor:
#      x y z
#    x 1.825540 0.000000 0.000000 
#    y 0.000000 1.838510 0.000000 
#    z 0.000000 0.000000 1.829730 
# 
# From -- ./inp_files/11082.got.cif
#   From: 2010.03.12/outbox.cif.g09.slc.cpg/sg61_6_cif.got.tgz:11082.got - 2010.04.10 19:05:03.
