data_PCOD8249786
_publ_section_title
;
Structure prediction by ZEFSAII (Michael W. Deem and Ramdas Pophale) SiO2 
 PCOD8249786
Probable space group: P B C A
;
_chemical_formula_sum "Si O2"
_cell_formula_units_Z 64
_cell_length_a 8.650857
_cell_length_b 30.105063
_cell_length_c 10.858692
_cell_angle_alpha 90.000000
_cell_angle_beta 90.000000
_cell_angle_gamma 90.000000
_cell_volume 2827.979053
_symmetry_space_group_name_H-M "P B C A"
_symmetry_group_IT_number 61
_symmetry_cell_setting 'orthorhombic'
loop_
_space_group_symop_operation_xyz
x,y,z
1/2-x,-y,1/2+z
1/2+x,1/2-y,-z
-x,1/2+y,1/2-z
-x,-y,-z
1/2+x,y,1/2-z
1/2-x,1/2+y,z
x,1/2-y,1/2+z
loop_
_atom_site_type_symbol
_atom_site_label
_atom_site_fract_x
_atom_site_fract_y
_atom_site_fract_z
Si Si1 0.324590 0.141317 0.102853
Si Si2 0.260100 0.952479 0.191058
Si Si3 0.495073 0.515263 0.232103
Si Si4 0.138415 0.102556 0.307759
Si Si5 0.568852 0.224613 0.644259
Si Si6 0.150482 0.124466 0.874619
Si Si7 0.392040 0.077994 0.469539
Si Si8 0.734699 0.241006 0.385169
O O1 0.183260 0.114552 0.167920
O O2 0.500505 0.132082 0.140392
O O3 0.300421 0.192219 0.132853
O O4 0.303201 0.128768 0.959726
O O5 0.312215 0.909501 0.266133
O O6 0.345393 0.999779 0.206723
O O7 0.086315 0.967241 0.225844
O O8 0.253925 0.939992 0.048163
O O9 0.412231 0.551123 0.318912
O O10 0.522251 0.537220 0.098086
O O11 0.304709 0.110225 0.373035
O O12 0.609226 0.173401 0.672927
O O13 0.651047 0.244271 0.519808
O O14 0.383969 0.226937 0.623119
O O15 0.619230 0.249883 0.770048
O O16 0.003915 0.106944 0.948467
#
# Coordination Sequence:
#
# PCOD8249786 Si02
#       8
#     8   8   8   8   8   8   8   8
#     4  11  23  44  71 102 140 176 240 281 355 426
#     4  12  27  43  67  99 135 186 236 288 357 409
#     4  12  24  44  67  99 135 184 241 287 348 419
#     4  12  23  42  71 103 134 188 235 291 345 419
#     4  11  26  48  76 109 150 188 246 293 376 438
#     4  11  27  47  69 101 144 187 230 297 354 431
#     4  12  26  45  68  98 142 188 228 302 355 413
#     4  11  25  47  75 110 142 193 234 306 359 448
#
# _framework density 22.631001999999999
#
# number of rings (size 3 to 8) (size 9 to 14) (size 15 to 20)
#    0.000    0.500    5.000    1.875    3.500    4.500 
#    2.250    0.000    0.000    0.000    0.000    0.000 
#    0.000    0.000    0.000    0.000    0.000    0.000 
#
# Total GULP energy -793164.343460 kJ/mol
# GULP energy per Si atom -12393.192867 kJ/mol
# Density = 2.257949 g / cm^3
# Si number density = 22.631002 Si / 1000 Ang^3
#
#
#
# Elastic Constant Matrix: (Units=GPa)
#
#
# Indices 1 2 3 4 5 6 
#
# 1 75.9658 13.0561 26.0603 0.0000 0.0000 0.0000
# 2 13.0561 83.0426 22.4406 0.0000 0.0000 0.0000
# 3 26.0603 22.4406 93.5739 0.0000 0.0000 0.0000
# 4 0.0000 0.0000 0.0000 25.1112 0.0000 0.0000
# 5 0.0000 0.0000 0.0000 0.0000 35.2045 0.0000
# 6 0.0000 0.0000 0.0000 0.0000 0.0000 41.3676
#
#
#
# Elastic Compliance Matrix: (Units=1/GPa)
#
#
# Indices 1 2 3 4 5 6 
#
# 1 0.014682 -0.001287 -0.003780 0.000000 0.000000 0.000000
# 2 -0.001287 0.012989 -0.002757 0.000000 0.000000 0.000000
# 3 -0.003780 -0.002757 0.012401 0.000000 0.000000 0.000000
# 4 0.000000 0.000000 0.000000 0.039823 0.000000 0.000000
# 5 0.000000 0.000000 0.000000 0.000000 0.028405 0.000000
# 6 0.000000 0.000000 0.000000 0.000000 0.000000 0.024173
#
#
# Mechanical properties :
#
#
# Convention : Reuss Voigt Hill
#
# Bulk Modulus (GPa) = 40.94290 41.74403 41.34347
# Shear Modulus (GPa) = 31.99747 33.07169 32.53458
#
# Velocity S-wave (km/s) = 3.76424 3.82690 3.79570
# Velocity P-wave (km/s) = 6.08469 6.16542 6.12519
#
# Compressibility (1/GPa) = 0.02442426
#
# Stress axis : x y z
#
# Youngs Moduli (GPa) = 68.11153 76.98671 80.64098
#
# Poissons Ratio (x) = 0.09906 0.30485
# Poissons Ratio (y) = 0.08764 0.22230
# Poissons Ratio (z) = 0.25748 0.21223
#
# Static dielectric constant tensor:
#      x y z
#    x 4.346360 0.000000 0.000000 
#    y 0.000000 4.048930 0.000000 
#    z 0.000000 0.000000 4.273090 
# 
# 
# High freq. dielectric constant tensor:
#      x y z
#    x 1.908530 0.000000 0.000000 
#    y 0.000000 1.894650 0.000000 
#    z 0.000000 0.000000 1.894240 
# 
# From -- ./inp_files/4962.got.cif
#   From: 2010.03.12/outbox.cif.g09.slc.cpg/sg61_3_cif.got.tgz:4962.got - 2010.04.10 19:05:03.
