data_PCOD8249132
_publ_section_title
;
Structure prediction by ZEFSAII (Michael W. Deem and Ramdas Pophale) SiO2 
 PCOD8249132
Probable space group: P B C A
;
_chemical_formula_sum "Si O2"
_cell_formula_units_Z 64
_cell_length_a 16.488902
_cell_length_b 19.096295
_cell_length_c 9.617704
_cell_angle_alpha 90.000000
_cell_angle_beta 90.000000
_cell_angle_gamma 90.000000
_cell_volume 3028.393175
_symmetry_space_group_name_H-M "P B C A"
_symmetry_group_IT_number 61
_symmetry_cell_setting 'orthorhombic'
loop_
_space_group_symop_operation_xyz
x,y,z
1/2-x,-y,1/2+z
1/2+x,1/2-y,-z
-x,1/2+y,1/2-z
-x,-y,-z
1/2+x,y,1/2-z
1/2-x,1/2+y,z
x,1/2-y,1/2+z
loop_
_atom_site_type_symbol
_atom_site_label
_atom_site_fract_x
_atom_site_fract_y
_atom_site_fract_z
Si Si1 0.014356 0.736073 0.028767
Si Si2 0.783422 0.915285 0.351109
Si Si3 0.966926 0.599897 0.904440
Si Si4 0.805518 0.281652 0.423701
Si Si5 0.502194 0.664356 0.198232
Si Si6 0.950208 0.526822 0.192223
Si Si7 0.734369 0.474861 0.647319
Si Si8 0.196243 0.830096 0.783951
O O1 0.967467 0.707303 0.165952
O O2 0.098537 0.770128 0.074984
O O3 0.019240 0.671645 0.916693
O O4 0.969726 0.798090 0.942440
O O5 0.872846 0.883394 0.374776
O O6 0.718928 0.852038 0.339856
O O7 0.758624 0.966335 0.480683
O O8 0.784393 0.959096 0.207351
O O9 0.003088 0.547432 0.786627
O O10 0.979338 0.561502 0.050065
O O11 0.771110 0.289415 0.579278
O O12 0.769361 0.213357 0.347196
O O13 0.472139 0.584054 0.189642
O O14 0.599349 0.664812 0.210894
O O15 0.856222 0.510074 0.195611
O O16 0.766233 0.406419 0.726175
#
# Coordination Sequence:
#
# PCOD8249132 Si02
#       8
#     8   8   8   8   8   8   8   8
#     4   9  18  32  53  77 103 138 176 219 271 324
#     4  10  21  37  56  82 112 144 186 233 277 331
#     4   9  18  34  55  77 103 144 188 221 263 333
#     4   9  19  33  53  79 107 138 180 226 272 325
#     4   9  17  32  52  74 103 137 175 220 269 323
#     4   9  18  32  53  78 103 137 186 228 263 320
#     4  10  21  35  54  78 109 144 182 227 279 330
#     4   9  18  33  52  75 104 140 177 221 272 323
#
# _framework density 21.133320000000001
#
# number of rings (size 3 to 8) (size 9 to 14) (size 15 to 20)
#    0.000    2.750    0.000    0.750    0.000    8.000 
#    0.000    1.250    0.000    8.250    0.000    0.000 
#    0.000    0.000    0.000    0.000    0.000    0.000 
#
# Total GULP energy -792954.367395 kJ/mol
# GULP energy per Si atom -12389.911991 kJ/mol
# Density = 2.108522 g / cm^3
# Si number density = 21.133320 Si / 1000 Ang^3
#
#
#
# Elastic Constant Matrix: (Units=GPa)
#
#
# Indices 1 2 3 4 5 6 
#
# 1 34.0589 10.9571 -3.5179 0.0000 0.0000 0.0000
# 2 10.9571 46.9472 -3.3148 0.0000 0.0000 0.0000
# 3 -3.5179 -3.3148 26.5398 0.0000 0.0000 0.0000
# 4 0.0000 0.0000 0.0000 36.8196 0.0000 0.0000
# 5 0.0000 0.0000 0.0000 0.0000 16.3159 0.0000
# 6 0.0000 0.0000 0.0000 0.0000 0.0000 37.2521
#
#
#
# Elastic Compliance Matrix: (Units=1/GPa)
#
#
# Indices 1 2 3 4 5 6 
#
# 1 0.032036 -0.007241 0.003342 0.000000 0.000000 0.000000
# 2 -0.007241 0.023127 0.001929 0.000000 0.000000 0.000000
# 3 0.003342 0.001929 0.038363 0.000000 0.000000 0.000000
# 4 0.000000 0.000000 0.000000 0.027159 0.000000 0.000000
# 5 0.000000 0.000000 0.000000 0.000000 0.061290 0.000000
# 6 0.000000 0.000000 0.000000 0.000000 0.000000 0.026844
#
#
# Mechanical properties :
#
#
# Convention : Reuss Voigt Hill
#
# Bulk Modulus (GPa) = 11.16257 12.86608 12.01432
# Shear Modulus (GPa) = 20.60830 24.97230 22.79030
#
# Velocity S-wave (km/s) = 3.12614 3.44125 3.28747
# Velocity P-wave (km/s) = 4.28063 4.67877 4.48412
#
# Compressibility (1/GPa) = 0.08958508
#
# Stress axis : x y z
#
# Youngs Moduli (GPa) = 31.21532 43.24019 26.06669
#
# Poissons Ratio (x) = 0.31310 -0.08712
# Poissons Ratio (y) = 0.22603 -0.05027
# Poissons Ratio (z) = -0.10432 -0.08340
#
# Static dielectric constant tensor:
#      x y z
#    x 3.492860 0.000000 0.000000 
#    y 0.000000 4.109640 0.000000 
#    z 0.000000 0.000000 4.299160 
# 
# 
# High freq. dielectric constant tensor:
#      x y z
#    x 1.799780 0.000000 0.000000 
#    y 0.000000 1.834940 0.000000 
#    z 0.000000 0.000000 1.808450 
# 
# From -- ./inp_files/6014.got.cif
#   From: 2010.03.12/outbox.cif.g09.slc.cpg/sg61_4_cif.got.tgz:6014.got - 2010.04.10 19:05:03.
