data_PCOD8249061
_publ_section_title
;
Structure prediction by ZEFSAII (Michael W. Deem and Ramdas Pophale) SiO2 
 PCOD8249061
Probable space group: P B C A
;
_chemical_formula_sum "Si O2"
_cell_formula_units_Z 48
_cell_length_a 14.832453
_cell_length_b 8.984716
_cell_length_c 16.234144
_cell_angle_alpha 90.000000
_cell_angle_beta 90.000000
_cell_angle_gamma 90.000000
_cell_volume 2163.449333
_symmetry_space_group_name_H-M "P B C A"
_symmetry_group_IT_number 61
_symmetry_cell_setting 'orthorhombic'
loop_
_space_group_symop_operation_xyz
x,y,z
1/2-x,-y,1/2+z
1/2+x,1/2-y,-z
-x,1/2+y,1/2-z
-x,-y,-z
1/2+x,y,1/2-z
1/2-x,1/2+y,z
x,1/2-y,1/2+z
loop_
_atom_site_type_symbol
_atom_site_label
_atom_site_fract_x
_atom_site_fract_y
_atom_site_fract_z
Si Si1 0.726254 0.167186 0.087423
Si Si2 0.940820 0.282282 0.312489
Si Si3 0.156025 0.236763 0.576014
Si Si4 0.589466 0.441435 0.284510
Si Si5 0.781126 0.416187 0.204094
Si Si6 0.832651 0.418128 0.440160
O O1 0.762822 0.319069 0.123655
O O2 0.687492 0.071601 0.163001
O O3 0.645362 0.198980 0.021674
O O4 0.812862 0.093140 0.038470
O O5 0.948239 0.105477 0.302441
O O6 0.861003 0.350277 0.257458
O O7 0.921292 0.328494 0.408191
O O8 0.033819 0.359354 0.286788
O O9 0.250473 0.165283 0.606789
O O10 0.158142 0.412887 0.590937
O O11 0.079648 0.158267 0.631921
O O12 0.692393 0.449530 0.256445
#
# Coordination Sequence:
#
# PCOD8249061 Si02
#       6
#     8   8   8   8   8   8
#     4  10  21  38  69  98 126 173 209 269 332 383
#     4  12  27  43  67  97 132 174 223 268 322 392
#     4  10  20  39  65  92 128 168 210 255 330 380
#     4  12  27  43  67  97 132 176 221 269 324 388
#     4  12  23  42  69  98 128 167 224 270 320 388
#     4  10  20  39  65  92 128 169 209 256 327 385
#
# _framework density 22.186790999999999
#
# number of rings (size 3 to 8) (size 9 to 14) (size 15 to 20)
#    1.000    0.000    5.000    2.000    7.000    0.000 
#    0.000    3.333    0.000    0.000    0.000    0.000 
#    0.000    0.000    0.000    0.000    0.000    0.000 
#
# Total GULP energy -594756.494233 kJ/mol
# GULP energy per Si atom -12390.760297 kJ/mol
# Density = 2.213629 g / cm^3
# Si number density = 22.186791 Si / 1000 Ang^3
#
#
#
# Elastic Constant Matrix: (Units=GPa)
#
#
# Indices 1 2 3 4 5 6 
#
# 1 21.8227 3.7278 -10.2579 0.0000 0.0000 0.0000
# 2 3.7278 128.4096 -1.1687 0.0000 0.0000 0.0000
# 3 -10.2579 -1.1687 51.8639 0.0000 0.0000 0.0000
# 4 0.0000 0.0000 0.0000 46.0442 0.0000 0.0000
# 5 0.0000 0.0000 0.0000 0.0000 17.1166 0.0000
# 6 0.0000 0.0000 0.0000 0.0000 0.0000 28.5717
#
#
#
# Elastic Compliance Matrix: (Units=1/GPa)
#
#
# Indices 1 2 3 4 5 6 
#
# 1 0.050765 -0.001383 0.010009 0.000000 0.000000 0.000000
# 2 -0.001383 0.007827 -0.000097 0.000000 0.000000 0.000000
# 3 0.010009 -0.000097 0.021259 0.000000 0.000000 0.000000
# 4 0.000000 0.000000 0.000000 0.021718 0.000000 0.000000
# 5 0.000000 0.000000 0.000000 0.000000 0.058423 0.000000
# 6 0.000000 0.000000 0.000000 0.000000 0.000000 0.035000
#
#
# Mechanical properties :
#
#
# Convention : Reuss Voigt Hill
#
# Bulk Modulus (GPa) = 10.31886 20.74430 15.53158
# Shear Modulus (GPa) = 23.78287 32.33283 28.05785
#
# Velocity S-wave (km/s) = 3.27760 3.82160 3.56001
# Velocity P-wave (km/s) = 4.35713 5.37057 4.89017
#
# Compressibility (1/GPa) = 0.09690989
#
# Stress axis : x y z
#
# Youngs Moduli (GPa) = 19.69860 127.76553 47.03947
#
# Poissons Ratio (x) = 0.17666 -0.47084
# Poissons Ratio (y) = 0.02724 0.00457
# Poissons Ratio (z) = -0.19717 0.01241
#
# Static dielectric constant tensor:
#      x y z
#    x 3.610750 0.000000 0.000000 
#    y 0.000000 4.067610 0.000000 
#    z 0.000000 0.000000 4.048040 
# 
# 
# High freq. dielectric constant tensor:
#      x y z
#    x 1.828870 0.000000 0.000000 
#    y 0.000000 1.891380 0.000000 
#    z 0.000000 0.000000 1.882550 
# 
# From -- ./inp_files/3431.got.cif
#   From: 2010.03.12/outbox.cif.g09.slc.cpg/sg61_2_cif.got.tgz:3431.got - 2010.04.10 19:05:03.
