data_PCOD8249915
_publ_section_title
;
Structure prediction by ZEFSAII (Michael W. Deem and Ramdas Pophale) SiO2 
 PCOD8249915
Probable space group: P B C A
;
_chemical_formula_sum "Si O2"
_cell_formula_units_Z 40
_cell_length_a 10.749795
_cell_length_b 20.747994
_cell_length_c 7.294563
_cell_angle_alpha 90.000000
_cell_angle_beta 90.000000
_cell_angle_gamma 90.000000
_cell_volume 1626.955129
_symmetry_space_group_name_H-M "P B C A"
_symmetry_group_IT_number 61
_symmetry_cell_setting 'orthorhombic'
loop_
_space_group_symop_operation_xyz
x,y,z
1/2-x,-y,1/2+z
1/2+x,1/2-y,-z
-x,1/2+y,1/2-z
-x,-y,-z
1/2+x,y,1/2-z
1/2-x,1/2+y,z
x,1/2-y,1/2+z
loop_
_atom_site_type_symbol
_atom_site_label
_atom_site_fract_x
_atom_site_fract_y
_atom_site_fract_z
Si Si1 0.542425 0.838805 0.274512
Si Si2 0.868221 0.946067 0.077421
Si Si3 0.286618 0.066251 0.590738
Si Si4 0.013367 0.804603 0.639997
Si Si5 0.268484 0.632756 0.233859
O O1 0.480448 0.898043 0.384294
O O2 0.681319 0.866010 0.304068
O O3 0.522376 0.772369 0.381185
O O4 0.503559 0.834096 0.063452
O O5 0.808875 0.968164 0.270864
O O6 0.769104 0.906028 0.955264
O O7 0.894835 0.012957 0.963105
O O8 0.217350 0.084282 0.403544
O O9 0.137684 0.828562 0.745077
O O10 0.889433 0.820513 0.755092
#
# Coordination Sequence:
#
# PCOD8249915 Si02
#       5
#     8   8   8   8   8
#     4  12  27  47  75 112 154 201 251 314 378 450
#     4  12  25  47  75 109 152 199 254 312 376 445
#     4  12  25  47  75 109 152 199 254 312 376 445
#     4  12  28  47  80 113 155 200 250 310 383 449
#     4  12  26  50  76 114 154 200 252 310 376 452
#
# _framework density 24.585802999999999
#
# number of rings (size 3 to 8) (size 9 to 14) (size 15 to 20)
#    0.000    0.000    6.000    4.200    2.800    3.200 
#    0.000    4.000    0.000    0.000    0.000    0.000 
#    0.000    0.000    0.000    0.000    0.000    0.000 
#
# Total GULP energy -495658.479966 kJ/mol
# GULP energy per Si atom -12391.461999 kJ/mol
# Density = 2.452984 g / cm^3
# Si number density = 24.585803 Si / 1000 Ang^3
#
#
#
# Elastic Constant Matrix: (Units=GPa)
#
#
# Indices 1 2 3 4 5 6 
#
# 1 84.2340 34.8102 21.4742 0.0000 0.0000 0.0000
# 2 34.8102 157.3670 48.7518 0.0000 0.0000 0.0000
# 3 21.4742 48.7518 114.7850 0.0000 0.0000 0.0000
# 4 0.0000 0.0000 0.0000 44.5767 0.0000 0.0000
# 5 0.0000 0.0000 0.0000 0.0000 27.5211 0.0000
# 6 0.0000 0.0000 0.0000 0.0000 0.0000 35.9348
#
#
#
# Elastic Compliance Matrix: (Units=1/GPa)
#
#
# Indices 1 2 3 4 5 6 
#
# 1 0.013265 -0.002494 -0.001423 0.000000 0.000000 0.000000
# 2 -0.002494 0.007786 -0.002840 0.000000 0.000000 0.000000
# 3 -0.001423 -0.002840 0.010184 0.000000 0.000000 0.000000
# 4 0.000000 0.000000 0.000000 0.022433 0.000000 0.000000
# 5 0.000000 0.000000 0.000000 0.000000 0.036336 0.000000
# 6 0.000000 0.000000 0.000000 0.000000 0.000000 0.027828
#
#
# Mechanical properties :
#
#
# Convention : Reuss Voigt Hill
#
# Bulk Modulus (GPa) = 56.42589 62.93982 59.68285
# Shear Modulus (GPa) = 36.42907 38.36318 37.39612
#
# Velocity S-wave (km/s) = 3.85348 3.95445 3.90429
# Velocity P-wave (km/s) = 6.54213 6.81952 6.68226
#
# Compressibility (1/GPa) = 0.01772236
#
# Stress axis : x y z
#
# Youngs Moduli (GPa) = 75.38737 128.43381 98.18872
#
# Poissons Ratio (x) = 0.32025 0.13968
# Poissons Ratio (y) = 0.18798 0.27890
# Poissons Ratio (z) = 0.10724 0.36481
#
# Static dielectric constant tensor:
#      x y z
#    x 4.116770 0.000000 0.000000 
#    y 0.000000 4.610700 0.000000 
#    z 0.000000 0.000000 4.333460 
# 
# 
# High freq. dielectric constant tensor:
#      x y z
#    x 1.962810 0.000000 0.000000 
#    y 0.000000 1.990770 0.000000 
#    z 0.000000 0.000000 1.995310 
# 
# From -- ./inp_files/2149.got.cif
#   From: 2010.03.12/outbox.cif.g09.slc.cpg/sg61_2_cif.got.tgz:2149.got - 2010.04.10 19:05:03.
