data_PCOD8249991
_publ_section_title
;
Structure prediction by ZEFSAII (Michael W. Deem and Ramdas Pophale) SiO2 
 PCOD8249991
Probable space group: P N M A
;
_chemical_formula_sum "Si O2"
_cell_formula_units_Z 64
_cell_length_a 14.912267
_cell_length_b 8.895702
_cell_length_c 27.936773
_cell_angle_alpha 90.000000
_cell_angle_beta 90.000000
_cell_angle_gamma 90.000000
_cell_volume 3705.954952
_symmetry_space_group_name_H-M "P N M A"
_symmetry_group_IT_number 62
_symmetry_cell_setting 'orthorhombic'
loop_
_space_group_symop_operation_xyz
x,y,z
1/2-x,-y,1/2+z
1/2+x,1/2-y,1/2-z
-x,1/2+y,-z
-x,-y,-z
1/2+x,y,1/2-z
1/2-x,1/2+y,1/2+z
x,1/2-y,z
loop_
_atom_site_type_symbol
_atom_site_label
_atom_site_fract_x
_atom_site_fract_y
_atom_site_fract_z
Si Si1 0.898398 0.928518 0.673900
Si Si2 0.722700 0.428953 0.365358
Si Si3 0.097680 0.572737 0.780908
Si Si4 0.595670 0.929096 0.826012
Si Si5 0.103029 0.072060 0.219692
Si Si6 0.094595 0.073365 0.944527
Si Si7 0.784094 0.428603 0.132230
Si Si8 0.909259 0.926713 0.945877
O O1 0.901274 0.750000 0.677165
O O2 0.875999 0.991016 0.727154
O O3 0.820417 0.978181 0.637152
O O4 0.997046 0.987998 0.657281
O O5 0.719754 0.250000 0.363862
O O6 0.826341 0.485487 0.362379
O O7 0.670899 0.496517 0.319261
O O8 0.674374 0.484906 0.413857
O O9 0.109289 0.750000 0.779765
O O10 0.118466 0.510682 0.727538
O O11 0.165030 0.507556 0.820736
O O12 0.997276 0.526355 0.795921
O O13 0.593646 0.750000 0.824535
O O14 0.113143 0.250000 0.220387
O O15 0.091920 0.250000 0.936738
O O16 0.176571 0.004359 0.915003
O O17 0.112451 0.029437 0.999675
O O18 0.999885 0.005655 0.927501
O O19 0.794666 0.250000 0.127567
O O20 0.924848 0.750000 0.939614
#
# Coordination Sequence:
#
# PCOD8249991 Si02
#       8
#     8   8   8   8   8   8   8   8
#     4   8  14  22  33  56  90 118 137 165 205 244
#     4   9  14  21  38  61  84 110 138 170 209 251
#     4   8  13  20  33  58  90 115 135 167 209 249
#     4   8  13  21  34  59  92 115 135 172 216 246
#     4   8  12  18  30  54  87 113 132 161 205 251
#     4  10  20  32  45  63  87 111 136 171 214 257
#     4  10  17  26  43  64  86 114 145 172 202 245
#     4   9  18  32  48  66  86 108 136 171 214 261
#
# _framework density 17.269501999999999
#
# number of rings (size 3 to 8) (size 9 to 14) (size 15 to 20)
#    0.000    3.250    0.000    3.375    0.000    5.500 
#    0.000    0.000    0.000    0.750    0.000   14.875 
#    0.000    0.000    0.000    0.000    0.000    0.375 
#
# Total GULP energy -792980.589546 kJ/mol
# GULP energy per Si atom -12390.321712 kJ/mol
# Density = 1.723020 g / cm^3
# Si number density = 17.269502 Si / 1000 Ang^3
#
#
#
# Elastic Constant Matrix: (Units=GPa)
#
#
# Indices 1 2 3 4 5 6 
#
# 1 159.8406 19.2594 83.4996 0.0000 0.0000 0.0000
# 2 19.2594 15.1835 17.1029 0.0000 0.0000 0.0000
# 3 83.4996 17.1029 91.6429 0.0000 0.0000 0.0000
# 4 0.0000 0.0000 0.0000 13.3549 0.0000 0.0000
# 5 0.0000 0.0000 0.0000 0.0000 32.9247 0.0000
# 6 0.0000 0.0000 0.0000 0.0000 0.0000 9.2174
#
#
#
# Elastic Compliance Matrix: (Units=1/GPa)
#
#
# Indices 1 2 3 4 5 6 
#
# 1 0.012102 -0.003710 -0.010334 0.000000 0.000000 0.000000
# 2 -0.003710 0.084528 -0.012395 0.000000 0.000000 0.000000
# 3 -0.010334 -0.012395 0.022641 0.000000 0.000000 0.000000
# 4 0.000000 0.000000 0.000000 0.074879 0.000000 0.000000
# 5 0.000000 0.000000 0.000000 0.000000 0.030372 0.000000
# 6 0.000000 0.000000 0.000000 0.000000 0.000000 0.108491
#
#
# Mechanical properties :
#
#
# Convention : Reuss Voigt Hill
#
# Bulk Modulus (GPa) = 15.06176 56.26563 35.66370
# Shear Modulus (GPa) = 12.25428 20.88642 16.57035
#
# Velocity S-wave (km/s) = 2.66670 3.48147 3.10096
# Velocity P-wave (km/s) = 4.26876 6.98660 5.78942
#
# Compressibility (1/GPa) = 0.06639329
#
# Stress axis : x y z
#
# Youngs Moduli (GPa) = 82.63381 11.83036 44.16821
#
# Poissons Ratio (x) = 0.04389 0.45643
# Poissons Ratio (y) = 0.30657 0.54746
# Poissons Ratio (z) = 0.85393 0.14664
#
# Static dielectric constant tensor:
#      x y z
#    x 3.614930 0.000000 0.000000 
#    y 0.000000 2.585260 0.000000 
#    z 0.000000 0.000000 3.298600 
# 
# 
# High freq. dielectric constant tensor:
#      x y z
#    x 1.675950 0.000000 0.000000 
#    y 0.000000 1.597040 0.000000 
#    z 0.000000 0.000000 1.650100 
# 
# From -- ./inp_files/32681.got.cif
#   From: 2010.03.12/outbox.cif.g09.slc.cpg/sg62_17_cif.got.tgz:32681.got - 2010.04.10 19:12:36.
