data_PCOD8249512
_publ_section_title
;
Structure prediction by ZEFSAII (Michael W. Deem and Ramdas Pophale) SiO2 
 PCOD8249512
Probable space group: P B C A
;
_chemical_formula_sum "Si O2"
_cell_formula_units_Z 48
_cell_length_a 15.867135
_cell_length_b 18.104566
_cell_length_c 8.592551
_cell_angle_alpha 90.000000
_cell_angle_beta 90.000000
_cell_angle_gamma 90.000000
_cell_volume 2468.361442
_symmetry_space_group_name_H-M "P B C A"
_symmetry_group_IT_number 61
_symmetry_cell_setting 'orthorhombic'
loop_
_space_group_symop_operation_xyz
x,y,z
1/2-x,-y,1/2+z
1/2+x,1/2-y,-z
-x,1/2+y,1/2-z
-x,-y,-z
1/2+x,y,1/2-z
1/2-x,1/2+y,z
x,1/2-y,1/2+z
loop_
_atom_site_type_symbol
_atom_site_label
_atom_site_fract_x
_atom_site_fract_y
_atom_site_fract_z
Si Si1 0.498027 0.079973 0.062964
Si Si2 0.768666 0.454343 0.323048
Si Si3 0.934323 0.959368 0.890331
Si Si4 0.840942 0.662845 0.997411
Si Si5 0.189811 0.588994 0.021377
Si Si6 0.170464 0.177953 0.134368
O O1 0.514802 0.073170 0.245028
O O2 0.569383 0.124312 0.970249
O O3 0.407263 0.113699 0.020566
O O4 0.500000 0.000000 0.000000
O O5 0.864293 0.477890 0.360804
O O6 0.736188 0.383349 0.421152
O O7 0.769854 0.436774 0.141130
O O8 0.705397 0.522566 0.355254
O O9 0.888338 0.884367 0.951080
O O10 0.000000 0.000000 0.000000
O O11 0.826808 0.670307 0.180361
O O12 0.854776 0.740657 0.914344
O O13 0.235200 0.663745 0.074755
#
# Coordination Sequence:
#
# PCOD8249512 Si02
#       6
#     8   8   8   8   8   8
#     4  11  21  40  64  94 127 160 208 261 311 366
#     4  11  21  37  63  89 123 160 207 247 312 370
#     4  10  23  38  62  95 120 161 208 258 313 369
#     4  11  23  44  63  89 126 167 206 262 316 378
#     4  11  22  39  63  95 122 167 206 257 310 374
#     4  10  24  42  62  89 124 165 209 254 323 373
#
# _framework density 19.446097999999999
#
# number of rings (size 3 to 8) (size 9 to 14) (size 15 to 20)
#    0.000    1.333    3.333    3.000    7.000    1.333 
#    3.000    1.667    0.000    0.000    0.000    0.000 
#    0.000    0.000    0.000    0.000    0.000    0.000 
#
# Total GULP energy -594846.133423 kJ/mol
# GULP energy per Si atom -12392.627780 kJ/mol
# Density = 1.940184 g / cm^3
# Si number density = 19.446098 Si / 1000 Ang^3
#
#
#
# Elastic Constant Matrix: (Units=GPa)
#
#
# Indices 1 2 3 4 5 6 
#
# 1 119.6422 55.1428 52.0102 0.0000 0.0000 0.0000
# 2 55.1428 129.9867 42.5952 0.0000 0.0000 0.0000
# 3 52.0102 42.5952 81.4857 0.0000 0.0000 0.0000
# 4 0.0000 0.0000 0.0000 33.8063 0.0000 0.0000
# 5 0.0000 0.0000 0.0000 0.0000 33.2280 0.0000
# 6 0.0000 0.0000 0.0000 0.0000 0.0000 31.3377
#
#
#
# Elastic Compliance Matrix: (Units=1/GPa)
#
#
# Indices 1 2 3 4 5 6 
#
# 1 0.012628 -0.003277 -0.006347 0.000000 0.000000 0.000000
# 2 -0.003277 0.010134 -0.003206 0.000000 0.000000 0.000000
# 3 -0.006347 -0.003206 0.017999 0.000000 0.000000 0.000000
# 4 0.000000 0.000000 0.000000 0.029580 0.000000 0.000000
# 5 0.000000 0.000000 0.000000 0.000000 0.030095 0.000000
# 6 0.000000 0.000000 0.000000 0.000000 0.000000 0.031910
#
#
# Mechanical properties :
#
#
# Convention : Reuss Voigt Hill
#
# Bulk Modulus (GPa) = 66.22007 70.06788 68.14397
# Shear Modulus (GPa) = 30.66753 31.76551 31.21652
#
# Velocity S-wave (km/s) = 3.97552 4.04606 4.01095
# Velocity P-wave (km/s) = 7.42968 7.61167 7.52122
#
# Compressibility (1/GPa) = 0.01510116
#
# Stress axis : x y z
#
# Youngs Moduli (GPa) = 79.19055 98.68040 55.55930
#
# Poissons Ratio (x) = 0.32339 0.35263
# Poissons Ratio (y) = 0.25952 0.17810
# Poissons Ratio (z) = 0.50262 0.31632
#
# Static dielectric constant tensor:
#      x y z
#    x 3.557370 0.000000 0.000000 
#    y 0.000000 3.611700 0.000000 
#    z 0.000000 0.000000 3.516730 
# 
# 
# High freq. dielectric constant tensor:
#      x y z
#    x 1.766670 0.000000 0.000000 
#    y 0.000000 1.750420 0.000000 
#    z 0.000000 0.000000 1.760230 
# 
# From -- ./inp_files/2830.got.cif
#   From: 2010.03.12/outbox.cif.g09.slc.cpg/sg61_2_cif.got.tgz:2830.got - 2010.04.10 19:05:03.
