data_PCOD8249415
_publ_section_title
;
Structure prediction by ZEFSAII (Michael W. Deem and Ramdas Pophale) SiO2 
 PCOD8249415
Probable space group: P B C A
;
_chemical_formula_sum "Si O2"
_cell_formula_units_Z 56
_cell_length_a 19.435549
_cell_length_b 14.639302
_cell_length_c 8.841631
_cell_angle_alpha 90.000000
_cell_angle_beta 90.000000
_cell_angle_gamma 90.000000
_cell_volume 2515.646240
_symmetry_space_group_name_H-M "P B C A"
_symmetry_group_IT_number 61
_symmetry_cell_setting 'orthorhombic'
loop_
_space_group_symop_operation_xyz
x,y,z
1/2-x,-y,1/2+z
1/2+x,1/2-y,-z
-x,1/2+y,1/2-z
-x,-y,-z
1/2+x,y,1/2-z
1/2-x,1/2+y,z
x,1/2-y,1/2+z
loop_
_atom_site_type_symbol
_atom_site_label
_atom_site_fract_x
_atom_site_fract_y
_atom_site_fract_z
Si Si1 0.914378 0.914399 0.867165
Si Si2 0.266543 0.636444 0.697570
Si Si3 0.635156 0.595354 0.972731
Si Si4 0.518457 0.872809 0.863448
Si Si5 0.476443 0.277959 0.926750
Si Si6 0.774849 0.828772 0.949799
Si Si7 0.338459 0.449728 0.693805
O O1 0.835282 0.883369 0.864655
O O2 0.947845 0.919369 0.697210
O O3 0.958591 0.843441 0.969691
O O4 0.919035 0.014966 0.937247
O O5 0.188264 0.605550 0.665396
O O6 0.282183 0.722470 0.590670
O O7 0.315601 0.552222 0.652520
O O8 0.278818 0.663879 0.870095
O O9 0.592981 0.688573 0.990998
O O10 0.673896 0.569211 0.128557
O O11 0.535477 0.785572 0.753614
O O12 0.581351 0.943856 0.855266
O O13 0.508733 0.827453 0.028499
O O14 0.703373 0.872866 0.897101
#
# Coordination Sequence:
#
# PCOD8249415 Si02
#       7
#     8   8   8   8   8   8   8
#     4  10  22  40  66  93 127 171 219 271 332 394
#     4  12  25  42  67  97 135 176 222 279 331 402
#     4  11  21  43  69  94 126 181 220 274 333 391
#     4   9  22  38  66  95 132 169 222 265 334 393
#     4   9  21  38  66  93 127 168 222 265 326 400
#     4  12  26  41  69  99 135 174 226 275 343 389
#     4  11  22  44  67  98 131 174 224 278 328 400
#
# _framework density 22.260683
#
# number of rings (size 3 to 8) (size 9 to 14) (size 15 to 20)
#    0.857    0.571    2.857    2.143    2.000    3.429 
#    0.000    0.000    0.000    2.571    0.000    0.000 
#    0.000    0.000    0.000    0.000    0.000    0.000 
#
# Total GULP energy -694122.261968 kJ/mol
# GULP energy per Si atom -12395.040392 kJ/mol
# Density = 2.221002 g / cm^3
# Si number density = 22.260683 Si / 1000 Ang^3
#
#
#
# Elastic Constant Matrix: (Units=GPa)
#
#
# Indices 1 2 3 4 5 6 
#
# 1 65.5726 -7.9068 -5.0915 0.0000 0.0000 0.0000
# 2 -7.9068 75.7661 18.3957 0.0000 0.0000 0.0000
# 3 -5.0915 18.3957 29.5512 0.0000 0.0000 0.0000
# 4 0.0000 0.0000 0.0000 31.3783 0.0000 0.0000
# 5 0.0000 0.0000 0.0000 0.0000 30.6176 0.0000
# 6 0.0000 0.0000 0.0000 0.0000 0.0000 27.7666
#
#
#
# Elastic Compliance Matrix: (Units=1/GPa)
#
#
# Indices 1 2 3 4 5 6 
#
# 1 0.015541 0.001145 0.001965 0.000000 0.000000 0.000000
# 2 0.001145 0.015633 -0.009534 0.000000 0.000000 0.000000
# 3 0.001965 -0.009534 0.040113 0.000000 0.000000 0.000000
# 4 0.000000 0.000000 0.000000 0.031869 0.000000 0.000000
# 5 0.000000 0.000000 0.000000 0.000000 0.032661 0.000000
# 6 0.000000 0.000000 0.000000 0.000000 0.000000 0.036014
#
#
# Mechanical properties :
#
#
# Convention : Reuss Voigt Hill
#
# Bulk Modulus (GPa) = 17.11221 20.18722 18.64971
# Shear Modulus (GPa) = 24.49062 28.98534 26.73798
#
# Velocity S-wave (km/s) = 3.32048 3.61236 3.46949
# Velocity P-wave (km/s) = 4.73336 5.14656 4.94428
#
# Compressibility (1/GPa) = 0.05843781
#
# Stress axis : x y z
#
# Youngs Moduli (GPa) = 64.34644 63.96786 24.92946
#
# Poissons Ratio (x) = -0.07322 -0.04899
# Poissons Ratio (y) = -0.07366 0.23768
# Poissons Ratio (z) = -0.12644 0.60989
#
# Static dielectric constant tensor:
#      x y z
#    x 3.902270 0.000000 0.000000 
#    y 0.000000 3.931780 0.000000 
#    z 0.000000 0.000000 3.784880 
# 
# 
# High freq. dielectric constant tensor:
#      x y z
#    x 1.877670 0.000000 0.000000 
#    y 0.000000 1.876380 0.000000 
#    z 0.000000 0.000000 1.859450 
# 
# From -- ./inp_files/3977.got.cif
#   From: 2010.03.12/outbox.cif.g09.slc.cpg/sg61_2_cif.got.tgz:3977.got - 2010.04.10 19:05:03.
