data_PCOD8249674
_publ_section_title
;
Structure prediction by ZEFSAII (Michael W. Deem and Ramdas Pophale) SiO2 
 PCOD8249674
Probable space group: P B C A
;
_chemical_formula_sum "Si O2"
_cell_formula_units_Z 40
_cell_length_a 12.375482
_cell_length_b 12.681438
_cell_length_c 9.188115
_cell_angle_alpha 90.000000
_cell_angle_beta 90.000000
_cell_angle_gamma 90.000000
_cell_volume 1441.972732
_symmetry_space_group_name_H-M "P B C A"
_symmetry_group_IT_number 61
_symmetry_cell_setting 'orthorhombic'
loop_
_space_group_symop_operation_xyz
x,y,z
1/2-x,-y,1/2+z
1/2+x,1/2-y,-z
-x,1/2+y,1/2-z
-x,-y,-z
1/2+x,y,1/2-z
1/2-x,1/2+y,z
x,1/2-y,1/2+z
loop_
_atom_site_type_symbol
_atom_site_label
_atom_site_fract_x
_atom_site_fract_y
_atom_site_fract_z
Si Si1 0.787648 0.035010 0.337973
Si Si2 0.884016 0.201175 0.535752
Si Si3 0.919063 0.674113 0.455410
Si Si4 0.297737 0.810587 0.246725
Si Si5 0.132558 0.571590 0.472739
O O1 0.872595 0.103706 0.427172
O O2 0.789901 0.061707 0.168265
O O3 0.815469 0.911204 0.359681
O O4 0.666217 0.030622 0.421387
O O5 0.010402 0.218292 0.570461
O O6 0.823384 0.185991 0.688736
O O7 0.838571 0.311633 0.459927
O O8 0.004644 0.575551 0.430768
O O9 0.880823 0.673069 0.621037
O O10 0.819728 0.697258 0.338400
#
# Coordination Sequence:
#
# PCOD8249674 Si02
#       5
#     8   8   8   8   8
#     4  12  24  46  77 114 144 209 256 312 386 466
#     4  10  26  48  74 109 161 195 252 323 381 446
#     4  10  27  47  76 114 152 202 254 319 381 460
#     4  12  25  46  78 112 147 210 253 305 399 449
#     4  10  26  45  77 108 155 196 252 322 375 450
#
# _framework density 27.739775000000002
#
# number of rings (size 3 to 8) (size 9 to 14) (size 15 to 20)
#    1.200    0.000    2.000    2.400    8.400    1.600 
#    0.000    4.000    0.000    0.000    0.000    0.000 
#    0.000    0.000    0.000    0.000    0.000    0.000 
#
# Total GULP energy -495720.528420 kJ/mol
# GULP energy per Si atom -12393.013211 kJ/mol
# Density = 2.767664 g / cm^3
# Si number density = 27.739775 Si / 1000 Ang^3
#
#
#
# Elastic Constant Matrix: (Units=GPa)
#
#
# Indices 1 2 3 4 5 6 
#
# 1 118.7726 16.2476 29.9838 0.0000 0.0000 0.0000
# 2 16.2476 134.6078 56.2381 0.0000 0.0000 0.0000
# 3 29.9838 56.2381 127.7157 0.0000 0.0000 0.0000
# 4 0.0000 0.0000 0.0000 56.1938 0.0000 0.0000
# 5 0.0000 0.0000 0.0000 0.0000 16.0196 0.0000
# 6 0.0000 0.0000 0.0000 0.0000 0.0000 37.3354
#
#
#
# Elastic Compliance Matrix: (Units=1/GPa)
#
#
# Indices 1 2 3 4 5 6 
#
# 1 0.008957 -0.000248 -0.001993 0.000000 0.000000 0.000000
# 2 -0.000248 0.009111 -0.003954 0.000000 0.000000 0.000000
# 3 -0.001993 -0.003954 0.010039 0.000000 0.000000 0.000000
# 4 0.000000 0.000000 0.000000 0.017796 0.000000 0.000000
# 5 0.000000 0.000000 0.000000 0.000000 0.062423 0.000000
# 6 0.000000 0.000000 0.000000 0.000000 0.000000 0.026784
#
#
# Mechanical properties :
#
#
# Convention : Reuss Voigt Hill
#
# Bulk Modulus (GPa) = 63.63054 65.11501 64.37277
# Shear Modulus (GPa) = 32.73574 40.48487 36.61030
#
# Velocity S-wave (km/s) = 3.43899 3.82442 3.63681
# Velocity P-wave (km/s) = 6.22551 6.55943 6.39465
#
# Compressibility (1/GPa) = 0.01571573
#
# Stress axis : x y z
#
# Youngs Moduli (GPa) = 111.64889 109.76099 99.61378
#
# Poissons Ratio (x) = 0.02725 0.19857
# Poissons Ratio (y) = 0.02772 0.39382
# Poissons Ratio (z) = 0.22257 0.43394
#
# Static dielectric constant tensor:
#      x y z
#    x 5.459580 0.000000 0.000000 
#    y 0.000000 5.819420 0.000000 
#    z 0.000000 0.000000 4.767490 
# 
# 
# High freq. dielectric constant tensor:
#      x y z
#    x 2.135930 0.000000 0.000000 
#    y 0.000000 2.177240 0.000000 
#    z 0.000000 0.000000 2.108430 
# 
# From -- ./inp_files/2656.got.cif
#   From: 2010.03.12/outbox.cif.g09.slc.cpg/sg61_2_cif.got.tgz:2656.got - 2010.04.10 19:05:03.
