data_PCOD8249011
_publ_section_title
;
Structure prediction by ZEFSAII (Michael W. Deem and Ramdas Pophale) SiO2 
 PCOD8249011
Probable space group: P B C A
;
_chemical_formula_sum "Si O2"
_cell_formula_units_Z 56
_cell_length_a 26.661530
_cell_length_b 5.045838
_cell_length_c 21.924244
_cell_angle_alpha 90.000000
_cell_angle_beta 90.000000
_cell_angle_gamma 90.000000
_cell_volume 2949.463310
_symmetry_space_group_name_H-M "P B C A"
_symmetry_group_IT_number 61
_symmetry_cell_setting 'orthorhombic'
loop_
_space_group_symop_operation_xyz
x,y,z
1/2-x,-y,1/2+z
1/2+x,1/2-y,-z
-x,1/2+y,1/2-z
-x,-y,-z
1/2+x,y,1/2-z
1/2-x,1/2+y,z
x,1/2-y,1/2+z
loop_
_atom_site_type_symbol
_atom_site_label
_atom_site_fract_x
_atom_site_fract_y
_atom_site_fract_z
Si Si1 0.608560 0.068459 0.070732
Si Si2 0.942422 0.074632 0.122481
Si Si3 0.279584 0.038716 0.927444
Si Si4 0.442469 0.074111 0.622472
Si Si5 0.966817 0.249917 0.250018
Si Si6 0.779585 0.038689 0.427382
Si Si7 0.108542 0.432082 0.070771
O O1 0.571927 0.818346 0.078936
O O2 0.663537 0.991217 0.095544
O O3 0.390645 0.849684 0.000037
O O4 0.591382 0.320503 0.109369
O O5 0.999959 0.999888 0.110565
O O6 0.933115 0.160808 0.192699
O O7 0.255955 0.307596 0.901586
O O8 0.279411 0.037477 0.000031
O O9 0.433145 0.160823 0.692652
O O10 0.427979 0.317231 0.578819
O O11 0.408793 0.819354 0.609514
O O12 0.000014 0.499842 0.228052
O O13 0.755938 0.307518 0.401520
O O14 0.836464 0.008830 0.404392
#
# Coordination Sequence:
#
# PCOD8249011 Si02
#       7
#     8   8   8   8   8   8   8
#     4  11  22  34  52  82 113 140 172 209 266 331
#     4  11  22  36  54  77 107 143 178 217 258 305
#     4   9  17  31  50  72 101 136 174 215 253 298
#     4  11  22  36  54  77 107 143 178 217 258 305
#     4  10  20  38  58  74  96 136 192 232 248 282
#     4   9  17  31  50  72 101 136 174 215 253 298
#     4  11  22  34  52  82 113 140 172 209 266 331
#
# _framework density 18.986502999999999
#
# number of rings (size 3 to 8) (size 9 to 14) (size 15 to 20)
#    0.000    1.714    0.000    6.857    0.000    8.000 
#    0.000    0.000    0.000    0.000    0.000   20.000 
#    0.000    0.000    0.000    0.000    0.000    0.000 
#
# Total GULP energy -694480.280267 kJ/mol
# GULP energy per Si atom -12401.433576 kJ/mol
# Density = 1.894329 g / cm^3
# Si number density = 18.986503 Si / 1000 Ang^3
#
#
#
# Elastic Constant Matrix: (Units=GPa)
#
#
# Indices 1 2 3 4 5 6 
#
# 1 81.8455 24.8444 39.9354 0.0000 0.0000 0.0000
# 2 24.8444 114.8407 17.8144 0.0000 0.0000 0.0000
# 3 39.9354 17.8144 49.0630 0.0000 0.0000 0.0000
# 4 0.0000 0.0000 0.0000 31.2484 0.0000 0.0000
# 5 0.0000 0.0000 0.0000 0.0000 -4.5466 0.0000
# 6 0.0000 0.0000 0.0000 0.0000 0.0000 39.9104
#
#
#
# Elastic Compliance Matrix: (Units=1/GPa)
#
#
# Indices 1 2 3 4 5 6 
#
# 1 0.020682 -0.001974 -0.016117 0.000000 0.000000 0.000000
# 2 -0.001974 0.009416 -0.001812 0.000000 0.000000 0.000000
# 3 -0.016117 -0.001812 0.034159 0.000000 0.000000 0.000000
# 4 0.000000 0.000000 0.000000 0.032002 0.000000 0.000000
# 5 0.000000 0.000000 0.000000 0.000000 -0.219943 0.000000
# 6 0.000000 0.000000 0.000000 0.000000 0.000000 0.025056
#
#
# Mechanical properties :
#
#
# Convention : Reuss Voigt Hill
#
# Bulk Modulus (GPa) = 40.90061 45.65972 43.28017
# Shear Modulus (GPa) = -98.67165 24.19944 -37.23610
#
# Velocity S-wave (km/s) = -7.21680 3.57397 -4.43333
# Velocity P-wave (km/s) = 6.91767 6.41340 1.83337
#
# Compressibility (1/GPa) = 0.02444951
#
# Stress axis : x y z
#
# Youngs Moduli (GPa) = 48.35228 106.20375 29.27513
#
# Poissons Ratio (x) = 0.20965 0.47183
# Poissons Ratio (y) = 0.09545 0.05305
# Poissons Ratio (z) = 0.77930 0.19244
#
# Static dielectric constant tensor:
#      x y z
#    x 3.554250 0.000000 0.000000 
#    y 0.000000 3.810320 0.000000 
#    z 0.000000 0.000000 3.203260 
# 
# 
# High freq. dielectric constant tensor:
#      x y z
#    x 1.732900 0.000000 0.000000 
#    y 0.000000 1.766380 0.000000 
#    z 0.000000 0.000000 1.696320 
# 
# From -- ./inp_files/11157.got.cif
#   From: 2010.03.12/outbox.cif.g09.slc.cpg/sg61_6_cif.got.tgz:11157.got - 2010.04.10 19:05:03.
