data_PCOD8249817
_publ_section_title
;
Structure prediction by ZEFSAII (Michael W. Deem and Ramdas Pophale) SiO2 
 PCOD8249817
Probable space group: P B C A
;
_chemical_formula_sum "Si O2"
_cell_formula_units_Z 48
_cell_length_a 16.990440
_cell_length_b 11.988979
_cell_length_c 8.610679
_cell_angle_alpha 90.000000
_cell_angle_beta 90.000000
_cell_angle_gamma 90.000000
_cell_volume 1753.978335
_symmetry_space_group_name_H-M "P B C A"
_symmetry_group_IT_number 61
_symmetry_cell_setting 'orthorhombic'
loop_
_space_group_symop_operation_xyz
x,y,z
1/2-x,-y,1/2+z
1/2+x,1/2-y,-z
-x,1/2+y,1/2-z
-x,-y,-z
1/2+x,y,1/2-z
1/2-x,1/2+y,z
x,1/2-y,1/2+z
loop_
_atom_site_type_symbol
_atom_site_label
_atom_site_fract_x
_atom_site_fract_y
_atom_site_fract_z
Si Si1 0.135253 0.163249 0.753835
Si Si2 0.889067 0.268247 0.549428
Si Si3 0.770045 0.976139 0.455308
Si Si4 0.216141 0.691445 0.205889
Si Si5 0.057094 0.141248 0.081354
Si Si6 0.639957 0.546666 0.741657
O O1 0.219713 0.221300 0.764521
O O2 0.074141 0.245141 0.672487
O O3 0.150790 0.057409 0.641132
O O4 0.107196 0.126719 0.923952
O O5 0.862852 0.241604 0.375362
O O6 0.821823 0.346840 0.630467
O O7 0.965907 0.345921 0.537180
O O8 0.896210 0.147817 0.641292
O O9 0.745328 0.102727 0.409714
O O10 0.692033 0.909704 0.391593
O O11 0.795705 0.973272 0.637002
O O12 0.071084 0.035490 0.196023
#
# Coordination Sequence:
#
# PCOD8249817 Si02
#       6
#     8   8   8   8   8   8
#     4  12  24  44  75 109 146 199 255 310 366 446
#     4  11  26  47  73 109 154 195 244 310 383 447
#     4  11  24  42  76 112 145 192 261 309 370 439
#     4  11  24  44  73 107 146 196 248 310 367 441
#     4  12  26  47  74 111 152 199 247 309 385 449
#     4  11  24  46  75 114 152 198 249 316 375 447
#
# _framework density 27.366358999999999
#
# number of rings (size 3 to 8) (size 9 to 14) (size 15 to 20)
#    0.000    0.667    3.333    4.000    2.333    2.667 
#    0.000    6.667    0.000    0.000    0.000    0.000 
#    0.000    0.000    0.000    0.000    0.000    0.000 
#
# Total GULP energy -594668.372460 kJ/mol
# GULP energy per Si atom -12388.924426 kJ/mol
# Density = 2.730407 g / cm^3
# Si number density = 27.366359 Si / 1000 Ang^3
#
#
#
# Elastic Constant Matrix: (Units=GPa)
#
#
# Indices 1 2 3 4 5 6 
#
# 1 97.8984 -9.4782 18.7595 0.0000 0.0000 0.0000
# 2 -9.4782 52.7551 1.9474 0.0000 0.0000 0.0000
# 3 18.7595 1.9474 135.2313 0.0000 0.0000 0.0000
# 4 0.0000 0.0000 0.0000 50.7676 0.0000 0.0000
# 5 0.0000 0.0000 0.0000 0.0000 39.1377 0.0000
# 6 0.0000 0.0000 0.0000 0.0000 0.0000 40.5410
#
#
#
# Elastic Compliance Matrix: (Units=1/GPa)
#
#
# Indices 1 2 3 4 5 6 
#
# 1 0.010696 0.001977 -0.001512 0.000000 0.000000 0.000000
# 2 0.001977 0.019331 -0.000553 0.000000 0.000000 0.000000
# 3 -0.001512 -0.000553 0.007612 0.000000 0.000000 0.000000
# 4 0.000000 0.000000 0.000000 0.019698 0.000000 0.000000
# 5 0.000000 0.000000 0.000000 0.000000 0.025551 0.000000
# 6 0.000000 0.000000 0.000000 0.000000 0.000000 0.024666
#
#
# Mechanical properties :
#
#
# Convention : Reuss Voigt Hill
#
# Bulk Modulus (GPa) = 26.69177 34.26022 30.47599
# Shear Modulus (GPa) = 41.59131 44.39969 42.99550
#
# Velocity S-wave (km/s) = 3.90269 4.03230 3.96802
# Velocity P-wave (km/s) = 5.48476 5.85026 5.67045
#
# Compressibility (1/GPa) = 0.03746474
#
# Stress axis : x y z
#
# Youngs Moduli (GPa) = 93.49370 51.72984 131.36335
#
# Poissons Ratio (x) = -0.10230 0.19865
# Poissons Ratio (y) = -0.18488 0.07260
# Poissons Ratio (z) = 0.14138 0.02859
#
# Static dielectric constant tensor:
#      x y z
#    x 4.699700 0.000000 0.000000 
#    y 0.000000 5.199730 0.000000 
#    z 0.000000 0.000000 5.225260 
# 
# 
# High freq. dielectric constant tensor:
#      x y z
#    x 2.082830 0.000000 0.000000 
#    y 0.000000 2.121770 0.000000 
#    z 0.000000 0.000000 2.138030 
# 
# From -- ./inp_files/3434.got.cif
#   From: 2010.03.12/outbox.cif.g09.slc.cpg/sg61_2_cif.got.tgz:3434.got - 2010.04.10 19:05:03.
