data_PCOD8249139
_publ_section_title
;
Structure prediction by ZEFSAII (Michael W. Deem and Ramdas Pophale) SiO2 
 PCOD8249139
Probable space group: P B C A
;
_chemical_formula_sum "Si O2"
_cell_formula_units_Z 40
_cell_length_a 17.403983
_cell_length_b 5.320205
_cell_length_c 19.005848
_cell_angle_alpha 90.000000
_cell_angle_beta 90.000000
_cell_angle_gamma 90.000000
_cell_volume 1759.803873
_symmetry_space_group_name_H-M "P B C A"
_symmetry_group_IT_number 61
_symmetry_cell_setting 'orthorhombic'
loop_
_space_group_symop_operation_xyz
x,y,z
1/2-x,-y,1/2+z
1/2+x,1/2-y,-z
-x,1/2+y,1/2-z
-x,-y,-z
1/2+x,y,1/2-z
1/2-x,1/2+y,z
x,1/2-y,1/2+z
loop_
_atom_site_type_symbol
_atom_site_label
_atom_site_fract_x
_atom_site_fract_y
_atom_site_fract_z
Si Si1 0.785552 0.209492 0.854557
Si Si2 0.408383 0.227079 0.248804
Si Si3 0.456011 0.749368 0.475302
Si Si4 0.571763 0.272878 0.688719
Si Si5 0.221596 0.233224 0.491114
O O1 0.738564 0.442515 0.821471
O O2 0.873033 0.253718 0.829966
O O3 0.773840 0.206154 0.938264
O O4 0.382814 0.466876 0.296688
O O5 0.499351 0.217827 0.240830
O O6 0.379712 0.974566 0.289172
O O7 0.500000 0.500000 0.500000
O O8 0.451432 0.748863 0.391898
O O9 0.369299 0.747876 0.506956
O O10 0.500000 0.000000 0.500000
O O11 0.254288 0.477808 0.449317
#
# Coordination Sequence:
#
# PCOD8249139 Si02
#       5
#     8   8   8   8   8
#     4  10  21  35  63  92 126 163 228 269 324 390
#     4  10  21  41  62  92 130 169 220 266 333 392
#     4  12  26  42  70 103 139 182 229 278 350 405
#     4  10  23  40  64  94 133 169 213 278 327 393
#     4  10  23  42  63  97 132 177 222 285 330 402
#
# _framework density 22.729804999999999
#
# number of rings (size 3 to 8) (size 9 to 14) (size 15 to 20)
#    0.000    1.600    0.000    3.600   11.200    0.000 
#    0.000    6.000    0.000    0.000    0.000    0.000 
#    0.000    0.000    0.000    0.000    0.000    0.000 
#
# Total GULP energy -495541.370412 kJ/mol
# GULP energy per Si atom -12388.534260 kJ/mol
# Density = 2.267807 g / cm^3
# Si number density = 22.729805 Si / 1000 Ang^3
#
#
#
# Elastic Constant Matrix: (Units=GPa)
#
#
# Indices 1 2 3 4 5 6 
#
# 1 68.1239 32.1365 -8.4458 0.0000 0.0000 0.0000
# 2 32.1365 225.2731 25.6558 0.0000 0.0000 0.0000
# 3 -8.4458 25.6558 88.9748 0.0000 0.0000 0.0000
# 4 0.0000 0.0000 0.0000 18.6627 0.0000 0.0000
# 5 0.0000 0.0000 0.0000 0.0000 37.8683 0.0000
# 6 0.0000 0.0000 0.0000 0.0000 0.0000 33.6608
#
#
#
# Elastic Compliance Matrix: (Units=1/GPa)
#
#
# Indices 1 2 3 4 5 6 
#
# 1 0.016172 -0.002566 0.002275 0.000000 0.000000 0.000000
# 2 -0.002566 0.004997 -0.001684 0.000000 0.000000 0.000000
# 3 0.002275 -0.001684 0.011941 0.000000 0.000000 0.000000
# 4 0.000000 0.000000 0.000000 0.053583 0.000000 0.000000
# 5 0.000000 0.000000 0.000000 0.000000 0.026407 0.000000
# 6 0.000000 0.000000 0.000000 0.000000 0.000000 0.029708
#
#
# Mechanical properties :
#
#
# Convention : Reuss Voigt Hill
#
# Bulk Modulus (GPa) = 34.29544 53.45165 43.87355
# Shear Modulus (GPa) = 31.95329 40.24003 36.09666
#
# Velocity S-wave (km/s) = 3.75345 4.21213 3.98939
# Velocity P-wave (km/s) = 5.82285 6.87192 6.36902
#
# Compressibility (1/GPa) = 0.02915840
#
# Stress axis : x y z
#
# Youngs Moduli (GPa) = 61.83640 200.12170 83.74649
#
# Poissons Ratio (x) = 0.51353 -0.19052
# Poissons Ratio (y) = 0.15868 0.14107
# Poissons Ratio (z) = -0.14068 0.33710
#
# Static dielectric constant tensor:
#      x y z
#    x 3.917710 0.000000 0.000000 
#    y 0.000000 6.340580 0.000000 
#    z 0.000000 0.000000 3.508800 
# 
# 
# High freq. dielectric constant tensor:
#      x y z
#    x 1.873570 0.000000 0.000000 
#    y 0.000000 1.945340 0.000000 
#    z 0.000000 0.000000 1.860170 
# 
# From -- ./inp_files/688.got.cif
#   From: 2010.03.12/outbox.cif.g09.slc.cpg/sg61_1_cif.got.tgz:688.got - 2010.04.10 19:05:03.
