data_PCOD8249489
_publ_section_title
;
Structure prediction by ZEFSAII (Michael W. Deem and Ramdas Pophale) SiO2 
 PCOD8249489
Probable space group: P B C A
;
_chemical_formula_sum "Si O2"
_cell_formula_units_Z 56
_cell_length_a 9.361790
_cell_length_b 19.335742
_cell_length_c 14.053252
_cell_angle_alpha 90.000000
_cell_angle_beta 90.000000
_cell_angle_gamma 90.000000
_cell_volume 2543.879711
_symmetry_space_group_name_H-M "P B C A"
_symmetry_group_IT_number 61
_symmetry_cell_setting 'orthorhombic'
loop_
_space_group_symop_operation_xyz
x,y,z
1/2-x,-y,1/2+z
1/2+x,1/2-y,-z
-x,1/2+y,1/2-z
-x,-y,-z
1/2+x,y,1/2-z
1/2-x,1/2+y,z
x,1/2-y,1/2+z
loop_
_atom_site_type_symbol
_atom_site_label
_atom_site_fract_x
_atom_site_fract_y
_atom_site_fract_z
Si Si1 0.424365 0.928524 0.806500
Si Si2 0.787095 0.399211 0.343468
Si Si3 0.360580 0.294758 0.907443
Si Si4 0.703696 0.947394 0.544884
Si Si5 0.331698 0.759653 0.071592
Si Si6 0.807176 0.341933 0.789975
Si Si7 0.074789 0.452898 0.308149
O O1 0.362725 0.945551 0.910631
O O2 0.289334 0.906783 0.741584
O O3 0.535145 0.866202 0.818616
O O4 0.496625 0.993782 0.760179
O O5 0.773302 0.454433 0.431143
O O6 0.715027 0.327235 0.370457
O O7 0.714045 0.425775 0.246610
O O8 0.958638 0.391889 0.326401
O O9 0.382859 0.376130 0.932220
O O10 0.498555 0.249228 0.933011
O O11 0.323048 0.286972 0.796283
O O12 0.226506 0.263955 0.964544
O O13 0.618119 0.012097 0.590854
O O14 0.264781 0.692663 0.119924
#
# Coordination Sequence:
#
# PCOD8249489 Si02
#       7
#     8   8   8   8   8   8   8
#     4  11  20  39  71  94 116 168 225 264 306 379
#     4  11  27  40  63  96 136 172 210 267 329 393
#     4  10  23  41  66  94 124 169 212 268 313 386
#     4  10  22  44  68  95 127 165 231 264 317 385
#     4  11  25  42  63  97 133 165 213 265 328 385
#     4  11  21  39  67  92 125 161 217 269 315 366
#     4  12  21  45  66  92 133 173 210 266 324 381
#
# _framework density 22.013618000000001
#
# number of rings (size 3 to 8) (size 9 to 14) (size 15 to 20)
#    0.000    1.143    5.714    0.429    8.000    0.571 
#    2.571    0.000    0.000    0.000    0.000    0.000 
#    0.000    0.000    0.000    0.000    0.000    0.000 
#
# Total GULP energy -694371.570478 kJ/mol
# GULP energy per Si atom -12399.492330 kJ/mol
# Density = 2.196351 g / cm^3
# Si number density = 22.013618 Si / 1000 Ang^3
#
#
#
# Elastic Constant Matrix: (Units=GPa)
#
#
# Indices 1 2 3 4 5 6 
#
# 1 86.3534 1.8156 -0.7433 0.0000 0.0000 0.0000
# 2 1.8156 28.7112 -8.7622 0.0000 0.0000 0.0000
# 3 -0.7433 -8.7622 48.4299 0.0000 0.0000 0.0000
# 4 0.0000 0.0000 0.0000 24.9946 0.0000 0.0000
# 5 0.0000 0.0000 0.0000 0.0000 29.7858 0.0000
# 6 0.0000 0.0000 0.0000 0.0000 0.0000 31.3785
#
#
#
# Elastic Compliance Matrix: (Units=1/GPa)
#
#
# Indices 1 2 3 4 5 6 
#
# 1 0.011596 -0.000719 0.000048 0.000000 0.000000 0.000000
# 2 -0.000719 0.036910 0.006667 0.000000 0.000000 0.000000
# 3 0.000048 0.006667 0.021855 0.000000 0.000000 0.000000
# 4 0.000000 0.000000 0.000000 0.040009 0.000000 0.000000
# 5 0.000000 0.000000 0.000000 0.000000 0.033573 0.000000
# 6 0.000000 0.000000 0.000000 0.000000 0.000000 0.031869
#
#
# Mechanical properties :
#
#
# Convention : Reuss Voigt Hill
#
# Bulk Modulus (GPa) = 12.14282 16.45719 14.30001
# Shear Modulus (GPa) = 26.14103 28.64408 27.39256
#
# Velocity S-wave (km/s) = 3.44974 3.61113 3.53136
# Velocity P-wave (km/s) = 4.62554 4.98790 4.81013
#
# Compressibility (1/GPa) = 0.08235317
#
# Stress axis : x y z
#
# Youngs Moduli (GPa) = 86.23782 27.09319 45.75537
#
# Poissons Ratio (x) = 0.01947 -0.00219
# Poissons Ratio (y) = 0.06197 -0.30504
# Poissons Ratio (z) = -0.00414 -0.18063
#
# Static dielectric constant tensor:
#      x y z
#    x 4.258910 0.000000 0.000000 
#    y 0.000000 3.772230 0.000000 
#    z 0.000000 0.000000 4.146090 
# 
# 
# High freq. dielectric constant tensor:
#      x y z
#    x 1.877180 0.000000 0.000000 
#    y 0.000000 1.841420 0.000000 
#    z 0.000000 0.000000 1.867430 
# 
# From -- ./inp_files/3971.got.cif
#   From: 2010.03.12/outbox.cif.g09.slc.cpg/sg61_2_cif.got.tgz:3971.got - 2010.04.10 19:05:03.
