data_PCOD8249870
_publ_section_title
;
Structure prediction by ZEFSAII (Michael W. Deem and Ramdas Pophale) SiO2 
 PCOD8249870
Probable space group: P B C A
;
_chemical_formula_sum "Si O2"
_cell_formula_units_Z 32
_cell_length_a 8.304712
_cell_length_b 17.320680
_cell_length_c 7.624160
_cell_angle_alpha 90.000000
_cell_angle_beta 90.000000
_cell_angle_gamma 90.000000
_cell_volume 1096.684022
_symmetry_space_group_name_H-M "P B C A"
_symmetry_group_IT_number 61
_symmetry_cell_setting 'orthorhombic'
loop_
_space_group_symop_operation_xyz
x,y,z
1/2-x,-y,1/2+z
1/2+x,1/2-y,-z
-x,1/2+y,1/2-z
-x,-y,-z
1/2+x,y,1/2-z
1/2-x,1/2+y,z
x,1/2-y,1/2+z
loop_
_atom_site_type_symbol
_atom_site_label
_atom_site_fract_x
_atom_site_fract_y
_atom_site_fract_z
Si Si1 0.712672 0.282591 0.771629
Si Si2 0.987580 0.188873 0.932099
Si Si3 0.521798 0.030912 0.715865
Si Si4 0.211811 0.435123 0.936445
O O1 0.653208 0.205903 0.673134
O O2 0.765221 0.347350 0.622694
O O3 0.860404 0.258516 0.898479
O O4 0.552387 0.313279 0.869250
O O5 0.923397 0.104087 0.869679
O O6 0.637449 0.995110 0.565127
O O7 0.404286 0.964615 0.782344
O O8 0.623532 0.064302 0.878384
#
# Coordination Sequence:
#
# PCOD8249870 Si02
#       4
#     8   8   8   8
#     4  12  26  45  71 105 144 189 237 292 354 423
#     4  12  26  45  70 103 144 187 237 292 354 423
#     4  11  25  46  72 104 139 180 231 290 353 420
#     4  11  25  46  73 104 139 180 231 289 353 421
#
# _framework density 29.178871999999998
#
# number of rings (size 3 to 8) (size 9 to 14) (size 15 to 20)
#    0.000    0.500    0.000    7.500    0.000   14.000 
#    0.000    2.500    0.000    0.000    0.000    0.000 
#    0.000    0.000    0.000    0.000    0.000    0.000 
#
# Total GULP energy -396964.398312 kJ/mol
# GULP energy per Si atom -12405.137447 kJ/mol
# Density = 2.911246 g / cm^3
# Si number density = 29.178872 Si / 1000 Ang^3
#
#
#
# Elastic Constant Matrix: (Units=GPa)
#
#
# Indices 1 2 3 4 5 6 
#
# 1 104.3760 38.5096 18.7256 0.0000 0.0000 0.0000
# 2 38.5096 175.2460 62.7410 0.0000 0.0000 0.0000
# 3 18.7256 62.7410 102.3619 0.0000 0.0000 0.0000
# 4 0.0000 0.0000 0.0000 64.8383 0.0000 0.0000
# 5 0.0000 0.0000 0.0000 0.0000 56.7795 0.0000
# 6 0.0000 0.0000 0.0000 0.0000 0.0000 64.8718
#
#
#
# Elastic Compliance Matrix: (Units=1/GPa)
#
#
# Indices 1 2 3 4 5 6 
#
# 1 0.010459 -0.002067 -0.000646 0.000000 0.000000 0.000000
# 2 -0.002067 0.007719 -0.004353 0.000000 0.000000 0.000000
# 3 -0.000646 -0.004353 0.012556 0.000000 0.000000 0.000000
# 4 0.000000 0.000000 0.000000 0.015423 0.000000 0.000000
# 5 0.000000 0.000000 0.000000 0.000000 0.017612 0.000000
# 6 0.000000 0.000000 0.000000 0.000000 0.000000 0.015415
#
#
# Mechanical properties :
#
#
# Convention : Reuss Voigt Hill
#
# Bulk Modulus (GPa) = 60.23760 69.10405 64.67083
# Shear Modulus (GPa) = 50.58138 54.76509 52.67324
#
# Velocity S-wave (km/s) = 4.16804 4.33699 4.25336
# Velocity P-wave (km/s) = 6.62212 6.98668 6.80684
#
# Compressibility (1/GPa) = 0.01660093
#
# Stress axis : x y z
#
# Youngs Moduli (GPa) = 95.60846 129.55136 79.64522
#
# Poissons Ratio (x) = 0.26778 0.05149
# Poissons Ratio (y) = 0.19762 0.34670
# Poissons Ratio (z) = 0.06181 0.56395
#
# Static dielectric constant tensor:
#      x y z
#    x 5.812650 0.000000 0.000000 
#    y 0.000000 5.155130 0.000000 
#    z 0.000000 0.000000 5.640480 
# 
# 
# High freq. dielectric constant tensor:
#      x y z
#    x 2.227130 0.000000 0.000000 
#    y 0.000000 2.182400 0.000000 
#    z 0.000000 0.000000 2.225150 
# 
# From -- ./inp_files/1667.got.cif
#   From: 2010.03.12/outbox.cif.g09.slc.cpg/sg61_1_cif.got.tgz:1667.got - 2010.04.10 19:05:03.
