data_PCOD8249989
_publ_section_title
;
Structure prediction by ZEFSAII (Michael W. Deem and Ramdas Pophale) SiO2 
 PCOD8249989
Probable space group: P N M A
;
_chemical_formula_sum "Si O2"
_cell_formula_units_Z 64
_cell_length_a 19.824327
_cell_length_b 8.711063
_cell_length_c 22.833158
_cell_angle_alpha 90.000000
_cell_angle_beta 90.000000
_cell_angle_gamma 90.000000
_cell_volume 3943.080007
_symmetry_space_group_name_H-M "P N M A"
_symmetry_group_IT_number 62
_symmetry_cell_setting 'orthorhombic'
loop_
_space_group_symop_operation_xyz
x,y,z
1/2-x,-y,1/2+z
1/2+x,1/2-y,1/2-z
-x,1/2+y,-z
-x,-y,-z
1/2+x,y,1/2-z
1/2-x,1/2+y,1/2+z
x,1/2-y,z
loop_
_atom_site_type_symbol
_atom_site_label
_atom_site_fract_x
_atom_site_fract_y
_atom_site_fract_z
Si Si1 0.925952 0.069798 0.140758
Si Si2 0.358708 0.919219 0.734798
Si Si3 0.351879 0.927732 0.260891
Si Si4 0.767610 0.570003 0.668073
Si Si5 0.220447 0.919813 0.663909
Si Si6 0.067545 0.571576 0.135998
Si Si7 0.696445 0.068928 0.570032
Si Si8 0.312816 0.568547 0.564150
O O1 0.916073 0.250000 0.134100
O O2 0.913694 0.018940 0.208556
O O3 0.873811 0.985813 0.097723
O O4 0.000547 0.022627 0.121433
O O5 0.392117 0.750000 0.730250
O O6 0.341935 0.960867 0.803196
O O7 0.285927 0.916741 0.704758
O O8 0.407701 0.038761 0.702750
O O9 0.369833 0.750000 0.262528
O O10 0.286158 0.963999 0.298826
O O11 0.338044 0.976350 0.193276
O O12 0.748752 0.750000 0.674186
O O13 0.761070 0.515159 0.600639
O O14 0.189581 0.750000 0.658095
O O15 0.245327 0.980575 0.600335
O O16 0.052168 0.750000 0.129722
O O17 0.122884 0.521111 0.088936
O O18 0.703485 0.250000 0.577495
O O19 0.698264 0.020188 0.502426
O O20 0.325964 0.750000 0.572475
#
# Coordination Sequence:
#
# PCOD8249989 Si02
#       8
#     8   8   8   8   8   8   8   8
#     4  11  21  33  46  59  83 118 149 178 216 260
#     4   8  15  28  44  61  83 110 138 170 213 263
#     4  10  17  26  42  64  85 104 135 178 218 253
#     4   9  16  27  43  62  84 110 138 170 214 262
#     4   8  14  27  44  61  82 109 139 169 211 261
#     4  11  21  31  45  64  85 111 147 187 218 249
#     4  10  19  31  46  64  86 113 149 187 215 243
#     4   9  19  33  46  61  86 119 149 178 213 255
#
# _framework density 16.230967
#
# number of rings (size 3 to 8) (size 9 to 14) (size 15 to 20)
#    0.000    2.500    0.000    7.125    0.000    6.500 
#    0.000    0.000    0.000    0.000    0.000    0.000 
#    0.000    1.000    0.000    3.000    0.000    5.375 
#
# Total GULP energy -793041.392389 kJ/mol
# GULP energy per Si atom -12391.271756 kJ/mol
# Density = 1.619402 g / cm^3
# Si number density = 16.230967 Si / 1000 Ang^3
#
#
#
# Elastic Constant Matrix: (Units=GPa)
#
#
# Indices 1 2 3 4 5 6 
#
# 1 15.1836 12.1699 39.2784 0.0000 0.0000 0.0000
# 2 12.1699 58.7412 28.6879 0.0000 0.0000 0.0000
# 3 39.2784 28.6879 116.7145 0.0000 0.0000 0.0000
# 4 0.0000 0.0000 0.0000 23.8071 0.0000 0.0000
# 5 0.0000 0.0000 0.0000 0.0000 15.5715 0.0000
# 6 0.0000 0.0000 0.0000 0.0000 0.0000 19.1654
#
#
#
# Elastic Compliance Matrix: (Units=1/GPa)
#
#
# Indices 1 2 3 4 5 6 
#
# 1 0.542690 -0.026410 -0.176142 0.000000 0.000000 0.000000
# 2 -0.026410 0.020631 0.003817 0.000000 0.000000 0.000000
# 3 -0.176142 0.003817 0.066908 0.000000 0.000000 0.000000
# 4 0.000000 0.000000 0.000000 0.042004 0.000000 0.000000
# 5 0.000000 0.000000 0.000000 0.000000 0.064220 0.000000
# 6 0.000000 0.000000 0.000000 0.000000 0.000000 0.052177
#
#
# Mechanical properties :
#
#
# Convention : Reuss Voigt Hill
#
# Bulk Modulus (GPa) = 4.29630 38.99019 21.64325
# Shear Modulus (GPa) = 3.95667 19.07567 11.51617
#
# Velocity S-wave (km/s) = 1.56302 3.43193 2.66657
# Velocity P-wave (km/s) = 2.43107 6.30702 4.77957
#
# Compressibility (1/GPa) = 0.23275838
#
# Stress axis : x y z
#
# Youngs Moduli (GPa) = 1.84267 48.46979 14.94599
#
# Poissons Ratio (x) = 1.28009 2.63262
# Poissons Ratio (y) = 0.04866 -0.05705
# Poissons Ratio (z) = 0.32457 -0.18500
#
# Static dielectric constant tensor:
#      x y z
#    x 2.877990 0.000000 0.000000 
#    y 0.000000 3.094790 0.000000 
#    z 0.000000 0.000000 3.483390 
# 
# 
# High freq. dielectric constant tensor:
#      x y z
#    x 1.577020 0.000000 0.000000 
#    y 0.000000 1.632820 0.000000 
#    z 0.000000 0.000000 1.614450 
# 
# From -- ./inp_files/27969.got.cif
#   From: 2010.03.12/outbox.cif.g09.slc.cpg/sg62_14_cif.got.tgz:27969.got - 2010.04.10 19:12:36.
