data_PCOD8249491
_publ_section_title
;
Structure prediction by ZEFSAII (Michael W. Deem and Ramdas Pophale) SiO2 
 PCOD8249491
Probable space group: P B C A
;
_chemical_formula_sum "Si O2"
_cell_formula_units_Z 64
_cell_length_a 30.971141
_cell_length_b 10.664663
_cell_length_c 9.238225
_cell_angle_alpha 90.000000
_cell_angle_beta 90.000000
_cell_angle_gamma 90.000000
_cell_volume 3051.355984
_symmetry_space_group_name_H-M "P B C A"
_symmetry_group_IT_number 61
_symmetry_cell_setting 'orthorhombic'
loop_
_space_group_symop_operation_xyz
x,y,z
1/2-x,-y,1/2+z
1/2+x,1/2-y,-z
-x,1/2+y,1/2-z
-x,-y,-z
1/2+x,y,1/2-z
1/2-x,1/2+y,z
x,1/2-y,1/2+z
loop_
_atom_site_type_symbol
_atom_site_label
_atom_site_fract_x
_atom_site_fract_y
_atom_site_fract_z
Si Si1 0.167979 0.817306 0.037513
Si Si2 0.283103 0.984119 0.354680
Si Si3 0.119174 0.123883 0.412345
Si Si4 0.019822 0.141924 0.355799
Si Si5 0.831483 0.713366 0.810370
Si Si6 0.254651 0.346982 0.605576
Si Si7 0.019396 0.643695 0.835567
Si Si8 0.881922 0.349873 0.179217
O O1 0.199305 0.719274 0.116624
O O2 0.135874 0.869255 0.159041
O O3 0.197625 0.926164 0.975752
O O4 0.141290 0.761777 0.904454
O O5 0.254686 0.048249 0.230255
O O6 0.323376 0.906702 0.290872
O O7 0.249068 0.898846 0.442305
O O8 0.069200 0.159416 0.402536
O O9 0.136929 0.177846 0.560888
O O10 0.145680 0.176805 0.277278
O O11 0.124889 0.974887 0.414181
O O12 0.989104 0.155373 0.493962
O O13 0.010492 0.256173 0.246806
O O14 0.011906 0.002442 0.286091
O O15 0.784961 0.753554 0.869938
O O16 0.068115 0.684672 0.804701
#
# Coordination Sequence:
#
# PCOD8249491 Si02
#       8
#     8   8   8   8   8   8   8   8
#     4  12  25  45  63  98 129 177 225 269 333 387
#     4  12  26  42  67  93 129 176 220 277 328 390
#     4  11  25  43  69  97 135 173 220 280 329 402
#     4  10  22  44  70 101 136 177 220 276 345 410
#     4  12  25  45  64  98 130 176 226 272 335 389
#     4  12  26  44  65  94 133 176 224 270 332 392
#     4  10  22  44  69 101 136 175 221 276 342 410
#     4  11  25  43  69  96 137 172 220 279 328 400
#
# _framework density 20.974281000000001
#
# number of rings (size 3 to 8) (size 9 to 14) (size 15 to 20)
#    0.000    0.750    2.500    4.500    5.250    0.500 
#    2.250    0.000    0.000    0.000    0.000    0.000 
#    0.000    0.000    0.000    0.000    0.000    0.000 
#
# Total GULP energy -793941.621232 kJ/mol
# GULP energy per Si atom -12405.337832 kJ/mol
# Density = 2.092654 g / cm^3
# Si number density = 20.974281 Si / 1000 Ang^3
#
#
#
# Elastic Constant Matrix: (Units=GPa)
#
#
# Indices 1 2 3 4 5 6 
#
# 1 102.0947 33.2420 30.5921 0.0000 0.0000 0.0000
# 2 33.2420 76.8646 26.1358 0.0000 0.0000 0.0000
# 3 30.5921 26.1358 93.7044 0.0000 0.0000 0.0000
# 4 0.0000 0.0000 0.0000 30.6992 0.0000 0.0000
# 5 0.0000 0.0000 0.0000 0.0000 37.5071 0.0000
# 6 0.0000 0.0000 0.0000 0.0000 0.0000 30.6670
#
#
#
# Elastic Compliance Matrix: (Units=1/GPa)
#
#
# Indices 1 2 3 4 5 6 
#
# 1 0.012000 -0.004262 -0.002729 0.000000 0.000000 0.000000
# 2 -0.004262 0.015887 -0.003040 0.000000 0.000000 0.000000
# 3 -0.002729 -0.003040 0.012411 0.000000 0.000000 0.000000
# 4 0.000000 0.000000 0.000000 0.032574 0.000000 0.000000
# 5 0.000000 0.000000 0.000000 0.000000 0.026662 0.000000
# 6 0.000000 0.000000 0.000000 0.000000 0.000000 0.032608
#
#
# Mechanical properties :
#
#
# Convention : Reuss Voigt Hill
#
# Bulk Modulus (GPa) = 49.41612 50.28928 49.85270
# Shear Modulus (GPa) = 31.45680 31.95425 31.70552
#
# Velocity S-wave (km/s) = 3.87690 3.90743 3.89220
# Velocity P-wave (km/s) = 6.60696 6.66229 6.63468
#
# Compressibility (1/GPa) = 0.02023631
#
# Stress axis : x y z
#
# Youngs Moduli (GPa) = 83.33169 62.94614 80.57599
#
# Poissons Ratio (x) = 0.26827 0.21990
# Poissons Ratio (y) = 0.35515 0.24492
# Poissons Ratio (z) = 0.22742 0.19133
#
# Static dielectric constant tensor:
#      x y z
#    x 3.806790 0.000000 0.000000 
#    y 0.000000 3.939780 0.000000 
#    z 0.000000 0.000000 3.733550 
# 
# 
# High freq. dielectric constant tensor:
#      x y z
#    x 1.828770 0.000000 0.000000 
#    y 0.000000 1.830450 0.000000 
#    z 0.000000 0.000000 1.828970 
# 
# From -- ./inp_files/4652.got.cif
#   From: 2010.03.12/outbox.cif.g09.slc.cpg/sg61_3_cif.got.tgz:4652.got - 2010.04.10 19:05:03.
