data_PCOD8249003
_publ_section_title
;
Structure prediction by ZEFSAII (Michael W. Deem and Ramdas Pophale) SiO2 
 PCOD8249003
Probable space group: P B C A
;
_chemical_formula_sum "Si O2"
_cell_formula_units_Z 56
_cell_length_a 8.940018
_cell_length_b 14.371975
_cell_length_c 20.804181
_cell_angle_alpha 90.000000
_cell_angle_beta 90.000000
_cell_angle_gamma 90.000000
_cell_volume 2673.040075
_symmetry_space_group_name_H-M "P B C A"
_symmetry_group_IT_number 61
_symmetry_cell_setting 'orthorhombic'
loop_
_space_group_symop_operation_xyz
x,y,z
1/2-x,-y,1/2+z
1/2+x,1/2-y,-z
-x,1/2+y,1/2-z
-x,-y,-z
1/2+x,y,1/2-z
1/2-x,1/2+y,z
x,1/2-y,1/2+z
loop_
_atom_site_type_symbol
_atom_site_label
_atom_site_fract_x
_atom_site_fract_y
_atom_site_fract_z
Si Si1 0.679085 0.672600 0.837045
Si Si2 0.924885 0.621734 0.748971
Si Si3 0.858265 0.494625 0.423699
Si Si4 0.311754 0.448185 0.937294
Si Si5 0.832475 0.428465 0.160327
Si Si6 0.714623 0.202286 0.442966
Si Si7 0.617939 0.759992 0.070841
O O1 0.825908 0.689786 0.793735
O O2 0.531781 0.687167 0.794030
O O3 0.688295 0.566085 0.862390
O O4 0.672367 0.744094 0.895763
O O5 0.817595 0.561720 0.702860
O O6 0.025403 0.552471 0.793341
O O7 0.779216 0.448217 0.486316
O O8 0.804441 0.599657 0.414340
O O9 0.038085 0.490644 0.428835
O O10 0.177484 0.496654 0.897323
O O11 0.325276 0.343187 0.912252
O O12 0.852505 0.324196 0.132504
O O13 0.788661 0.195743 0.512570
O O14 0.557113 0.256499 0.447533
#
# Coordination Sequence:
#
# PCOD8249003 Si02
#       7
#     8   8   8   8   8   8   8
#     4  11  21  44  61  92 124 167 210 255 309 377
#     4  10  24  40  66  82 128 176 204 252 308 368
#     4  10  20  37  64  94 125 160 200 257 321 371
#     4  10  20  37  64  94 125 160 200 257 321 371
#     4  11  21  44  61  92 124 167 210 255 309 377
#     4  11  23  39  64  97 127 161 207 262 322 375
#     4  11  23  39  64  97 127 161 207 262 322 375
#
# _framework density 20.949928
#
# number of rings (size 3 to 8) (size 9 to 14) (size 15 to 20)
#    0.000    1.429    5.714    0.000    2.000    0.000 
#    2.571   10.714    0.000    0.000    0.000    0.000 
#    0.000    0.000    0.000    0.000    0.000    0.000 
#
# Total GULP energy -694497.591851 kJ/mol
# GULP energy per Si atom -12401.742712 kJ/mol
# Density = 2.090225 g / cm^3
# Si number density = 20.949928 Si / 1000 Ang^3
#
#
#
# Elastic Constant Matrix: (Units=GPa)
#
#
# Indices 1 2 3 4 5 6 
#
# 1 91.3113 15.0053 39.8694 0.0000 0.0000 0.0000
# 2 15.0053 79.9924 27.2332 0.0000 0.0000 0.0000
# 3 39.8694 27.2332 105.1619 0.0000 0.0000 0.0000
# 4 0.0000 0.0000 0.0000 13.6079 0.0000 0.0000
# 5 0.0000 0.0000 0.0000 0.0000 37.2243 0.0000
# 6 0.0000 0.0000 0.0000 0.0000 0.0000 23.1865
#
#
#
# Elastic Compliance Matrix: (Units=1/GPa)
#
#
# Indices 1 2 3 4 5 6 
#
# 1 0.013176 -0.000846 -0.004776 0.000000 0.000000 0.000000
# 2 -0.000846 0.013764 -0.003244 0.000000 0.000000 0.000000
# 3 -0.004776 -0.003244 0.012160 0.000000 0.000000 0.000000
# 4 0.000000 0.000000 0.000000 0.073487 0.000000 0.000000
# 5 0.000000 0.000000 0.000000 0.000000 0.026864 0.000000
# 6 0.000000 0.000000 0.000000 0.000000 0.000000 0.043129
#
#
# Mechanical properties :
#
#
# Convention : Reuss Voigt Hill
#
# Bulk Modulus (GPa) = 46.79750 48.96462 47.88106
# Shear Modulus (GPa) = 24.10405 27.76092 25.93248
#
# Velocity S-wave (km/s) = 3.39566 3.64415 3.52210
# Velocity P-wave (km/s) = 6.14494 6.41322 6.28051
#
# Compressibility (1/GPa) = 0.02136866
#
# Stress axis : x y z
#
# Youngs Moduli (GPa) = 75.89546 72.65249 82.23655
#
# Poissons Ratio (x) = 0.06143 0.39279
# Poissons Ratio (y) = 0.06417 0.26677
# Poissons Ratio (z) = 0.36251 0.23568
#
# Static dielectric constant tensor:
#      x y z
#    x 3.832360 0.000000 0.000000 
#    y 0.000000 3.421140 0.000000 
#    z 0.000000 0.000000 3.924920 
# 
# 
# High freq. dielectric constant tensor:
#      x y z
#    x 1.819940 0.000000 0.000000 
#    y 0.000000 1.789840 0.000000 
#    z 0.000000 0.000000 1.833330 
# 
# From -- ./inp_files/3050.got.cif
#   From: 2010.03.12/outbox.cif.g09.slc.cpg/sg61_2_cif.got.tgz:3050.got - 2010.04.10 19:05:03.
