data_PCOD8249004
_publ_section_title
;
Structure prediction by ZEFSAII (Michael W. Deem and Ramdas Pophale) SiO2 
 PCOD8249004
Probable space group: P B C A
;
_chemical_formula_sum "Si O2"
_cell_formula_units_Z 64
_cell_length_a 14.437617
_cell_length_b 25.446132
_cell_length_c 8.443273
_cell_angle_alpha 90.000000
_cell_angle_beta 90.000000
_cell_angle_gamma 90.000000
_cell_volume 3101.902367
_symmetry_space_group_name_H-M "P B C A"
_symmetry_group_IT_number 61
_symmetry_cell_setting 'orthorhombic'
loop_
_space_group_symop_operation_xyz
x,y,z
1/2-x,-y,1/2+z
1/2+x,1/2-y,-z
-x,1/2+y,1/2-z
-x,-y,-z
1/2+x,y,1/2-z
1/2-x,1/2+y,z
x,1/2-y,1/2+z
loop_
_atom_site_type_symbol
_atom_site_label
_atom_site_fract_x
_atom_site_fract_y
_atom_site_fract_z
Si Si1 0.772386 0.637290 0.646436
Si Si2 0.318861 0.547604 0.602906
Si Si3 0.431572 0.708980 0.982354
Si Si4 0.216884 0.881602 0.901747
Si Si5 0.398514 0.819742 0.850155
Si Si6 0.499068 0.095318 0.941059
Si Si7 0.904741 0.157749 0.820227
Si Si8 0.817785 0.430547 0.900822
O O1 0.789393 0.594905 0.782179
O O2 0.857272 0.676364 0.620694
O O3 0.679873 0.671774 0.696789
O O4 0.761772 0.602430 0.489035
O O5 0.273910 0.564785 0.436763
O O6 0.429520 0.548388 0.591352
O O7 0.284003 0.489307 0.646224
O O8 0.408051 0.769938 0.965762
O O9 0.534201 0.703700 0.902455
O O10 0.427979 0.692353 0.167982
O O11 0.289940 0.834933 0.865489
O O12 0.156080 0.895513 0.749544
O O13 0.141228 0.871630 0.033980
O O14 0.464219 0.864613 0.924172
O O15 0.479457 0.123101 0.773489
O O16 0.407064 0.064982 0.990283
#
# Coordination Sequence:
#
# PCOD8249004 Si02
#       8
#     8   8   8   8   8   8   8   8
#     4  10  22  40  64  92 131 166 211 270 315 383
#     4  10  20  37  65  87 128 170 208 261 321 376
#     4  12  23  45  65  91 126 168 216 259 330 379
#     4  10  22  41  60  95 130 160 214 267 315 381
#     4  11  25  42  67  90 124 168 205 268 324 379
#     4  10  21  40  61  91 126 163 208 262 316 376
#     4  10  22  41  66  90 129 167 205 261 317 376
#     4  11  20  38  61  94 124 167 215 258 320 378
#
# _framework density 20.6325
#
# number of rings (size 3 to 8) (size 9 to 14) (size 15 to 20)
#    0.000    1.500    2.500    2.625    3.500    0.000 
#    9.000    0.625    0.000    0.000    0.000    0.000 
#    0.000    0.000    0.000    0.000    0.000    0.000 
#
# Total GULP energy -792870.905458 kJ/mol
# GULP energy per Si atom -12388.607898 kJ/mol
# Density = 2.058554 g / cm^3
# Si number density = 20.632500 Si / 1000 Ang^3
#
#
#
# Elastic Constant Matrix: (Units=GPa)
#
#
# Indices 1 2 3 4 5 6 
#
# 1 73.7898 21.2746 18.4749 0.0000 0.0000 0.0000
# 2 21.2746 88.1553 22.5797 0.0000 0.0000 0.0000
# 3 18.4749 22.5797 71.4889 0.0000 0.0000 0.0000
# 4 0.0000 0.0000 0.0000 25.5779 0.0000 0.0000
# 5 0.0000 0.0000 0.0000 0.0000 22.8526 0.0000
# 6 0.0000 0.0000 0.0000 0.0000 0.0000 14.1754
#
#
#
# Elastic Compliance Matrix: (Units=1/GPa)
#
#
# Indices 1 2 3 4 5 6 
#
# 1 0.015135 -0.002884 -0.003000 0.000000 0.000000 0.000000
# 2 -0.002884 0.012892 -0.003327 0.000000 0.000000 0.000000
# 3 -0.003000 -0.003327 0.015814 0.000000 0.000000 0.000000
# 4 0.000000 0.000000 0.000000 0.039096 0.000000 0.000000
# 5 0.000000 0.000000 0.000000 0.000000 0.043759 0.000000
# 6 0.000000 0.000000 0.000000 0.000000 0.000000 0.070545
#
#
# Mechanical properties :
#
#
# Convention : Reuss Voigt Hill
#
# Bulk Modulus (GPa) = 39.34082 39.78807 39.56444
# Shear Modulus (GPa) = 22.30799 23.92818 23.11808
#
# Velocity S-wave (km/s) = 3.29174 3.40918 3.35097
# Velocity P-wave (km/s) = 5.79277 5.90108 5.84717
#
# Compressibility (1/GPa) = 0.02541889
#
# Stress axis : x y z
#
# Youngs Moduli (GPa) = 66.07332 77.56957 63.23415
#
# Poissons Ratio (x) = 0.22371 0.18973
# Poissons Ratio (y) = 0.19055 0.21035
# Poissons Ratio (z) = 0.19824 0.25804
#
# Static dielectric constant tensor:
#      x y z
#    x 3.929180 0.000000 0.000000 
#    y 0.000000 3.524180 0.000000 
#    z 0.000000 0.000000 4.027770 
# 
# 
# High freq. dielectric constant tensor:
#      x y z
#    x 1.813190 0.000000 0.000000 
#    y 0.000000 1.788480 0.000000 
#    z 0.000000 0.000000 1.822710 
# 
# From -- ./inp_files/3205.got.cif
#   From: 2010.03.12/outbox.cif.g09.slc.cpg/sg61_2_cif.got.tgz:3205.got - 2010.04.10 19:05:03.
