data_PCOD8249691
_publ_section_title
;
Structure prediction by ZEFSAII (Michael W. Deem and Ramdas Pophale) SiO2 
 PCOD8249691
Probable space group: P B C A
;
_chemical_formula_sum "Si O2"
_cell_formula_units_Z 64
_cell_length_a 11.249541
_cell_length_b 8.935011
_cell_length_c 29.698598
_cell_angle_alpha 90.000000
_cell_angle_beta 90.000000
_cell_angle_gamma 90.000000
_cell_volume 2985.147824
_symmetry_space_group_name_H-M "P B C A"
_symmetry_group_IT_number 61
_symmetry_cell_setting 'orthorhombic'
loop_
_space_group_symop_operation_xyz
x,y,z
1/2-x,-y,1/2+z
1/2+x,1/2-y,-z
-x,1/2+y,1/2-z
-x,-y,-z
1/2+x,y,1/2-z
1/2-x,1/2+y,z
x,1/2-y,1/2+z
loop_
_atom_site_type_symbol
_atom_site_label
_atom_site_fract_x
_atom_site_fract_y
_atom_site_fract_z
Si Si1 0.011484 0.250535 0.655282
Si Si2 0.147017 0.021184 0.551793
Si Si3 0.662185 0.289917 0.187092
Si Si4 0.935855 0.099671 0.330650
Si Si5 0.632580 0.603386 0.229134
Si Si6 0.374983 0.954369 0.949709
Si Si7 0.787477 0.276315 0.100283
Si Si8 0.269204 0.800897 0.605223
O O1 0.975235 0.307899 0.704896
O O2 0.910156 0.294079 0.618738
O O3 0.123958 0.349654 0.638560
O O4 0.037855 0.072825 0.656867
O O5 0.148408 0.087383 0.501655
O O6 0.189009 0.138180 0.589351
O O7 0.246808 0.892740 0.558891
O O8 0.014809 0.957234 0.562367
O O9 0.555443 0.192672 0.168331
O O10 0.623248 0.428535 0.217347
O O11 0.742838 0.176300 0.215593
O O12 0.730718 0.358797 0.143745
O O13 0.876116 0.115748 0.282259
O O14 0.851710 0.182683 0.366652
O O15 0.307245 0.842026 0.917370
O O16 0.317670 0.115845 0.941038
#
# Coordination Sequence:
#
# PCOD8249691 Si02
#       8
#     8   8   8   8   8   8   8   8
#     4  11  24  46  64 100 138 179 229 292 330 423
#     4  11  25  45  68 102 139 171 230 279 354 420
#     4  11  24  43  67 101 132 177 233 286 333 417
#     4  12  26  43  70  96 137 189 230 280 349 405
#     4  11  26  41  69  97 139 177 233 292 341 400
#     4  11  23  44  72  99 134 177 219 293 340 423
#     4  11  20  43  70  93 132 175 222 275 349 396
#     4  12  24  45  68  96 139 183 219 286 348 418
#
# _framework density 21.439475000000002
#
# number of rings (size 3 to 8) (size 9 to 14) (size 15 to 20)
#    0.000    0.750    2.500    6.000    5.250    0.000 
#    2.250    0.625    0.000    0.000    0.000    0.000 
#    0.000    0.000    0.000    0.000    0.000    0.000 
#
# Total GULP energy -793288.511492 kJ/mol
# GULP energy per Si atom -12395.132992 kJ/mol
# Density = 2.139068 g / cm^3
# Si number density = 21.439475 Si / 1000 Ang^3
#
#
#
# Elastic Constant Matrix: (Units=GPa)
#
#
# Indices 1 2 3 4 5 6 
#
# 1 118.5198 39.5796 49.2905 0.0000 0.0000 0.0000
# 2 39.5796 79.5107 30.1558 0.0000 0.0000 0.0000
# 3 49.2905 30.1558 112.0903 0.0000 0.0000 0.0000
# 4 0.0000 0.0000 0.0000 35.9296 0.0000 0.0000
# 5 0.0000 0.0000 0.0000 0.0000 26.8423 0.0000
# 6 0.0000 0.0000 0.0000 0.0000 0.0000 35.1330
#
#
#
# Elastic Compliance Matrix: (Units=1/GPa)
#
#
# Indices 1 2 3 4 5 6 
#
# 1 0.011475 -0.004230 -0.003908 0.000000 0.000000 0.000000
# 2 -0.004230 0.015565 -0.002327 0.000000 0.000000 0.000000
# 3 -0.003908 -0.002327 0.011266 0.000000 0.000000 0.000000
# 4 0.000000 0.000000 0.000000 0.027832 0.000000 0.000000
# 5 0.000000 0.000000 0.000000 0.000000 0.037255 0.000000
# 6 0.000000 0.000000 0.000000 0.000000 0.000000 0.028463
#
#
# Mechanical properties :
#
#
# Convention : Reuss Voigt Hill
#
# Bulk Modulus (GPa) = 57.55236 60.90806 59.23021
# Shear Modulus (GPa) = 31.52981 32.32063 31.92522
#
# Velocity S-wave (km/s) = 3.83906 3.88690 3.86305
# Velocity P-wave (km/s) = 6.82301 6.97245 6.89813
#
# Compressibility (1/GPa) = 0.01737548
#
# Stress axis : x y z
#
# Youngs Moduli (GPa) = 87.14299 64.24533 88.76185
#
# Poissons Ratio (x) = 0.27176 0.34690
# Poissons Ratio (y) = 0.36862 0.20659
# Poissons Ratio (z) = 0.34057 0.14953
#
# Static dielectric constant tensor:
#      x y z
#    x 4.158230 0.000000 0.000000 
#    y 0.000000 3.731670 0.000000 
#    z 0.000000 0.000000 4.025660 
# 
# 
# High freq. dielectric constant tensor:
#      x y z
#    x 1.852760 0.000000 0.000000 
#    y 0.000000 1.827050 0.000000 
#    z 0.000000 0.000000 1.860340 
# 
# From -- ./inp_files/11788.got.cif
#   From: 2010.03.12/outbox.cif.g09.slc.cpg/sg61_6_cif.got.tgz:11788.got - 2010.04.10 19:05:03.
