data_PCOD8249600
_publ_section_title
;
Structure prediction by ZEFSAII (Michael W. Deem and Ramdas Pophale) SiO2 
 PCOD8249600
Probable space group: P B C A
;
_chemical_formula_sum "Si O2"
_cell_formula_units_Z 56
_cell_length_a 12.299054
_cell_length_b 11.933554
_cell_length_c 18.733339
_cell_angle_alpha 90.000000
_cell_angle_beta 90.000000
_cell_angle_gamma 90.000000
_cell_volume 2749.518861
_symmetry_space_group_name_H-M "P B C A"
_symmetry_group_IT_number 61
_symmetry_cell_setting 'orthorhombic'
loop_
_space_group_symop_operation_xyz
x,y,z
1/2-x,-y,1/2+z
1/2+x,1/2-y,-z
-x,1/2+y,1/2-z
-x,-y,-z
1/2+x,y,1/2-z
1/2-x,1/2+y,z
x,1/2-y,1/2+z
loop_
_atom_site_type_symbol
_atom_site_label
_atom_site_fract_x
_atom_site_fract_y
_atom_site_fract_z
Si Si1 0.002253 0.775787 0.670524
Si Si2 0.442568 0.401492 0.407502
Si Si3 0.679937 0.982026 0.495967
Si Si4 0.932336 0.167144 0.171619
Si Si5 0.489048 0.553090 0.898894
Si Si6 0.618242 0.923499 0.931823
Si Si7 0.706204 0.096501 0.123147
O O1 0.019148 0.814459 0.750689
O O2 0.102237 0.820655 0.622622
O O3 0.994612 0.641383 0.665753
O O4 0.888831 0.816996 0.637990
O O5 0.446712 0.280428 0.372400
O O6 0.428164 0.387071 0.491853
O O7 0.555102 0.469615 0.397570
O O8 0.342927 0.470246 0.370444
O O9 0.587535 0.918236 0.452237
O O10 0.752111 0.891407 0.540562
O O11 0.623220 0.062340 0.555854
O O12 0.754110 0.050516 0.440251
O O13 0.807141 0.123150 0.175972
O O14 0.003429 0.071148 0.133494
#
# Coordination Sequence:
#
# PCOD8249600 Si02
#       7
#     8   8   8   8   8   8   8
#     4  11  25  40  64  96 133 171 217 272 327 412
#     4   9  20  42  66  95 123 168 227 263 315 393
#     4   9  20  43  66  96 128 163 215 283 321 384
#     4  11  25  42  65  93 136 181 208 269 333 395
#     4  10  24  41  62 101 130 163 226 271 327 394
#     4   9  20  40  66  93 121 167 221 271 321 382
#     4   9  22  42  67  91 125 178 212 260 339 381
#
# _framework density 20.3672
#
# number of rings (size 3 to 8) (size 9 to 14) (size 15 to 20)
#    0.000    2.286    0.000    0.857   16.000    1.143 
#    5.143    0.000    0.000    0.000    0.000    0.000 
#    0.000    0.000    0.000    0.000    0.000    0.000 
#
# Total GULP energy -694079.490027 kJ/mol
# GULP energy per Si atom -12394.276608 kJ/mol
# Density = 2.032084 g / cm^3
# Si number density = 20.367200 Si / 1000 Ang^3
#
#
#
# Elastic Constant Matrix: (Units=GPa)
#
#
# Indices 1 2 3 4 5 6 
#
# 1 111.4211 41.5766 52.7569 0.0000 0.0000 0.0000
# 2 41.5766 143.3290 60.8302 0.0000 0.0000 0.0000
# 3 52.7569 60.8302 98.3848 0.0000 0.0000 0.0000
# 4 0.0000 0.0000 0.0000 32.4103 0.0000 0.0000
# 5 0.0000 0.0000 0.0000 0.0000 28.8902 0.0000
# 6 0.0000 0.0000 0.0000 0.0000 0.0000 13.8060
#
#
#
# Elastic Compliance Matrix: (Units=1/GPa)
#
#
# Indices 1 2 3 4 5 6 
#
# 1 0.012140 -0.001029 -0.005874 0.000000 0.000000 0.000000
# 2 -0.001029 0.009546 -0.005351 0.000000 0.000000 0.000000
# 3 -0.005874 -0.005351 0.016622 0.000000 0.000000 0.000000
# 4 0.000000 0.000000 0.000000 0.030854 0.000000 0.000000
# 5 0.000000 0.000000 0.000000 0.000000 0.034614 0.000000
# 6 0.000000 0.000000 0.000000 0.000000 0.000000 0.072432
#
#
# Mechanical properties :
#
#
# Convention : Reuss Voigt Hill
#
# Bulk Modulus (GPa) = 72.45325 73.71806 73.08565
# Shear Modulus (GPa) = 24.35268 28.21936 26.28602
#
# Velocity S-wave (km/s) = 3.46161 3.72631 3.59640
# Velocity P-wave (km/s) = 7.18525 7.40182 7.29434
#
# Compressibility (1/GPa) = 0.01380200
#
# Stress axis : x y z
#
# Youngs Moduli (GPa) = 82.37217 104.75311 60.16038
#
# Poissons Ratio (x) = 0.10775 0.35337
# Poissons Ratio (y) = 0.08473 0.32190
# Poissons Ratio (z) = 0.48384 0.56051
#
# Static dielectric constant tensor:
#      x y z
#    x 3.912330 0.000000 0.000000 
#    y 0.000000 3.560480 0.000000 
#    z 0.000000 0.000000 3.551900 
# 
# 
# High freq. dielectric constant tensor:
#      x y z
#    x 1.799860 0.000000 0.000000 
#    y 0.000000 1.784830 0.000000 
#    z 0.000000 0.000000 1.779950 
# 
# From -- ./inp_files/10298.got.cif
#   From: 2010.03.12/outbox.cif.g09.slc.cpg/sg61_6_cif.got.tgz:10298.got - 2010.04.10 19:05:03.
