data_PCOD8249177
_publ_section_title
;
Structure prediction by ZEFSAII (Michael W. Deem and Ramdas Pophale) SiO2 
 PCOD8249177
Probable space group: P B C A
;
_chemical_formula_sum "Si O2"
_cell_formula_units_Z 64
_cell_length_a 19.445449
_cell_length_b 16.970581
_cell_length_c 9.017039
_cell_angle_alpha 90.000000
_cell_angle_beta 90.000000
_cell_angle_gamma 90.000000
_cell_volume 2975.627986
_symmetry_space_group_name_H-M "P B C A"
_symmetry_group_IT_number 61
_symmetry_cell_setting 'orthorhombic'
loop_
_space_group_symop_operation_xyz
x,y,z
1/2-x,-y,1/2+z
1/2+x,1/2-y,-z
-x,1/2+y,1/2-z
-x,-y,-z
1/2+x,y,1/2-z
1/2-x,1/2+y,z
x,1/2-y,1/2+z
loop_
_atom_site_type_symbol
_atom_site_label
_atom_site_fract_x
_atom_site_fract_y
_atom_site_fract_z
Si Si1 0.813161 0.841359 0.614543
Si Si2 0.235576 0.912225 0.641035
Si Si3 0.468788 0.829456 0.460569
Si Si4 0.756677 0.409077 0.350951
Si Si5 0.962100 0.839207 0.688532
Si Si6 0.398300 0.172768 0.696996
Si Si7 0.819708 0.659118 0.594505
Si Si8 0.096492 0.657087 0.050209
O O1 0.749781 0.889839 0.688078
O O2 0.797890 0.856239 0.442457
O O3 0.887530 0.878964 0.660630
O O4 0.812304 0.748570 0.652014
O O5 0.286681 0.847907 0.567638
O O6 0.157188 0.902332 0.591576
O O7 0.257897 0.000404 0.601048
O O8 0.461379 0.741363 0.402840
O O9 0.477469 0.828471 0.637780
O O10 0.534765 0.868370 0.379685
O O11 0.398268 0.872245 0.412119
O O12 0.833621 0.376606 0.358339
O O13 0.726544 0.401754 0.186429
O O14 0.026308 0.884809 0.611183
O O15 0.390763 0.261614 0.638256
O O16 0.406128 0.172786 0.874466
#
# Coordination Sequence:
#
# PCOD8249177 Si02
#       8
#     8   8   8   8   8   8   8   8
#     4  11  24  40  72  92 125 168 220 269 310 382
#     4  12  25  45  61  95 135 170 209 265 321 384
#     4  10  21  37  65  94 130 158 216 274 317 372
#     4  12  27  41  65  93 136 172 210 263 326 376
#     4  10  21  38  62  99 124 164 214 273 320 366
#     4  11  23  41  64  98 126 170 215 265 321 380
#     4  11  22  44  66  96 121 167 223 264 315 378
#     4  11  23  40  67  93 132 164 218 264 320 383
#
# _framework density 21.508064000000001
#
# number of rings (size 3 to 8) (size 9 to 14) (size 15 to 20)
#    0.000    1.000    2.500    6.000   10.500    0.000 
#    0.000    2.500    0.000    0.000    0.000    0.000 
#    0.000    0.000    0.000    0.000    0.000    0.000 
#
# Total GULP energy -793308.497740 kJ/mol
# GULP energy per Si atom -12395.445277 kJ/mol
# Density = 2.145911 g / cm^3
# Si number density = 21.508064 Si / 1000 Ang^3
#
#
#
# Elastic Constant Matrix: (Units=GPa)
#
#
# Indices 1 2 3 4 5 6 
#
# 1 167.9922 38.1917 46.7129 0.0000 0.0000 0.0000
# 2 38.1917 54.7600 30.6130 0.0000 0.0000 0.0000
# 3 46.7129 30.6130 103.6807 0.0000 0.0000 0.0000
# 4 0.0000 0.0000 0.0000 19.9566 0.0000 0.0000
# 5 0.0000 0.0000 0.0000 0.0000 46.3018 0.0000
# 6 0.0000 0.0000 0.0000 0.0000 0.0000 10.5384
#
#
#
# Elastic Compliance Matrix: (Units=1/GPa)
#
#
# Indices 1 2 3 4 5 6 
#
# 1 0.007467 -0.003985 -0.002188 0.000000 0.000000 0.000000
# 2 -0.003985 0.023998 -0.005290 0.000000 0.000000 0.000000
# 3 -0.002188 -0.005290 0.012193 0.000000 0.000000 0.000000
# 4 0.000000 0.000000 0.000000 0.050109 0.000000 0.000000
# 5 0.000000 0.000000 0.000000 0.000000 0.021597 0.000000
# 6 0.000000 0.000000 0.000000 0.000000 0.000000 0.094891
#
#
# Mechanical properties :
#
#
# Convention : Reuss Voigt Hill
#
# Bulk Modulus (GPa) = 48.23428 61.94091 55.08760
# Shear Modulus (GPa) = 20.82541 29.42037 25.12289
#
# Velocity S-wave (km/s) = 3.11506 3.70249 3.42141
# Velocity P-wave (km/s) = 5.95088 6.86581 6.42465
#
# Compressibility (1/GPa) = 0.02073214
#
# Stress axis : x y z
#
# Youngs Moduli (GPa) = 133.92527 41.66983 82.01626
#
# Poissons Ratio (x) = 0.16604 0.17942
# Poissons Ratio (y) = 0.53365 0.43390
# Poissons Ratio (z) = 0.29298 0.22045
#
# Static dielectric constant tensor:
#      x y z
#    x 4.804990 0.000000 0.000000 
#    y 0.000000 3.275750 0.000000 
#    z 0.000000 0.000000 3.939640 
# 
# 
# High freq. dielectric constant tensor:
#      x y z
#    x 1.869460 0.000000 0.000000 
#    y 0.000000 1.793700 0.000000 
#    z 0.000000 0.000000 1.865930 
# 
# From -- ./inp_files/4083.got.cif
#   From: 2010.03.12/outbox.cif.g09.slc.cpg/sg61_3_cif.got.tgz:4083.got - 2010.04.10 19:05:03.
