data_PCOD8249178
_publ_section_title
;
Structure prediction by ZEFSAII (Michael W. Deem and Ramdas Pophale) SiO2 
 PCOD8249178
Probable space group: P B C A
;
_chemical_formula_sum "Si O2"
_cell_formula_units_Z 64
_cell_length_a 21.947042
_cell_length_b 17.010377
_cell_length_c 8.526828
_cell_angle_alpha 90.000000
_cell_angle_beta 90.000000
_cell_angle_gamma 90.000000
_cell_volume 3183.299026
_symmetry_space_group_name_H-M "P B C A"
_symmetry_group_IT_number 61
_symmetry_cell_setting 'orthorhombic'
loop_
_space_group_symop_operation_xyz
x,y,z
1/2-x,-y,1/2+z
1/2+x,1/2-y,-z
-x,1/2+y,1/2-z
-x,-y,-z
1/2+x,y,1/2-z
1/2-x,1/2+y,z
x,1/2-y,1/2+z
loop_
_atom_site_type_symbol
_atom_site_label
_atom_site_fract_x
_atom_site_fract_y
_atom_site_fract_z
Si Si1 0.932655 0.861312 0.017355
Si Si2 0.244283 0.448067 0.748737
Si Si3 0.384015 0.765226 0.207478
Si Si4 0.931798 0.357880 0.476030
Si Si5 0.339350 0.496755 0.988067
Si Si6 0.383010 0.272862 0.312267
Si Si7 0.802032 0.686446 0.051198
Si Si8 0.702315 0.693471 0.429122
O O1 0.921618 0.806381 0.867173
O O2 0.882597 0.928428 0.016902
O O3 0.928365 0.812774 0.178763
O O4 0.001052 0.895917 0.008219
O O5 0.197742 0.504217 0.653704
O O6 0.215748 0.401399 0.896970
O O7 0.264058 0.387040 0.613012
O O8 0.297775 0.499050 0.830140
O O9 0.324635 0.733025 0.296363
O O10 0.357594 0.821657 0.071416
O O11 0.879734 0.419030 0.520393
O O12 0.928336 0.284069 0.592925
O O13 0.922443 0.328965 0.298147
O O14 0.333833 0.220327 0.223177
O O15 0.345380 0.326839 0.433570
O O16 0.746135 0.735222 0.979939
#
# Coordination Sequence:
#
# PCOD8249178 Si02
#       8
#     8   8   8   8   8   8   8   8
#     4  11  23  44  66  92 127 171 220 265 312 378
#     4  12  24  40  60  94 134 168 206 256 332 392
#     4  10  21  37  65  96 120 160 222 259 318 368
#     4  11  23  44  66  92 127 171 220 265 312 378
#     4  12  27  42  62  96 131 176 202 266 330 392
#     4  10  21  37  65  96 120 160 222 259 318 368
#     4  11  18  36  61  95 127 160 201 266 317 382
#     4  11  18  36  61  95 127 160 201 266 317 382
#
# _framework density 20.104928999999998
#
# number of rings (size 3 to 8) (size 9 to 14) (size 15 to 20)
#    0.000    1.000    5.000    2.625    3.500    0.000 
#    0.000    0.000    0.000    1.500    0.000    0.000 
#    0.000    0.000    0.000    0.000    0.000    0.000 
#
# Total GULP energy -793607.443260 kJ/mol
# GULP energy per Si atom -12400.116301 kJ/mol
# Density = 2.005917 g / cm^3
# Si number density = 20.104929 Si / 1000 Ang^3
#
#
#
# Elastic Constant Matrix: (Units=GPa)
#
#
# Indices 1 2 3 4 5 6 
#
# 1 97.9979 7.9004 24.2631 0.0000 0.0000 0.0000
# 2 7.9004 25.0616 7.4656 0.0000 0.0000 0.0000
# 3 24.2631 7.4656 93.5622 0.0000 0.0000 0.0000
# 4 0.0000 0.0000 0.0000 33.7524 0.0000 0.0000
# 5 0.0000 0.0000 0.0000 0.0000 13.1852 0.0000
# 6 0.0000 0.0000 0.0000 0.0000 0.0000 17.8274
#
#
#
# Elastic Compliance Matrix: (Units=1/GPa)
#
#
# Indices 1 2 3 4 5 6 
#
# 1 0.011080 -0.002701 -0.002658 0.000000 0.000000 0.000000
# 2 -0.002701 0.041532 -0.002613 0.000000 0.000000 0.000000
# 3 -0.002658 -0.002613 0.011586 0.000000 0.000000 0.000000
# 4 0.000000 0.000000 0.000000 0.029627 0.000000 0.000000
# 5 0.000000 0.000000 0.000000 0.000000 0.075843 0.000000
# 6 0.000000 0.000000 0.000000 0.000000 0.000000 0.056094
#
#
# Mechanical properties :
#
#
# Convention : Reuss Voigt Hill
#
# Bulk Modulus (GPa) = 20.72420 32.87555 26.79987
# Shear Modulus (GPa) = 19.39560 24.75251 22.07405
#
# Velocity S-wave (km/s) = 3.10936 3.51260 3.31712
# Velocity P-wave (km/s) = 4.81884 5.73050 5.29433
#
# Compressibility (1/GPa) = 0.04825278
#
# Stress axis : x y z
#
# Youngs Moduli (GPa) = 90.25186 24.07803 86.31214
#
# Poissons Ratio (x) = 0.06504 0.22940
# Poissons Ratio (y) = 0.24378 0.22557
# Poissons Ratio (z) = 0.23987 0.06293
#
# Static dielectric constant tensor:
#      x y z
#    x 3.628030 0.000000 0.000000 
#    y 0.000000 3.438270 0.000000 
#    z 0.000000 0.000000 3.904060 
# 
# 
# High freq. dielectric constant tensor:
#      x y z
#    x 1.786120 0.000000 0.000000 
#    y 0.000000 1.762760 0.000000 
#    z 0.000000 0.000000 1.801700 
# 
# From -- ./inp_files/4324.got.cif
#   From: 2010.03.12/outbox.cif.g09.slc.cpg/sg61_3_cif.got.tgz:4324.got - 2010.04.10 19:05:03.
