data_PCOD8249772
_publ_section_title
;
Structure prediction by ZEFSAII (Michael W. Deem and Ramdas Pophale) SiO2 
 PCOD8249772
Probable space group: P B C A
;
_chemical_formula_sum "Si O2"
_cell_formula_units_Z 56
_cell_length_a 5.105550
_cell_length_b 14.262771
_cell_length_c 30.624157
_cell_angle_alpha 90.000000
_cell_angle_beta 90.000000
_cell_angle_gamma 90.000000
_cell_volume 2230.029384
_symmetry_space_group_name_H-M "P B C A"
_symmetry_group_IT_number 61
_symmetry_cell_setting 'orthorhombic'
loop_
_space_group_symop_operation_xyz
x,y,z
1/2-x,-y,1/2+z
1/2+x,1/2-y,-z
-x,1/2+y,1/2-z
-x,-y,-z
1/2+x,y,1/2-z
1/2-x,1/2+y,z
x,1/2-y,1/2+z
loop_
_atom_site_type_symbol
_atom_site_label
_atom_site_fract_x
_atom_site_fract_y
_atom_site_fract_z
Si Si1 0.343352 0.189108 0.997056
Si Si2 0.780084 0.389906 0.723038
Si Si3 0.475187 0.107245 0.568964
Si Si4 0.267391 0.974893 0.355885
Si Si5 0.612428 0.549528 0.429513
Si Si6 0.334698 0.223461 0.831594
Si Si7 0.325599 0.227122 0.116703
O O1 0.254344 0.126065 0.954872
O O2 0.564612 0.266346 0.986235
O O3 0.482431 0.117785 0.031386
O O4 0.504294 0.420323 0.743291
O O5 0.822933 0.439191 0.676110
O O6 0.788783 0.277820 0.714230
O O7 0.315827 0.206031 0.573172
O O8 0.481652 0.069244 0.619586
O O9 0.298745 0.027110 0.546343
O O10 0.107523 0.001691 0.399713
O O11 0.161966 0.889136 0.325937
O O12 0.756331 0.621574 0.396187
O O13 0.629145 0.245160 0.845661
O O14 0.125155 0.263151 0.866453
#
# Coordination Sequence:
#
# PCOD8249772 Si02
#       7
#     8   8   8   8   8   8   8
#     4  12  30  48  73 111 164 208 261 327 390 449
#     4  12  28  48  76 114 155 193 242 316 396 466
#     4  11  26  46  75 114 150 209 261 325 376 457
#     4  11  27  46  80 111 151 199 269 307 383 471
#     4  12  25  46  77 107 151 207 259 324 380 456
#     4  11  24  46  73 107 147 195 249 308 372 462
#     4  11  23  42  74 104 147 195 257 302 377 445
#
# _framework density 25.111777
#
# number of rings (size 3 to 8) (size 9 to 14) (size 15 to 20)
#    0.000    0.571    4.286    2.143   10.000    1.714 
#    0.000    0.000    0.000    0.000    0.000    0.000 
#    0.000    0.000    0.000    0.000    0.000    0.000 
#
# Total GULP energy -693735.878525 kJ/mol
# GULP energy per Si atom -12388.140688 kJ/mol
# Density = 2.505462 g / cm^3
# Si number density = 25.111777 Si / 1000 Ang^3
#
#
#
# Elastic Constant Matrix: (Units=GPa)
#
#
# Indices 1 2 3 4 5 6 
#
# 1 92.8897 26.2356 24.4211 0.0000 0.0000 0.0000
# 2 26.2356 116.5129 30.6045 0.0000 0.0000 0.0000
# 3 24.4211 30.6045 93.4930 0.0000 0.0000 0.0000
# 4 0.0000 0.0000 0.0000 51.5903 0.0000 0.0000
# 5 0.0000 0.0000 0.0000 0.0000 41.9735 0.0000
# 6 0.0000 0.0000 0.0000 0.0000 0.0000 21.1060
#
#
#
# Elastic Compliance Matrix: (Units=1/GPa)
#
#
# Indices 1 2 3 4 5 6 
#
# 1 0.011992 -0.002054 -0.002460 0.000000 0.000000 0.000000
# 2 -0.002054 0.009742 -0.002652 0.000000 0.000000 0.000000
# 3 -0.002460 -0.002652 0.012207 0.000000 0.000000 0.000000
# 4 0.000000 0.000000 0.000000 0.019383 0.000000 0.000000
# 5 0.000000 0.000000 0.000000 0.000000 0.023825 0.000000
# 6 0.000000 0.000000 0.000000 0.000000 0.000000 0.047380
#
#
# Mechanical properties :
#
#
# Convention : Reuss Voigt Hill
#
# Bulk Modulus (GPa) = 50.99997 51.71312 51.35655
# Shear Modulus (GPa) = 34.38826 37.70960 36.04893
#
# Velocity S-wave (km/s) = 3.70457 3.87934 3.79296
# Velocity P-wave (km/s) = 6.21705 6.37994 6.29902
#
# Compressibility (1/GPa) = 0.01960785
#
# Stress axis : x y z
#
# Youngs Moduli (GPa) = 83.38616 102.64830 81.92128
#
# Poissons Ratio (x) = 0.21086 0.20153
# Poissons Ratio (y) = 0.17129 0.21729
# Poissons Ratio (z) = 0.20514 0.27227
#
# Static dielectric constant tensor:
#      x y z
#    x 4.204670 0.000000 0.000000 
#    y 0.000000 5.185740 0.000000 
#    z 0.000000 0.000000 4.323560 
# 
# 
# High freq. dielectric constant tensor:
#      x y z
#    x 1.987730 0.000000 0.000000 
#    y 0.000000 2.028730 0.000000 
#    z 0.000000 0.000000 1.983580 
# 
# From -- ./inp_files/11594.got.cif
#   From: 2010.03.12/outbox.cif.g09.slc.cpg/sg61_6_cif.got.tgz:11594.got - 2010.04.10 19:05:03.
