data_PCOD8249853
_publ_section_title
;
Structure prediction by ZEFSAII (Michael W. Deem and Ramdas Pophale) SiO2 
 PCOD8249853
Probable space group: P B C A
;
_chemical_formula_sum "Si O2"
_cell_formula_units_Z 48
_cell_length_a 20.836958
_cell_length_b 11.687081
_cell_length_c 9.316318
_cell_angle_alpha 90.000000
_cell_angle_beta 90.000000
_cell_angle_gamma 90.000000
_cell_volume 2268.739720
_symmetry_space_group_name_H-M "P B C A"
_symmetry_group_IT_number 61
_symmetry_cell_setting 'orthorhombic'
loop_
_space_group_symop_operation_xyz
x,y,z
1/2-x,-y,1/2+z
1/2+x,1/2-y,-z
-x,1/2+y,1/2-z
-x,-y,-z
1/2+x,y,1/2-z
1/2-x,1/2+y,z
x,1/2-y,1/2+z
loop_
_atom_site_type_symbol
_atom_site_label
_atom_site_fract_x
_atom_site_fract_y
_atom_site_fract_z
Si Si1 0.422760 0.121015 0.715379
Si Si2 0.177677 0.509435 0.290732
Si Si3 0.067534 0.338747 0.330511
Si Si4 0.746888 0.115183 0.458949
Si Si5 0.359507 0.234610 0.450337
Si Si6 0.390331 0.635859 0.146648
O O1 0.499257 0.116246 0.722289
O O2 0.400804 0.206326 0.590162
O O3 0.394562 0.996297 0.687606
O O4 0.396147 0.164583 0.867150
O O5 0.120164 0.421891 0.261064
O O6 0.228063 0.457946 0.402664
O O7 0.213534 0.529981 0.142137
O O8 0.146884 0.625449 0.349143
O O9 0.069425 0.339265 0.502739
O O10 0.080828 0.210647 0.275016
O O11 0.788811 0.224228 0.504170
O O12 0.684460 0.165234 0.378383
#
# Coordination Sequence:
#
# PCOD8249853 Si02
#       6
#     8   8   8   8   8   8
#     4  12  25  48  70 102 138 184 235 285 346 412
#     4  11  26  44  69 102 135 186 219 292 340 411
#     4  11  26  44  72  97 143 180 235 280 349 406
#     4  11  25  42  71 101 143 169 239 272 357 409
#     4  12  25  44  71 103 134 186 226 292 343 410
#     4  11  26  44  69 104 136 188 222 294 343 412
#
# _framework density 21.157122000000001
#
# number of rings (size 3 to 8) (size 9 to 14) (size 15 to 20)
#    0.000    0.667    5.000    2.500    9.333    1.333 
#    0.000    2.500    0.000    0.000    0.000    0.000 
#    0.000    0.000    0.000    0.000    0.000    0.000 
#
# Total GULP energy -595605.169658 kJ/mol
# GULP energy per Si atom -12408.441035 kJ/mol
# Density = 2.110897 g / cm^3
# Si number density = 21.157122 Si / 1000 Ang^3
#
#
#
# Elastic Constant Matrix: (Units=GPa)
#
#
# Indices 1 2 3 4 5 6 
#
# 1 115.1586 21.4825 31.8265 0.0000 0.0000 0.0000
# 2 21.4825 86.9464 42.6117 0.0000 0.0000 0.0000
# 3 31.8265 42.6117 59.4966 0.0000 0.0000 0.0000
# 4 0.0000 0.0000 0.0000 37.3325 0.0000 0.0000
# 5 0.0000 0.0000 0.0000 0.0000 31.5248 0.0000
# 6 0.0000 0.0000 0.0000 0.0000 0.0000 27.5281
#
#
#
# Elastic Compliance Matrix: (Units=1/GPa)
#
#
# Indices 1 2 3 4 5 6 
#
# 1 0.010193 0.000237 -0.005622 0.000000 0.000000 0.000000
# 2 0.000237 0.017727 -0.012823 0.000000 0.000000 0.000000
# 3 -0.005622 -0.012823 0.028999 0.000000 0.000000 0.000000
# 4 0.000000 0.000000 0.000000 0.026786 0.000000 0.000000
# 5 0.000000 0.000000 0.000000 0.000000 0.031721 0.000000
# 6 0.000000 0.000000 0.000000 0.000000 0.000000 0.036326
#
#
# Mechanical properties :
#
#
# Convention : Reuss Voigt Hill
#
# Bulk Modulus (GPa) = 48.77402 50.38256 49.57829
# Shear Modulus (GPa) = 25.64032 30.32248 27.98140
#
# Velocity S-wave (km/s) = 3.48501 3.78988 3.64064
# Velocity P-wave (km/s) = 6.26874 6.55867 6.41534
#
# Compressibility (1/GPa) = 0.02050272
#
# Stress axis : x y z
#
# Youngs Moduli (GPa) = 98.10318 56.41016 34.48356
#
# Poissons Ratio (x) = -0.01337 0.19388
# Poissons Ratio (y) = -0.02325 0.44219
# Poissons Ratio (z) = 0.55158 0.72336
#
# Static dielectric constant tensor:
#      x y z
#    x 3.932030 0.000000 0.000000 
#    y 0.000000 3.809120 0.000000 
#    z 0.000000 0.000000 3.894050 
# 
# 
# High freq. dielectric constant tensor:
#      x y z
#    x 1.841860 0.000000 0.000000 
#    y 0.000000 1.834630 0.000000 
#    z 0.000000 0.000000 1.833500 
# 
# From -- ./inp_files/4222.got.cif
#   From: 2010.03.12/outbox.cif.g09.slc.cpg/sg61_3_cif.got.tgz:4222.got - 2010.04.10 19:05:03.
