data_PCOD8249952
_publ_section_title
;
Structure prediction by ZEFSAII (Michael W. Deem and Ramdas Pophale) SiO2 
 PCOD8249952
Probable space group: P N M A
;
_chemical_formula_sum "Si O2"
_cell_formula_units_Z 64
_cell_length_a 19.140982
_cell_length_b 12.949339
_cell_length_c 16.801214
_cell_angle_alpha 90.000000
_cell_angle_beta 90.000000
_cell_angle_gamma 90.000000
_cell_volume 4164.400393
_symmetry_space_group_name_H-M "P N M A"
_symmetry_group_IT_number 62
_symmetry_cell_setting 'orthorhombic'
loop_
_space_group_symop_operation_xyz
x,y,z
1/2-x,-y,1/2+z
1/2+x,1/2-y,1/2-z
-x,1/2+y,-z
-x,-y,-z
1/2+x,y,1/2-z
1/2-x,1/2+y,1/2+z
x,1/2-y,z
loop_
_atom_site_type_symbol
_atom_site_label
_atom_site_fract_x
_atom_site_fract_y
_atom_site_fract_z
Si Si1 0.170536 0.022762 0.482327
Si Si2 0.641112 0.549368 0.763145
Si Si3 0.529823 0.515106 0.086405
Si Si4 0.732226 0.869481 0.899621
Si Si5 0.354179 0.867207 0.705556
Si Si6 0.493746 0.628250 0.772392
Si Si7 0.747985 0.368050 0.152167
Si Si8 0.598096 0.369773 0.869579
O O1 0.225247 0.092492 0.434252
O O2 0.133991 0.094773 0.548196
O O3 0.113266 0.969525 0.423124
O O4 0.214617 0.930658 0.520868
O O5 0.670732 0.620443 0.834471
O O6 0.566954 0.594670 0.734817
O O7 0.691458 0.556962 0.686736
O O8 0.632300 0.432256 0.795536
O O9 0.513759 0.413634 0.138070
O O10 0.486093 0.609634 0.126293
O O11 0.500000 0.500000 0.000000
O O12 0.740304 0.750000 0.921945
O O13 0.803814 0.918095 0.861404
O O14 0.362275 0.750000 0.678098
O O15 0.431450 0.917057 0.715317
O O16 0.319226 0.874145 0.791892
O O17 0.485939 0.750000 0.778658
O O18 0.775523 0.250000 0.146402
O O19 0.612173 0.250000 0.854292
#
# Coordination Sequence:
#
# PCOD8249952 Si02
#       8
#     8   8   8   8   8   8   8   8
#     4  10  18  28  44  67  91 120 154 185 229 276
#     4   9  18  29  45  68  88 117 151 189 228 267
#     4   9  18  26  37  65  94 117 146 177 219 278
#     4   9  17  30  43  62  92 121 148 182 229 276
#     4   8  15  26  44  63  83 116 149 182 222 262
#     4  10  16  26  44  66  89 113 146 186 225 265
#     4  10  17  28  45  68  94 116 147 193 232 265
#     4   9  18  31  44  61  91 127 156 181 222 279
#
# _framework density 15.368359
#
# number of rings (size 3 to 8) (size 9 to 14) (size 15 to 20)
#    0.000    2.750    1.250    3.000    0.000    2.500 
#    0.000    0.625    0.000    0.750    0.000    0.875 
#    0.000    0.000    0.000    0.000    0.000    0.000 
#
# Total GULP energy -793024.840202 kJ/mol
# GULP energy per Si atom -12391.013128 kJ/mol
# Density = 1.533338 g / cm^3
# Si number density = 15.368359 Si / 1000 Ang^3
#
#
#
# Elastic Constant Matrix: (Units=GPa)
#
#
# Indices 1 2 3 4 5 6 
#
# 1 110.1046 39.2429 42.7573 0.0000 0.0000 0.0000
# 2 39.2429 86.3422 37.1294 0.0000 0.0000 0.0000
# 3 42.7573 37.1294 48.2838 0.0000 0.0000 0.0000
# 4 0.0000 0.0000 0.0000 19.2592 0.0000 0.0000
# 5 0.0000 0.0000 0.0000 0.0000 28.0305 0.0000
# 6 0.0000 0.0000 0.0000 0.0000 0.0000 16.9770
#
#
#
# Elastic Compliance Matrix: (Units=1/GPa)
#
#
# Indices 1 2 3 4 5 6 
#
# 1 0.013978 -0.001539 -0.011195 0.000000 0.000000 0.000000
# 2 -0.001539 0.017473 -0.012074 0.000000 0.000000 0.000000
# 3 -0.011195 -0.012074 0.039909 0.000000 0.000000 0.000000
# 4 0.000000 0.000000 0.000000 0.051923 0.000000 0.000000
# 5 0.000000 0.000000 0.000000 0.000000 0.035675 0.000000
# 6 0.000000 0.000000 0.000000 0.000000 0.000000 0.058903
#
#
# Mechanical properties :
#
#
# Convention : Reuss Voigt Hill
#
# Bulk Modulus (GPa) = 45.98729 53.66555 49.82642
# Shear Modulus (GPa) = 18.19998 21.22674 19.71336
#
# Velocity S-wave (km/s) = 3.44503 3.72048 3.58540
# Velocity P-wave (km/s) = 6.76850 7.31104 7.04499
#
# Compressibility (1/GPa) = 0.02174514
#
# Stress axis : x y z
#
# Youngs Moduli (GPa) = 71.54057 57.22978 25.05720
#
# Poissons Ratio (x) = 0.08808 0.28051
# Poissons Ratio (y) = 0.11011 0.30254
# Poissons Ratio (z) = 0.80087 0.69098
#
# Static dielectric constant tensor:
#      x y z
#    x 3.021430 0.000000 0.000000 
#    y 0.000000 2.756760 0.000000 
#    z 0.000000 0.000000 2.774370 
# 
# 
# High freq. dielectric constant tensor:
#      x y z
#    x 1.595500 0.000000 0.000000 
#    y 0.000000 1.564490 0.000000 
#    z 0.000000 0.000000 1.558710 
# 
# From -- ./inp_files/24458.got.cif
#   From: 2010.03.12/outbox.cif.g09.slc.cpg/sg62_13_cif.got.tgz:24458.got - 2010.04.10 19:12:36.
