data_PCOD8249151
_publ_section_title
;
Structure prediction by ZEFSAII (Michael W. Deem and Ramdas Pophale) SiO2 
 PCOD8249151
Probable space group: P B C A
;
_chemical_formula_sum "Si O2"
_cell_formula_units_Z 40
_cell_length_a 20.920654
_cell_length_b 4.976422
_cell_length_c 18.114603
_cell_angle_alpha 90.000000
_cell_angle_beta 90.000000
_cell_angle_gamma 90.000000
_cell_volume 1885.911369
_symmetry_space_group_name_H-M "P B C A"
_symmetry_group_IT_number 61
_symmetry_cell_setting 'orthorhombic'
loop_
_space_group_symop_operation_xyz
x,y,z
1/2-x,-y,1/2+z
1/2+x,1/2-y,-z
-x,1/2+y,1/2-z
-x,-y,-z
1/2+x,y,1/2-z
1/2-x,1/2+y,z
x,1/2-y,1/2+z
loop_
_atom_site_type_symbol
_atom_site_label
_atom_site_fract_x
_atom_site_fract_y
_atom_site_fract_z
Si Si1 0.956630 0.872530 0.761635
Si Si2 0.950614 0.218151 0.546455
Si Si3 0.892534 0.785565 0.119723
Si Si4 0.207730 0.250882 0.492577
Si Si5 0.084022 0.397291 0.575495
O O1 0.899495 0.802568 0.704307
O O2 0.921317 0.949121 0.837206
O O3 0.003780 0.620594 0.771627
O O4 0.930703 0.436113 0.609242
O O5 0.926421 0.319570 0.466532
O O6 0.027859 0.191437 0.548779
O O7 0.920962 0.932017 0.563283
O O8 0.819713 0.810441 0.090483
O O9 0.267227 0.449702 0.502908
O O10 0.153944 0.287440 0.555612
#
# Coordination Sequence:
#
# PCOD8249151 Si02
#       5
#     8   8   8   8   8
#     4  12  23  38  60  99 131 155 191 262 340 391
#     4  10  21  36  64  94 122 161 197 265 324 374
#     4  11  21  41  62  91 128 160 204 254 323 377
#     4  11  25  42  62  85 119 170 218 248 284 357
#     4  10  22  39  63  94 127 158 210 261 317 371
#
# _framework density 21.209904999999999
#
# number of rings (size 3 to 8) (size 9 to 14) (size 15 to 20)
#    0.000    1.200    4.000    2.400    0.000   13.600 
#    0.000    2.000    0.000    0.000    0.000    0.000 
#    0.000    0.000    0.000    0.000    0.000    0.000 
#
# Total GULP energy -495987.069062 kJ/mol
# GULP energy per Si atom -12399.676727 kJ/mol
# Density = 2.116163 g / cm^3
# Si number density = 21.209905 Si / 1000 Ang^3
#
#
#
# Elastic Constant Matrix: (Units=GPa)
#
#
# Indices 1 2 3 4 5 6 
#
# 1 95.6030 14.2533 26.2501 0.0000 0.0000 0.0000
# 2 14.2533 67.7640 -15.3646 0.0000 0.0000 0.0000
# 3 26.2501 -15.3646 139.0819 0.0000 0.0000 0.0000
# 4 0.0000 0.0000 0.0000 20.3268 0.0000 0.0000
# 5 0.0000 0.0000 0.0000 0.0000 25.3570 0.0000
# 6 0.0000 0.0000 0.0000 0.0000 0.0000 34.3782
#
#
#
# Elastic Compliance Matrix: (Units=1/GPa)
#
#
# Indices 1 2 3 4 5 6 
#
# 1 0.011602 -0.003012 -0.002522 0.000000 0.000000 0.000000
# 2 -0.003012 0.015918 0.002327 0.000000 0.000000 0.000000
# 3 -0.002522 0.002327 0.007923 0.000000 0.000000 0.000000
# 4 0.000000 0.000000 0.000000 0.049196 0.000000 0.000000
# 5 0.000000 0.000000 0.000000 0.000000 0.039437 0.000000
# 6 0.000000 0.000000 0.000000 0.000000 0.000000 0.029088
#
#
# Mechanical properties :
#
#
# Convention : Reuss Voigt Hill
#
# Bulk Modulus (GPa) = 34.44961 39.19185 36.82073
# Shear Modulus (GPa) = 29.54115 34.49973 32.02044
#
# Velocity S-wave (km/s) = 3.73607 4.03747 3.88969
# Velocity P-wave (km/s) = 5.90665 6.34453 6.12950
#
# Compressibility (1/GPa) = 0.02902791
#
# Stress axis : x y z
#
# Youngs Moduli (GPa) = 86.19507 62.82077 126.21234
#
# Poissons Ratio (x) = 0.18923 0.31836
# Poissons Ratio (y) = 0.25963 -0.29370
# Poissons Ratio (z) = 0.21742 -0.14619
#
# Static dielectric constant tensor:
#      x y z
#    x 3.723720 0.000000 0.000000 
#    y 0.000000 3.883160 0.000000 
#    z 0.000000 0.000000 3.779400 
# 
# 
# High freq. dielectric constant tensor:
#      x y z
#    x 1.809630 0.000000 0.000000 
#    y 0.000000 1.849670 0.000000 
#    z 0.000000 0.000000 1.827200 
# 
# From -- ./inp_files/9605.got.cif
#   From: 2010.03.12/outbox.cif.g09.slc.cpg/sg61_5_cif.got.tgz:9605.got - 2010.04.10 19:05:03.
