data_PCOD8249461
_publ_section_title
;
Structure prediction by ZEFSAII (Michael W. Deem and Ramdas Pophale) SiO2 
 PCOD8249461
Probable space group: P B C A
;
_chemical_formula_sum "Si O2"
_cell_formula_units_Z 48
_cell_length_a 14.517715
_cell_length_b 8.516722
_cell_length_c 15.411032
_cell_angle_alpha 90.000000
_cell_angle_beta 90.000000
_cell_angle_gamma 90.000000
_cell_volume 1905.471511
_symmetry_space_group_name_H-M "P B C A"
_symmetry_group_IT_number 61
_symmetry_cell_setting 'orthorhombic'
loop_
_space_group_symop_operation_xyz
x,y,z
1/2-x,-y,1/2+z
1/2+x,1/2-y,-z
-x,1/2+y,1/2-z
-x,-y,-z
1/2+x,y,1/2-z
1/2-x,1/2+y,z
x,1/2-y,1/2+z
loop_
_atom_site_type_symbol
_atom_site_label
_atom_site_fract_x
_atom_site_fract_y
_atom_site_fract_z
Si Si1 0.689672 0.178677 0.660865
Si Si2 0.824479 0.382664 0.570984
Si Si3 0.003030 0.214414 0.561771
Si Si4 0.013845 0.384221 0.867503
Si Si5 0.674761 0.913557 0.804129
Si Si6 0.293215 0.803329 0.092602
O O1 0.778980 0.293287 0.656308
O O2 0.602190 0.293562 0.669788
O O3 0.688898 0.071288 0.572651
O O4 0.693635 0.041540 0.730983
O O5 0.776866 0.301459 0.488154
O O6 0.933525 0.357302 0.579088
O O7 0.987576 0.170768 0.462631
O O8 0.107400 0.276875 0.575233
O O9 0.972032 0.072599 0.626154
O O10 0.929366 0.345667 0.801676
O O11 0.750204 0.774758 0.818804
O O12 0.684880 0.013221 0.893449
#
# Coordination Sequence:
#
# PCOD8249461 Si02
#       6
#     8   8   8   8   8   8
#     4  12  26  43  71 106 144 183 235 294 367 432
#     4  12  24  43  72 102 136 186 243 296 346 435
#     4  10  22  42  73 100 136 183 242 299 343 418
#     4  10  22  43  69 101 139 184 236 290 358 420
#     4  11  25  44  67 102 146 182 226 297 363 425
#     4  11  23  43  70  98 137 187 235 291 353 422
#
# _framework density 25.190614
#
# number of rings (size 3 to 8) (size 9 to 14) (size 15 to 20)
#    0.000    1.000    3.333    3.000    2.333    4.667 
#    0.000    3.333    0.000    0.000    0.000    0.000 
#    0.000    0.000    0.000    0.000    0.000    0.000 
#
# Total GULP energy -594880.416747 kJ/mol
# GULP energy per Si atom -12393.342016 kJ/mol
# Density = 2.513328 g / cm^3
# Si number density = 25.190614 Si / 1000 Ang^3
#
#
#
# Elastic Constant Matrix: (Units=GPa)
#
#
# Indices 1 2 3 4 5 6 
#
# 1 154.3815 31.0212 2.9187 0.0000 0.0000 0.0000
# 2 31.0212 65.1820 -4.4402 0.0000 0.0000 0.0000
# 3 2.9187 -4.4402 44.0544 0.0000 0.0000 0.0000
# 4 0.0000 0.0000 0.0000 16.6486 0.0000 0.0000
# 5 0.0000 0.0000 0.0000 0.0000 18.8485 0.0000
# 6 0.0000 0.0000 0.0000 0.0000 0.0000 52.4875
#
#
#
# Elastic Compliance Matrix: (Units=1/GPa)
#
#
# Indices 1 2 3 4 5 6 
#
# 1 0.007192 -0.003479 -0.000827 0.000000 0.000000 0.000000
# 2 -0.003479 0.017131 0.001957 0.000000 0.000000 0.000000
# 3 -0.000827 0.001957 0.022951 0.000000 0.000000 0.000000
# 4 0.000000 0.000000 0.000000 0.060065 0.000000 0.000000
# 5 0.000000 0.000000 0.000000 0.000000 0.053055 0.000000
# 6 0.000000 0.000000 0.000000 0.000000 0.000000 0.019052
#
#
# Mechanical properties :
#
#
# Convention : Reuss Voigt Hill
#
# Bulk Modulus (GPa) = 23.48760 35.84636 29.66698
# Shear Modulus (GPa) = 25.20969 33.20482 29.20725
#
# Velocity S-wave (km/s) = 3.16691 3.63456 3.40876
# Velocity P-wave (km/s) = 4.76619 5.64574 5.22451
#
# Compressibility (1/GPa) = 0.04257566
#
# Stress axis : x y z
#
# Youngs Moduli (GPa) = 139.03931 58.37434 43.57062
#
# Poissons Ratio (x) = 0.20310 0.03604
# Poissons Ratio (y) = 0.48375 -0.08527
# Poissons Ratio (z) = 0.11501 -0.11424
#
# Static dielectric constant tensor:
#      x y z
#    x 4.452880 0.000000 0.000000 
#    y 0.000000 4.840090 0.000000 
#    z 0.000000 0.000000 4.669600 
# 
# 
# High freq. dielectric constant tensor:
#      x y z
#    x 2.003910 0.000000 0.000000 
#    y 0.000000 2.011780 0.000000 
#    z 0.000000 0.000000 2.008840 
# 
# From -- ./inp_files/9444.got.cif
#   From: 2010.03.12/outbox.cif.g09.slc.cpg/sg61_5_cif.got.tgz:9444.got - 2010.04.10 19:05:03.
