data_PCOD8249556
_publ_section_title
;
Structure prediction by ZEFSAII (Michael W. Deem and Ramdas Pophale) SiO2 
 PCOD8249556
Probable space group: P B C A
;
_chemical_formula_sum "Si O2"
_cell_formula_units_Z 48
_cell_length_a 12.714875
_cell_length_b 26.207806
_cell_length_c 5.669942
_cell_angle_alpha 90.000000
_cell_angle_beta 90.000000
_cell_angle_gamma 90.000000
_cell_volume 1889.388974
_symmetry_space_group_name_H-M "P B C A"
_symmetry_group_IT_number 61
_symmetry_cell_setting 'orthorhombic'
loop_
_space_group_symop_operation_xyz
x,y,z
1/2-x,-y,1/2+z
1/2+x,1/2-y,-z
-x,1/2+y,1/2-z
-x,-y,-z
1/2+x,y,1/2-z
1/2-x,1/2+y,z
x,1/2-y,1/2+z
loop_
_atom_site_type_symbol
_atom_site_label
_atom_site_fract_x
_atom_site_fract_y
_atom_site_fract_z
Si Si1 0.836608 0.952339 0.712872
Si Si2 0.243840 0.233604 0.076294
Si Si3 0.778740 0.120446 0.528212
Si Si4 0.637034 0.555886 0.910443
Si Si5 0.489609 0.384505 0.758194
Si Si6 0.509211 0.269136 0.860056
O O1 0.805250 0.922368 0.952720
O O2 0.731368 0.964097 0.572542
O O3 0.920765 0.912211 0.595729
O O4 0.891912 0.007466 0.747605
O O5 0.298679 0.237853 0.343569
O O6 0.229638 0.176064 0.987492
O O7 0.126408 0.255990 0.125144
O O8 0.816943 0.106676 0.788091
O O9 0.880508 0.121420 0.367803
O O10 0.530002 0.573891 0.034390
O O11 0.523076 0.329865 0.857999
O O12 0.453634 0.250043 0.609199
#
# Coordination Sequence:
#
# PCOD8249556 Si02
#       6
#     8   8   8   8   8   8
#     4  11  23  47  68  97 143 180 231 295 353 428
#     4  10  23  43  72 101 139 191 240 292 359 433
#     4  11  25  43  68 103 135 185 234 288 360 424
#     4  11  25  44  70 101 135 187 235 289 364 428
#     4  11  26  42  70 104 137 180 239 295 358 432
#     4  10  23  43  69 102 141 187 235 293 365 427
#
# _framework density 25.405041000000001
#
# number of rings (size 3 to 8) (size 9 to 14) (size 15 to 20)
#    0.000    1.333    3.333    0.500    7.000    4.667 
#    0.000    0.000    0.000    0.000    0.000    0.000 
#    0.000    0.000    0.000    0.000    0.000    0.000 
#
# Total GULP energy -594667.134454 kJ/mol
# GULP energy per Si atom -12388.898634 kJ/mol
# Density = 2.534722 g / cm^3
# Si number density = 25.405041 Si / 1000 Ang^3
#
#
#
# Elastic Constant Matrix: (Units=GPa)
#
#
# Indices 1 2 3 4 5 6 
#
# 1 33.0385 14.7266 11.9392 0.0000 0.0000 0.0000
# 2 14.7266 150.6168 45.2820 0.0000 0.0000 0.0000
# 3 11.9392 45.2820 124.6225 0.0000 0.0000 0.0000
# 4 0.0000 0.0000 0.0000 38.8275 0.0000 0.0000
# 5 0.0000 0.0000 0.0000 0.0000 19.5649 0.0000
# 6 0.0000 0.0000 0.0000 0.0000 0.0000 35.9041
#
#
#
# Elastic Compliance Matrix: (Units=1/GPa)
#
#
# Indices 1 2 3 4 5 6 
#
# 1 0.032164 -0.002491 -0.002176 0.000000 0.000000 0.000000
# 2 -0.002491 0.007646 -0.002540 0.000000 0.000000 0.000000
# 3 -0.002176 -0.002540 0.009156 0.000000 0.000000 0.000000
# 4 0.000000 0.000000 0.000000 0.025755 0.000000 0.000000
# 5 0.000000 0.000000 0.000000 0.000000 0.051112 0.000000
# 6 0.000000 0.000000 0.000000 0.000000 0.000000 0.027852
#
#
# Mechanical properties :
#
#
# Convention : Reuss Voigt Hill
#
# Bulk Modulus (GPa) = 28.94118 50.24148 39.59133
# Shear Modulus (GPa) = 27.83710 34.61463 31.22587
#
# Velocity S-wave (km/s) = 3.31377 3.69522 3.50969
# Velocity P-wave (km/s) = 5.10471 6.16647 5.66054
#
# Compressibility (1/GPa) = 0.03455284
#
# Stress axis : x y z
#
# Youngs Moduli (GPa) = 31.09029 130.77977 109.22300
#
# Poissons Ratio (x) = 0.32571 0.23772
# Poissons Ratio (y) = 0.07743 0.27740
# Poissons Ratio (z) = 0.06767 0.33215
#
# Static dielectric constant tensor:
#      x y z
#    x 4.832250 0.000000 0.000000 
#    y 0.000000 4.554690 0.000000 
#    z 0.000000 0.000000 4.968590 
# 
# 
# High freq. dielectric constant tensor:
#      x y z
#    x 2.033520 0.000000 0.000000 
#    y 0.000000 2.014580 0.000000 
#    z 0.000000 0.000000 1.999250 
# 
# From -- ./inp_files/511.got.cif
#   From: 2010.03.12/outbox.cif.g09.slc.cpg/sg61_1_cif.got.tgz:511.got - 2010.04.10 19:05:03.
