data_PCOD8249934
_publ_section_title
;
Structure prediction by ZEFSAII (Michael W. Deem and Ramdas Pophale) SiO2 
 PCOD8249934
Probable space group: P B C A
;
_chemical_formula_sum "Si O2"
_cell_formula_units_Z 48
_cell_length_a 30.000000
_cell_length_b 9.000000
_cell_length_c 9.000000
_cell_angle_alpha 90.000000
_cell_angle_beta 90.000000
_cell_angle_gamma 90.000000
_cell_volume 2430.000000
_symmetry_space_group_name_H-M "P B C A"
_symmetry_group_IT_number 61
_symmetry_cell_setting 'orthorhombic'
loop_
_space_group_symop_operation_xyz
x,y,z
1/2-x,-y,1/2+z
1/2+x,1/2-y,-z
-x,1/2+y,1/2-z
-x,-y,-z
1/2+x,y,1/2-z
1/2-x,1/2+y,z
x,1/2-y,1/2+z
loop_
_atom_site_type_symbol
_atom_site_label
_atom_site_fract_x
_atom_site_fract_y
_atom_site_fract_z
Si Si1 0.382723 0.849705 0.366304
Si Si2 0.459302 0.443756 0.805669
Si Si3 0.382108 0.559715 0.192551
Si Si4 0.040880 0.853049 0.141209
Si Si5 0.218933 0.059678 0.194346
Si Si6 0.718309 0.148793 0.637541
O O1 0.390626 0.678977 0.321689
O O2 0.394030 0.855272 0.540233
O O3 0.332386 0.902059 0.333451
O O4 0.414392 0.962562 0.277610
O O5 0.463337 0.319738 0.679429
O O6 0.500260 0.555697 0.789297
O O7 0.458906 0.362597 0.964068
O O8 0.413759 0.417879 0.212932
O O9 0.331616 0.499770 0.189980
O O10 0.223350 0.178308 0.326507
O O11 0.251438 0.928770 0.239364
O O12 0.233025 0.122248 0.032503
#
# Coordination Sequence:
#
# PCOD8249934 Si02
#       6
#     8   8   8   8   8   8
#     4   9  19  35  54  77 104 135 172 213 256 305
#     4  10  21  36  54  78 106 135 170 210 253 304
#     4   9  19  35  54  77 104 135 172 213 256 305
#     4  10  21  36  54  78 106 135 170 210 253 304
#     4  10  20  35  54  77 106 139 176 217 262 310
#     4  10  20  35  54  77 106 139 176 217 262 310
#
# _framework density 19.753086
#
# number of rings (size 3 to 8) (size 9 to 14) (size 15 to 20)
#    0.000    2.333    0.000    2.000    0.000    4.667 
#    0.000    3.333    0.000    0.000    0.000    0.000 
#    0.000    0.000    0.000    0.000    0.000    0.000 
#
# Total GULP energy -595274.447500 kJ/mol
# GULP energy per Si atom -12401.550990 kJ/mol
# Density = 1.970813 g / cm^3
# Si number density = 19.753086 Si / 1000 Ang^3
#
#
#
# Elastic Constant Matrix: (Units=GPa)
#
#
# Indices 1 2 3 4 5 6 
#
# 1 79.8099 25.3172 17.0896 0.0000 0.0000 0.0000
# 2 25.3172 41.4985 1.9399 0.0000 0.0000 0.0000
# 3 17.0896 1.9399 40.3670 0.0000 0.0000 0.0000
# 4 0.0000 0.0000 0.0000 36.5927 0.0000 0.0000
# 5 0.0000 0.0000 0.0000 0.0000 25.7243 0.0000
# 6 0.0000 0.0000 0.0000 0.0000 0.0000 33.7001
#
#
#
# Elastic Compliance Matrix: (Units=1/GPa)
#
#
# Indices 1 2 3 4 5 6 
#
# 1 0.017217 -0.010186 -0.006799 0.000000 0.000000 0.000000
# 2 -0.010186 0.030178 0.002862 0.000000 0.000000 0.000000
# 3 -0.006799 0.002862 0.027514 0.000000 0.000000 0.000000
# 4 0.000000 0.000000 0.000000 0.027328 0.000000 0.000000
# 5 0.000000 0.000000 0.000000 0.000000 0.038874 0.000000
# 6 0.000000 0.000000 0.000000 0.000000 0.000000 0.029674
#
#
# Mechanical properties :
#
#
# Convention : Reuss Voigt Hill
#
# Bulk Modulus (GPa) = 21.43080 27.81878 24.62479
# Shear Modulus (GPa) = 23.30096 27.02531 25.16314
#
# Velocity S-wave (km/s) = 3.43827 3.70287 3.57302
# Velocity P-wave (km/s) = 5.16093 5.69171 5.43280
#
# Compressibility (1/GPa) = 0.04666181
#
# Stress axis : x y z
#
# Youngs Moduli (GPa) = 58.08275 33.13723 36.34548
#
# Poissons Ratio (x) = 0.33753 0.24713
# Poissons Ratio (y) = 0.59161 -0.10402
# Poissons Ratio (z) = 0.39493 -0.09484
#
# Static dielectric constant tensor:
#      x y z
#    x 3.752860 0.000000 0.000000 
#    y 0.000000 3.061550 0.000000 
#    z 0.000000 0.000000 3.489370 
# 
# 
# High freq. dielectric constant tensor:
#      x y z
#    x 1.777650 0.000000 0.000000 
#    y 0.000000 1.752510 0.000000 
#    z 0.000000 0.000000 1.765780 
# 
# From -- ./inp_files/1844.got.cif
#   From: 2010.03.12/outbox.ucp.g09.slc.cvg/sg61_1_cif.got.tgz:1844.got - 2010.05.04 19:33:56.
