data_PCOD8249188
_publ_section_title
;
Structure prediction by ZEFSAII (Michael W. Deem and Ramdas Pophale) SiO2 
 PCOD8249188
Probable space group: P B C A
;
_chemical_formula_sum "Si O2"
_cell_formula_units_Z 64
_cell_length_a 14.017261
_cell_length_b 9.215894
_cell_length_c 23.308597
_cell_angle_alpha 90.000000
_cell_angle_beta 90.000000
_cell_angle_gamma 90.000000
_cell_volume 3011.041657
_symmetry_space_group_name_H-M "P B C A"
_symmetry_group_IT_number 61
_symmetry_cell_setting 'orthorhombic'
loop_
_space_group_symop_operation_xyz
x,y,z
1/2-x,-y,1/2+z
1/2+x,1/2-y,-z
-x,1/2+y,1/2-z
-x,-y,-z
1/2+x,y,1/2-z
1/2-x,1/2+y,z
x,1/2-y,1/2+z
loop_
_atom_site_type_symbol
_atom_site_label
_atom_site_fract_x
_atom_site_fract_y
_atom_site_fract_z
Si Si1 0.827671 0.801292 0.103952
Si Si2 0.343315 0.491695 0.235152
Si Si3 0.992073 0.457561 0.360825
Si Si4 0.797979 0.703678 0.814749
Si Si5 0.681525 0.886580 0.424960
Si Si6 0.644580 0.523995 0.634003
Si Si7 0.530387 0.214326 0.887172
Si Si8 0.682146 0.191096 0.474585
O O1 0.829369 0.626702 0.103472
O O2 0.728525 0.859640 0.128101
O O3 0.909938 0.869446 0.143958
O O4 0.845054 0.854746 0.038797
O O5 0.433660 0.435140 0.198335
O O6 0.300016 0.631566 0.204875
O O7 0.251331 0.384911 0.236601
O O8 0.377945 0.512346 0.299814
O O9 0.932261 0.385996 0.413965
O O10 0.013201 0.627171 0.372685
O O11 0.731616 0.680795 0.869643
O O12 0.905319 0.659339 0.833146
O O13 0.720788 0.789311 0.477633
O O14 0.709479 0.053071 0.435940
O O15 0.552357 0.596256 0.604202
O O16 0.594394 0.222181 0.944931
#
# Coordination Sequence:
#
# PCOD8249188 Si02
#       8
#     8   8   8   8   8   8   8   8
#     4  12  26  41  58  87 122 160 203 245 303 371
#     4  10  21  38  61  87 119 158 194 249 306 349
#     4   9  21  39  60  86 115 152 202 247 296 360
#     4   9  18  37  63  91 118 148 198 249 296 356
#     4   9  18  36  63  92 117 151 198 248 301 358
#     4  12  26  40  57  84 120 160 203 247 302 368
#     4   9  21  40  61  88 118 153 202 250 293 356
#     4  10  21  38  63  90 123 159 194 252 309 351
#
# _framework density 21.255103999999999
#
# number of rings (size 3 to 8) (size 9 to 14) (size 15 to 20)
#    0.000    2.000    0.000    4.500    0.000   10.500 
#    0.000    0.000    0.000    0.000    0.000    0.000 
#    0.000    0.000    0.000    0.000    0.000    0.000 
#
# Total GULP energy -793258.978388 kJ/mol
# GULP energy per Si atom -12394.671537 kJ/mol
# Density = 2.120673 g / cm^3
# Si number density = 21.255104 Si / 1000 Ang^3
#
#
#
# Elastic Constant Matrix: (Units=GPa)
#
#
# Indices 1 2 3 4 5 6 
#
# 1 84.6428 33.3630 18.4499 0.0000 0.0000 0.0000
# 2 33.3630 71.7939 16.7277 0.0000 0.0000 0.0000
# 3 18.4499 16.7277 95.3871 0.0000 0.0000 0.0000
# 4 0.0000 0.0000 0.0000 24.7254 0.0000 0.0000
# 5 0.0000 0.0000 0.0000 0.0000 25.2906 0.0000
# 6 0.0000 0.0000 0.0000 0.0000 0.0000 39.9322
#
#
#
# Elastic Compliance Matrix: (Units=1/GPa)
#
#
# Indices 1 2 3 4 5 6 
#
# 1 0.014729 -0.006444 -0.001719 0.000000 0.000000 0.000000
# 2 -0.006444 0.017342 -0.001795 0.000000 0.000000 0.000000
# 3 -0.001719 -0.001795 0.011131 0.000000 0.000000 0.000000
# 4 0.000000 0.000000 0.000000 0.040444 0.000000 0.000000
# 5 0.000000 0.000000 0.000000 0.000000 0.039540 0.000000
# 6 0.000000 0.000000 0.000000 0.000000 0.000000 0.025042
#
#
# Mechanical properties :
#
#
# Convention : Reuss Voigt Hill
#
# Bulk Modulus (GPa) = 42.94422 43.21166 43.07794
# Shear Modulus (GPa) = 28.42430 30.20853 29.31642
#
# Velocity S-wave (km/s) = 3.66087 3.77402 3.71787
# Velocity P-wave (km/s) = 6.17392 6.27416 6.22424
#
# Compressibility (1/GPa) = 0.02328602
#
# Stress axis : x y z
#
# Youngs Moduli (GPa) = 67.89299 57.66492 89.84100
#
# Poissons Ratio (x) = 0.37160 0.15442
# Poissons Ratio (y) = 0.43752 0.16124
# Poissons Ratio (z) = 0.11670 0.10349
#
# Static dielectric constant tensor:
#      x y z
#    x 3.886490 0.000000 0.000000 
#    y 0.000000 3.907600 0.000000 
#    z 0.000000 0.000000 3.779540 
# 
# 
# High freq. dielectric constant tensor:
#      x y z
#    x 1.829400 0.000000 0.000000 
#    y 0.000000 1.833430 0.000000 
#    z 0.000000 0.000000 1.824660 
# 
# From -- ./inp_files/11067.got.cif
#   From: 2010.03.12/outbox.cif.g09.slc.cpg/sg61_6_cif.got.tgz:11067.got - 2010.04.10 19:05:03.
