data_PCOD8249299
_publ_section_title
;
Structure prediction by ZEFSAII (Michael W. Deem and Ramdas Pophale) SiO2 
 PCOD8249299
Probable space group: P B C A
;
_chemical_formula_sum "Si O2"
_cell_formula_units_Z 64
_cell_length_a 18.898383
_cell_length_b 17.442314
_cell_length_c 9.732758
_cell_angle_alpha 90.000000
_cell_angle_beta 90.000000
_cell_angle_gamma 90.000000
_cell_volume 3208.223914
_symmetry_space_group_name_H-M "P B C A"
_symmetry_group_IT_number 61
_symmetry_cell_setting 'orthorhombic'
loop_
_space_group_symop_operation_xyz
x,y,z
1/2-x,-y,1/2+z
1/2+x,1/2-y,-z
-x,1/2+y,1/2-z
-x,-y,-z
1/2+x,y,1/2-z
1/2-x,1/2+y,z
x,1/2-y,1/2+z
loop_
_atom_site_type_symbol
_atom_site_label
_atom_site_fract_x
_atom_site_fract_y
_atom_site_fract_z
Si Si1 0.226410 0.301654 0.410737
Si Si2 0.118503 0.072635 0.835885
Si Si3 0.614409 0.834362 0.031262
Si Si4 0.197219 0.335801 0.714336
Si Si5 0.159722 0.590572 0.244754
Si Si6 0.564692 0.421011 0.865057
Si Si7 0.033398 0.914710 0.238002
Si Si8 0.070384 0.663867 0.467361
O O1 0.182652 0.367835 0.334125
O O2 0.309127 0.321511 0.399217
O O3 0.202946 0.292063 0.568740
O O4 0.208198 0.222309 0.338291
O O5 0.049382 0.109542 0.763365
O O6 0.142691 0.998874 0.751016
O O7 0.098562 0.049572 0.992116
O O8 0.569068 0.894456 0.118625
O O9 0.571480 0.755341 0.023278
O O10 0.618644 0.869773 0.880383
O O11 0.256441 0.401774 0.723001
O O12 0.121716 0.377019 0.728417
O O13 0.138099 0.633920 0.384012
O O14 0.535735 0.493930 0.783623
O O15 0.500993 0.362473 0.891759
O O16 0.075813 0.869730 0.120121
#
# Coordination Sequence:
#
# PCOD8249299 Si02
#       8
#     8   8   8   8   8   8   8   8
#     4  10  23  42  60  88 124 160 205 251 301 364
#     4  10  21  42  63  86 123 163 199 249 309 358
#     4  11  25  37  60  98 123 155 207 255 305 365
#     4  10  23  41  61  88 124 158 205 252 301 361
#     4  11  21  41  62  86 124 161 195 256 307 353
#     4  10  21  41  65  91 117 165 210 245 302 375
#     4  11  22  40  64  90 121 158 209 249 297 379
#     4  11  20  41  67  83 118 164 205 246 305 365
#
# _framework density 19.948733000000001
#
# number of rings (size 3 to 8) (size 9 to 14) (size 15 to 20)
#    0.000    1.500    3.750    1.500    5.250    0.500 
#    4.500    0.000    0.000    0.000    0.000    0.000 
#    0.000    0.000    0.000    0.000    0.000    0.000 
#
# Total GULP energy -793914.823521 kJ/mol
# GULP energy per Si atom -12404.919118 kJ/mol
# Density = 1.990333 g / cm^3
# Si number density = 19.948733 Si / 1000 Ang^3
#
#
#
# Elastic Constant Matrix: (Units=GPa)
#
#
# Indices 1 2 3 4 5 6 
#
# 1 88.5388 47.1009 28.0791 0.0000 0.0000 0.0000
# 2 47.1009 99.7879 32.2420 0.0000 0.0000 0.0000
# 3 28.0791 32.2420 53.3159 0.0000 0.0000 0.0000
# 4 0.0000 0.0000 0.0000 34.6776 0.0000 0.0000
# 5 0.0000 0.0000 0.0000 0.0000 19.6978 0.0000
# 6 0.0000 0.0000 0.0000 0.0000 0.0000 33.1623
#
#
#
# Elastic Compliance Matrix: (Units=1/GPa)
#
#
# Indices 1 2 3 4 5 6 
#
# 1 0.016012 -0.006007 -0.004800 0.000000 0.000000 0.000000
# 2 -0.006007 0.014708 -0.005731 0.000000 0.000000 0.000000
# 3 -0.004800 -0.005731 0.024750 0.000000 0.000000 0.000000
# 4 0.000000 0.000000 0.000000 0.028837 0.000000 0.000000
# 5 0.000000 0.000000 0.000000 0.000000 0.050767 0.000000
# 6 0.000000 0.000000 0.000000 0.000000 0.000000 0.030155
#
#
# Mechanical properties :
#
#
# Convention : Reuss Voigt Hill
#
# Bulk Modulus (GPa) = 44.65488 50.72074 47.68781
# Shear Modulus (GPa) = 24.29881 26.45558 25.37719
#
# Velocity S-wave (km/s) = 3.49386 3.64562 3.57055
# Velocity P-wave (km/s) = 6.22170 6.57279 6.39965
#
# Compressibility (1/GPa) = 0.02239397
#
# Stress axis : x y z
#
# Youngs Moduli (GPa) = 62.45122 67.98864 40.40397
#
# Poissons Ratio (x) = 0.40841 0.19396
# Poissons Ratio (y) = 0.37515 0.23156
# Poissons Ratio (z) = 0.29979 0.38964
#
# Static dielectric constant tensor:
#      x y z
#    x 3.825600 0.000000 0.000000 
#    y 0.000000 3.523990 0.000000 
#    z 0.000000 0.000000 3.557900 
# 
# 
# High freq. dielectric constant tensor:
#      x y z
#    x 1.788730 0.000000 0.000000 
#    y 0.000000 1.776980 0.000000 
#    z 0.000000 0.000000 1.768460 
# 
# From -- ./inp_files/4061.got.cif
#   From: 2010.03.12/outbox.cif.g09.slc.cpg/sg61_3_cif.got.tgz:4061.got - 2010.04.10 19:05:03.
