data_PCOD8249760
_publ_section_title
;
Structure prediction by ZEFSAII (Michael W. Deem and Ramdas Pophale) SiO2 
 PCOD8249760
Probable space group: P B C A
;
_chemical_formula_sum "Si O2"
_cell_formula_units_Z 64
_cell_length_a 8.506892
_cell_length_b 18.386235
_cell_length_c 18.664122
_cell_angle_alpha 90.000000
_cell_angle_beta 90.000000
_cell_angle_gamma 90.000000
_cell_volume 2919.250011
_symmetry_space_group_name_H-M "P B C A"
_symmetry_group_IT_number 61
_symmetry_cell_setting 'orthorhombic'
loop_
_space_group_symop_operation_xyz
x,y,z
1/2-x,-y,1/2+z
1/2+x,1/2-y,-z
-x,1/2+y,1/2-z
-x,-y,-z
1/2+x,y,1/2-z
1/2-x,1/2+y,z
x,1/2-y,1/2+z
loop_
_atom_site_type_symbol
_atom_site_label
_atom_site_fract_x
_atom_site_fract_y
_atom_site_fract_z
Si Si1 0.699162 0.869713 0.939005
Si Si2 0.131684 0.473214 0.665002
Si Si3 0.156339 0.208276 0.927477
Si Si4 0.840320 0.119864 0.913711
Si Si5 0.139418 0.751801 0.801612
Si Si6 0.211574 0.584359 0.306192
Si Si7 0.849615 0.880007 0.549244
Si Si8 0.783293 0.757982 0.339566
O O1 0.788522 0.936826 0.903729
O O2 0.530544 0.898122 0.966837
O O3 0.690712 0.806862 0.879166
O O4 0.790398 0.841248 0.007289
O O5 0.120826 0.557354 0.643151
O O6 0.226018 0.462310 0.739165
O O7 0.961574 0.441095 0.676326
O O8 0.276072 0.201284 0.860852
O O9 0.161869 0.292844 0.947409
O O10 0.983879 0.177444 0.912393
O O11 0.694784 0.169894 0.887514
O O12 0.779228 0.091438 0.991138
O O13 0.220091 0.830217 0.789744
O O14 0.172304 0.714499 0.725601
O O15 0.957305 0.766233 0.817159
O O16 0.314528 0.575443 0.377932
#
# Coordination Sequence:
#
# PCOD8249760 Si02
#       8
#     8   8   8   8   8   8   8   8
#     4  12  23  41  72 102 136 183 231 287 347 420
#     4  12  27  45  68 101 143 188 230 286 361 433
#     4  11  23  41  70 103 137 177 232 294 347 401
#     4  12  27  45  68 105 146 183 230 296 360 421
#     4  11  23  40  70 103 131 177 240 293 341 412
#     4  11  23  43  70  99 137 184 231 281 349 422
#     4  11  23  42  73 102 134 180 237 290 338 412
#     4  12  23  41  69 103 135 175 236 295 343 406
#
# _framework density 21.923438999999998
#
# number of rings (size 3 to 8) (size 9 to 14) (size 15 to 20)
#    0.000    0.500    5.000    3.000    3.500    4.500 
#    0.000    2.500    0.000    0.000    0.000    0.000 
#    0.000    0.000    0.000    0.000    0.000    0.000 
#
# Total GULP energy -793348.477333 kJ/mol
# GULP energy per Si atom -12396.069958 kJ/mol
# Density = 2.187354 g / cm^3
# Si number density = 21.923439 Si / 1000 Ang^3
#
#
#
# Elastic Constant Matrix: (Units=GPa)
#
#
# Indices 1 2 3 4 5 6 
#
# 1 101.5003 18.1222 23.9973 0.0000 0.0000 0.0000
# 2 18.1222 29.7676 22.0763 0.0000 0.0000 0.0000
# 3 23.9973 22.0763 108.5445 0.0000 0.0000 0.0000
# 4 0.0000 0.0000 0.0000 35.6231 0.0000 0.0000
# 5 0.0000 0.0000 0.0000 0.0000 36.5284 0.0000
# 6 0.0000 0.0000 0.0000 0.0000 0.0000 3.1895
#
#
#
# Elastic Compliance Matrix: (Units=1/GPa)
#
#
# Indices 1 2 3 4 5 6 
#
# 1 0.011203 -0.005869 -0.001283 0.000000 0.000000 0.000000
# 2 -0.005869 0.042635 -0.007374 0.000000 0.000000 0.000000
# 3 -0.001283 -0.007374 0.010996 0.000000 0.000000 0.000000
# 4 0.000000 0.000000 0.000000 0.028072 0.000000 0.000000
# 5 0.000000 0.000000 0.000000 0.000000 0.027376 0.000000
# 6 0.000000 0.000000 0.000000 0.000000 0.000000 0.313526
#
#
# Mechanical properties :
#
#
# Convention : Reuss Voigt Hill
#
# Bulk Modulus (GPa) = 27.94634 40.91157 34.42895
# Shear Modulus (GPa) = 10.53102 26.77599 18.65350
#
# Velocity S-wave (km/s) = 2.19408 3.49856 2.92009
# Velocity P-wave (km/s) = 4.38104 5.91790 5.20649
#
# Compressibility (1/GPa) = 0.03578286
#
# Stress axis : x y z
#
# Youngs Moduli (GPa) = 89.25848 23.45490 90.94012
#
# Poissons Ratio (x) = 0.13765 0.11670
# Poissons Ratio (y) = 0.52384 0.67058
# Poissons Ratio (z) = 0.11454 0.17295
#
# Static dielectric constant tensor:
#      x y z
#    x 4.017830 0.000000 0.000000 
#    y 0.000000 3.725780 0.000000 
#    z 0.000000 0.000000 4.337340 
# 
# 
# High freq. dielectric constant tensor:
#      x y z
#    x 1.870490 0.000000 0.000000 
#    y 0.000000 1.838540 0.000000 
#    z 0.000000 0.000000 1.880440 
# 
# From -- ./inp_files/9038.got.cif
#   From: 2010.03.12/outbox.cif.g09.slc.cpg/sg61_5_cif.got.tgz:9038.got - 2010.04.10 19:05:03.
