data_PCOD8249365
_publ_section_title
;
Structure prediction by ZEFSAII (Michael W. Deem and Ramdas Pophale) SiO2 
 PCOD8249365
Probable space group: P B C A
;
_chemical_formula_sum "Si O2"
_cell_formula_units_Z 64
_cell_length_a 13.645652
_cell_length_b 21.587067
_cell_length_c 10.744048
_cell_angle_alpha 90.000000
_cell_angle_beta 90.000000
_cell_angle_gamma 90.000000
_cell_volume 3164.869965
_symmetry_space_group_name_H-M "P B C A"
_symmetry_group_IT_number 61
_symmetry_cell_setting 'orthorhombic'
loop_
_space_group_symop_operation_xyz
x,y,z
1/2-x,-y,1/2+z
1/2+x,1/2-y,-z
-x,1/2+y,1/2-z
-x,-y,-z
1/2+x,y,1/2-z
1/2-x,1/2+y,z
x,1/2-y,1/2+z
loop_
_atom_site_type_symbol
_atom_site_label
_atom_site_fract_x
_atom_site_fract_y
_atom_site_fract_z
Si Si1 0.324212 0.023111 0.141224
Si Si2 0.128887 0.146556 0.837177
Si Si3 0.716594 0.954645 0.133462
Si Si4 0.177316 0.218102 0.286294
Si Si5 0.966979 0.687985 0.414956
Si Si6 0.876654 0.342740 0.763491
Si Si7 0.980287 0.686527 0.028709
Si Si8 0.008494 0.071904 0.640354
O O1 0.340484 0.094145 0.175615
O O2 0.261579 0.995676 0.255223
O O3 0.429500 0.990676 0.119877
O O4 0.270501 0.016436 0.006104
O O5 0.228078 0.110688 0.870853
O O6 0.164342 0.208387 0.768208
O O7 0.056091 0.107110 0.754513
O O8 0.061730 0.159712 0.954757
O O9 0.603280 0.945407 0.167909
O O10 0.290111 0.200457 0.285417
O O11 0.127459 0.182420 0.172522
O O12 0.128912 0.196584 0.416340
O O13 0.054381 0.646652 0.356995
O O14 0.000448 0.760243 0.426370
O O15 0.939103 0.303844 0.863650
O O16 0.987042 0.616843 0.978544
#
# Coordination Sequence:
#
# PCOD8249365 Si02
#       8
#     8   8   8   8   8   8   8   8
#     4  11  26  43  64  96 127 171 224 267 324 382
#     4  10  23  42  62  95 130 167 210 273 321 387
#     4  11  25  43  70  89 129 173 223 268 329 388
#     4  10  22  38  62  93 130 159 206 266 319 387
#     4  10  22  40  62  96 131 162 212 262 321 388
#     4  11  24  39  65  95 126 171 212 262 326 388
#     4  10  22  39  63  92 123 166 210 256 322 384
#     4  11  23  44  64  89 126 173 210 266 321 386
#
# _framework density 20.222000000000001
#
# number of rings (size 3 to 8) (size 9 to 14) (size 15 to 20)
#    0.000    1.500    2.500    1.125    3.500    4.000 
#    2.250    2.500    0.000    0.000    0.000    0.000 
#    0.000    0.000    0.000    0.000    0.000    0.000 
#
# Total GULP energy -793556.374910 kJ/mol
# GULP energy per Si atom -12399.318358 kJ/mol
# Density = 2.017597 g / cm^3
# Si number density = 20.222000 Si / 1000 Ang^3
#
#
#
# Elastic Constant Matrix: (Units=GPa)
#
#
# Indices 1 2 3 4 5 6 
#
# 1 124.4713 29.1481 49.5373 0.0000 0.0000 0.0000
# 2 29.1481 58.2242 26.0205 0.0000 0.0000 0.0000
# 3 49.5373 26.0205 100.8923 0.0000 0.0000 0.0000
# 4 0.0000 0.0000 0.0000 22.2345 0.0000 0.0000
# 5 0.0000 0.0000 0.0000 0.0000 27.3165 0.0000
# 6 0.0000 0.0000 0.0000 0.0000 0.0000 25.7275
#
#
#
# Elastic Compliance Matrix: (Units=1/GPa)
#
#
# Indices 1 2 3 4 5 6 
#
# 1 0.010532 -0.003347 -0.004308 0.000000 0.000000 0.000000
# 2 -0.003347 0.020476 -0.003637 0.000000 0.000000 0.000000
# 3 -0.004308 -0.003637 0.012965 0.000000 0.000000 0.000000
# 4 0.000000 0.000000 0.000000 0.044975 0.000000 0.000000
# 5 0.000000 0.000000 0.000000 0.000000 0.036608 0.000000
# 6 0.000000 0.000000 0.000000 0.000000 0.000000 0.038869
#
#
# Mechanical properties :
#
#
# Convention : Reuss Voigt Hill
#
# Bulk Modulus (GPa) = 46.75530 54.77773 50.76651
# Shear Modulus (GPa) = 25.75453 26.98114 26.36784
#
# Velocity S-wave (km/s) = 3.57261 3.65670 3.61490
# Velocity P-wave (km/s) = 6.33950 6.70638 6.52552
#
# Compressibility (1/GPa) = 0.02138795
#
# Stress axis : x y z
#
# Youngs Moduli (GPa) = 94.94537 48.83692 77.13178
#
# Poissons Ratio (x) = 0.16348 0.33228
# Poissons Ratio (y) = 0.31782 0.28056
# Poissons Ratio (z) = 0.40902 0.17764
#
# Static dielectric constant tensor:
#      x y z
#    x 3.713980 0.000000 0.000000 
#    y 0.000000 3.805920 0.000000 
#    z 0.000000 0.000000 3.827400 
# 
# 
# High freq. dielectric constant tensor:
#      x y z
#    x 1.793120 0.000000 0.000000 
#    y 0.000000 1.788230 0.000000 
#    z 0.000000 0.000000 1.802480 
# 
# From -- ./inp_files/5465.got.cif
#   From: 2010.03.12/outbox.cif.g09.slc.cpg/sg61_3_cif.got.tgz:5465.got - 2010.04.10 19:05:03.
