data_PCOD8249778
_publ_section_title
;
Structure prediction by ZEFSAII (Michael W. Deem and Ramdas Pophale) SiO2 
 PCOD8249778
Probable space group: P B C A
;
_chemical_formula_sum "Si O2"
_cell_formula_units_Z 64
_cell_length_a 8.603488
_cell_length_b 22.322509
_cell_length_c 14.901727
_cell_angle_alpha 90.000000
_cell_angle_beta 90.000000
_cell_angle_gamma 90.000000
_cell_volume 2861.898104
_symmetry_space_group_name_H-M "P B C A"
_symmetry_group_IT_number 61
_symmetry_cell_setting 'orthorhombic'
loop_
_space_group_symop_operation_xyz
x,y,z
1/2-x,-y,1/2+z
1/2+x,1/2-y,-z
-x,1/2+y,1/2-z
-x,-y,-z
1/2+x,y,1/2-z
1/2-x,1/2+y,z
x,1/2-y,1/2+z
loop_
_atom_site_type_symbol
_atom_site_label
_atom_site_fract_x
_atom_site_fract_y
_atom_site_fract_z
Si Si1 0.368341 0.675936 0.201255
Si Si2 0.824103 0.003258 0.695926
Si Si3 0.944762 0.813195 0.299561
Si Si4 0.237082 0.134552 0.853573
Si Si5 0.683436 0.617835 0.143174
Si Si6 0.662962 0.501960 0.375128
Si Si7 0.851797 0.622263 0.969355
Si Si8 0.188131 0.871547 0.544140
O O1 0.421076 0.743440 0.214195
O O2 0.508678 0.633931 0.168896
O O3 0.306682 0.653098 0.295926
O O4 0.232196 0.671146 0.127228
O O5 0.787320 0.065731 0.648989
O O6 0.797531 0.010740 0.802466
O O7 0.002107 0.985646 0.677286
O O8 0.710070 0.952893 0.655882
O O9 0.910101 0.850062 0.208092
O O10 0.834491 0.837970 0.379548
O O11 0.124594 0.822954 0.319493
O O12 0.203825 0.146651 0.958779
O O13 0.712163 0.635281 0.038777
O O14 0.645447 0.447648 0.444185
O O15 0.715027 0.559442 0.430894
O O16 0.009928 0.639979 0.019466
#
# Coordination Sequence:
#
# PCOD8249778 Si02
#       8
#     8   8   8   8   8   8   8   8
#     4  12  27  45  64  99 136 180 234 279 329 402
#     4  12  21  41  74 100 135 173 223 275 350 403
#     4  11  25  44  69  95 135 183 232 276 332 402
#     4  11  23  45  71  99 133 179 222 285 347 398
#     4  12  25  44  69 101 135 177 224 285 342 404
#     4  12  22  42  70 106 139 175 219 278 348 411
#     4  11  23  43  70  97 134 180 219 276 348 402
#     4  11  23  43  69  98 139 176 218 280 344 407
#
# _framework density 22.362781999999999
#
# number of rings (size 3 to 8) (size 9 to 14) (size 15 to 20)
#    0.000    0.500    6.250    3.375    0.000    4.000 
#    2.250    1.250    0.000    0.000    0.000    0.000 
#    0.000    0.000    0.000    0.000    0.000    0.000 
#
# Total GULP energy -793891.305004 kJ/mol
# GULP energy per Si atom -12404.551641 kJ/mol
# Density = 2.231188 g / cm^3
# Si number density = 22.362782 Si / 1000 Ang^3
#
#
#
# Elastic Constant Matrix: (Units=GPa)
#
#
# Indices 1 2 3 4 5 6 
#
# 1 56.4829 6.3785 19.5894 0.0000 0.0000 0.0000
# 2 6.3785 91.9984 5.5587 0.0000 0.0000 0.0000
# 3 19.5894 5.5587 98.5797 0.0000 0.0000 0.0000
# 4 0.0000 0.0000 0.0000 19.1143 0.0000 0.0000
# 5 0.0000 0.0000 0.0000 0.0000 35.9755 0.0000
# 6 0.0000 0.0000 0.0000 0.0000 0.0000 23.5384
#
#
#
# Elastic Compliance Matrix: (Units=1/GPa)
#
#
# Indices 1 2 3 4 5 6 
#
# 1 0.019125 -0.001100 -0.003738 0.000000 0.000000 0.000000
# 2 -0.001100 0.010970 -0.000400 0.000000 0.000000 0.000000
# 3 -0.003738 -0.000400 0.010910 0.000000 0.000000 0.000000
# 4 0.000000 0.000000 0.000000 0.052317 0.000000 0.000000
# 5 0.000000 0.000000 0.000000 0.000000 0.027797 0.000000
# 6 0.000000 0.000000 0.000000 0.000000 0.000000 0.042484
#
#
# Mechanical properties :
#
#
# Convention : Reuss Voigt Hill
#
# Bulk Modulus (GPa) = 32.75697 34.45714 33.60705
# Shear Modulus (GPa) = 27.13627 30.09462 28.61544
#
# Velocity S-wave (km/s) = 3.48725 3.67242 3.58103
# Velocity P-wave (km/s) = 5.55827 5.78134 5.67090
#
# Compressibility (1/GPa) = 0.03052786
#
# Stress axis : x y z
#
# Youngs Moduli (GPa) = 52.28683 91.15605 91.66306
#
# Poissons Ratio (x) = 0.10028 0.34268
# Poissons Ratio (y) = 0.05752 0.03666
# Poissons Ratio (z) = 0.19547 0.03646
#
# Static dielectric constant tensor:
#      x y z
#    x 4.058220 0.000000 0.000000 
#    y 0.000000 3.906250 0.000000 
#    z 0.000000 0.000000 4.414650 
# 
# 
# High freq. dielectric constant tensor:
#      x y z
#    x 1.865530 0.000000 0.000000 
#    y 0.000000 1.877780 0.000000 
#    z 0.000000 0.000000 1.899560 
# 
# From -- ./inp_files/7252.got.cif
#   From: 2010.03.12/outbox.cif.g09.slc.cpg/sg61_4_cif.got.tgz:7252.got - 2010.04.10 19:05:03.
