data_PCOD8249533
_publ_section_title
;
Structure prediction by ZEFSAII (Michael W. Deem and Ramdas Pophale) SiO2 
 PCOD8249533
Probable space group: P B C A
;
_chemical_formula_sum "Si O2"
_cell_formula_units_Z 56
_cell_length_a 14.833042
_cell_length_b 9.770964
_cell_length_c 18.172171
_cell_angle_alpha 90.000000
_cell_angle_beta 90.000000
_cell_angle_gamma 90.000000
_cell_volume 2633.749429
_symmetry_space_group_name_H-M "P B C A"
_symmetry_group_IT_number 61
_symmetry_cell_setting 'orthorhombic'
loop_
_space_group_symop_operation_xyz
x,y,z
1/2-x,-y,1/2+z
1/2+x,1/2-y,-z
-x,1/2+y,1/2-z
-x,-y,-z
1/2+x,y,1/2-z
1/2-x,1/2+y,z
x,1/2-y,1/2+z
loop_
_atom_site_type_symbol
_atom_site_label
_atom_site_fract_x
_atom_site_fract_y
_atom_site_fract_z
Si Si1 0.041643 0.618470 0.248404
Si Si2 0.725251 0.366133 0.081267
Si Si3 0.920914 0.199881 0.619641
Si Si4 0.246162 0.117742 0.518321
Si Si5 0.413248 0.503163 0.607204
Si Si6 0.949715 0.646156 0.666591
Si Si7 0.430003 0.271209 0.037831
O O1 0.092969 0.706112 0.309364
O O2 0.111235 0.578624 0.182688
O O3 0.006452 0.478477 0.286732
O O4 0.962002 0.711230 0.211629
O O5 0.827109 0.379918 0.110553
O O6 0.655716 0.381290 0.149336
O O7 0.714092 0.482346 0.019728
O O8 0.706591 0.219291 0.043586
O O9 0.942628 0.298442 0.549427
O O10 0.001866 0.094705 0.629646
O O11 0.170216 0.091976 0.579477
O O12 0.329032 0.186945 0.561937
O O13 0.440635 0.393385 0.545145
O O14 0.998246 0.649251 0.587066
#
# Coordination Sequence:
#
# PCOD8249533 Si02
#       7
#     8   8   8   8   8   8   8
#     4  11  25  45  64  98 140 180 232 269 351 424
#     4  11  25  40  73 104 133 176 233 289 342 405
#     4  11  22  44  72 101 135 181 229 282 343 414
#     4  11  22  43  67 109 135 172 237 288 335 400
#     4  11  22  44  68  98 141 181 219 283 344 406
#     4  11  24  47  66 101 140 181 228 283 346 411
#     4  10  23  41  73  99 134 175 239 285 330 408
#
# _framework density 21.262463
#
# number of rings (size 3 to 8) (size 9 to 14) (size 15 to 20)
#    0.000    1.143    4.286    3.000    4.000    3.429 
#    7.714    0.000    0.000    0.000    0.000    0.000 
#    0.000    0.000    0.000    0.000    0.000    0.000 
#
# Total GULP energy -694274.602621 kJ/mol
# GULP energy per Si atom -12397.760761 kJ/mol
# Density = 2.121407 g / cm^3
# Si number density = 21.262463 Si / 1000 Ang^3
#
#
#
# Elastic Constant Matrix: (Units=GPa)
#
#
# Indices 1 2 3 4 5 6 
#
# 1 96.4994 47.6798 52.9503 0.0000 0.0000 0.0000
# 2 47.6798 108.4281 38.7980 0.0000 0.0000 0.0000
# 3 52.9503 38.7980 117.9750 0.0000 0.0000 0.0000
# 4 0.0000 0.0000 0.0000 41.9245 0.0000 0.0000
# 5 0.0000 0.0000 0.0000 0.0000 22.6946 0.0000
# 6 0.0000 0.0000 0.0000 0.0000 0.0000 23.4748
#
#
#
# Elastic Compliance Matrix: (Units=1/GPa)
#
#
# Indices 1 2 3 4 5 6 
#
# 1 0.015833 -0.005009 -0.005459 0.000000 0.000000 0.000000
# 2 -0.005009 0.012037 -0.001711 0.000000 0.000000 0.000000
# 3 -0.005459 -0.001711 0.011489 0.000000 0.000000 0.000000
# 4 0.000000 0.000000 0.000000 0.023852 0.000000 0.000000
# 5 0.000000 0.000000 0.000000 0.000000 0.044063 0.000000
# 6 0.000000 0.000000 0.000000 0.000000 0.000000 0.042599
#
#
# Mechanical properties :
#
#
# Convention : Reuss Voigt Hill
#
# Bulk Modulus (GPa) = 66.65576 66.86206 66.75891
# Shear Modulus (GPa) = 27.89680 29.85043 28.87362
#
# Velocity S-wave (km/s) = 3.62611 3.75093 3.68905
# Velocity P-wave (km/s) = 6.99633 7.09039 7.04352
#
# Compressibility (1/GPa) = 0.01500245
#
# Stress axis : x y z
#
# Youngs Moduli (GPa) = 63.15882 83.07434 87.03938
#
# Poissons Ratio (x) = 0.41612 0.47515
# Poissons Ratio (y) = 0.31636 0.14888
# Poissons Ratio (z) = 0.34478 0.14210
#
# Static dielectric constant tensor:
#      x y z
#    x 3.590770 0.000000 0.000000 
#    y 0.000000 4.077260 0.000000 
#    z 0.000000 0.000000 3.983650 
# 
# 
# High freq. dielectric constant tensor:
#      x y z
#    x 1.809680 0.000000 0.000000 
#    y 0.000000 1.846300 0.000000 
#    z 0.000000 0.000000 1.839800 
# 
# From -- ./inp_files/10470.got.cif
#   From: 2010.03.12/outbox.cif.g09.slc.cpg/sg61_6_cif.got.tgz:10470.got - 2010.04.10 19:05:03.
