data_PCOD8249885
_publ_section_title
;
Structure prediction by ZEFSAII (Michael W. Deem and Ramdas Pophale) SiO2 
 PCOD8249885
Probable space group: P B C A
;
_chemical_formula_sum "Si O2"
_cell_formula_units_Z 48
_cell_length_a 8.656148
_cell_length_b 16.652073
_cell_length_c 13.651933
_cell_angle_alpha 90.000000
_cell_angle_beta 90.000000
_cell_angle_gamma 90.000000
_cell_volume 1967.827963
_symmetry_space_group_name_H-M "P B C A"
_symmetry_group_IT_number 61
_symmetry_cell_setting 'orthorhombic'
loop_
_space_group_symop_operation_xyz
x,y,z
1/2-x,-y,1/2+z
1/2+x,1/2-y,-z
-x,1/2+y,1/2-z
-x,-y,-z
1/2+x,y,1/2-z
1/2-x,1/2+y,z
x,1/2-y,1/2+z
loop_
_atom_site_type_symbol
_atom_site_label
_atom_site_fract_x
_atom_site_fract_y
_atom_site_fract_z
Si Si1 0.935991 0.655679 0.371212
Si Si2 0.015767 0.057009 0.647972
Si Si3 0.733431 0.790915 0.695091
Si Si4 0.850950 0.093997 0.448360
Si Si5 0.488436 0.743945 0.945111
Si Si6 0.339303 0.135558 0.689790
O O1 0.848310 0.671454 0.271579
O O2 0.837261 0.588825 0.433002
O O3 0.956962 0.735206 0.439149
O O4 0.112208 0.638279 0.337250
O O5 0.901294 0.081375 0.559825
O O6 0.920712 0.062559 0.749912
O O7 0.168066 0.112611 0.654442
O O8 0.066122 0.965924 0.627111
O O9 0.821197 0.762129 0.598553
O O10 0.650154 0.712376 0.738738
O O11 0.895091 0.184292 0.417054
O O12 0.559075 0.659735 0.904816
#
# Coordination Sequence:
#
# PCOD8249885 Si02
#       6
#     8   8   8   8   8   8
#     4  12  24  42  71 109 143 187 244 317 362 436
#     4  11  27  47  71 103 159 199 244 307 392 446
#     4  12  23  40  70 109 142 177 252 309 364 428
#     4  11  26  48  69 109 150 197 245 315 373 452
#     4  12  24  42  77 110 139 188 258 308 364 437
#     4  12  22  45  73 106 142 202 245 307 371 447
#
# _framework density 24.392377
#
# number of rings (size 3 to 8) (size 9 to 14) (size 15 to 20)
#    0.000    0.333    5.000    4.000    2.333    2.667 
#    0.000    0.833    0.000    0.000    0.000    0.000 
#    0.000    0.000    0.000    0.000    0.000    0.000 
#
# Total GULP energy -594936.470441 kJ/mol
# GULP energy per Si atom -12394.509801 kJ/mol
# Density = 2.433686 g / cm^3
# Si number density = 24.392377 Si / 1000 Ang^3
#
#
#
# Elastic Constant Matrix: (Units=GPa)
#
#
# Indices 1 2 3 4 5 6 
#
# 1 139.2295 6.3271 52.0787 0.0000 0.0000 0.0000
# 2 6.3271 51.8334 26.4412 0.0000 0.0000 0.0000
# 3 52.0787 26.4412 104.5282 0.0000 0.0000 0.0000
# 4 0.0000 0.0000 0.0000 34.8372 0.0000 0.0000
# 5 0.0000 0.0000 0.0000 0.0000 50.0269 0.0000
# 6 0.0000 0.0000 0.0000 0.0000 0.0000 34.8151
#
#
#
# Elastic Compliance Matrix: (Units=1/GPa)
#
#
# Indices 1 2 3 4 5 6 
#
# 1 0.008909 0.001351 -0.004781 0.000000 0.000000 0.000000
# 2 0.001351 0.022356 -0.006328 0.000000 0.000000 0.000000
# 3 -0.004781 -0.006328 0.013549 0.000000 0.000000 0.000000
# 4 0.000000 0.000000 0.000000 0.028705 0.000000 0.000000
# 5 0.000000 0.000000 0.000000 0.000000 0.019989 0.000000
# 6 0.000000 0.000000 0.000000 0.000000 0.000000 0.028723
#
#
# Mechanical properties :
#
#
# Convention : Reuss Voigt Hill
#
# Bulk Modulus (GPa) = 39.52724 51.69836 45.61280
# Shear Modulus (GPa) = 33.29336 37.98543 35.63940
#
# Velocity S-wave (km/s) = 3.69847 3.95050 3.82656
# Velocity P-wave (km/s) = 5.87182 6.48453 6.18576
#
# Compressibility (1/GPa) = 0.02529901
#
# Stress axis : x y z
#
# Youngs Moduli (GPa) = 112.24409 44.73109 73.80406
#
# Poissons Ratio (x) = -0.06044 0.35283
# Poissons Ratio (y) = -0.15166 0.46705
# Poissons Ratio (z) = 0.53659 0.28307
#
# Static dielectric constant tensor:
#      x y z
#    x 4.699300 0.000000 0.000000 
#    y 0.000000 4.191950 0.000000 
#    z 0.000000 0.000000 4.525670 
# 
# 
# High freq. dielectric constant tensor:
#      x y z
#    x 1.987570 0.000000 0.000000 
#    y 0.000000 1.924530 0.000000 
#    z 0.000000 0.000000 1.988030 
# 
# From -- ./inp_files/7062.got.cif
#   From: 2010.03.12/outbox.cif.g09.slc.cpg/sg61_4_cif.got.tgz:7062.got - 2010.04.10 19:05:03.
