data_PCOD8249596
_publ_section_title
;
Structure prediction by ZEFSAII (Michael W. Deem and Ramdas Pophale) SiO2 
 PCOD8249596
Probable space group: P B C A
;
_chemical_formula_sum "Si O2"
_cell_formula_units_Z 40
_cell_length_a 21.928639
_cell_length_b 10.687730
_cell_length_c 7.366488
_cell_angle_alpha 90.000000
_cell_angle_beta 90.000000
_cell_angle_gamma 90.000000
_cell_volume 1726.464440
_symmetry_space_group_name_H-M "P B C A"
_symmetry_group_IT_number 61
_symmetry_cell_setting 'orthorhombic'
loop_
_space_group_symop_operation_xyz
x,y,z
1/2-x,-y,1/2+z
1/2+x,1/2-y,-z
-x,1/2+y,1/2-z
-x,-y,-z
1/2+x,y,1/2-z
1/2-x,1/2+y,z
x,1/2-y,1/2+z
loop_
_atom_site_type_symbol
_atom_site_label
_atom_site_fract_x
_atom_site_fract_y
_atom_site_fract_z
Si Si1 0.800365 0.607698 0.877567
Si Si2 0.143216 0.353095 0.492007
Si Si3 0.677526 0.948420 0.213292
Si Si4 0.953683 0.107508 0.777011
Si Si5 0.488574 0.647307 0.129437
O O1 0.820747 0.722911 0.001112
O O2 0.844220 0.584861 0.704264
O O3 0.731822 0.631296 0.803513
O O4 0.803538 0.486763 0.008807
O O5 0.166052 0.432623 0.660885
O O6 0.071441 0.329343 0.508545
O O7 0.614865 0.868448 0.205666
O O8 0.996608 0.220814 0.719562
O O9 0.977962 0.966362 0.723192
O O10 0.955526 0.106151 0.997771
#
# Coordination Sequence:
#
# PCOD8249596 Si02
#       5
#     8   8   8   8   8
#     4  12  23  43  71 100 139 189 240 295 361 442
#     4  11  23  43  70  98 140 191 237 298 368 439
#     4  11  25  44  67 106 140 184 244 304 363 427
#     4  10  24  46  70 102 146 187 241 304 363 432
#     4  10  23  48  69 106 144 189 247 298 368 444
#
# _framework density 23.168737
#
# number of rings (size 3 to 8) (size 9 to 14) (size 15 to 20)
#    0.000    1.200    4.000    1.200    2.800    2.400 
#   10.800    0.000    0.000    0.000    0.000    0.000 
#    0.000    0.000    0.000    0.000    0.000    0.000 
#
# Total GULP energy -495841.229901 kJ/mol
# GULP energy per Si atom -12396.030748 kJ/mol
# Density = 2.311600 g / cm^3
# Si number density = 23.168737 Si / 1000 Ang^3
#
#
#
# Elastic Constant Matrix: (Units=GPa)
#
#
# Indices 1 2 3 4 5 6 
#
# 1 114.5254 57.5215 32.5870 0.0000 0.0000 0.0000
# 2 57.5215 107.5710 26.5763 0.0000 0.0000 0.0000
# 3 32.5870 26.5763 106.9754 0.0000 0.0000 0.0000
# 4 0.0000 0.0000 0.0000 28.7843 0.0000 0.0000
# 5 0.0000 0.0000 0.0000 0.0000 40.9467 0.0000
# 6 0.0000 0.0000 0.0000 0.0000 0.0000 34.1991
#
#
#
# Elastic Compliance Matrix: (Units=1/GPa)
#
#
# Indices 1 2 3 4 5 6 
#
# 1 0.012437 -0.006088 -0.002276 0.000000 0.000000 0.000000
# 2 -0.006088 0.012884 -0.001346 0.000000 0.000000 0.000000
# 3 -0.002276 -0.001346 0.010376 0.000000 0.000000 0.000000
# 4 0.000000 0.000000 0.000000 0.034741 0.000000 0.000000
# 5 0.000000 0.000000 0.000000 0.000000 0.024422 0.000000
# 6 0.000000 0.000000 0.000000 0.000000 0.000000 0.029241
#
#
# Mechanical properties :
#
#
# Convention : Reuss Voigt Hill
#
# Bulk Modulus (GPa) = 61.44002 62.49348 61.96675
# Shear Modulus (GPa) = 33.56886 34.94517 34.25701
#
# Velocity S-wave (km/s) = 3.81055 3.88788 3.84941
# Velocity P-wave (km/s) = 6.77765 6.86920 6.82358
#
# Compressibility (1/GPa) = 0.01627604
#
# Stress axis : x y z
#
# Youngs Moduli (GPa) = 80.40401 77.61348 96.37844
#
# Poissons Ratio (x) = 0.47253 0.21937
# Poissons Ratio (y) = 0.48952 0.12976
# Poissons Ratio (z) = 0.18301 0.10449
#
# Static dielectric constant tensor:
#      x y z
#    x 4.389300 0.000000 0.000000 
#    y 0.000000 4.079110 0.000000 
#    z 0.000000 0.000000 4.018080 
# 
# 
# High freq. dielectric constant tensor:
#      x y z
#    x 1.922390 0.000000 0.000000 
#    y 0.000000 1.903790 0.000000 
#    z 0.000000 0.000000 1.911530 
# 
# From -- ./inp_files/3799.got.cif
#   From: 2010.03.12/outbox.cif.g09.slc.cpg/sg61_2_cif.got.tgz:3799.got - 2010.04.10 19:05:03.
