data_PCOD8249205
_publ_section_title
;
Structure prediction by ZEFSAII (Michael W. Deem and Ramdas Pophale) SiO2 
 PCOD8249205
Probable space group: P B C A
;
_chemical_formula_sum "Si O2"
_cell_formula_units_Z 40
_cell_length_a 14.346178
_cell_length_b 9.345756
_cell_length_c 14.852464
_cell_angle_alpha 90.000000
_cell_angle_beta 90.000000
_cell_angle_gamma 90.000000
_cell_volume 1991.357168
_symmetry_space_group_name_H-M "P B C A"
_symmetry_group_IT_number 61
_symmetry_cell_setting 'orthorhombic'
loop_
_space_group_symop_operation_xyz
x,y,z
1/2-x,-y,1/2+z
1/2+x,1/2-y,-z
-x,1/2+y,1/2-z
-x,-y,-z
1/2+x,y,1/2-z
1/2-x,1/2+y,z
x,1/2-y,1/2+z
loop_
_atom_site_type_symbol
_atom_site_label
_atom_site_fract_x
_atom_site_fract_y
_atom_site_fract_z
Si Si1 0.452957 0.350877 0.161562
Si Si2 0.338587 0.268112 0.332542
Si Si3 0.838477 0.562054 0.640420
Si Si4 0.531859 0.661548 0.510513
Si Si5 0.086579 0.086017 0.042328
O O1 0.412249 0.297143 0.254412
O O2 0.561468 0.387291 0.177290
O O3 0.393536 0.494974 0.132921
O O4 0.442784 0.226112 0.087055
O O5 0.240498 0.343712 0.311865
O O6 0.377859 0.329584 0.426263
O O7 0.319469 0.100922 0.336019
O O8 0.831003 0.582924 0.531365
O O9 0.500000 0.500000 0.500000
O O10 0.447753 0.751407 0.558562
O O11 0.000000 0.000000 0.000000
#
# Coordination Sequence:
#
# PCOD8249205 Si02
#       5
#     8   8   8   8   8
#     4  10  22  45  65  87 132 177 209 262 326 377
#     4  12  24  41  65  97 131 164 221 265 319 387
#     4  10  23  42  61  93 127 168 211 267 319 380
#     4  10  21  38  66  94 118 164 216 261 317 382
#     4   8  16  43  63  79 122 168 202 256 320 368
#
# _framework density 20.086804000000001
#
# number of rings (size 3 to 8) (size 9 to 14) (size 15 to 20)
#    0.000    2.400    6.000    0.000    8.400    0.000 
#    3.600    2.000    0.000    0.000    0.000    0.000 
#    0.000    0.000    0.000    0.000    0.000    0.000 
#
# Total GULP energy -495756.603693 kJ/mol
# GULP energy per Si atom -12393.915092 kJ/mol
# Density = 2.004109 g / cm^3
# Si number density = 20.086804 Si / 1000 Ang^3
#
#
#
# Elastic Constant Matrix: (Units=GPa)
#
#
# Indices 1 2 3 4 5 6 
#
# 1 101.0401 56.2347 52.9669 0.0000 0.0000 0.0000
# 2 56.2347 167.8470 48.4371 0.0000 0.0000 0.0000
# 3 52.9669 48.4371 68.9505 0.0000 0.0000 0.0000
# 4 0.0000 0.0000 0.0000 17.9663 0.0000 0.0000
# 5 0.0000 0.0000 0.0000 0.0000 22.5992 0.0000
# 6 0.0000 0.0000 0.0000 0.0000 0.0000 26.3006
#
#
#
# Elastic Compliance Matrix: (Units=1/GPa)
#
#
# Indices 1 2 3 4 5 6 
#
# 1 0.017347 -0.002466 -0.011593 0.000000 0.000000 0.000000
# 2 -0.002466 0.007823 -0.003601 0.000000 0.000000 0.000000
# 3 -0.011593 -0.003601 0.025939 0.000000 0.000000 0.000000
# 4 0.000000 0.000000 0.000000 0.055660 0.000000 0.000000
# 5 0.000000 0.000000 0.000000 0.000000 0.044249 0.000000
# 6 0.000000 0.000000 0.000000 0.000000 0.000000 0.038022
#
#
# Mechanical properties :
#
#
# Convention : Reuss Voigt Hill
#
# Bulk Modulus (GPa) = 63.34084 72.56835 67.95459
# Shear Modulus (GPa) = 21.77470 25.38649 23.58060
#
# Velocity S-wave (km/s) = 3.29603 3.55891 3.42999
# Velocity P-wave (km/s) = 6.78875 7.28653 7.04204
#
# Compressibility (1/GPa) = 0.01578760
#
# Stress axis : x y z
#
# Youngs Moduli (GPa) = 57.64659 127.82241 38.55233
#
# Poissons Ratio (x) = 0.31525 0.44695
# Poissons Ratio (y) = 0.14217 0.13884
# Poissons Ratio (z) = 0.66831 0.46032
#
# Static dielectric constant tensor:
#      x y z
#    x 3.483460 0.000000 0.000000 
#    y 0.000000 4.033750 0.000000 
#    z 0.000000 0.000000 3.890540 
# 
# 
# High freq. dielectric constant tensor:
#      x y z
#    x 1.757680 0.000000 0.000000 
#    y 0.000000 1.798530 0.000000 
#    z 0.000000 0.000000 1.772480 
# 
# From -- ./inp_files/7716.got.cif
#   From: 2010.03.12/outbox.cif.g09.slc.cpg/sg61_4_cif.got.tgz:7716.got - 2010.04.10 19:05:03.
