data_PCOD8249122
_publ_section_title
;
Structure prediction by ZEFSAII (Michael W. Deem and Ramdas Pophale) SiO2 
 PCOD8249122
Probable space group: P B C A
;
_chemical_formula_sum "Si O2"
_cell_formula_units_Z 64
_cell_length_a 10.889111
_cell_length_b 27.745289
_cell_length_c 9.791552
_cell_angle_alpha 90.000000
_cell_angle_beta 90.000000
_cell_angle_gamma 90.000000
_cell_volume 2958.238687
_symmetry_space_group_name_H-M "P B C A"
_symmetry_group_IT_number 61
_symmetry_cell_setting 'orthorhombic'
loop_
_space_group_symop_operation_xyz
x,y,z
1/2-x,-y,1/2+z
1/2+x,1/2-y,-z
-x,1/2+y,1/2-z
-x,-y,-z
1/2+x,y,1/2-z
1/2-x,1/2+y,z
x,1/2-y,1/2+z
loop_
_atom_site_type_symbol
_atom_site_label
_atom_site_fract_x
_atom_site_fract_y
_atom_site_fract_z
Si Si1 0.105778 0.466015 0.742080
Si Si2 0.545214 0.223499 0.797898
Si Si3 0.357394 0.522427 0.768473
Si Si4 0.993992 0.196177 0.001385
Si Si5 0.148544 0.396815 0.492529
Si Si6 0.376738 0.360773 0.364965
Si Si7 0.410963 0.920050 0.021187
Si Si8 0.257313 0.338487 0.095170
O O1 0.228089 0.494638 0.792377
O O2 0.150298 0.430047 0.625026
O O3 0.054171 0.436913 0.871039
O O4 0.984828 0.495066 0.691111
O O5 0.531534 0.226068 0.634359
O O6 0.440340 0.191606 0.871801
O O7 0.676651 0.200602 0.825727
O O8 0.538957 0.276765 0.862639
O O9 0.358609 0.570936 0.857063
O O10 0.355137 0.535861 0.608179
O O11 0.846805 0.190998 0.004848
O O12 0.038673 0.141079 0.998519
O O13 0.271163 0.364138 0.479833
O O14 0.469748 0.403990 0.395024
O O15 0.329219 0.368970 0.210860
O O16 0.318194 0.875581 0.003403
#
# Coordination Sequence:
#
# PCOD8249122 Si02
#       8
#     8   8   8   8   8   8   8   8
#     4  12  28  41  66 107 139 176 232 298 349 402
#     4  10  23  42  65 101 128 176 227 272 345 397
#     4  12  24  45  69  96 137 187 231 282 350 427
#     4  11  25  40  68  97 134 174 223 282 334 411
#     4  12  24  44  70  97 137 182 231 282 347 409
#     4  10  20  44  69  94 128 185 226 269 333 425
#     4  11  23  43  69  96 136 178 227 279 348 402
#     4  10  21  41  70  94 128 176 231 270 332 424
#
# _framework density 21.634494
#
# number of rings (size 3 to 8) (size 9 to 14) (size 15 to 20)
#    0.000    1.000    2.500    4.500    5.250    2.000 
#    2.250    0.000    0.000    0.000    0.000    0.000 
#    0.000    0.000    0.000    0.000    0.000    0.000 
#
# Total GULP energy -793565.638849 kJ/mol
# GULP energy per Si atom -12399.463107 kJ/mol
# Density = 2.158525 g / cm^3
# Si number density = 21.634494 Si / 1000 Ang^3
#
#
#
# Elastic Constant Matrix: (Units=GPa)
#
#
# Indices 1 2 3 4 5 6 
#
# 1 99.7779 20.7746 -2.5831 0.0000 0.0000 0.0000
# 2 20.7746 74.7564 26.8569 0.0000 0.0000 0.0000
# 3 -2.5831 26.8569 69.5567 0.0000 0.0000 0.0000
# 4 0.0000 0.0000 0.0000 39.8744 0.0000 0.0000
# 5 0.0000 0.0000 0.0000 0.0000 21.3958 0.0000
# 6 0.0000 0.0000 0.0000 0.0000 0.0000 20.2194
#
#
#
# Elastic Compliance Matrix: (Units=1/GPa)
#
#
# Indices 1 2 3 4 5 6 
#
# 1 0.010832 -0.003663 0.001817 0.000000 0.000000 0.000000
# 2 -0.003663 0.016770 -0.006611 0.000000 0.000000 0.000000
# 3 0.001817 -0.006611 0.016997 0.000000 0.000000 0.000000
# 4 0.000000 0.000000 0.000000 0.025079 0.000000 0.000000
# 5 0.000000 0.000000 0.000000 0.000000 0.046738 0.000000
# 6 0.000000 0.000000 0.000000 0.000000 0.000000 0.049458
#
#
# Mechanical properties :
#
#
# Convention : Reuss Voigt Hill
#
# Bulk Modulus (GPa) = 36.12214 37.13199 36.62707
# Shear Modulus (GPa) = 26.03958 29.56743 27.80350
#
# Velocity S-wave (km/s) = 3.47308 3.70087 3.58878
# Velocity P-wave (km/s) = 5.72851 5.95504 5.84287
#
# Compressibility (1/GPa) = 0.02768385
#
# Stress axis : x y z
#
# Youngs Moduli (GPa) = 92.31993 59.63123 58.83437
#
# Poissons Ratio (x) = 0.21841 -0.10687
# Poissons Ratio (y) = 0.33815 0.38896
# Poissons Ratio (z) = -0.16770 0.39423
#
# Static dielectric constant tensor:
#      x y z
#    x 4.244620 0.000000 0.000000 
#    y 0.000000 3.786620 0.000000 
#    z 0.000000 0.000000 3.666580 
# 
# 
# High freq. dielectric constant tensor:
#      x y z
#    x 1.868270 0.000000 0.000000 
#    y 0.000000 1.843290 0.000000 
#    z 0.000000 0.000000 1.835390 
# 
# From -- ./inp_files/2467.got.cif
#   From: 2010.03.12/outbox.cif.g09.slc.cpg/sg61_2_cif.got.tgz:2467.got - 2010.04.10 19:05:03.
