data_PCOD8249433
_publ_section_title
;
Structure prediction by ZEFSAII (Michael W. Deem and Ramdas Pophale) SiO2 
 PCOD8249433
Probable space group: P B C A
;
_chemical_formula_sum "Si O2"
_cell_formula_units_Z 64
_cell_length_a 19.844589
_cell_length_b 17.401400
_cell_length_c 8.617689
_cell_angle_alpha 90.000000
_cell_angle_beta 90.000000
_cell_angle_gamma 90.000000
_cell_volume 2975.891657
_symmetry_space_group_name_H-M "P B C A"
_symmetry_group_IT_number 61
_symmetry_cell_setting 'orthorhombic'
loop_
_space_group_symop_operation_xyz
x,y,z
1/2-x,-y,1/2+z
1/2+x,1/2-y,-z
-x,1/2+y,1/2-z
-x,-y,-z
1/2+x,y,1/2-z
1/2-x,1/2+y,z
x,1/2-y,1/2+z
loop_
_atom_site_type_symbol
_atom_site_label
_atom_site_fract_x
_atom_site_fract_y
_atom_site_fract_z
Si Si1 0.977931 0.591142 0.327426
Si Si2 0.856783 0.825237 0.679350
Si Si3 0.612973 0.677592 0.161927
Si Si4 0.764998 0.427067 0.172651
Si Si5 0.855177 0.837092 0.316160
Si Si6 0.524499 0.076266 0.684235
Si Si7 0.267948 0.090639 0.191774
Si Si8 0.613885 0.657799 0.803997
O O1 0.914660 0.614216 0.222970
O O2 0.953463 0.581673 0.504584
O O3 0.035333 0.655608 0.309891
O O4 0.006067 0.510110 0.267455
O O5 0.844819 0.824379 0.497096
O O6 0.879200 0.741243 0.735193
O O7 0.787222 0.846328 0.762333
O O8 0.658540 0.621276 0.264106
O O9 0.625938 0.764784 0.209416
O O10 0.632850 0.669411 0.982901
O O11 0.714719 0.364271 0.242919
O O12 0.744584 0.512405 0.217430
O O13 0.839264 0.409228 0.236252
O O14 0.764255 0.423878 0.989107
O O15 0.912585 0.900448 0.289591
O O16 0.462838 0.132697 0.718438
#
# Coordination Sequence:
#
# PCOD8249433 Si02
#       8
#     8   8   8   8   8   8   8   8
#     4  10  22  41  65  93 127 165 206 256 311 369
#     4  12  25  42  65  93 127 166 210 258 310 368
#     4  11  23  40  63  92 127 166 209 257 311 368
#     4  12  25  43  66  93 126 162 206 256 311 372
#     4  12  25  42  65  93 127 166 210 258 310 368
#     4  10  22  41  65  93 127 165 206 256 311 369
#     4  12  25  43  66  93 126 162 206 256 311 372
#     4  11  23  40  63  92 127 166 209 257 311 368
#
# _framework density 21.506157999999999
#
# number of rings (size 3 to 8) (size 9 to 14) (size 15 to 20)
#    0.000    0.750    0.000    8.250    0.000    6.500 
#    0.000    0.000    0.000    0.000    0.000    0.000 
#    0.000    0.000    0.000    0.000    0.000    0.000 
#
# Total GULP energy -794241.293671 kJ/mol
# GULP energy per Si atom -12410.020214 kJ/mol
# Density = 2.145721 g / cm^3
# Si number density = 21.506158 Si / 1000 Ang^3
#
#
#
# Elastic Constant Matrix: (Units=GPa)
#
#
# Indices 1 2 3 4 5 6 
#
# 1 65.2991 -2.9934 28.2038 0.0000 0.0000 0.0000
# 2 -2.9934 73.3058 -7.3279 0.0000 0.0000 0.0000
# 3 28.2038 -7.3279 85.8643 0.0000 0.0000 0.0000
# 4 0.0000 0.0000 0.0000 18.3564 0.0000 0.0000
# 5 0.0000 0.0000 0.0000 0.0000 35.3809 0.0000
# 6 0.0000 0.0000 0.0000 0.0000 0.0000 50.6178
#
#
#
# Elastic Compliance Matrix: (Units=1/GPa)
#
#
# Indices 1 2 3 4 5 6 
#
# 1 0.017847 0.000144 -0.005850 0.000000 0.000000 0.000000
# 2 0.000144 0.013760 0.001127 0.000000 0.000000 0.000000
# 3 -0.005850 0.001127 0.013664 0.000000 0.000000 0.000000
# 4 0.000000 0.000000 0.000000 0.054477 0.000000 0.000000
# 5 0.000000 0.000000 0.000000 0.000000 0.028264 0.000000
# 6 0.000000 0.000000 0.000000 0.000000 0.000000 0.019756
#
#
# Mechanical properties :
#
#
# Convention : Reuss Voigt Hill
#
# Bulk Modulus (GPa) = 27.69049 28.91489 28.30269
# Shear Modulus (GPa) = 29.59210 34.64348 32.11779
#
# Velocity S-wave (km/s) = 3.71345 4.01791 3.86868
# Velocity P-wave (km/s) = 5.59373 5.91599 5.75712
#
# Compressibility (1/GPa) = 0.03611348
#
# Stress axis : x y z
#
# Youngs Moduli (GPa) = 56.03029 72.67427 73.18481
#
# Poissons Ratio (x) = -0.01047 0.42814
# Poissons Ratio (y) = -0.00807 -0.08248
# Poissons Ratio (z) = 0.32778 -0.08191
#
# Static dielectric constant tensor:
#      x y z
#    x 3.963110 0.000000 0.000000 
#    y 0.000000 4.039460 0.000000 
#    z 0.000000 0.000000 3.899480 
# 
# 
# High freq. dielectric constant tensor:
#      x y z
#    x 1.855370 0.000000 0.000000 
#    y 0.000000 1.859010 0.000000 
#    z 0.000000 0.000000 1.851200 
# 
# From -- ./inp_files/4051.got.cif
#   From: 2010.03.12/outbox.cif.g09.slc.cpg/sg61_3_cif.got.tgz:4051.got - 2010.04.10 19:05:03.
