data_PCOD8249317
_publ_section_title
;
Structure prediction by ZEFSAII (Michael W. Deem and Ramdas Pophale) SiO2 
 PCOD8249317
Probable space group: P B C A
;
_chemical_formula_sum "Si O2"
_cell_formula_units_Z 64
_cell_length_a 9.098211
_cell_length_b 20.587840
_cell_length_c 15.057784
_cell_angle_alpha 90.000000
_cell_angle_beta 90.000000
_cell_angle_gamma 90.000000
_cell_volume 2820.511352
_symmetry_space_group_name_H-M "P B C A"
_symmetry_group_IT_number 61
_symmetry_cell_setting 'orthorhombic'
loop_
_space_group_symop_operation_xyz
x,y,z
1/2-x,-y,1/2+z
1/2+x,1/2-y,-z
-x,1/2+y,1/2-z
-x,-y,-z
1/2+x,y,1/2-z
1/2-x,1/2+y,z
x,1/2-y,1/2+z
loop_
_atom_site_type_symbol
_atom_site_label
_atom_site_fract_x
_atom_site_fract_y
_atom_site_fract_z
Si Si1 0.089499 0.956826 0.599034
Si Si2 0.675565 0.754389 0.071192
Si Si3 0.773707 0.847123 0.213588
Si Si4 0.843795 0.700315 0.903572
Si Si5 0.979452 0.058289 0.746887
Si Si6 0.147552 0.432882 0.701642
Si Si7 0.176296 0.074026 0.499463
Si Si8 0.657778 0.618426 0.148740
O O1 0.222768 0.912272 0.634387
O O2 0.964261 0.908482 0.563935
O O3 0.160852 0.998405 0.519866
O O4 0.030190 0.008151 0.671166
O O5 0.777210 0.807953 0.120423
O O6 0.504630 0.773920 0.071501
O O7 0.692656 0.693595 0.137020
O O8 0.731618 0.738746 0.970351
O O9 0.801719 0.797634 0.298173
O O10 0.613198 0.879625 0.216317
O O11 0.883376 0.908242 0.204518
O O12 0.833167 0.622468 0.917476
O O13 0.888136 0.010109 0.812498
O O14 0.213692 0.417384 0.797389
O O15 0.003645 0.389587 0.688844
O O16 0.330140 0.084906 0.448305
#
# Coordination Sequence:
#
# PCOD8249317 Si02
#       8
#     8   8   8   8   8   8   8   8
#     4  11  21  38  67  96 134 173 217 274 347 411
#     4  11  28  46  70 100 135 186 235 292 343 409
#     4  12  24  44  72  99 137 182 239 287 350 411
#     4  11  25  48  67 100 136 183 238 287 347 409
#     4  12  21  39  69  99 132 178 227 284 346 417
#     4  12  22  41  63 102 131 173 219 274 338 416
#     4  10  21  42  63  92 133 176 215 280 340 406
#     4  11  24  40  65  92 136 170 223 274 338 409
#
# _framework density 22.690922
#
# number of rings (size 3 to 8) (size 9 to 14) (size 15 to 20)
#    0.000    0.750    6.250    0.000    3.500    1.500 
#    2.250    0.000    0.000    0.000    0.000    0.000 
#    0.000    0.000    0.000    0.000    0.000    0.000 
#
# Total GULP energy -792942.846792 kJ/mol
# GULP energy per Si atom -12389.731981 kJ/mol
# Density = 2.263928 g / cm^3
# Si number density = 22.690922 Si / 1000 Ang^3
#
#
#
# Elastic Constant Matrix: (Units=GPa)
#
#
# Indices 1 2 3 4 5 6 
#
# 1 75.0794 -5.3822 16.1966 0.0000 0.0000 0.0000
# 2 -5.3822 45.8298 0.9782 0.0000 0.0000 0.0000
# 3 16.1966 0.9782 52.1858 0.0000 0.0000 0.0000
# 4 0.0000 0.0000 0.0000 32.7863 0.0000 0.0000
# 5 0.0000 0.0000 0.0000 0.0000 15.5688 0.0000
# 6 0.0000 0.0000 0.0000 0.0000 0.0000 37.5740
#
#
#
# Elastic Compliance Matrix: (Units=1/GPa)
#
#
# Indices 1 2 3 4 5 6 
#
# 1 0.014420 0.001790 -0.004509 0.000000 0.000000 0.000000
# 2 0.001790 0.022051 -0.000969 0.000000 0.000000 0.000000
# 3 -0.004509 -0.000969 0.020580 0.000000 0.000000 0.000000
# 4 0.000000 0.000000 0.000000 0.030501 0.000000 0.000000
# 5 0.000000 0.000000 0.000000 0.000000 0.064231 0.000000
# 6 0.000000 0.000000 0.000000 0.000000 0.000000 0.026614
#
#
# Mechanical properties :
#
#
# Convention : Reuss Voigt Hill
#
# Bulk Modulus (GPa) = 20.13098 21.85333 20.99216
# Shear Modulus (GPa) = 24.71199 27.93931 26.32565
#
# Velocity S-wave (km/s) = 3.30369 3.51279 3.40984
# Velocity P-wave (km/s) = 4.84185 5.10928 4.97736
#
# Compressibility (1/GPa) = 0.04967468
#
# Stress axis : x y z
#
# Youngs Moduli (GPa) = 69.34692 45.34995 48.59109
#
# Poissons Ratio (x) = -0.08117 0.21910
# Poissons Ratio (y) = -0.12411 0.04707
# Poissons Ratio (z) = 0.31269 0.04393
#
# Static dielectric constant tensor:
#      x y z
#    x 4.242500 0.000000 0.000000 
#    y 0.000000 4.116690 0.000000 
#    z 0.000000 0.000000 4.131200 
# 
# 
# High freq. dielectric constant tensor:
#      x y z
#    x 1.904170 0.000000 0.000000 
#    y 0.000000 1.883860 0.000000 
#    z 0.000000 0.000000 1.889970 
# 
# From -- ./inp_files/9072.got.cif
#   From: 2010.03.12/outbox.cif.g09.slc.cpg/sg61_5_cif.got.tgz:9072.got - 2010.04.10 19:05:03.
