data_PCOD8249697
_publ_section_title
;
Structure prediction by ZEFSAII (Michael W. Deem and Ramdas Pophale) SiO2 
 PCOD8249697
Probable space group: P B C A
;
_chemical_formula_sum "Si O2"
_cell_formula_units_Z 48
_cell_length_a 27.966193
_cell_length_b 9.854351
_cell_length_c 8.957021
_cell_angle_alpha 90.000000
_cell_angle_beta 90.000000
_cell_angle_gamma 90.000000
_cell_volume 2468.453612
_symmetry_space_group_name_H-M "P B C A"
_symmetry_group_IT_number 61
_symmetry_cell_setting 'orthorhombic'
loop_
_space_group_symop_operation_xyz
x,y,z
1/2-x,-y,1/2+z
1/2+x,1/2-y,-z
-x,1/2+y,1/2-z
-x,-y,-z
1/2+x,y,1/2-z
1/2-x,1/2+y,z
x,1/2-y,1/2+z
loop_
_atom_site_type_symbol
_atom_site_label
_atom_site_fract_x
_atom_site_fract_y
_atom_site_fract_z
Si Si1 0.020997 0.410242 0.304925
Si Si2 0.784450 0.409182 0.674649
Si Si3 0.859652 0.773220 0.958960
Si Si4 0.124724 0.063637 0.764530
Si Si5 0.246876 0.154505 0.007399
Si Si6 0.458729 0.642707 0.136523
O O1 0.070895 0.491388 0.275220
O O2 0.017576 0.362371 0.474555
O O3 0.018948 0.279487 0.201706
O O4 0.977130 0.512471 0.268635
O O5 0.840672 0.448158 0.668236
O O6 0.776763 0.385552 0.848789
O O7 0.753074 0.535145 0.615187
O O8 0.772115 0.281594 0.571831
O O9 0.863237 0.615465 0.904416
O O10 0.805832 0.820069 0.925698
O O11 0.900776 0.857578 0.868988
O O12 0.869900 0.796932 0.134816
#
# Coordination Sequence:
#
# PCOD8249697 Si02
#       6
#     8   8   8   8   8   8
#     4   9  18  34  53  77 105 135 172 216 263 311
#     4  11  22  36  55  79 109 141 179 221 268 319
#     4   9  17  32  54  74  99 137 176 207 254 317
#     4   9  18  33  53  76 104 137 175 217 260 314
#     4  11  21  36  55  78 106 141 180 221 265 316
#     4   9  18  33  54  76 103 135 172 216 260 311
#
# _framework density 19.445371000000002
#
# number of rings (size 3 to 8) (size 9 to 14) (size 15 to 20)
#    0.000    2.333    0.000    4.000    0.000    0.667 
#    0.000    8.333    0.000    0.000    0.000    0.000 
#    0.000    0.000    0.000    0.000    0.000    0.000 
#
# Total GULP energy -594685.607152 kJ/mol
# GULP energy per Si atom -12389.283482 kJ/mol
# Density = 1.940111 g / cm^3
# Si number density = 19.445371 Si / 1000 Ang^3
#
#
#
# Elastic Constant Matrix: (Units=GPa)
#
#
# Indices 1 2 3 4 5 6 
#
# 1 82.4863 56.6378 39.2084 0.0000 0.0000 0.0000
# 2 56.6378 116.6912 39.0818 0.0000 0.0000 0.0000
# 3 39.2084 39.0818 54.2881 0.0000 0.0000 0.0000
# 4 0.0000 0.0000 0.0000 31.5880 0.0000 0.0000
# 5 0.0000 0.0000 0.0000 0.0000 19.4572 0.0000
# 6 0.0000 0.0000 0.0000 0.0000 0.0000 29.9882
#
#
#
# Elastic Compliance Matrix: (Units=1/GPa)
#
#
# Indices 1 2 3 4 5 6 
#
# 1 0.022196 -0.007121 -0.010904 0.000000 0.000000 0.000000
# 2 -0.007121 0.013577 -0.004631 0.000000 0.000000 0.000000
# 3 -0.010904 -0.004631 0.029629 0.000000 0.000000 0.000000
# 4 0.000000 0.000000 0.000000 0.031658 0.000000 0.000000
# 5 0.000000 0.000000 0.000000 0.000000 0.051395 0.000000
# 6 0.000000 0.000000 0.000000 0.000000 0.000000 0.033346
#
#
# Mechanical properties :
#
#
# Convention : Reuss Voigt Hill
#
# Bulk Modulus (GPa) = 49.77620 58.14684 53.96152
# Shear Modulus (GPa) = 21.38491 24.10919 22.74705
#
# Velocity S-wave (km/s) = 3.31984 3.52496 3.42393
# Velocity P-wave (km/s) = 6.35206 6.82163 6.59103
#
# Compressibility (1/GPa) = 0.02008992
#
# Stress axis : x y z
#
# Youngs Moduli (GPa) = 45.05338 73.65425 33.75048
#
# Poissons Ratio (x) = 0.52450 0.36802
# Poissons Ratio (y) = 0.32083 0.15629
# Poissons Ratio (z) = 0.49126 0.34108
#
# Static dielectric constant tensor:
#      x y z
#    x 3.696750 0.000000 0.000000 
#    y 0.000000 3.472320 0.000000 
#    z 0.000000 0.000000 3.599510 
# 
# 
# High freq. dielectric constant tensor:
#      x y z
#    x 1.758640 0.000000 0.000000 
#    y 0.000000 1.732060 0.000000 
#    z 0.000000 0.000000 1.760570 
# 
# From -- ./inp_files/1899.got.cif
#   From: 2010.03.12/outbox.cif.g09.slc.cpg/sg61_1_cif.got.tgz:1899.got - 2010.04.10 19:05:03.
