data_PCOD8249591
_publ_section_title
;
Structure prediction by ZEFSAII (Michael W. Deem and Ramdas Pophale) SiO2 
 PCOD8249591
Probable space group: P B C A
;
_chemical_formula_sum "Si O2"
_cell_formula_units_Z 48
_cell_length_a 8.646192
_cell_length_b 13.510095
_cell_length_c 16.745126
_cell_angle_alpha 90.000000
_cell_angle_beta 90.000000
_cell_angle_gamma 90.000000
_cell_volume 1956.012825
_symmetry_space_group_name_H-M "P B C A"
_symmetry_group_IT_number 61
_symmetry_cell_setting 'orthorhombic'
loop_
_space_group_symop_operation_xyz
x,y,z
1/2-x,-y,1/2+z
1/2+x,1/2-y,-z
-x,1/2+y,1/2-z
-x,-y,-z
1/2+x,y,1/2-z
1/2-x,1/2+y,z
x,1/2-y,1/2+z
loop_
_atom_site_type_symbol
_atom_site_label
_atom_site_fract_x
_atom_site_fract_y
_atom_site_fract_z
Si Si1 0.665111 0.364559 0.179375
Si Si2 0.163893 0.201803 0.198214
Si Si3 0.104424 0.709585 0.579791
Si Si4 0.346855 0.091807 0.331843
Si Si5 0.780278 0.554479 0.997730
Si Si6 0.394618 0.137386 0.951782
O O1 0.656570 0.313187 0.265500
O O2 0.556724 0.295857 0.124305
O O3 0.608527 0.477514 0.186021
O O4 0.837143 0.353121 0.140347
O O5 0.276819 0.216749 0.123583
O O6 0.232977 0.125406 0.261661
O O7 0.999767 0.160468 0.167450
O O8 0.156515 0.595960 0.565460
O O9 0.088752 0.756357 0.491941
O O10 0.250821 0.100874 0.414321
O O11 0.769568 0.435381 0.004040
O O12 0.941889 0.584205 0.957681
#
# Coordination Sequence:
#
# PCOD8249591 Si02
#       6
#     8   8   8   8   8   8
#     4  11  27  48  72 105 145 193 243 293 368 440
#     4  12  27  46  69 106 146 195 238 305 361 434
#     4  12  25  41  72 103 136 184 237 295 362 420
#     4  11  27  48  71 102 149 193 245 300 364 440
#     4  10  25  44  71 104 136 184 235 295 363 426
#     4  10  23  46  71 100 140 180 232 300 354 434
#
# _framework density 24.539715999999999
#
# number of rings (size 3 to 8) (size 9 to 14) (size 15 to 20)
#    0.000    1.000    1.667    3.000   11.667    1.333 
#    3.000    0.000    0.000    0.000    0.000    0.000 
#    0.000    0.000    0.000    0.000    0.000    0.000 
#
# Total GULP energy -594975.962616 kJ/mol
# GULP energy per Si atom -12395.332555 kJ/mol
# Density = 2.448386 g / cm^3
# Si number density = 24.539716 Si / 1000 Ang^3
#
#
#
# Elastic Constant Matrix: (Units=GPa)
#
#
# Indices 1 2 3 4 5 6 
#
# 1 78.5473 12.8995 7.8927 0.0000 0.0000 0.0000
# 2 12.8995 97.3798 10.4612 0.0000 0.0000 0.0000
# 3 7.8927 10.4612 45.2082 0.0000 0.0000 0.0000
# 4 0.0000 0.0000 0.0000 46.3681 0.0000 0.0000
# 5 0.0000 0.0000 0.0000 0.0000 43.4466 0.0000
# 6 0.0000 0.0000 0.0000 0.0000 0.0000 40.2527
#
#
#
# Elastic Compliance Matrix: (Units=1/GPa)
#
#
# Indices 1 2 3 4 5 6 
#
# 1 0.013179 -0.001537 -0.001945 0.000000 0.000000 0.000000
# 2 -0.001537 0.010710 -0.002210 0.000000 0.000000 0.000000
# 3 -0.001945 -0.002210 0.022971 0.000000 0.000000 0.000000
# 4 0.000000 0.000000 0.000000 0.021567 0.000000 0.000000
# 5 0.000000 0.000000 0.000000 0.000000 0.023017 0.000000
# 6 0.000000 0.000000 0.000000 0.000000 0.000000 0.024843
#
#
# Mechanical properties :
#
#
# Convention : Reuss Voigt Hill
#
# Bulk Modulus (GPa) = 28.18819 31.51579 29.85199
# Shear Modulus (GPa) = 35.84339 38.67227 37.25783
#
# Velocity S-wave (km/s) = 3.82596 3.97407 3.90072
# Velocity P-wave (km/s) = 5.57037 5.82480 5.69901
#
# Compressibility (1/GPa) = 0.03547585
#
# Stress axis : x y z
#
# Youngs Moduli (GPa) = 75.87809 93.37022 43.53340
#
# Poissons Ratio (x) = 0.14349 0.08468
# Poissons Ratio (y) = 0.11661 0.09621
# Poissons Ratio (z) = 0.14760 0.20635
#
# Static dielectric constant tensor:
#      x y z
#    x 4.389300 0.000000 0.000000 
#    y 0.000000 4.841050 0.000000 
#    z 0.000000 0.000000 4.312410 
# 
# 
# High freq. dielectric constant tensor:
#      x y z
#    x 1.973490 0.000000 0.000000 
#    y 0.000000 1.991040 0.000000 
#    z 0.000000 0.000000 1.971730 
# 
# From -- ./inp_files/8889.got.cif
#   From: 2010.03.12/outbox.cif.g09.slc.cpg/sg61_5_cif.got.tgz:8889.got - 2010.04.10 19:05:03.
