data_PCOD8249305
_publ_section_title
;
Structure prediction by ZEFSAII (Michael W. Deem and Ramdas Pophale) SiO2 
 PCOD8249305
Probable space group: P B C A
;
_chemical_formula_sum "Si O2"
_cell_formula_units_Z 64
_cell_length_a 29.169480
_cell_length_b 8.589528
_cell_length_c 12.688635
_cell_angle_alpha 90.000000
_cell_angle_beta 90.000000
_cell_angle_gamma 90.000000
_cell_volume 3179.163704
_symmetry_space_group_name_H-M "P B C A"
_symmetry_group_IT_number 61
_symmetry_cell_setting 'orthorhombic'
loop_
_space_group_symop_operation_xyz
x,y,z
1/2-x,-y,1/2+z
1/2+x,1/2-y,-z
-x,1/2+y,1/2-z
-x,-y,-z
1/2+x,y,1/2-z
1/2-x,1/2+y,z
x,1/2-y,1/2+z
loop_
_atom_site_type_symbol
_atom_site_label
_atom_site_fract_x
_atom_site_fract_y
_atom_site_fract_z
Si Si1 0.617839 0.400008 0.206985
Si Si2 0.286796 0.978282 0.241669
Si Si3 0.543058 0.215900 0.849992
Si Si4 0.198733 0.811481 0.318838
Si Si5 0.539378 0.527301 0.741443
Si Si6 0.112700 0.765460 0.706596
Si Si7 0.664617 0.936447 0.966270
Si Si8 0.088604 0.152253 0.443857
O O1 0.672274 0.367072 0.216852
O O2 0.593497 0.310237 0.302646
O O3 0.606789 0.584294 0.216583
O O4 0.600346 0.325179 0.098497
O O5 0.237503 0.904867 0.256362
O O6 0.287906 0.131721 0.313272
O O7 0.297001 0.012669 0.118571
O O8 0.527781 0.393080 0.826347
O O9 0.547521 0.181184 0.973651
O O10 0.508478 0.092956 0.799309
O O11 0.151437 0.845499 0.257462
O O12 0.193293 0.856739 0.440704
O O13 0.566083 0.667601 0.800097
O O14 0.569305 0.462450 0.645126
O O15 0.128397 0.818355 0.589577
O O16 0.635103 0.081206 0.008446
#
# Coordination Sequence:
#
# PCOD8249305 Si02
#       8
#     8   8   8   8   8   8   8   8
#     4   9  21  40  61  90 127 164 207 268 307 374
#     4  10  23  40  63  90 130 161 212 268 316 384
#     4  11  22  41  60  98 126 166 216 254 325 371
#     4  10  22  39  62  91 123 164 215 261 319 381
#     4  11  24  39  70  92 131 171 205 273 310 382
#     4  10  21  43  62  91 130 165 215 263 325 378
#     4  10  21  41  67  87 128 169 205 270 319 375
#     4  11  21  41  67  92 126 171 213 253 326 379
#
# _framework density 20.131079
#
# number of rings (size 3 to 8) (size 9 to 14) (size 15 to 20)
#    0.000    2.000    3.750    1.125    1.750    4.000 
#    0.000    3.125    0.000    0.000    0.000    0.000 
#    0.000    0.000    0.000    0.000    0.000    0.000 
#
# Total GULP energy -793395.295201 kJ/mol
# GULP energy per Si atom -12396.801488 kJ/mol
# Density = 2.008526 g / cm^3
# Si number density = 20.131079 Si / 1000 Ang^3
#
#
#
# Elastic Constant Matrix: (Units=GPa)
#
#
# Indices 1 2 3 4 5 6 
#
# 1 65.9250 35.2739 27.6134 0.0000 0.0000 0.0000
# 2 35.2739 91.8329 37.5664 0.0000 0.0000 0.0000
# 3 27.6134 37.5664 96.7360 0.0000 0.0000 0.0000
# 4 0.0000 0.0000 0.0000 25.8435 0.0000 0.0000
# 5 0.0000 0.0000 0.0000 0.0000 26.5393 0.0000
# 6 0.0000 0.0000 0.0000 0.0000 0.0000 42.4139
#
#
#
# Elastic Compliance Matrix: (Units=1/GPa)
#
#
# Indices 1 2 3 4 5 6 
#
# 1 0.019905 -0.006326 -0.003225 0.000000 0.000000 0.000000
# 2 -0.006326 0.014957 -0.004002 0.000000 0.000000 0.000000
# 3 -0.003225 -0.004002 0.012812 0.000000 0.000000 0.000000
# 4 0.000000 0.000000 0.000000 0.038694 0.000000 0.000000
# 5 0.000000 0.000000 0.000000 0.000000 0.037680 0.000000
# 6 0.000000 0.000000 0.000000 0.000000 0.000000 0.023577
#
#
# Mechanical properties :
#
#
# Convention : Reuss Voigt Hill
#
# Bulk Modulus (GPa) = 48.62385 50.60016 49.61200
# Shear Modulus (GPa) = 27.53492 29.22869 28.38180
#
# Velocity S-wave (km/s) = 3.70237 3.81454 3.75887
# Velocity P-wave (km/s) = 6.51788 6.67764 6.59824
#
# Compressibility (1/GPa) = 0.02056604
#
# Stress axis : x y z
#
# Youngs Moduli (GPa) = 50.23988 66.86019 78.04999
#
# Poissons Ratio (x) = 0.42297 0.25172
# Poissons Ratio (y) = 0.31783 0.31239
# Poissons Ratio (z) = 0.16203 0.26760
#
# Static dielectric constant tensor:
#      x y z
#    x 3.703480 0.000000 0.000000 
#    y 0.000000 3.660190 0.000000 
#    z 0.000000 0.000000 3.644390 
# 
# 
# High freq. dielectric constant tensor:
#      x y z
#    x 1.789190 0.000000 0.000000 
#    y 0.000000 1.783270 0.000000 
#    z 0.000000 0.000000 1.779320 
# 
# From -- ./inp_files/6787.got.cif
#   From: 2010.03.12/outbox.cif.g09.slc.cpg/sg61_4_cif.got.tgz:6787.got - 2010.04.10 19:05:03.
