data_PCOD8249357
_publ_section_title
;
Structure prediction by ZEFSAII (Michael W. Deem and Ramdas Pophale) SiO2 
 PCOD8249357
Probable space group: P B C A
;
_chemical_formula_sum "Si O2"
_cell_formula_units_Z 48
_cell_length_a 28.828256
_cell_length_b 13.870743
_cell_length_c 5.193608
_cell_angle_alpha 90.000000
_cell_angle_beta 90.000000
_cell_angle_gamma 90.000000
_cell_volume 2076.764552
_symmetry_space_group_name_H-M "P B C A"
_symmetry_group_IT_number 61
_symmetry_cell_setting 'orthorhombic'
loop_
_space_group_symop_operation_xyz
x,y,z
1/2-x,-y,1/2+z
1/2+x,1/2-y,-z
-x,1/2+y,1/2-z
-x,-y,-z
1/2+x,y,1/2-z
1/2-x,1/2+y,z
x,1/2-y,1/2+z
loop_
_atom_site_type_symbol
_atom_site_label
_atom_site_fract_x
_atom_site_fract_y
_atom_site_fract_z
Si Si1 0.451970 0.423911 0.713768
Si Si2 0.267684 0.449779 0.969233
Si Si3 0.694080 0.187944 0.940518
Si Si4 0.908353 0.804258 0.113261
Si Si5 0.640628 0.483215 0.233604
Si Si6 0.995155 0.123526 0.784578
O O1 0.398278 0.447489 0.642806
O O2 0.470416 0.352405 0.488122
O O3 0.483250 0.518525 0.738481
O O4 0.456729 0.371071 0.989257
O O5 0.256826 0.522739 0.200213
O O6 0.248639 0.342384 0.039196
O O7 0.323257 0.451759 0.927801
O O8 0.681721 0.238849 0.668940
O O9 0.667433 0.083783 0.944017
O O10 0.890332 0.769983 0.396343
O O11 0.888196 0.909763 0.047555
O O12 0.964056 0.803271 0.132125
#
# Coordination Sequence:
#
# PCOD8249357 Si02
#       6
#     8   8   8   8   8   8
#     4   9  18  32  54  77 104 142 187 235 277 331
#     4  10  22  39  59  84 117 158 199 242 298 366
#     4  11  22  38  59  85 120 154 188 241 310 361
#     4  11  22  35  56  86 122 155 190 243 302 347
#     4  10  22  37  60  90 116 148 203 252 289 346
#     4   9  18  33  50  76 111 147 181 221 284 348
#
# _framework density 23.112876
#
# number of rings (size 3 to 8) (size 9 to 14) (size 15 to 20)
#    0.000    2.000    0.000    4.000    0.000   10.667 
#    0.000    0.000    0.000    6.000    0.000    0.000 
#    0.000    0.000    0.000    0.000    0.000    0.000 
#
# Total GULP energy -594833.555430 kJ/mol
# GULP energy per Si atom -12392.365738 kJ/mol
# Density = 2.306027 g / cm^3
# Si number density = 23.112876 Si / 1000 Ang^3
#
#
#
# Elastic Constant Matrix: (Units=GPa)
#
#
# Indices 1 2 3 4 5 6 
#
# 1 141.9002 32.4824 57.4085 0.0000 0.0000 0.0000
# 2 32.4824 28.5341 21.9478 0.0000 0.0000 0.0000
# 3 57.4085 21.9478 154.3673 0.0000 0.0000 0.0000
# 4 0.0000 0.0000 0.0000 18.4978 0.0000 0.0000
# 5 0.0000 0.0000 0.0000 0.0000 33.4020 0.0000
# 6 0.0000 0.0000 0.0000 0.0000 0.0000 49.9060
#
#
#
# Elastic Compliance Matrix: (Units=1/GPa)
#
#
# Indices 1 2 3 4 5 6 
#
# 1 0.010280 -0.009838 -0.002424 0.000000 0.000000 0.000000
# 2 -0.009838 0.048763 -0.003275 0.000000 0.000000 0.000000
# 3 -0.002424 -0.003275 0.007845 0.000000 0.000000 0.000000
# 4 0.000000 0.000000 0.000000 0.054060 0.000000 0.000000
# 5 0.000000 0.000000 0.000000 0.000000 0.029938 0.000000
# 6 0.000000 0.000000 0.000000 0.000000 0.000000 0.020038
#
#
# Mechanical properties :
#
#
# Convention : Reuss Voigt Hill
#
# Bulk Modulus (GPa) = 27.92094 60.94210 44.43152
# Shear Modulus (GPa) = 23.37142 34.55869 28.96505
#
# Velocity S-wave (km/s) = 3.18336 3.87099 3.54390
# Velocity P-wave (km/s) = 5.06145 6.81204 6.00092
#
# Compressibility (1/GPa) = 0.03581541
#
# Stress axis : x y z
#
# Youngs Moduli (GPa) = 97.27657 20.50723 127.46583
#
# Poissons Ratio (x) = 0.20174 0.30902
# Poissons Ratio (y) = 0.95697 0.41739
# Poissons Ratio (z) = 0.23583 0.06715
#
# Static dielectric constant tensor:
#      x y z
#    x 4.472400 0.000000 0.000000 
#    y 0.000000 3.837650 0.000000 
#    z 0.000000 0.000000 4.138280 
# 
# 
# High freq. dielectric constant tensor:
#      x y z
#    x 1.925310 0.000000 0.000000 
#    y 0.000000 1.869640 0.000000 
#    z 0.000000 0.000000 1.912170 
# 
# From -- ./inp_files/1336.got.cif
#   From: 2010.03.12/outbox.cif.g09.slc.cpg/sg61_1_cif.got.tgz:1336.got - 2010.04.10 19:05:03.
