data_PCOD8249167
_publ_section_title
;
Structure prediction by ZEFSAII (Michael W. Deem and Ramdas Pophale) SiO2 
 PCOD8249167
Probable space group: P B C A
;
_chemical_formula_sum "Si O2"
_cell_formula_units_Z 56
_cell_length_a 20.947966
_cell_length_b 10.733945
_cell_length_c 11.495789
_cell_angle_alpha 90.000000
_cell_angle_beta 90.000000
_cell_angle_gamma 90.000000
_cell_volume 2584.877760
_symmetry_space_group_name_H-M "P B C A"
_symmetry_group_IT_number 61
_symmetry_cell_setting 'orthorhombic'
loop_
_space_group_symop_operation_xyz
x,y,z
1/2-x,-y,1/2+z
1/2+x,1/2-y,-z
-x,1/2+y,1/2-z
-x,-y,-z
1/2+x,y,1/2-z
1/2-x,1/2+y,z
x,1/2-y,1/2+z
loop_
_atom_site_type_symbol
_atom_site_label
_atom_site_fract_x
_atom_site_fract_y
_atom_site_fract_z
Si Si1 0.538619 0.658393 0.571036
Si Si2 0.260919 0.442953 0.722426
Si Si3 0.581495 0.230193 0.326324
Si Si4 0.665953 0.070197 0.475295
Si Si5 0.697150 0.197981 0.694390
Si Si6 0.613803 0.614107 0.164188
Si Si7 0.495366 0.083856 0.173073
O O1 0.465598 0.706246 0.581729
O O2 0.593647 0.747482 0.622353
O O3 0.548167 0.631930 0.434264
O O4 0.541547 0.530675 0.642988
O O5 0.233106 0.455524 0.591712
O O6 0.254976 0.581772 0.778803
O O7 0.221676 0.338160 0.792744
O O8 0.333054 0.389108 0.733253
O O9 0.611025 0.105818 0.384202
O O10 0.637441 0.322896 0.282771
O O11 0.541597 0.194522 0.212011
O O12 0.676944 0.187909 0.559983
O O13 0.642201 0.952848 0.550293
O O14 0.551322 0.548018 0.218921
#
# Coordination Sequence:
#
# PCOD8249167 Si02
#       7
#     8   8   8   8   8   8   8
#     4  10  21  37  60  88 125 162 201 259 316 368
#     4  10  23  40  61  89 121 160 212 259 308 370
#     4  10  21  38  61  86 119 161 205 247 307 377
#     4  10  22  40  61  86 122 164 203 257 316 366
#     4  10  22  40  61  88 121 161 209 258 309 373
#     4  10  23  40  61  90 124 166 212 258 315 385
#     4  10  22  38  59  93 126 161 206 257 313 379
#
# _framework density 21.664467999999999
#
# number of rings (size 3 to 8) (size 9 to 14) (size 15 to 20)
#    0.000    2.000    0.000    2.571    0.000   14.857 
#    0.000    8.571    0.000    0.000    0.000    0.000 
#    0.000    0.000    0.000    0.000    0.000    0.000 
#
# Total GULP energy -693902.692456 kJ/mol
# GULP energy per Si atom -12391.119508 kJ/mol
# Density = 2.161516 g / cm^3
# Si number density = 21.664468 Si / 1000 Ang^3
#
#
#
# Elastic Constant Matrix: (Units=GPa)
#
#
# Indices 1 2 3 4 5 6 
#
# 1 67.1290 22.4971 31.6146 0.0000 0.0000 0.0000
# 2 22.4971 90.6346 36.2863 0.0000 0.0000 0.0000
# 3 31.6146 36.2863 103.0342 0.0000 0.0000 0.0000
# 4 0.0000 0.0000 0.0000 35.8479 0.0000 0.0000
# 5 0.0000 0.0000 0.0000 0.0000 41.7527 0.0000
# 6 0.0000 0.0000 0.0000 0.0000 0.0000 40.0993
#
#
#
# Elastic Compliance Matrix: (Units=1/GPa)
#
#
# Indices 1 2 3 4 5 6 
#
# 1 0.017931 -0.002617 -0.004580 0.000000 0.000000 0.000000
# 2 -0.002617 0.013226 -0.003855 0.000000 0.000000 0.000000
# 3 -0.004580 -0.003855 0.012469 0.000000 0.000000 0.000000
# 4 0.000000 0.000000 0.000000 0.027896 0.000000 0.000000
# 5 0.000000 0.000000 0.000000 0.000000 0.023951 0.000000
# 6 0.000000 0.000000 0.000000 0.000000 0.000000 0.024938
#
#
# Mechanical properties :
#
#
# Convention : Reuss Voigt Hill
#
# Bulk Modulus (GPa) = 46.46578 49.06598 47.76588
# Shear Modulus (GPa) = 33.40282 34.89997 34.15140
#
# Velocity S-wave (km/s) = 3.93087 4.01800 3.97467
# Velocity P-wave (km/s) = 6.48820 6.65004 6.56962
#
# Compressibility (1/GPa) = 0.02152122
#
# Stress axis : x y z
#
# Youngs Moduli (GPa) = 55.76999 75.60697 80.20206
#
# Poissons Ratio (x) = 0.19787 0.36734
# Poissons Ratio (y) = 0.14595 0.30918
# Poissons Ratio (z) = 0.25543 0.29146
#
# Static dielectric constant tensor:
#      x y z
#    x 4.041000 0.000000 0.000000 
#    y 0.000000 3.804070 0.000000 
#    z 0.000000 0.000000 3.928930 
# 
# 
# High freq. dielectric constant tensor:
#      x y z
#    x 1.845700 0.000000 0.000000 
#    y 0.000000 1.847360 0.000000 
#    z 0.000000 0.000000 1.852150 
# 
# From -- ./inp_files/6607.got.cif
#   From: 2010.03.12/outbox.cif.g09.slc.cpg/sg61_4_cif.got.tgz:6607.got - 2010.04.10 19:05:03.
