data_PCOD8249210
_publ_section_title
;
Structure prediction by ZEFSAII (Michael W. Deem and Ramdas Pophale) SiO2 
 PCOD8249210
Probable space group: P B C A
;
_chemical_formula_sum "Si O2"
_cell_formula_units_Z 48
_cell_length_a 9.355768
_cell_length_b 26.006378
_cell_length_c 9.070429
_cell_angle_alpha 90.000000
_cell_angle_beta 90.000000
_cell_angle_gamma 90.000000
_cell_volume 2206.922806
_symmetry_space_group_name_H-M "P B C A"
_symmetry_group_IT_number 61
_symmetry_cell_setting 'orthorhombic'
loop_
_space_group_symop_operation_xyz
x,y,z
1/2-x,-y,1/2+z
1/2+x,1/2-y,-z
-x,1/2+y,1/2-z
-x,-y,-z
1/2+x,y,1/2-z
1/2-x,1/2+y,z
x,1/2-y,1/2+z
loop_
_atom_site_type_symbol
_atom_site_label
_atom_site_fract_x
_atom_site_fract_y
_atom_site_fract_z
Si Si1 0.892264 0.464408 0.088964
Si Si2 0.349845 0.494541 0.076323
Si Si3 0.031915 0.249563 0.128576
Si Si4 0.719151 0.884478 0.433028
Si Si5 0.285033 0.709072 0.380292
Si Si6 0.983799 0.635227 0.775006
O O1 0.861043 0.491543 0.247120
O O2 0.948129 0.406243 0.110642
O O3 0.750125 0.459997 0.986894
O O4 0.000000 0.500000 0.000000
O O5 0.274223 0.442770 0.013295
O O6 0.500000 0.500000 0.000000
O O7 0.881647 0.221728 0.113752
O O8 0.142891 0.214797 0.221913
O O9 0.990569 0.305862 0.184612
O O10 0.116920 0.252858 0.976085
O O11 0.789143 0.849331 0.560012
O O12 0.554557 0.871981 0.386664
O O13 0.813222 0.876075 0.281869
#
# Coordination Sequence:
#
# PCOD8249210 Si02
#       6
#     8   8   8   8   8   8
#     4  11  22  43  67  97 135 176 232 289 343 419
#     4  11  24  42  65  97 134 181 229 288 354 411
#     4  11  22  42  66  95 131 174 221 285 348 419
#     4  10  22  40  64  95 128 174 227 273 347 417
#     4  11  23  42  66  98 133 171 229 281 350 422
#     4  10  21  38  68  91 129 175 225 268 341 427
#
# _framework density 21.749739999999999
#
# number of rings (size 3 to 8) (size 9 to 14) (size 15 to 20)
#    0.000    1.333    1.667    5.000    7.000    0.000 
#    3.000    3.333    0.000    0.000    0.000    0.000 
#    0.000    0.000    0.000    0.000    0.000    0.000 
#
# Total GULP energy -594720.256601 kJ/mol
# GULP energy per Si atom -12390.005346 kJ/mol
# Density = 2.170024 g / cm^3
# Si number density = 21.749740 Si / 1000 Ang^3
#
#
#
# Elastic Constant Matrix: (Units=GPa)
#
#
# Indices 1 2 3 4 5 6 
#
# 1 113.3412 16.6386 17.6907 0.0000 0.0000 0.0000
# 2 16.6386 87.9206 19.4679 0.0000 0.0000 0.0000
# 3 17.6907 19.4679 71.7097 0.0000 0.0000 0.0000
# 4 0.0000 0.0000 0.0000 23.8277 0.0000 0.0000
# 5 0.0000 0.0000 0.0000 0.0000 48.7280 0.0000
# 6 0.0000 0.0000 0.0000 0.0000 0.0000 39.0489
#
#
#
# Elastic Compliance Matrix: (Units=1/GPa)
#
#
# Indices 1 2 3 4 5 6 
#
# 1 0.009321 -0.001335 -0.001937 0.000000 0.000000 0.000000
# 2 -0.001335 0.012293 -0.003008 0.000000 0.000000 0.000000
# 3 -0.001937 -0.003008 0.015240 0.000000 0.000000 0.000000
# 4 0.000000 0.000000 0.000000 0.041968 0.000000 0.000000
# 5 0.000000 0.000000 0.000000 0.000000 0.020522 0.000000
# 6 0.000000 0.000000 0.000000 0.000000 0.000000 0.025609
#
#
# Mechanical properties :
#
#
# Convention : Reuss Voigt Hill
#
# Bulk Modulus (GPa) = 41.16357 42.28513 41.72435
# Shear Modulus (GPa) = 34.33824 36.93252 35.63538
#
# Velocity S-wave (km/s) = 3.97771 4.12523 4.05214
# Velocity P-wave (km/s) = 6.32956 6.49415 6.41238
#
# Compressibility (1/GPa) = 0.02429333
#
# Stress axis : x y z
#
# Youngs Moduli (GPa) = 107.28163 81.34992 65.61865
#
# Poissons Ratio (x) = 0.10861 0.12711
# Poissons Ratio (y) = 0.14323 0.19737
# Poissons Ratio (z) = 0.20781 0.24469
#
# Static dielectric constant tensor:
#      x y z
#    x -23.208260 0.000000 0.000000 
#    y 0.000000 2.933940 0.000000 
#    z 0.000000 0.000000 4.074070 
# 
# 
# High freq. dielectric constant tensor:
#      x y z
#    x 1.879790 0.000000 0.000000 
#    y 0.000000 1.853740 0.000000 
#    z 0.000000 0.000000 1.832390 
# 
# From -- ./inp_files/1864.got.cif
#   From: 2010.03.12/outbox.cif.g09.slc.cpg/sg61_1_cif.got.tgz:1864.got - 2010.04.10 19:05:03.
