data_PCOD8249414
_publ_section_title
;
Structure prediction by ZEFSAII (Michael W. Deem and Ramdas Pophale) SiO2 
 PCOD8249414
Probable space group: P B C A
;
_chemical_formula_sum "Si O2"
_cell_formula_units_Z 40
_cell_length_a 22.576211
_cell_length_b 7.957213
_cell_length_c 9.797218
_cell_angle_alpha 90.000000
_cell_angle_beta 90.000000
_cell_angle_gamma 90.000000
_cell_volume 1760.008684
_symmetry_space_group_name_H-M "P B C A"
_symmetry_group_IT_number 61
_symmetry_cell_setting 'orthorhombic'
loop_
_space_group_symop_operation_xyz
x,y,z
1/2-x,-y,1/2+z
1/2+x,1/2-y,-z
-x,1/2+y,1/2-z
-x,-y,-z
1/2+x,y,1/2-z
1/2-x,1/2+y,z
x,1/2-y,1/2+z
loop_
_atom_site_type_symbol
_atom_site_label
_atom_site_fract_x
_atom_site_fract_y
_atom_site_fract_z
Si Si1 0.321292 0.855056 0.890772
Si Si2 0.694739 0.718123 0.569435
Si Si3 0.947275 0.719996 0.576466
Si Si4 0.019330 0.443150 0.686594
Si Si5 0.642345 0.904382 0.322852
O O1 0.264120 0.739161 0.900076
O O2 0.314735 0.025202 0.983202
O O3 0.377054 0.744991 0.939401
O O4 0.331277 0.916751 0.732949
O O5 0.671462 0.857065 0.465833
O O6 0.658110 0.740008 0.711223
O O7 0.974971 0.708272 0.424308
O O8 0.959036 0.545808 0.659070
O O9 0.977647 0.873274 0.659498
O O10 0.071911 0.578428 0.660337
#
# Coordination Sequence:
#
# PCOD8249414 Si02
#       5
#     8   8   8   8   8
#     4   9  23  40  65  96 132 169 216 265 323 379
#     4  10  22  40  66  92 135 170 217 260 326 384
#     4  10  23  46  66  98 129 169 214 273 321 391
#     4  10  23  46  67  95 132 165 222 263 331 381
#     4   9  23  40  62 100 125 174 211 267 320 384
#
# _framework density 22.727163000000001
#
# number of rings (size 3 to 8) (size 9 to 14) (size 15 to 20)
#    1.200    1.200    0.000    0.000    5.600    5.600 
#    7.200    0.000    0.000    0.000    0.000    0.000 
#    0.000    0.000    0.000    0.000    0.000    0.000 
#
# Total GULP energy -495680.642090 kJ/mol
# GULP energy per Si atom -12392.016052 kJ/mol
# Density = 2.267543 g / cm^3
# Si number density = 22.727163 Si / 1000 Ang^3
#
#
#
# Elastic Constant Matrix: (Units=GPa)
#
#
# Indices 1 2 3 4 5 6 
#
# 1 99.6777 65.9895 20.8859 0.0000 0.0000 0.0000
# 2 65.9895 77.2318 16.8416 0.0000 0.0000 0.0000
# 3 20.8859 16.8416 58.9386 0.0000 0.0000 0.0000
# 4 0.0000 0.0000 0.0000 18.6084 0.0000 0.0000
# 5 0.0000 0.0000 0.0000 0.0000 24.2338 0.0000
# 6 0.0000 0.0000 0.0000 0.0000 0.0000 52.5191
#
#
#
# Elastic Compliance Matrix: (Units=1/GPa)
#
#
# Indices 1 2 3 4 5 6 
#
# 1 0.023513 -0.019487 -0.002764 0.000000 0.000000 0.000000
# 2 -0.019487 0.029960 -0.001655 0.000000 0.000000 0.000000
# 3 -0.002764 -0.001655 0.018419 0.000000 0.000000 0.000000
# 4 0.000000 0.000000 0.000000 0.053739 0.000000 0.000000
# 5 0.000000 0.000000 0.000000 0.000000 0.041265 0.000000
# 6 0.000000 0.000000 0.000000 0.000000 0.000000 0.019041
#
#
# Mechanical properties :
#
#
# Convention : Reuss Voigt Hill
#
# Bulk Modulus (GPa) = 41.53000 49.25356 45.39178
# Shear Modulus (GPa) = 20.68043 27.88099 24.28071
#
# Velocity S-wave (km/s) = 3.01980 3.50633 3.27212
# Velocity P-wave (km/s) = 5.52013 6.17342 5.85590
#
# Compressibility (1/GPa) = 0.02407898
#
# Stress axis : x y z
#
# Youngs Moduli (GPa) = 42.53055 33.37833 54.29139
#
# Poissons Ratio (x) = 0.65045 0.15004
# Poissons Ratio (y) = 0.82880 0.08987
# Poissons Ratio (z) = 0.11754 0.05525
#
# Static dielectric constant tensor:
#      x y z
#    x 3.971840 0.000000 0.000000 
#    y 0.000000 3.799900 0.000000 
#    z 0.000000 0.000000 3.928530 
# 
# 
# High freq. dielectric constant tensor:
#      x y z
#    x 1.894850 0.000000 0.000000 
#    y 0.000000 1.880020 0.000000 
#    z 0.000000 0.000000 1.884200 
# 
# From -- ./inp_files/4150.got.cif
#   From: 2010.03.12/outbox.cif.g09.slc.cpg/sg61_3_cif.got.tgz:4150.got - 2010.04.10 19:05:03.
