data_PCOD8249884
_publ_section_title
;
Structure prediction by ZEFSAII (Michael W. Deem and Ramdas Pophale) SiO2 
 PCOD8249884
Probable space group: P B C A
;
_chemical_formula_sum "Si O2"
_cell_formula_units_Z 40
_cell_length_a 7.385516
_cell_length_b 21.700601
_cell_length_c 9.070187
_cell_angle_alpha 90.000000
_cell_angle_beta 90.000000
_cell_angle_gamma 90.000000
_cell_volume 1453.680103
_symmetry_space_group_name_H-M "P B C A"
_symmetry_group_IT_number 61
_symmetry_cell_setting 'orthorhombic'
loop_
_space_group_symop_operation_xyz
x,y,z
1/2-x,-y,1/2+z
1/2+x,1/2-y,-z
-x,1/2+y,1/2-z
-x,-y,-z
1/2+x,y,1/2-z
1/2-x,1/2+y,z
x,1/2-y,1/2+z
loop_
_atom_site_type_symbol
_atom_site_label
_atom_site_fract_x
_atom_site_fract_y
_atom_site_fract_z
Si Si1 0.126679 0.081247 0.382804
Si Si2 0.182604 0.300144 0.722351
Si Si3 0.546860 0.603704 0.919435
Si Si4 0.997736 0.243070 0.960266
Si Si5 0.839060 0.440451 0.117246
O O1 0.124526 0.127138 0.239002
O O2 0.328659 0.089718 0.441743
O O3 0.971697 0.095995 0.504260
O O4 0.096395 0.009881 0.345175
O O5 0.187575 0.272425 0.890204
O O6 0.350862 0.290144 0.611491
O O7 0.017213 0.262626 0.638441
O O8 0.504407 0.674889 0.899264
O O9 0.662036 0.590907 0.774522
O O10 0.365783 0.563187 0.941563
#
# Coordination Sequence:
#
# PCOD8249884 Si02
#       5
#     8   8   8   8   8
#     4  11  27  51  77 120 162 227 284 351 433 508
#     4  12  28  52  81 116 169 214 275 351 415 512
#     4  12  24  49  78 114 161 220 273 353 426 495
#     4  12  28  49  78 119 158 216 275 335 422 499
#     4  11  26  47  83 117 166 215 289 353 421 517
#
# _framework density 27.516370999999999
#
# number of rings (size 3 to 8) (size 9 to 14) (size 15 to 20)
#    0.000    0.400    2.000    5.400    5.600    4.800 
#    3.600    0.000    0.000    0.000    0.000    0.000 
#    0.000    0.000    0.000    0.000    0.000    0.000 
#
# Total GULP energy -495650.602998 kJ/mol
# GULP energy per Si atom -12391.265075 kJ/mol
# Density = 2.745374 g / cm^3
# Si number density = 27.516371 Si / 1000 Ang^3
#
#
#
# Elastic Constant Matrix: (Units=GPa)
#
#
# Indices 1 2 3 4 5 6 
#
# 1 99.1280 -10.5525 13.2135 0.0000 0.0000 0.0000
# 2 -10.5525 99.8427 32.1945 0.0000 0.0000 0.0000
# 3 13.2135 32.1945 100.1329 0.0000 0.0000 0.0000
# 4 0.0000 0.0000 0.0000 55.2744 0.0000 0.0000
# 5 0.0000 0.0000 0.0000 0.0000 33.1187 0.0000
# 6 0.0000 0.0000 0.0000 0.0000 0.0000 41.3416
#
#
#
# Elastic Compliance Matrix: (Units=1/GPa)
#
#
# Indices 1 2 3 4 5 6 
#
# 1 0.010533 0.001742 -0.001950 0.000000 0.000000 0.000000
# 2 0.001742 0.011462 -0.003915 0.000000 0.000000 0.000000
# 3 -0.001950 -0.003915 0.011503 0.000000 0.000000 0.000000
# 4 0.000000 0.000000 0.000000 0.018092 0.000000 0.000000
# 5 0.000000 0.000000 0.000000 0.000000 0.030194 0.000000
# 6 0.000000 0.000000 0.000000 0.000000 0.000000 0.024189
#
#
# Mechanical properties :
#
#
# Convention : Reuss Voigt Hill
#
# Bulk Modulus (GPa) = 39.60061 40.97939 40.29000
# Shear Modulus (GPa) = 40.77067 43.56347 42.16707
#
# Velocity S-wave (km/s) = 3.85345 3.98324 3.91888
# Velocity P-wave (km/s) = 5.84993 6.00666 5.92881
#
# Compressibility (1/GPa) = 0.02525214
#
# Stress axis : x y z
#
# Youngs Moduli (GPa) = 94.93643 87.24213 86.93480
#
# Poissons Ratio (x) = -0.15198 0.16953
# Poissons Ratio (y) = -0.16539 0.34037
# Poissons Ratio (z) = 0.18514 0.34157
#
# Static dielectric constant tensor:
#      x y z
#    x 5.498460 0.000000 0.000000 
#    y 0.000000 5.036130 0.000000 
#    z 0.000000 0.000000 5.195460 
# 
# 
# High freq. dielectric constant tensor:
#      x y z
#    x 2.131580 0.000000 0.000000 
#    y 0.000000 2.109320 0.000000 
#    z 0.000000 0.000000 2.117810 
# 
# From -- ./inp_files/1741.got.cif
#   From: 2010.03.12/outbox.cif.g09.slc.cpg/sg61_1_cif.got.tgz:1741.got - 2010.04.10 19:05:03.
