data_PCOD8249994
_publ_section_title
;
Structure prediction by ZEFSAII (Michael W. Deem and Ramdas Pophale) SiO2 
 PCOD8249994
Probable space group: P N M A
;
_chemical_formula_sum "Si O2"
_cell_formula_units_Z 56
_cell_length_a 22.623571
_cell_length_b 9.050560
_cell_length_c 17.474997
_cell_angle_alpha 90.000000
_cell_angle_beta 90.000000
_cell_angle_gamma 90.000000
_cell_volume 3578.110254
_symmetry_space_group_name_H-M "P N M A"
_symmetry_group_IT_number 62
_symmetry_cell_setting 'orthorhombic'
loop_
_space_group_symop_operation_xyz
x,y,z
1/2-x,-y,1/2+z
1/2+x,1/2-y,1/2-z
-x,1/2+y,-z
-x,-y,-z
1/2+x,y,1/2-z
1/2-x,1/2+y,1/2+z
x,1/2-y,z
loop_
_atom_site_type_symbol
_atom_site_label
_atom_site_fract_x
_atom_site_fract_y
_atom_site_fract_z
Si Si1 0.344065 0.422772 0.376760
Si Si2 0.437609 0.422832 0.500470
Si Si3 0.776359 0.074444 0.581165
Si Si4 0.650515 0.578252 0.368399
Si Si5 0.683161 0.415993 0.224288
Si Si6 0.218732 0.078884 0.573042
Si Si7 0.815445 0.086489 0.286150
O O1 0.327163 0.250000 0.389324
O O2 0.402747 0.465529 0.423112
O O3 0.290473 0.519774 0.408225
O O4 0.356711 0.455633 0.286678
O O5 0.500000 0.500000 0.500000
O O6 0.448401 0.250000 0.504838
O O7 0.400166 0.475944 0.573827
O O8 0.778119 0.250000 0.583783
O O9 0.819837 0.010850 0.646544
O O10 0.800513 0.016237 0.500088
O O11 0.645184 0.750000 0.348630
O O12 0.642311 0.488972 0.289564
O O13 0.713095 0.545442 0.408335
O O14 0.660604 0.250000 0.208211
O O15 0.749744 0.415424 0.253320
O O16 0.207232 0.250000 0.556369
O O17 0.177838 0.029452 0.644832
O O18 0.831136 0.250000 0.317054
#
# Coordination Sequence:
#
# PCOD8249994 Si02
#       7
#     8   8   8   8   8   8   8
#     4   9  17  32  46  58  83 116 147 184 226 259
#     4  10  20  33  47  65  88 117 153 192 228 261
#     4  11  19  26  41  64  88 114 148 179 212 261
#     4   9  17  30  45  59  83 115 148 185 224 259
#     4   9  17  28  42  60  84 112 144 177 217 264
#     4  10  17  27  42  60  87 117 144 175 217 261
#     4   8  15  26  41  60  81 108 143 177 213 260
#
# _framework density 15.650721000000001
#
# number of rings (size 3 to 8) (size 9 to 14) (size 15 to 20)
#    0.000    2.571    1.429    3.000    0.000    5.143 
#    0.000    0.000    0.000    0.000    0.000    0.000 
#    0.000    1.143    0.000    3.429    0.000    5.286 
#
# Total GULP energy -694250.455740 kJ/mol
# GULP energy per Si atom -12397.329567 kJ/mol
# Density = 1.561510 g / cm^3
# Si number density = 15.650721 Si / 1000 Ang^3
#
#
#
# Elastic Constant Matrix: (Units=GPa)
#
#
# Indices 1 2 3 4 5 6 
#
# 1 51.7385 25.1813 47.5310 0.0000 0.0000 0.0000
# 2 25.1813 96.2343 71.1554 0.0000 0.0000 0.0000
# 3 47.5310 71.1554 145.0930 0.0000 0.0000 0.0000
# 4 0.0000 0.0000 0.0000 31.4873 0.0000 0.0000
# 5 0.0000 0.0000 0.0000 0.0000 15.8639 0.0000
# 6 0.0000 0.0000 0.0000 0.0000 0.0000 17.2887
#
#
#
# Elastic Compliance Matrix: (Units=1/GPa)
#
#
# Indices 1 2 3 4 5 6 
#
# 1 0.027693 -0.000845 -0.008657 0.000000 0.000000 0.000000
# 2 -0.000845 0.016329 -0.007731 0.000000 0.000000 0.000000
# 3 -0.008657 -0.007731 0.013520 0.000000 0.000000 0.000000
# 4 0.000000 0.000000 0.000000 0.031759 0.000000 0.000000
# 5 0.000000 0.000000 0.000000 0.000000 0.063036 0.000000
# 6 0.000000 0.000000 0.000000 0.000000 0.000000 0.057841
#
#
# Mechanical properties :
#
#
# Convention : Reuss Voigt Hill
#
# Bulk Modulus (GPa) = 43.33854 64.53346 53.93600
# Shear Modulus (GPa) = 19.81489 22.87450 21.34470
#
# Velocity S-wave (km/s) = 3.56205 3.82719 3.69699
# Velocity P-wave (km/s) = 6.68347 7.80082 7.26366
#
# Compressibility (1/GPa) = 0.02307415
#
# Stress axis : x y z
#
# Youngs Moduli (GPa) = 36.11069 61.24192 73.96662
#
# Poissons Ratio (x) = 0.05174 0.64036
# Poissons Ratio (y) = 0.03051 0.57184
# Poissons Ratio (z) = 0.31263 0.47346
#
# Static dielectric constant tensor:
#      x y z
#    x 2.500520 0.000000 0.000000 
#    y 0.000000 3.044570 0.000000 
#    z 0.000000 0.000000 3.348810 
# 
# 
# High freq. dielectric constant tensor:
#      x y z
#    x 1.526750 0.000000 0.000000 
#    y 0.000000 1.607390 0.000000 
#    z 0.000000 0.000000 1.617230 
# 
# From -- ./inp_files/24585.got.cif
#   From: 2010.03.12/outbox.cif.g09.slc.cpg/sg62_13_cif.got.tgz:24585.got - 2010.04.10 19:12:36.
