data_PCOD8249497
_publ_section_title
;
Structure prediction by ZEFSAII (Michael W. Deem and Ramdas Pophale) SiO2 
 PCOD8249497
Probable space group: P B C A
;
_chemical_formula_sum "Si O2"
_cell_formula_units_Z 56
_cell_length_a 8.044365
_cell_length_b 13.586784
_cell_length_c 21.283918
_cell_angle_alpha 90.000000
_cell_angle_beta 90.000000
_cell_angle_gamma 90.000000
_cell_volume 2326.269443
_symmetry_space_group_name_H-M "P B C A"
_symmetry_group_IT_number 61
_symmetry_cell_setting 'orthorhombic'
loop_
_space_group_symop_operation_xyz
x,y,z
1/2-x,-y,1/2+z
1/2+x,1/2-y,-z
-x,1/2+y,1/2-z
-x,-y,-z
1/2+x,y,1/2-z
1/2-x,1/2+y,z
x,1/2-y,1/2+z
loop_
_atom_site_type_symbol
_atom_site_label
_atom_site_fract_x
_atom_site_fract_y
_atom_site_fract_z
Si Si1 0.178083 0.929425 0.582000
Si Si2 0.376880 0.325396 0.193907
Si Si3 0.299872 0.855532 0.061254
Si Si4 0.397314 0.775102 0.894014
Si Si5 0.153044 0.047633 0.208604
Si Si6 0.963846 0.823731 0.989225
Si Si7 0.837723 0.331616 0.700915
O O1 0.205505 0.943085 0.656070
O O2 0.355612 0.903660 0.548977
O O3 0.029356 0.851308 0.573574
O O4 0.123378 0.035767 0.556192
O O5 0.260721 0.327105 0.131503
O O6 0.540981 0.268125 0.172630
O O7 0.419657 0.437157 0.214075
O O8 0.309269 0.263798 0.253645
O O9 0.448982 0.780900 0.046522
O O10 0.155674 0.848900 0.006585
O O11 0.220718 0.818513 0.871869
O O12 0.369916 0.688070 0.943525
O O13 0.237381 0.073491 0.274374
O O14 0.025046 0.134362 0.193275
#
# Coordination Sequence:
#
# PCOD8249497 Si02
#       7
#     8   8   8   8   8   8   8
#     4  11  22  46  65  95 135 179 222 282 333 403
#     4  10  22  45  64  92 134 170 217 283 332 392
#     4  10  23  41  72  94 133 177 222 275 341 403
#     4  11  24  43  65  96 139 171 225 275 338 400
#     4  11  24  38  69  92 127 176 226 270 351 397
#     4  11  21  44  64  97 133 174 222 275 341 401
#     4  12  23  43  65  97 133 176 222 285 331 414
#
# _framework density 24.072877999999999
#
# number of rings (size 3 to 8) (size 9 to 14) (size 15 to 20)
#    0.000    1.143    5.714    0.429    4.000    0.571 
#    0.000    0.000    0.000    0.000    0.000    0.000 
#    0.000    0.000    0.000    0.000    0.000    0.000 
#
# Total GULP energy -693835.233480 kJ/mol
# GULP energy per Si atom -12389.914884 kJ/mol
# Density = 2.401809 g / cm^3
# Si number density = 24.072878 Si / 1000 Ang^3
#
#
#
# Elastic Constant Matrix: (Units=GPa)
#
#
# Indices 1 2 3 4 5 6 
#
# 1 35.5949 2.1347 -10.6717 0.0000 0.0000 0.0000
# 2 2.1347 124.1165 11.8037 0.0000 0.0000 0.0000
# 3 -10.6717 11.8037 46.8172 0.0000 0.0000 0.0000
# 4 0.0000 0.0000 0.0000 27.4254 0.0000 0.0000
# 5 0.0000 0.0000 0.0000 0.0000 28.2745 0.0000
# 6 0.0000 0.0000 0.0000 0.0000 0.0000 15.4126
#
#
#
# Elastic Compliance Matrix: (Units=1/GPa)
#
#
# Indices 1 2 3 4 5 6 
#
# 1 0.030330 -0.001208 0.007218 0.000000 0.000000 0.000000
# 2 -0.001208 0.008303 -0.002369 0.000000 0.000000 0.000000
# 3 0.007218 -0.002369 0.023602 0.000000 0.000000 0.000000
# 4 0.000000 0.000000 0.000000 0.036463 0.000000 0.000000
# 5 0.000000 0.000000 0.000000 0.000000 0.035368 0.000000
# 6 0.000000 0.000000 0.000000 0.000000 0.000000 0.064882
#
#
# Mechanical properties :
#
#
# Convention : Reuss Voigt Hill
#
# Bulk Modulus (GPa) = 14.38470 23.67356 19.02913
# Shear Modulus (GPa) = 23.27338 27.77331 25.52334
#
# Velocity S-wave (km/s) = 3.11270 3.40033 3.25969
# Velocity P-wave (km/s) = 4.34821 5.02710 4.69993
#
# Compressibility (1/GPa) = 0.06951833
#
# Stress axis : x y z
#
# Youngs Moduli (GPa) = 32.97018 120.43841 42.36887
#
# Poissons Ratio (x) = 0.14550 -0.30583
# Poissons Ratio (y) = 0.03983 0.10036
# Poissons Ratio (z) = -0.23799 0.28529
#
# Static dielectric constant tensor:
#      x y z
#    x 3.949940 0.000000 0.000000 
#    y 0.000000 4.485930 0.000000 
#    z 0.000000 0.000000 4.515450 
# 
# 
# High freq. dielectric constant tensor:
#      x y z
#    x 1.934140 0.000000 0.000000 
#    y 0.000000 1.953830 0.000000 
#    z 0.000000 0.000000 1.970240 
# 
# From -- ./inp_files/3048.got.cif
#   From: 2010.03.12/outbox.cif.g09.slc.cpg/sg61_2_cif.got.tgz:3048.got - 2010.04.10 19:05:03.
