data_PCOD8249148
_publ_section_title
;
Structure prediction by ZEFSAII (Michael W. Deem and Ramdas Pophale) SiO2 
 PCOD8249148
Probable space group: P B C A
;
_chemical_formula_sum "Si O2"
_cell_formula_units_Z 64
_cell_length_a 17.060963
_cell_length_b 8.785079
_cell_length_c 19.147576
_cell_angle_alpha 90.000000
_cell_angle_beta 90.000000
_cell_angle_gamma 90.000000
_cell_volume 2869.875220
_symmetry_space_group_name_H-M "P B C A"
_symmetry_group_IT_number 61
_symmetry_cell_setting 'orthorhombic'
loop_
_space_group_symop_operation_xyz
x,y,z
1/2-x,-y,1/2+z
1/2+x,1/2-y,-z
-x,1/2+y,1/2-z
-x,-y,-z
1/2+x,y,1/2-z
1/2-x,1/2+y,z
x,1/2-y,1/2+z
loop_
_atom_site_type_symbol
_atom_site_label
_atom_site_fract_x
_atom_site_fract_y
_atom_site_fract_z
Si Si1 0.593149 0.279970 0.170616
Si Si2 0.821377 0.128568 0.864262
Si Si3 0.924001 0.294607 0.766883
Si Si4 0.435853 0.397063 0.887439
Si Si5 0.590665 0.136854 0.035494
Si Si6 0.605221 0.338031 0.913697
Si Si7 0.649065 0.116130 0.807940
Si Si8 0.093355 0.806835 0.514194
O O1 0.509321 0.235593 0.202149
O O2 0.596171 0.435719 0.126477
O O3 0.620125 0.151540 0.115620
O O4 0.654536 0.295509 0.233878
O O5 0.869416 0.154975 0.792204
O O6 0.730317 0.140538 0.847947
O O7 0.828994 0.955935 0.890105
O O8 0.853526 0.249686 0.921364
O O9 0.928954 0.297649 0.683350
O O10 0.883978 0.447478 0.797497
O O11 0.523465 0.427279 0.915419
O O12 0.391522 0.309069 0.949856
O O13 0.620695 0.974505 0.008704
O O14 0.630429 0.266338 0.987578
O O15 0.497425 0.171082 0.034760
O O16 0.588669 0.201865 0.858639
#
# Coordination Sequence:
#
# PCOD8249148 Si02
#       8
#     8   8   8   8   8   8   8   8
#     4  11  21  40  64  97 132 174 225 291 336 399
#     4  12  23  42  63  93 137 183 220 273 351 415
#     4  11  22  40  65  95 134 177 226 287 337 402
#     4  10  21  36  63 100 128 166 229 281 341 386
#     4  10  21  36  65 102 131 164 226 282 341 391
#     4  11  21  37  63  95 129 173 221 279 328 408
#     4  11  26  40  62  96 137 179 227 274 348 418
#     4  10  21  37  64  99 135 170 216 283 338 416
#
# _framework density 22.300621
#
# number of rings (size 3 to 8) (size 9 to 14) (size 15 to 20)
#    0.000    1.250    3.750    2.250    3.500    3.000 
#    0.000    1.250    0.000    6.000    0.000    0.000 
#    0.000    0.000    0.000    0.000    0.000    0.000 
#
# Total GULP energy -793222.280202 kJ/mol
# GULP energy per Si atom -12394.098128 kJ/mol
# Density = 2.224986 g / cm^3
# Si number density = 22.300621 Si / 1000 Ang^3
#
#
#
# Elastic Constant Matrix: (Units=GPa)
#
#
# Indices 1 2 3 4 5 6 
#
# 1 61.0570 43.6387 27.5179 0.0000 0.0000 0.0000
# 2 43.6387 79.2249 39.9281 0.0000 0.0000 0.0000
# 3 27.5179 39.9281 124.1921 0.0000 0.0000 0.0000
# 4 0.0000 0.0000 0.0000 45.3830 0.0000 0.0000
# 5 0.0000 0.0000 0.0000 0.0000 32.9770 0.0000
# 6 0.0000 0.0000 0.0000 0.0000 0.0000 17.7596
#
#
#
# Elastic Compliance Matrix: (Units=1/GPa)
#
#
# Indices 1 2 3 4 5 6 
#
# 1 0.027228 -0.014269 -0.001445 0.000000 0.000000 0.000000
# 2 -0.014269 0.022541 -0.004085 0.000000 0.000000 0.000000
# 3 -0.001445 -0.004085 0.009686 0.000000 0.000000 0.000000
# 4 0.000000 0.000000 0.000000 0.022035 0.000000 0.000000
# 5 0.000000 0.000000 0.000000 0.000000 0.030324 0.000000
# 6 0.000000 0.000000 0.000000 0.000000 0.000000 0.056308
#
#
# Mechanical properties :
#
#
# Convention : Reuss Voigt Hill
#
# Bulk Modulus (GPa) = 50.36562 54.07151 52.21856
# Shear Modulus (GPa) = 23.32744 29.44986 26.38865
#
# Velocity S-wave (km/s) = 3.23777 3.63793 3.44367
# Velocity P-wave (km/s) = 6.05074 6.47652 6.26724
#
# Compressibility (1/GPa) = 0.01985481
#
# Stress axis : x y z
#
# Youngs Moduli (GPa) = 36.72669 44.36350 103.24445
#
# Poissons Ratio (x) = 0.63304 0.14924
# Poissons Ratio (y) = 0.52407 0.42178
# Poissons Ratio (z) = 0.05309 0.18124
#
# Static dielectric constant tensor:
#      x y z
#    x 3.536420 0.000000 0.000000 
#    y 0.000000 4.228790 0.000000 
#    z 0.000000 0.000000 4.422280 
# 
# 
# High freq. dielectric constant tensor:
#      x y z
#    x 1.833020 0.000000 0.000000 
#    y 0.000000 1.889210 0.000000 
#    z 0.000000 0.000000 1.899570 
# 
# From -- ./inp_files/10551.got.cif
#   From: 2010.03.12/outbox.cif.g09.slc.cpg/sg61_6_cif.got.tgz:10551.got - 2010.04.10 19:05:03.
