data_PCOD8249268
_publ_section_title
;
Structure prediction by ZEFSAII (Michael W. Deem and Ramdas Pophale) SiO2 
 PCOD8249268
Probable space group: P B C A
;
_chemical_formula_sum "Si O2"
_cell_formula_units_Z 48
_cell_length_a 13.638115
_cell_length_b 27.022536
_cell_length_c 5.133135
_cell_angle_alpha 90.000000
_cell_angle_beta 90.000000
_cell_angle_gamma 90.000000
_cell_volume 1891.747369
_symmetry_space_group_name_H-M "P B C A"
_symmetry_group_IT_number 61
_symmetry_cell_setting 'orthorhombic'
loop_
_space_group_symop_operation_xyz
x,y,z
1/2-x,-y,1/2+z
1/2+x,1/2-y,-z
-x,1/2+y,1/2-z
-x,-y,-z
1/2+x,y,1/2-z
1/2-x,1/2+y,z
x,1/2-y,1/2+z
loop_
_atom_site_type_symbol
_atom_site_label
_atom_site_fract_x
_atom_site_fract_y
_atom_site_fract_z
Si Si1 0.223365 0.776861 0.112498
Si Si2 0.706937 0.614240 0.704345
Si Si3 0.580383 0.424254 0.080726
Si Si4 0.453758 0.775696 0.075071
Si Si5 0.307668 0.486697 0.070588
Si Si6 0.984074 0.384454 0.929019
O O1 0.175679 0.746367 0.352764
O O2 0.200395 0.834871 0.136808
O O3 0.338426 0.766928 0.098470
O O4 0.814665 0.603743 0.590551
O O5 0.670293 0.571569 0.904174
O O6 0.633700 0.615465 0.456434
O O7 0.596342 0.482227 0.012676
O O8 0.513845 0.397937 0.863717
O O9 0.529434 0.422969 0.362157
O O10 0.499658 0.760656 0.354301
O O11 0.473027 0.831828 0.006368
O O12 0.275258 0.506807 0.352600
#
# Coordination Sequence:
#
# PCOD8249268 Si02
#       6
#     8   8   8   8   8   8
#     4  10  23  39  67  97 129 179 220 276 338 396
#     4  11  26  46  72 102 140 179 233 278 345 407
#     4  11  25  46  68 100 144 175 229 284 336 407
#     4  10  21  40  64  93 132 177 223 273 339 403
#     4  10  23  43  71 100 135 186 221 279 343 403
#     4  12  26  42  72 102 132 187 225 284 344 402
#
# _framework density 25.373370000000001
#
# number of rings (size 3 to 8) (size 9 to 14) (size 15 to 20)
#    0.000    1.333    1.667    3.000    4.667    9.333 
#    0.000    0.000    0.000    0.000    0.000    0.000 
#    0.000    0.000    0.000    0.000    0.000    0.000 
#
# Total GULP energy -595275.633145 kJ/mol
# GULP energy per Si atom -12401.575691 kJ/mol
# Density = 2.531562 g / cm^3
# Si number density = 25.373370 Si / 1000 Ang^3
#
#
#
# Elastic Constant Matrix: (Units=GPa)
#
#
# Indices 1 2 3 4 5 6 
#
# 1 58.1776 -5.2084 24.6139 0.0000 0.0000 0.0000
# 2 -5.2084 165.1185 55.9364 0.0000 0.0000 0.0000
# 3 24.6139 55.9364 83.8010 0.0000 0.0000 0.0000
# 4 0.0000 0.0000 0.0000 9.5399 0.0000 0.0000
# 5 0.0000 0.0000 0.0000 0.0000 29.8105 0.0000
# 6 0.0000 0.0000 0.0000 0.0000 0.0000 2.3289
#
#
#
# Elastic Compliance Matrix: (Units=1/GPa)
#
#
# Indices 1 2 3 4 5 6 
#
# 1 0.021149 0.003581 -0.008602 0.000000 0.000000 0.000000
# 2 0.003581 0.008432 -0.006680 0.000000 0.000000 0.000000
# 3 -0.008602 -0.006680 0.018919 0.000000 0.000000 0.000000
# 4 0.000000 0.000000 0.000000 0.104823 0.000000 0.000000
# 5 0.000000 0.000000 0.000000 0.000000 0.033545 0.000000
# 6 0.000000 0.000000 0.000000 0.000000 0.000000 0.429391
#
#
# Mechanical properties :
#
#
# Convention : Reuss Voigt Hill
#
# Bulk Modulus (GPa) = 39.84515 50.86454 45.35484
# Shear Modulus (GPa) = 7.71572 23.78621 15.75096
#
# Velocity S-wave (km/s) = 1.74570 3.06510 2.49422
# Velocity P-wave (km/s) = 4.44982 5.71108 5.11944
#
# Compressibility (1/GPa) = 0.02509716
#
# Stress axis : x y z
#
# Youngs Moduli (GPa) = 47.28394 118.59164 52.85760
#
# Poissons Ratio (x) = -0.42471 0.45469
# Poissons Ratio (y) = -0.16934 0.35311
# Poissons Ratio (z) = 0.40675 0.79224
#
# Static dielectric constant tensor:
#      x y z
#    x 4.593830 0.000000 0.000000 
#    y 0.000000 4.650060 0.000000 
#    z 0.000000 0.000000 4.933240 
# 
# 
# High freq. dielectric constant tensor:
#      x y z
#    x 2.019330 0.000000 0.000000 
#    y 0.000000 2.016750 0.000000 
#    z 0.000000 0.000000 2.019720 
# 
# From -- ./inp_files/515.got.cif
#   From: 2010.03.12/outbox.cif.g09.slc.cpg/sg61_1_cif.got.tgz:515.got - 2010.04.10 19:05:03.
