data_PCOD8249777
_publ_section_title
;
Structure prediction by ZEFSAII (Michael W. Deem and Ramdas Pophale) SiO2 
 PCOD8249777
Probable space group: P B C A
;
_chemical_formula_sum "Si O2"
_cell_formula_units_Z 48
_cell_length_a 17.256651
_cell_length_b 14.229102
_cell_length_c 8.153790
_cell_angle_alpha 90.000000
_cell_angle_beta 90.000000
_cell_angle_gamma 90.000000
_cell_volume 2002.135797
_symmetry_space_group_name_H-M "P B C A"
_symmetry_group_IT_number 61
_symmetry_cell_setting 'orthorhombic'
loop_
_space_group_symop_operation_xyz
x,y,z
1/2-x,-y,1/2+z
1/2+x,1/2-y,-z
-x,1/2+y,1/2-z
-x,-y,-z
1/2+x,y,1/2-z
1/2-x,1/2+y,z
x,1/2-y,1/2+z
loop_
_atom_site_type_symbol
_atom_site_label
_atom_site_fract_x
_atom_site_fract_y
_atom_site_fract_z
Si Si1 0.173147 0.786910 0.463942
Si Si2 0.295999 0.030728 0.157048
Si Si3 0.414732 0.798697 0.342679
Si Si4 0.325734 0.834617 0.030562
Si Si5 0.917408 0.344293 0.339624
Si Si6 0.862470 0.975589 0.987922
O O1 0.169433 0.871579 0.593725
O O2 0.251827 0.725431 0.467877
O O3 0.155465 0.829575 0.284182
O O4 0.100930 0.719945 0.503617
O O5 0.315631 0.946885 0.027218
O O6 0.326292 0.013036 0.340277
O O7 0.203322 0.041887 0.149301
O O8 0.344275 0.810861 0.218109
O O9 0.401034 0.696360 0.424073
O O10 0.499964 0.812287 0.264278
O O11 0.406495 0.877661 0.485275
O O12 0.921712 0.450884 0.405483
#
# Coordination Sequence:
#
# PCOD8249777 Si02
#       6
#     8   8   8   8   8   8
#     4  12  24  43  71 100 135 186 233 291 339 419
#     4  11  24  41  70 103 134 178 240 285 344 407
#     4  11  25  45  69 102 140 184 225 292 352 413
#     4  11  24  43  69  99 137 179 234 281 344 417
#     4  12  25  45  69 103 141 180 234 286 357 413
#     4  11  23  43  68 103 142 183 230 290 342 417
#
# _framework density 23.974397
#
# number of rings (size 3 to 8) (size 9 to 14) (size 15 to 20)
#    0.000    0.667    3.333    4.500    2.333    1.333 
#    0.000    9.167    0.000    0.000    0.000    0.000 
#    0.000    0.000    0.000    0.000    0.000    0.000 
#
# Total GULP energy -594941.947595 kJ/mol
# GULP energy per Si atom -12394.623908 kJ/mol
# Density = 2.391983 g / cm^3
# Si number density = 23.974397 Si / 1000 Ang^3
#
#
#
# Elastic Constant Matrix: (Units=GPa)
#
#
# Indices 1 2 3 4 5 6 
#
# 1 110.4595 15.4818 7.9832 0.0000 0.0000 0.0000
# 2 15.4818 68.3828 -16.8764 0.0000 0.0000 0.0000
# 3 7.9832 -16.8764 36.4183 0.0000 0.0000 0.0000
# 4 0.0000 0.0000 0.0000 29.0111 0.0000 0.0000
# 5 0.0000 0.0000 0.0000 0.0000 33.6766 0.0000
# 6 0.0000 0.0000 0.0000 0.0000 0.0000 30.3499
#
#
#
# Elastic Compliance Matrix: (Units=1/GPa)
#
#
# Indices 1 2 3 4 5 6 
#
# 1 0.009743 -0.003086 -0.003566 0.000000 0.000000 0.000000
# 2 -0.003086 0.017489 0.008781 0.000000 0.000000 0.000000
# 3 -0.003566 0.008781 0.032310 0.000000 0.000000 0.000000
# 4 0.000000 0.000000 0.000000 0.034470 0.000000 0.000000
# 5 0.000000 0.000000 0.000000 0.000000 0.029694 0.000000
# 6 0.000000 0.000000 0.000000 0.000000 0.000000 0.032949
#
#
# Mechanical properties :
#
#
# Convention : Reuss Voigt Hill
#
# Bulk Modulus (GPa) = 15.67376 25.38198 20.52787
# Shear Modulus (GPa) = 28.79135 32.51899 30.65517
#
# Velocity S-wave (km/s) = 3.46919 3.68694 3.57972
# Velocity P-wave (km/s) = 4.75383 5.36048 5.06625
#
# Compressibility (1/GPa) = 0.06380091
#
# Stress axis : x y z
#
# Youngs Moduli (GPa) = 102.63434 57.17772 30.95055
#
# Poissons Ratio (x) = 0.17645 0.11037
# Poissons Ratio (y) = 0.31672 -0.27178
# Poissons Ratio (z) = 0.36598 -0.50208
#
# Static dielectric constant tensor:
#      x y z
#    x 4.038610 0.000000 0.000000 
#    y 0.000000 4.657790 0.000000 
#    z 0.000000 0.000000 4.207930 
# 
# 
# High freq. dielectric constant tensor:
#      x y z
#    x 1.934080 0.000000 0.000000 
#    y 0.000000 1.965140 0.000000 
#    z 0.000000 0.000000 1.949490 
# 
# From -- ./inp_files/3432.got.cif
#   From: 2010.03.12/outbox.cif.g09.slc.cpg/sg61_2_cif.got.tgz:3432.got - 2010.04.10 19:05:03.
