data_PCOD8249684
_publ_section_title
;
Structure prediction by ZEFSAII (Michael W. Deem and Ramdas Pophale) SiO2 
 PCOD8249684
Probable space group: P B C A
;
_chemical_formula_sum "Si O2"
_cell_formula_units_Z 48
_cell_length_a 8.688693
_cell_length_b 15.398616
_cell_length_c 17.251047
_cell_angle_alpha 90.000000
_cell_angle_beta 90.000000
_cell_angle_gamma 90.000000
_cell_volume 2308.083944
_symmetry_space_group_name_H-M "P B C A"
_symmetry_group_IT_number 61
_symmetry_cell_setting 'orthorhombic'
loop_
_space_group_symop_operation_xyz
x,y,z
1/2-x,-y,1/2+z
1/2+x,1/2-y,-z
-x,1/2+y,1/2-z
-x,-y,-z
1/2+x,y,1/2-z
1/2-x,1/2+y,z
x,1/2-y,1/2+z
loop_
_atom_site_type_symbol
_atom_site_label
_atom_site_fract_x
_atom_site_fract_y
_atom_site_fract_z
Si Si1 0.789052 0.067601 0.654217
Si Si2 0.152393 0.284036 0.452143
Si Si3 0.479754 0.190340 0.239861
Si Si4 0.744000 0.376041 0.646043
Si Si5 0.609748 0.129591 0.798228
Si Si6 0.316286 0.262972 0.099175
O O1 0.738397 0.143452 0.597108
O O2 0.702482 0.072650 0.736283
O O3 0.971800 0.073227 0.666802
O O4 0.748628 0.974783 0.615453
O O5 0.199678 0.188036 0.423336
O O6 0.206166 0.290893 0.541034
O O7 0.968924 0.296210 0.445526
O O8 0.406898 0.152420 0.317816
O O9 0.616421 0.127356 0.213910
O O10 0.545250 0.286187 0.254317
O O11 0.355473 0.198945 0.170467
O O12 0.724020 0.154072 0.868360
#
# Coordination Sequence:
#
# PCOD8249684 Si02
#       6
#     8   8   8   8   8   8
#     4  12  22  39  64  94 127 165 210 259 311 372
#     4  11  23  42  61  91 131 166 209 250 320 383
#     4  11  19  40  64  91 122 162 215 256 308 361
#     4  11  23  38  63  93 127 164 208 261 310 369
#     4  12  19  40  66  92 122 164 216 258 308 364
#     4  11  22  39  69  90 123 175 202 257 319 367
#
# _framework density 20.796471
#
# number of rings (size 3 to 8) (size 9 to 14) (size 15 to 20)
#    0.000    0.667    8.333    2.000    0.000    0.000 
#    0.000   10.000    0.000    0.000    0.000    0.000 
#    0.000    0.000    0.000    0.000    0.000    0.000 
#
# Total GULP energy -595379.781955 kJ/mol
# GULP energy per Si atom -12403.745457 kJ/mol
# Density = 2.074914 g / cm^3
# Si number density = 20.796471 Si / 1000 Ang^3
#
#
#
# Elastic Constant Matrix: (Units=GPa)
#
#
# Indices 1 2 3 4 5 6 
#
# 1 94.0719 23.2124 28.1574 0.0000 0.0000 0.0000
# 2 23.2124 111.1038 17.9854 0.0000 0.0000 0.0000
# 3 28.1574 17.9854 71.3657 0.0000 0.0000 0.0000
# 4 0.0000 0.0000 0.0000 10.5770 0.0000 0.0000
# 5 0.0000 0.0000 0.0000 0.0000 47.1377 0.0000
# 6 0.0000 0.0000 0.0000 0.0000 0.0000 22.5623
#
#
#
# Elastic Compliance Matrix: (Units=1/GPa)
#
#
# Indices 1 2 3 4 5 6 
#
# 1 0.012418 -0.001878 -0.004426 0.000000 0.000000 0.000000
# 2 -0.001878 0.009667 -0.001695 0.000000 0.000000 0.000000
# 3 -0.004426 -0.001695 0.016186 0.000000 0.000000 0.000000
# 4 0.000000 0.000000 0.000000 0.094545 0.000000 0.000000
# 5 0.000000 0.000000 0.000000 0.000000 0.021214 0.000000
# 6 0.000000 0.000000 0.000000 0.000000 0.000000 0.044322
#
#
# Mechanical properties :
#
#
# Convention : Reuss Voigt Hill
#
# Bulk Modulus (GPa) = 44.89881 46.13909 45.51895
# Shear Modulus (GPa) = 22.54524 29.86782 26.20653
#
# Velocity S-wave (km/s) = 3.29612 3.79383 3.55370
# Velocity P-wave (km/s) = 6.01019 6.43623 6.22686
#
# Compressibility (1/GPa) = 0.02227231
#
# Stress axis : x y z
#
# Youngs Moduli (GPa) = 80.52522 103.44048 61.78156
#
# Poissons Ratio (x) = 0.19426 0.27347
# Poissons Ratio (y) = 0.15122 0.10474
# Poissons Ratio (z) = 0.35644 0.17537
#
# Static dielectric constant tensor:
#      x y z
#    x 4.101620 0.000000 0.000000 
#    y 0.000000 3.477480 0.000000 
#    z 0.000000 0.000000 3.694850 
# 
# 
# High freq. dielectric constant tensor:
#      x y z
#    x 1.835300 0.000000 0.000000 
#    y 0.000000 1.788510 0.000000 
#    z 0.000000 0.000000 1.802250 
# 
# From -- ./inp_files/2832.got.cif
#   From: 2010.03.12/outbox.cif.g09.slc.cpg/sg61_2_cif.got.tgz:2832.got - 2010.04.10 19:05:03.
