data_PCOD8249350
_publ_section_title
;
Structure prediction by ZEFSAII (Michael W. Deem and Ramdas Pophale) SiO2 
 PCOD8249350
Probable space group: P B C A
;
_chemical_formula_sum "Si O2"
_cell_formula_units_Z 48
_cell_length_a 17.180229
_cell_length_b 22.123863
_cell_length_c 5.231038
_cell_angle_alpha 90.000000
_cell_angle_beta 90.000000
_cell_angle_gamma 90.000000
_cell_volume 1988.281098
_symmetry_space_group_name_H-M "P B C A"
_symmetry_group_IT_number 61
_symmetry_cell_setting 'orthorhombic'
loop_
_space_group_symop_operation_xyz
x,y,z
1/2-x,-y,1/2+z
1/2+x,1/2-y,-z
-x,1/2+y,1/2-z
-x,-y,-z
1/2+x,y,1/2-z
1/2-x,1/2+y,z
x,1/2-y,1/2+z
loop_
_atom_site_type_symbol
_atom_site_label
_atom_site_fract_x
_atom_site_fract_y
_atom_site_fract_z
Si Si1 0.084269 0.778098 0.501271
Si Si2 0.720046 0.405231 0.700956
Si Si3 0.242524 0.226193 0.467483
Si Si4 0.646094 0.509167 0.364081
Si Si5 0.079640 0.422021 0.490157
Si Si6 0.519527 0.907422 0.995848
O O1 0.043002 0.753425 0.245044
O O2 0.174993 0.760451 0.505217
O O3 0.074634 0.849436 0.526813
O O4 0.751463 0.345881 0.557032
O O5 0.680586 0.450035 0.497941
O O6 0.791435 0.438336 0.835095
O O7 0.656779 0.385495 0.916491
O O8 0.196908 0.256286 0.227783
O O9 0.576126 0.535020 0.541909
O O10 0.611329 0.489335 0.086290
O O11 0.040996 0.396929 0.227437
O O12 0.020159 0.420280 0.723337
#
# Coordination Sequence:
#
# PCOD8249350 Si02
#       6
#     8   8   8   8   8   8
#     4  10  21  44  71 102 134 188 255 307 353 432
#     4  12  27  46  78 115 153 195 255 313 383 451
#     4  10  24  45  73 103 141 189 250 307 359 429
#     4  12  26  46  77 113 153 199 245 308 380 464
#     4  12  27  48  71 113 150 198 238 312 384 447
#     4  12  27  46  77 106 152 200 254 306 378 462
#
# _framework density 24.141456999999999
#
# number of rings (size 3 to 8) (size 9 to 14) (size 15 to 20)
#    0.000    0.667    3.333    4.000    4.667    4.000 
#    0.000    5.000    0.000    0.000    0.000    0.000 
#    0.000    0.000    0.000    0.000    0.000    0.000 
#
# Total GULP energy -594782.510099 kJ/mol
# GULP energy per Si atom -12391.302294 kJ/mol
# Density = 2.408651 g / cm^3
# Si number density = 24.141457 Si / 1000 Ang^3
#
#
#
# Elastic Constant Matrix: (Units=GPa)
#
#
# Indices 1 2 3 4 5 6 
#
# 1 87.5743 38.9425 31.2972 0.0000 0.0000 0.0000
# 2 38.9425 91.6772 30.7818 0.0000 0.0000 0.0000
# 3 31.2972 30.7818 184.0953 0.0000 0.0000 0.0000
# 4 0.0000 0.0000 0.0000 34.4209 0.0000 0.0000
# 5 0.0000 0.0000 0.0000 0.0000 25.0313 0.0000
# 6 0.0000 0.0000 0.0000 0.0000 0.0000 5.9461
#
#
#
# Elastic Compliance Matrix: (Units=1/GPa)
#
#
# Indices 1 2 3 4 5 6 
#
# 1 0.014467 -0.005636 -0.001517 0.000000 0.000000 0.000000
# 2 -0.005636 0.013752 -0.001341 0.000000 0.000000 0.000000
# 3 -0.001517 -0.001341 0.005914 0.000000 0.000000 0.000000
# 4 0.000000 0.000000 0.000000 0.029052 0.000000 0.000000
# 5 0.000000 0.000000 0.000000 0.000000 0.039950 0.000000
# 6 0.000000 0.000000 0.000000 0.000000 0.000000 0.168178
#
#
# Mechanical properties :
#
#
# Convention : Reuss Voigt Hill
#
# Bulk Modulus (GPa) = 58.32669 62.82109 60.57389
# Shear Modulus (GPa) = 17.00580 30.56801 23.78691
#
# Velocity S-wave (km/s) = 2.65698 3.56224 3.14238
# Velocity P-wave (km/s) = 5.79875 6.55728 6.18965
#
# Compressibility (1/GPa) = 0.01714481
#
# Stress axis : x y z
#
# Youngs Moduli (GPa) = 69.12152 72.71548 169.08553
#
# Poissons Ratio (x) = 0.40982 0.25653
# Poissons Ratio (y) = 0.38957 0.22680
# Poissons Ratio (z) = 0.10487 0.09753
#
# Static dielectric constant tensor:
#      x y z
#    x 4.386520 0.000000 0.000000 
#    y 0.000000 4.236270 0.000000 
#    z 0.000000 0.000000 5.917770 
# 
# 
# High freq. dielectric constant tensor:
#      x y z
#    x 1.944570 0.000000 0.000000 
#    y 0.000000 1.952620 0.000000 
#    z 0.000000 0.000000 1.981300 
# 
# From -- ./inp_files/760.got.cif
#   From: 2010.03.12/outbox.cif.g09.slc.cpg/sg61_1_cif.got.tgz:760.got - 2010.04.10 19:05:03.
