data_PCOD8249943
_publ_section_title
;
Structure prediction by ZEFSAII (Michael W. Deem and Ramdas Pophale) SiO2 
 PCOD8249943
Probable space group: P N M A
;
_chemical_formula_sum "Si O2"
_cell_formula_units_Z 40
_cell_length_a 8.410716
_cell_length_b 26.591516
_cell_length_c 9.391794
_cell_angle_alpha 90.000000
_cell_angle_beta 90.000000
_cell_angle_gamma 90.000000
_cell_volume 2100.509375
_symmetry_space_group_name_H-M "P N M A"
_symmetry_group_IT_number 62
_symmetry_cell_setting 'orthorhombic'
loop_
_space_group_symop_operation_xyz
x,y,z
1/2-x,-y,1/2+z
1/2+x,1/2-y,1/2-z
-x,1/2+y,-z
-x,-y,-z
1/2+x,y,1/2-z
1/2-x,1/2+y,1/2+z
x,1/2-y,z
loop_
_atom_site_type_symbol
_atom_site_label
_atom_site_fract_x
_atom_site_fract_y
_atom_site_fract_z
Si Si1 0.705977 0.955089 0.065804
Si Si2 0.815807 0.350746 0.876148
Si Si3 0.162616 0.250000 0.623367
Si Si4 0.792123 0.250000 0.562345
Si Si5 0.313485 0.851741 0.436697
Si Si6 0.665145 0.453188 0.877672
O O1 0.762214 0.903544 0.985390
O O2 0.521601 0.952794 0.100669
O O3 0.804970 0.960783 0.210743
O O4 0.747508 0.001405 0.963360
O O5 0.740019 0.300297 0.945302
O O6 0.790641 0.350462 0.707361
O O7 0.735698 0.401044 0.939602
O O8 0.001169 0.351675 0.906471
O O9 0.187910 0.250000 0.792838
O O10 0.977180 0.250000 0.593372
O O11 0.739467 0.300988 0.477590
#
# Coordination Sequence:
#
# PCOD8249943 Si02
#       6
#     8   8   4   4   8   8
#     4  10  20  33  49  70  96 126 160 196 235 279
#     4  10  17  26  41  62  89 119 152 189 232 278
#     4  10  16  24  38  58  87 118 149 186 231 278
#     4  10  16  24  38  58  87 118 149 186 231 278
#     4  10  17  26  41  62  89 119 152 189 232 278
#     4  10  20  33  49  70  96 126 160 196 235 279
#
# _framework density 19.042998999999998
#
# number of rings (size 3 to 8) (size 9 to 14) (size 15 to 20)
#    0.000    2.000    0.000   11.400    0.000    3.200 
#    0.000    0.000    0.000    0.000    0.000    1.400 
#    0.000    0.000    0.000    0.000    0.000    0.000 
#
# Total GULP energy -495733.849527 kJ/mol
# GULP energy per Si atom -12393.346238 kJ/mol
# Density = 1.899966 g / cm^3
# Si number density = 19.042999 Si / 1000 Ang^3
#
#
#
# Elastic Constant Matrix: (Units=GPa)
#
#
# Indices 1 2 3 4 5 6 
#
# 1 51.2192 24.7622 -2.9181 0.0000 0.0000 0.0000
# 2 24.7622 219.4281 27.6772 0.0000 0.0000 0.0000
# 3 -2.9181 27.6772 17.0866 0.0000 0.0000 0.0000
# 4 0.0000 0.0000 0.0000 18.7142 0.0000 0.0000
# 5 0.0000 0.0000 0.0000 0.0000 0.9778 0.0000
# 6 0.0000 0.0000 0.0000 0.0000 0.0000 38.4692
#
#
#
# Elastic Compliance Matrix: (Units=1/GPa)
#
#
# Indices 1 2 3 4 5 6 
#
# 1 0.021863 -0.003693 0.009715 0.000000 0.000000 0.000000
# 2 -0.003693 0.006351 -0.010918 0.000000 0.000000 0.000000
# 3 0.009715 -0.010918 0.077870 0.000000 0.000000 0.000000
# 4 0.000000 0.000000 0.000000 0.053435 0.000000 0.000000
# 5 0.000000 0.000000 0.000000 0.000000 1.022666 0.000000
# 6 0.000000 0.000000 0.000000 0.000000 0.000000 0.025995
#
#
# Mechanical properties :
#
#
# Convention : Reuss Voigt Hill
#
# Bulk Modulus (GPa) = 10.38505 42.97516 26.68011
# Shear Modulus (GPa) = 3.99978 27.51309 15.75643
#
# Velocity S-wave (km/s) = 1.45085 3.80516 2.87960
# Velocity P-wave (km/s) = 2.87609 6.47473 5.00969
#
# Compressibility (1/GPa) = 0.09629223
#
# Stress axis : x y z
#
# Youngs Moduli (GPa) = 45.74016 157.45127 12.84189
#
# Poissons Ratio (x) = 0.58140 -0.12476
# Poissons Ratio (y) = 0.16890 0.14021
# Poissons Ratio (z) = -0.44437 1.71911
#
# Static dielectric constant tensor:
#      x y z
#    x 3.495180 0.000000 0.000000 
#    y 0.000000 4.966720 0.000000 
#    z 0.000000 0.000000 2.808050 
# 
# 
# High freq. dielectric constant tensor:
#      x y z
#    x 1.762380 0.000000 0.000000 
#    y 0.000000 1.785430 0.000000 
#    z 0.000000 0.000000 1.635320 
# 
# From -- ./inp_files/11373.got.cif
#   From: 2010.03.12/outbox.cif.g09.slc.cpg/sg62_6_cif.got.tgz:11373.got - 2010.04.10 19:12:36.
