data_PCOD8249474
_publ_section_title
;
Structure prediction by ZEFSAII (Michael W. Deem and Ramdas Pophale) SiO2 
 PCOD8249474
Probable space group: P B C A
;
_chemical_formula_sum "Si O2"
_cell_formula_units_Z 64
_cell_length_a 9.598290
_cell_length_b 16.028192
_cell_length_c 17.901073
_cell_angle_alpha 90.000000
_cell_angle_beta 90.000000
_cell_angle_gamma 90.000000
_cell_volume 2753.958980
_symmetry_space_group_name_H-M "P B C A"
_symmetry_group_IT_number 61
_symmetry_cell_setting 'orthorhombic'
loop_
_space_group_symop_operation_xyz
x,y,z
1/2-x,-y,1/2+z
1/2+x,1/2-y,-z
-x,1/2+y,1/2-z
-x,-y,-z
1/2+x,y,1/2-z
1/2-x,1/2+y,z
x,1/2-y,1/2+z
loop_
_atom_site_type_symbol
_atom_site_label
_atom_site_fract_x
_atom_site_fract_y
_atom_site_fract_z
Si Si1 0.539395 0.833660 0.210651
Si Si2 0.637168 0.362254 0.912000
Si Si3 0.958221 0.900571 0.590671
Si Si4 0.690284 0.017301 0.902542
Si Si5 0.154781 0.918491 0.859248
Si Si6 0.150152 0.821201 0.710460
Si Si7 0.584289 0.313457 0.446479
Si Si8 0.206613 0.436538 0.261254
O O1 0.610280 0.773160 0.270482
O O2 0.517959 0.801413 0.125461
O O3 0.640706 0.913496 0.208279
O O4 0.388894 0.857086 0.243708
O O5 0.715603 0.445629 0.943265
O O6 0.477107 0.389108 0.906197
O O7 0.705298 0.329774 0.834584
O O8 0.649386 0.278778 0.963752
O O9 0.792367 0.912402 0.589854
O O10 0.998717 0.840747 0.520810
O O11 0.029544 0.991600 0.581825
O O12 0.020051 0.860349 0.665874
O O13 0.725399 0.008830 0.814404
O O14 0.701854 0.113466 0.930231
O O15 0.179651 0.860369 0.789510
O O16 0.132637 0.011511 0.827340
#
# Coordination Sequence:
#
# PCOD8249474 Si02
#       8
#     8   8   8   8   8   8   8   8
#     4  11  24  40  67  99 135 174 225 296 339 407
#     4  11  23  40  67  98 134 181 222 289 340 406
#     4  11  25  42  69  98 133 185 222 279 343 421
#     4  10  22  43  68  93 141 179 226 280 341 402
#     4  12  22  38  67  96 127 168 230 278 334 402
#     4  11  23  41  67  92 131 171 229 282 337 391
#     4  11  24  44  66 101 140 180 232 277 354 420
#     4  11  22  38  65  98 130 173 228 282 340 405
#
# _framework density 23.239270999999999
#
# number of rings (size 3 to 8) (size 9 to 14) (size 15 to 20)
#    0.000    1.000    3.750    4.875    1.750    2.000 
#    0.000    1.875    0.000    0.000    0.000    0.000 
#    0.000    0.000    0.000    0.000    0.000    0.000 
#
# Total GULP energy -793086.593924 kJ/mol
# GULP energy per Si atom -12391.978030 kJ/mol
# Density = 2.318638 g / cm^3
# Si number density = 23.239271 Si / 1000 Ang^3
#
#
#
# Elastic Constant Matrix: (Units=GPa)
#
#
# Indices 1 2 3 4 5 6 
#
# 1 118.2384 12.6111 4.4490 0.0000 0.0000 0.0000
# 2 12.6111 83.2954 -15.1700 0.0000 0.0000 0.0000
# 3 4.4490 -15.1700 27.7452 0.0000 0.0000 0.0000
# 4 0.0000 0.0000 0.0000 14.8660 0.0000 0.0000
# 5 0.0000 0.0000 0.0000 0.0000 10.4507 0.0000
# 6 0.0000 0.0000 0.0000 0.0000 0.0000 34.4490
#
#
#
# Elastic Compliance Matrix: (Units=1/GPa)
#
#
# Indices 1 2 3 4 5 6 
#
# 1 0.008733 -0.001752 -0.002358 0.000000 0.000000 0.000000
# 2 -0.001752 0.013684 0.007763 0.000000 0.000000 0.000000
# 3 -0.002358 0.007763 0.040665 0.000000 0.000000 0.000000
# 4 0.000000 0.000000 0.000000 0.067267 0.000000 0.000000
# 5 0.000000 0.000000 0.000000 0.000000 0.095687 0.000000
# 6 0.000000 0.000000 0.000000 0.000000 0.000000 0.029028
#
#
# Mechanical properties :
#
#
# Convention : Reuss Voigt Hill
#
# Bulk Modulus (GPa) = 14.20676 25.89547 20.05111
# Shear Modulus (GPa) = 18.43508 27.11242 22.77375
#
# Velocity S-wave (km/s) = 2.81957 3.41935 3.13384
# Velocity P-wave (km/s) = 4.08980 5.17266 4.66277
#
# Compressibility (1/GPa) = 0.07038904
#
# Stress axis : x y z
#
# Youngs Moduli (GPa) = 114.50757 73.07542 24.59118
#
# Poissons Ratio (x) = 0.12800 0.05799
# Poissons Ratio (y) = 0.20058 -0.19090
# Poissons Ratio (z) = 0.27002 -0.56729
#
# Static dielectric constant tensor:
#      x y z
#    x 4.150870 0.000000 0.000000 
#    y 0.000000 4.427800 0.000000 
#    z 0.000000 0.000000 4.044250 
# 
# 
# High freq. dielectric constant tensor:
#      x y z
#    x 1.905460 0.000000 0.000000 
#    y 0.000000 1.935840 0.000000 
#    z 0.000000 0.000000 1.896770 
# 
# From -- ./inp_files/10172.got.cif
#   From: 2010.03.12/outbox.cif.g09.slc.cpg/sg61_6_cif.got.tgz:10172.got - 2010.04.10 19:05:03.
