data_PCOD8249974
_publ_section_title
;
Structure prediction by ZEFSAII (Michael W. Deem and Ramdas Pophale) SiO2 
 PCOD8249974
Probable space group: P N M A
;
_chemical_formula_sum "Si O2"
_cell_formula_units_Z 44
_cell_length_a 13.167898
_cell_length_b 11.967436
_cell_length_c 14.303707
_cell_angle_alpha 90.000000
_cell_angle_beta 90.000000
_cell_angle_gamma 90.000000
_cell_volume 2254.063636
_symmetry_space_group_name_H-M "P N M A"
_symmetry_group_IT_number 62
_symmetry_cell_setting 'orthorhombic'
loop_
_space_group_symop_operation_xyz
x,y,z
1/2-x,-y,1/2+z
1/2+x,1/2-y,1/2-z
-x,1/2+y,-z
-x,-y,-z
1/2+x,y,1/2-z
1/2-x,1/2+y,1/2+z
x,1/2-y,z
loop_
_atom_site_type_symbol
_atom_site_label
_atom_site_fract_x
_atom_site_fract_y
_atom_site_fract_z
Si Si1 0.412091 0.981969 0.756283
Si Si2 0.741244 0.513493 0.594712
Si Si3 0.545448 0.250000 0.306078
Si Si4 0.227954 0.750000 0.676020
Si Si5 0.890469 0.617239 0.244977
Si Si6 0.268188 0.480688 0.116827
Si Si7 0.333101 0.250000 0.383629
O O1 0.347122 0.990492 0.850539
O O2 0.467573 0.861322 0.757160
O O3 0.491928 0.082944 0.751688
O O4 0.342152 0.990920 0.664177
O O5 0.659000 0.444472 0.655255
O O6 0.759696 0.464014 0.493288
O O7 0.702757 0.637198 0.566872
O O8 0.654153 0.250000 0.358015
O O9 0.455058 0.250000 0.380981
O O10 0.175101 0.635692 0.644111
O O11 0.226714 0.750000 0.786762
O O12 0.880766 0.750000 0.232444
O O13 0.836891 0.581362 0.342803
#
# Coordination Sequence:
#
# PCOD8249974 Si02
#       7
#     8   8   4   4   8   8   4
#     4  10  20  41  62  85 121 160 200 244 308 353
#     4  11  23  39  65  91 121 157 204 253 300 353
#     4  10  16  34  64  86 109 147 199 253 285 357
#     4  10  18  40  60  87 114 159 197 247 302 353
#     4  11  24  42  59  88 128 165 198 246 305 363
#     4  10  23  40  63  92 121 155 206 250 298 359
#     4  12  18  38  64  89 111 158 200 250 305 342
#
# _framework density 19.520299999999999
#
# number of rings (size 3 to 8) (size 9 to 14) (size 15 to 20)
#    0.000    1.455    7.273    0.000    2.545    4.364 
#    0.000    0.000    0.000    0.000    0.000    0.000 
#    0.000    0.000    0.000    0.000    0.000    0.000 
#
# Total GULP energy -545270.358057 kJ/mol
# GULP energy per Si atom -12392.508138 kJ/mol
# Density = 1.947587 g / cm^3
# Si number density = 19.520300 Si / 1000 Ang^3
#
#
#
# Elastic Constant Matrix: (Units=GPa)
#
#
# Indices 1 2 3 4 5 6 
#
# 1 64.8603 26.4231 14.5564 0.0000 0.0000 0.0000
# 2 26.4231 137.8690 6.3409 0.0000 0.0000 0.0000
# 3 14.5564 6.3409 94.2921 0.0000 0.0000 0.0000
# 4 0.0000 0.0000 0.0000 -37.7810 0.0000 0.0000
# 5 0.0000 0.0000 0.0000 0.0000 9.5938 0.0000
# 6 0.0000 0.0000 0.0000 0.0000 0.0000 -30.3792
#
#
#
# Elastic Compliance Matrix: (Units=1/GPa)
#
#
# Indices 1 2 3 4 5 6 
#
# 1 0.017270 -0.003197 -0.002451 0.000000 0.000000 0.000000
# 2 -0.003197 0.007868 -0.000036 0.000000 0.000000 0.000000
# 3 -0.002451 -0.000036 0.010986 0.000000 0.000000 0.000000
# 4 0.000000 0.000000 0.000000 -0.026468 0.000000 0.000000
# 5 0.000000 0.000000 0.000000 0.000000 0.104234 0.000000
# 6 0.000000 0.000000 0.000000 0.000000 0.000000 -0.032917
#
#
# Mechanical properties :
#
#
# Convention : Reuss Voigt Hill
#
# Bulk Modulus (GPa) = 40.39347 43.51803 41.95575
# Shear Modulus (GPa) = 49.70572 4.93345 27.31958
#
# Velocity S-wave (km/s) = 5.05162 1.59149 3.74511
# Velocity P-wave (km/s) = 7.40021 5.07141 6.34359
#
# Compressibility (1/GPa) = 0.02475647
#
# Stress axis : x y z
#
# Youngs Moduli (GPa) = 57.90276 127.10275 91.02391
#
# Poissons Ratio (x) = 0.40637 0.22311
# Poissons Ratio (y) = 0.18513 0.00323
# Poissons Ratio (z) = 0.14193 0.00451
#
# Static dielectric constant tensor:
#      x y z
#    x 3.531270 0.000000 0.000000 
#    y 0.000000 5.629830 0.000000 
#    z 0.000000 0.000000 3.213030 
# 
# 
# High freq. dielectric constant tensor:
#      x y z
#    x 1.760310 0.000000 0.000000 
#    y 0.000000 1.774780 0.000000 
#    z 0.000000 0.000000 1.733230 
# 
# From -- ./inp_files/18840.got.cif
#   From: 2010.03.12/outbox.cif.g09.slc.cpg/sg62_10_cif.got.tgz:18840.got - 2010.04.10 19:12:36.
