data_PCOD8249045
_publ_section_title
;
Structure prediction by ZEFSAII (Michael W. Deem and Ramdas Pophale) SiO2 
 PCOD8249045
Probable space group: P B C A
;
_chemical_formula_sum "Si O2"
_cell_formula_units_Z 64
_cell_length_a 17.542248
_cell_length_b 19.200793
_cell_length_c 9.463094
_cell_angle_alpha 90.000000
_cell_angle_beta 90.000000
_cell_angle_gamma 90.000000
_cell_volume 3187.407324
_symmetry_space_group_name_H-M "P B C A"
_symmetry_group_IT_number 61
_symmetry_cell_setting 'orthorhombic'
loop_
_space_group_symop_operation_xyz
x,y,z
1/2-x,-y,1/2+z
1/2+x,1/2-y,-z
-x,1/2+y,1/2-z
-x,-y,-z
1/2+x,y,1/2-z
1/2-x,1/2+y,z
x,1/2-y,1/2+z
loop_
_atom_site_type_symbol
_atom_site_label
_atom_site_fract_x
_atom_site_fract_y
_atom_site_fract_z
Si Si1 0.942009 0.049084 0.078598
Si Si2 0.536562 0.204556 0.164199
Si Si3 0.780919 0.060147 0.956793
Si Si4 0.287756 0.282590 0.003138
Si Si5 0.481759 0.545278 0.362230
Si Si6 0.298666 0.692675 0.223083
Si Si7 0.316613 0.962871 0.780841
Si Si8 0.956820 0.291619 0.554339
O O1 0.961540 0.126455 0.026661
O O2 0.950121 0.039437 0.248105
O O3 0.855552 0.032176 0.038382
O O4 0.000000 0.000000 0.000000
O O5 0.532067 0.126440 0.100419
O O6 0.618093 0.220669 0.234880
O O7 0.471282 0.220709 0.279563
O O8 0.524492 0.256412 0.034190
O O9 0.782001 0.142163 0.922113
O O10 0.772005 0.021672 0.807095
O O11 0.710537 0.041042 0.057327
O O12 0.233522 0.227558 0.081005
O O13 0.261674 0.288932 0.842690
O O14 0.375977 0.258610 0.993956
O O15 0.500000 0.500000 0.500000
O O16 0.405514 0.516566 0.286780
O O17 0.302980 0.609870 0.199553
#
# Coordination Sequence:
#
# PCOD8249045 Si02
#       8
#     8   8   8   8   8   8   8   8
#     4  10  20  39  60  82 118 159 193 244 301 355
#     4  10  21  39  59  88 121 155 198 247 293 354
#     4  10  22  39  58  87 121 154 199 245 295 356
#     4  10  21  39  59  85 119 152 195 246 292 352
#     4  10  22  39  61  89 120 156 201 247 301 355
#     4  10  21  39  61  83 121 156 194 244 296 350
#     4  10  22  40  59  87 122 156 198 245 296 363
#     4  10  21  37  59  86 118 152 198 246 295 351
#
# _framework density 20.079015999999999
#
# number of rings (size 3 to 8) (size 9 to 14) (size 15 to 20)
#    0.000    2.000    1.250    1.500    1.750    3.000 
#    4.500    0.000    0.000    0.000    0.000    0.000 
#    0.000    0.000    0.000    0.000    0.000    0.000 
#
# Total GULP energy -793691.397029 kJ/mol
# GULP energy per Si atom -12401.428079 kJ/mol
# Density = 2.003332 g / cm^3
# Si number density = 20.079016 Si / 1000 Ang^3
#
#
#
# Elastic Constant Matrix: (Units=GPa)
#
#
# Indices 1 2 3 4 5 6 
#
# 1 76.0605 24.5388 14.7483 0.0000 0.0000 0.0000
# 2 24.5388 62.2892 36.9881 0.0000 0.0000 0.0000
# 3 14.7483 36.9881 63.6305 0.0000 0.0000 0.0000
# 4 0.0000 0.0000 0.0000 34.3819 0.0000 0.0000
# 5 0.0000 0.0000 0.0000 0.0000 33.9802 0.0000
# 6 0.0000 0.0000 0.0000 0.0000 0.0000 29.9495
#
#
#
# Elastic Compliance Matrix: (Units=1/GPa)
#
#
# Indices 1 2 3 4 5 6 
#
# 1 0.015062 -0.005896 -0.000064 0.000000 0.000000 0.000000
# 2 -0.005896 0.026825 -0.014227 0.000000 0.000000 0.000000
# 3 -0.000064 -0.014227 0.024000 0.000000 0.000000 0.000000
# 4 0.000000 0.000000 0.000000 0.029085 0.000000 0.000000
# 5 0.000000 0.000000 0.000000 0.000000 0.029429 0.000000
# 6 0.000000 0.000000 0.000000 0.000000 0.000000 0.033390
#
#
# Mechanical properties :
#
#
# Convention : Reuss Voigt Hill
#
# Bulk Modulus (GPa) = 39.19319 39.39230 39.29275
# Shear Modulus (GPa) = 24.19343 28.04264 26.11803
#
# Velocity S-wave (km/s) = 3.47495 3.74118 3.61052
# Velocity P-wave (km/s) = 5.97178 6.19057 6.08216
#
# Compressibility (1/GPa) = 0.02551464
#
# Stress axis : x y z
#
# Youngs Moduli (GPa) = 66.39267 37.27913 41.66599
#
# Poissons Ratio (x) = 0.21979 0.00266
# Poissons Ratio (y) = 0.39143 0.59276
# Poissons Ratio (z) = 0.00425 0.53035
#
# Static dielectric constant tensor:
#      x y z
#    x 3.790100 0.000000 0.000000 
#    y 0.000000 3.585890 0.000000 
#    z 0.000000 0.000000 3.467810 
# 
# 
# High freq. dielectric constant tensor:
#      x y z
#    x 1.792930 0.000000 0.000000 
#    y 0.000000 1.774990 0.000000 
#    z 0.000000 0.000000 1.777160 
# 
# From -- ./inp_files/3697.got.cif
#   From: 2010.03.12/outbox.cif.g09.slc.cpg/sg61_2_cif.got.tgz:3697.got - 2010.04.10 19:05:03.
