data_PCOD8249053
_publ_section_title
;
Structure prediction by ZEFSAII (Michael W. Deem and Ramdas Pophale) SiO2 
 PCOD8249053
Probable space group: P B C A
;
_chemical_formula_sum "Si O2"
_cell_formula_units_Z 64
_cell_length_a 13.465062
_cell_length_b 16.696663
_cell_length_c 12.775012
_cell_angle_alpha 90.000000
_cell_angle_beta 90.000000
_cell_angle_gamma 90.000000
_cell_volume 2872.098670
_symmetry_space_group_name_H-M "P B C A"
_symmetry_group_IT_number 61
_symmetry_cell_setting 'orthorhombic'
loop_
_space_group_symop_operation_xyz
x,y,z
1/2-x,-y,1/2+z
1/2+x,1/2-y,-z
-x,1/2+y,1/2-z
-x,-y,-z
1/2+x,y,1/2-z
1/2-x,1/2+y,z
x,1/2-y,1/2+z
loop_
_atom_site_type_symbol
_atom_site_label
_atom_site_fract_x
_atom_site_fract_y
_atom_site_fract_z
Si Si1 0.599075 0.508239 0.230146
Si Si2 0.265479 0.977130 0.090054
Si Si3 0.324408 0.233621 0.983981
Si Si4 0.952703 0.770984 0.949300
Si Si5 0.245476 0.393293 0.880902
Si Si6 0.335016 0.656740 0.871778
Si Si7 0.396823 0.917403 0.691601
Si Si8 0.277879 0.694185 0.654546
O O1 0.633257 0.505099 0.351795
O O2 0.652218 0.582679 0.174725
O O3 0.631448 0.429201 0.167520
O O4 0.481433 0.519364 0.224331
O O5 0.231671 0.894323 0.145861
O O6 0.177299 0.040563 0.109222
O O7 0.282631 0.961404 0.967259
O O8 0.438769 0.231534 0.954258
O O9 0.264102 0.308669 0.935470
O O10 0.266135 0.154116 0.943425
O O11 0.303679 0.241753 0.109682
O O12 0.946779 0.841893 0.864778
O O13 0.878990 0.700185 0.914648
O O14 0.925606 0.803943 0.064305
O O15 0.157310 0.388959 0.796899
O O16 0.305001 0.714009 0.774021
#
# Coordination Sequence:
#
# PCOD8249053 Si02
#       8
#     8   8   8   8   8   8   8   8
#     4  10  21  38  61  95 118 161 206 247 306 364
#     4   9  21  39  60  88 128 161 197 253 308 360
#     4  10  21  39  63  87 122 163 200 254 310 354
#     4  11  22  38  66  94 116 162 210 248 305 370
#     4  10  20  39  62  86 128 157 198 260 304 350
#     4  10  22  39  60  88 127 157 202 254 298 369
#     4  11  22  37  67  95 119 160 209 253 303 373
#     4   9  21  41  57  88 124 159 202 249 307 363
#
# _framework density 22.283356999999999
#
# number of rings (size 3 to 8) (size 9 to 14) (size 15 to 20)
#    0.000    2.000    1.250    1.500    3.500    2.500 
#   11.250    0.000   19.250    0.000    0.000    0.000 
#    0.000    0.000    0.000    0.000    0.000    0.000 
#
# Total GULP energy -793285.508059 kJ/mol
# GULP energy per Si atom -12395.086063 kJ/mol
# Density = 2.223264 g / cm^3
# Si number density = 22.283357 Si / 1000 Ang^3
#
#
#
# Elastic Constant Matrix: (Units=GPa)
#
#
# Indices 1 2 3 4 5 6 
#
# 1 116.1181 12.3658 10.1066 0.0000 0.0000 0.0000
# 2 12.3658 34.3913 -12.9460 0.0000 0.0000 0.0000
# 3 10.1066 -12.9460 93.1047 0.0000 0.0000 0.0000
# 4 0.0000 0.0000 0.0000 11.0726 0.0000 0.0000
# 5 0.0000 0.0000 0.0000 0.0000 20.2221 0.0000
# 6 0.0000 0.0000 0.0000 0.0000 0.0000 28.7757
#
#
#
# Elastic Compliance Matrix: (Units=1/GPa)
#
#
# Indices 1 2 3 4 5 6 
#
# 1 0.009157 -0.003869 -0.001532 0.000000 0.000000 0.000000
# 2 -0.003869 0.032318 0.004914 0.000000 0.000000 0.000000
# 3 -0.001532 0.004914 0.011590 0.000000 0.000000 0.000000
# 4 0.000000 0.000000 0.000000 0.090313 0.000000 0.000000
# 5 0.000000 0.000000 0.000000 0.000000 0.049451 0.000000
# 6 0.000000 0.000000 0.000000 0.000000 0.000000 0.034752
#
#
# Mechanical properties :
#
#
# Convention : Reuss Voigt Hill
#
# Bulk Modulus (GPa) = 19.19742 29.18521 24.19131
# Shear Modulus (GPa) = 20.33186 27.61992 23.97589
#
# Velocity S-wave (km/s) = 3.02391 3.52445 3.28373
# Velocity P-wave (km/s) = 4.56354 5.44868 5.02563
#
# Compressibility (1/GPa) = 0.05209034
#
# Stress axis : x y z
#
# Youngs Moduli (GPa) = 109.20213 30.94240 86.28014
#
# Poissons Ratio (x) = 0.11973 0.13219
# Poissons Ratio (y) = 0.42254 -0.42396
# Poissons Ratio (z) = 0.16730 -0.15204
#
# Static dielectric constant tensor:
#      x y z
#    x 3.828260 0.000000 0.000000 
#    y 0.000000 3.845720 0.000000 
#    z 0.000000 0.000000 4.363950 
# 
# 
# High freq. dielectric constant tensor:
#      x y z
#    x 1.858250 0.000000 0.000000 
#    y 0.000000 1.871660 0.000000 
#    z 0.000000 0.000000 1.892390 
# 
# From -- ./inp_files/6013.got.cif
#   From: 2010.03.12/outbox.cif.g09.slc.cpg/sg61_4_cif.got.tgz:6013.got - 2010.04.10 19:05:03.
