data_PCOD8249135
_publ_section_title
;
Structure prediction by ZEFSAII (Michael W. Deem and Ramdas Pophale) SiO2 
 PCOD8249135
Probable space group: P B C A
;
_chemical_formula_sum "Si O2"
_cell_formula_units_Z 64
_cell_length_a 18.112823
_cell_length_b 19.372413
_cell_length_c 9.886340
_cell_angle_alpha 90.000000
_cell_angle_beta 90.000000
_cell_angle_gamma 90.000000
_cell_volume 3469.008824
_symmetry_space_group_name_H-M "P B C A"
_symmetry_group_IT_number 61
_symmetry_cell_setting 'orthorhombic'
loop_
_space_group_symop_operation_xyz
x,y,z
1/2-x,-y,1/2+z
1/2+x,1/2-y,-z
-x,1/2+y,1/2-z
-x,-y,-z
1/2+x,y,1/2-z
1/2-x,1/2+y,z
x,1/2-y,1/2+z
loop_
_atom_site_type_symbol
_atom_site_label
_atom_site_fract_x
_atom_site_fract_y
_atom_site_fract_z
Si Si1 0.037948 0.449048 0.396618
Si Si2 0.806401 0.815094 0.682466
Si Si3 0.308031 0.968435 0.787021
Si Si4 0.705454 0.054597 0.522520
Si Si5 0.519922 0.025995 0.147248
Si Si6 0.302905 0.792071 0.526323
Si Si7 0.017922 0.181437 0.302123
Si Si8 0.522627 0.300307 0.002263
O O1 0.125001 0.452358 0.415263
O O2 0.005569 0.372516 0.422701
O O3 0.000000 0.500000 0.500000
O O4 0.021862 0.473070 0.245161
O O5 0.778005 0.893078 0.670511
O O6 0.770830 0.770719 0.561885
O O7 0.894376 0.817422 0.687231
O O8 0.779097 0.778371 0.819771
O O9 0.293656 0.979580 0.626999
O O10 0.393780 0.977303 0.819955
O O11 0.263591 0.021784 0.876489
O O12 0.729351 0.134441 0.518002
O O13 0.489681 0.104313 0.163704
O O14 0.500000 0.000000 0.000000
O O15 0.390278 0.791912 0.508368
O O16 0.986851 0.237798 0.409752
O O17 0.990191 0.200365 0.150472
#
# Coordination Sequence:
#
# PCOD8249135 Si02
#       8
#     8   8   8   8   8   8   8   8
#     4  11  19  38  58  78 109 152 179 221 280 333
#     4   8  15  29  49  71 104 132 172 218 262 306
#     4  10  21  37  53  83 112 141 177 228 270 324
#     4  10  21  35  56  81 111 141 181 220 276 325
#     4  11  23  36  56  84 115 142 189 234 272 323
#     4   8  15  29  47  74 100 134 173 219 256 313
#     4   9  17  31  48  77 107 139 177 229 269 320
#     4   9  17  29  51  75 106 139 182 221 273 322
#
# _framework density 18.449072999999999
#
# number of rings (size 3 to 8) (size 9 to 14) (size 15 to 20)
#    0.000    2.500    2.500    1.500    3.500    1.000 
#    4.500    0.000    0.000    3.000    0.000    0.000 
#    0.000    0.000    0.000    0.000    0.000    0.000 
#
# Total GULP energy -793263.370112 kJ/mol
# GULP energy per Si atom -12394.740158 kJ/mol
# Density = 1.840708 g / cm^3
# Si number density = 18.449073 Si / 1000 Ang^3
#
#
#
# Elastic Constant Matrix: (Units=GPa)
#
#
# Indices 1 2 3 4 5 6 
#
# 1 24.9116 7.6456 12.6891 0.0000 0.0000 0.0000
# 2 7.6456 97.5255 61.7073 0.0000 0.0000 0.0000
# 3 12.6891 61.7073 145.2557 0.0000 0.0000 0.0000
# 4 0.0000 0.0000 0.0000 42.3480 0.0000 0.0000
# 5 0.0000 0.0000 0.0000 0.0000 25.2424 0.0000
# 6 0.0000 0.0000 0.0000 0.0000 0.0000 21.7458
#
#
#
# Elastic Compliance Matrix: (Units=1/GPa)
#
#
# Indices 1 2 3 4 5 6 
#
# 1 0.042138 -0.001332 -0.003115 0.000000 0.000000 0.000000
# 2 -0.001332 0.014065 -0.005859 0.000000 0.000000 0.000000
# 3 -0.003115 -0.005859 0.009645 0.000000 0.000000 0.000000
# 4 0.000000 0.000000 0.000000 0.023614 0.000000 0.000000
# 5 0.000000 0.000000 0.000000 0.000000 0.039616 0.000000
# 6 0.000000 0.000000 0.000000 0.000000 0.000000 0.045986
#
#
# Mechanical properties :
#
#
# Convention : Reuss Voigt Hill
#
# Bulk Modulus (GPa) = 22.10639 47.97519 35.04079
# Shear Modulus (GPa) = 23.72425 30.24396 26.98411
#
# Velocity S-wave (km/s) = 3.58988 4.05325 3.82858
# Velocity P-wave (km/s) = 5.40290 6.92572 6.21116
#
# Compressibility (1/GPa) = 0.04523580
#
# Stress axis : x y z
#
# Youngs Moduli (GPa) = 23.73182 71.09745 103.67596
#
# Poissons Ratio (x) = 0.09474 0.32294
# Poissons Ratio (y) = 0.03162 0.60741
# Poissons Ratio (z) = 0.07392 0.41654
#
# Static dielectric constant tensor:
#      x y z
#    x 2.917140 0.000000 0.000000 
#    y 0.000000 4.760790 0.000000 
#    z 0.000000 0.000000 3.763580 
# 
# 
# High freq. dielectric constant tensor:
#      x y z
#    x 1.660090 0.000000 0.000000 
#    y 0.000000 1.725780 0.000000 
#    z 0.000000 0.000000 1.731390 
# 
# From -- ./inp_files/4090.got.cif
#   From: 2010.03.12/outbox.cif.g09.slc.cpg/sg61_3_cif.got.tgz:4090.got - 2010.04.10 19:05:03.
