data_PCOD8249652
_publ_section_title
;
Structure prediction by ZEFSAII (Michael W. Deem and Ramdas Pophale) SiO2 
 PCOD8249652
Probable space group: P B C A
;
_chemical_formula_sum "Si O2"
_cell_formula_units_Z 56
_cell_length_a 8.147984
_cell_length_b 22.445559
_cell_length_c 14.319179
_cell_angle_alpha 90.000000
_cell_angle_beta 90.000000
_cell_angle_gamma 90.000000
_cell_volume 2618.778167
_symmetry_space_group_name_H-M "P B C A"
_symmetry_group_IT_number 61
_symmetry_cell_setting 'orthorhombic'
loop_
_space_group_symop_operation_xyz
x,y,z
1/2-x,-y,1/2+z
1/2+x,1/2-y,-z
-x,1/2+y,1/2-z
-x,-y,-z
1/2+x,y,1/2-z
1/2-x,1/2+y,z
x,1/2-y,1/2+z
loop_
_atom_site_type_symbol
_atom_site_label
_atom_site_fract_x
_atom_site_fract_y
_atom_site_fract_z
Si Si1 0.646148 0.075317 0.039959
Si Si2 0.013575 0.596781 0.558369
Si Si3 0.857767 0.772369 0.308917
Si Si4 0.104660 0.864545 0.249473
Si Si5 0.829585 0.055496 0.581459
Si Si6 0.517514 0.725773 0.021476
Si Si7 0.850099 0.798231 0.620025
O O1 0.655042 0.129993 0.113344
O O2 0.632981 0.014363 0.098973
O O3 0.813741 0.070995 0.979176
O O4 0.483804 0.082786 0.975855
O O5 0.013247 0.596443 0.671392
O O6 0.847950 0.560600 0.528796
O O7 0.983947 0.661942 0.520054
O O8 0.707906 0.817345 0.310500
O O9 0.868514 0.737169 0.405766
O O10 0.862049 0.723358 0.226491
O O11 0.001071 0.820401 0.311677
O O12 0.191676 0.910178 0.320201
O O13 0.689235 0.731428 0.074882
O O14 0.506800 0.773845 0.937440
#
# Coordination Sequence:
#
# PCOD8249652 Si02
#       7
#     8   8   8   8   8   8   8
#     4  10  25  43  65  94 131 175 221 274 329 404
#     4  11  23  42  70  97 131 174 221 276 339 394
#     4  12  23  37  63  97 133 164 215 275 333 403
#     4  12  21  39  65  98 123 167 227 268 320 400
#     4  11  23  44  67  92 130 174 226 278 324 384
#     4  11  23  39  63  95 133 169 207 276 342 398
#     4  11  23  40  61  95 131 168 213 266 341 401
#
# _framework density 21.384017
#
# number of rings (size 3 to 8) (size 9 to 14) (size 15 to 20)
#    0.000    0.857    4.286    3.857    2.000    0.000 
#    0.000    4.286    0.000    0.000    0.000    0.000 
#    0.000    0.000    0.000    0.000    0.000    0.000 
#
# Total GULP energy -693889.045942 kJ/mol
# GULP energy per Si atom -12390.875820 kJ/mol
# Density = 2.133535 g / cm^3
# Si number density = 21.384017 Si / 1000 Ang^3
#
#
#
# Elastic Constant Matrix: (Units=GPa)
#
#
# Indices 1 2 3 4 5 6 
#
# 1 116.0249 20.4706 5.3127 0.0000 0.0000 0.0000
# 2 20.4706 104.4446 26.0676 0.0000 0.0000 0.0000
# 3 5.3127 26.0676 74.5847 0.0000 0.0000 0.0000
# 4 0.0000 0.0000 0.0000 28.1192 0.0000 0.0000
# 5 0.0000 0.0000 0.0000 0.0000 23.4154 0.0000
# 6 0.0000 0.0000 0.0000 0.0000 0.0000 29.0276
#
#
#
# Elastic Compliance Matrix: (Units=1/GPa)
#
#
# Indices 1 2 3 4 5 6 
#
# 1 0.008928 -0.001743 -0.000027 0.000000 0.000000 0.000000
# 2 -0.001743 0.010830 -0.003661 0.000000 0.000000 0.000000
# 3 -0.000027 -0.003661 0.014689 0.000000 0.000000 0.000000
# 4 0.000000 0.000000 0.000000 0.035563 0.000000 0.000000
# 5 0.000000 0.000000 0.000000 0.000000 0.042707 0.000000
# 6 0.000000 0.000000 0.000000 0.000000 0.000000 0.034450
#
#
# Mechanical properties :
#
#
# Convention : Reuss Voigt Hill
#
# Bulk Modulus (GPa) = 42.39986 44.30624 43.35305
# Shear Modulus (GPa) = 30.14061 32.32600 31.23330
#
# Velocity S-wave (km/s) = 3.75839 3.89226 3.82591
# Velocity P-wave (km/s) = 6.22133 6.40031 6.31145
#
# Compressibility (1/GPa) = 0.02358498
#
# Stress axis : x y z
#
# Youngs Moduli (GPa) = 112.01217 92.33792 68.07830
#
# Poissons Ratio (x) = 0.16095 0.00182
# Poissons Ratio (y) = 0.19525 0.24923
# Poissons Ratio (z) = 0.00299 0.33804
#
# Static dielectric constant tensor:
#      x y z
#    x 4.113550 0.000000 0.000000 
#    y 0.000000 3.846020 0.000000 
#    z 0.000000 0.000000 3.627540 
# 
# 
# High freq. dielectric constant tensor:
#      x y z
#    x 1.859900 0.000000 0.000000 
#    y 0.000000 1.835300 0.000000 
#    z 0.000000 0.000000 1.822250 
# 
# From -- ./inp_files/3997.got.cif
#   From: 2010.03.12/outbox.cif.g09.slc.cpg/sg61_2_cif.got.tgz:3997.got - 2010.04.10 19:05:03.
