data_PCOD8249247
_publ_section_title
;
Structure prediction by ZEFSAII (Michael W. Deem and Ramdas Pophale) SiO2 
 PCOD8249247
Probable space group: P B C A
;
_chemical_formula_sum "Si O2"
_cell_formula_units_Z 40
_cell_length_a 23.670676
_cell_length_b 5.720424
_cell_length_c 13.171974
_cell_angle_alpha 90.000000
_cell_angle_beta 90.000000
_cell_angle_gamma 90.000000
_cell_volume 1783.568304
_symmetry_space_group_name_H-M "P B C A"
_symmetry_group_IT_number 61
_symmetry_cell_setting 'orthorhombic'
loop_
_space_group_symop_operation_xyz
x,y,z
1/2-x,-y,1/2+z
1/2+x,1/2-y,-z
-x,1/2+y,1/2-z
-x,-y,-z
1/2+x,y,1/2-z
1/2-x,1/2+y,z
x,1/2-y,1/2+z
loop_
_atom_site_type_symbol
_atom_site_label
_atom_site_fract_x
_atom_site_fract_y
_atom_site_fract_z
Si Si1 0.281726 0.479918 0.139024
Si Si2 0.373872 0.668623 0.274050
Si Si3 0.438151 0.353736 0.412039
Si Si4 0.437595 0.687202 0.589336
Si Si5 0.856226 0.972904 0.047024
O O1 0.249376 0.233503 0.157184
O O2 0.333457 0.481898 0.218121
O O3 0.301859 0.475200 0.021938
O O4 0.428139 0.552024 0.327623
O O5 0.401030 0.847158 0.191791
O O6 0.337906 0.801382 0.361319
O O7 0.439408 0.443659 0.528677
O O8 0.498027 0.230461 0.387353
O O9 0.382186 0.199174 0.399925
O O10 0.407753 0.880294 0.520839
#
# Coordination Sequence:
#
# PCOD8249247 Si02
#       5
#     8   8   8   8   8
#     4  11  28  48  71  95 134 180 230 295 353 395
#     4  10  24  40  65 102 129 172 231 282 336 420
#     4  10  21  39  66  93 140 178 217 276 338 417
#     4   9  21  40  60  99 137 179 215 269 346 409
#     4  10  23  41  68  94 132 173 230 283 338 416
#
# _framework density 22.426953999999999
#
# number of rings (size 3 to 8) (size 9 to 14) (size 15 to 20)
#    0.000    2.000    0.000    0.600   14.000    3.200 
#    3.600    0.000    0.000    0.000    0.000    0.000 
#    0.000    0.000    0.000    0.000    0.000    0.000 
#
# Total GULP energy -495648.115672 kJ/mol
# GULP energy per Si atom -12391.202892 kJ/mol
# Density = 2.237591 g / cm^3
# Si number density = 22.426954 Si / 1000 Ang^3
#
#
#
# Elastic Constant Matrix: (Units=GPa)
#
#
# Indices 1 2 3 4 5 6 
#
# 1 74.2904 16.2310 26.8984 0.0000 0.0000 0.0000
# 2 16.2310 69.8562 9.0735 0.0000 0.0000 0.0000
# 3 26.8984 9.0735 115.7326 0.0000 0.0000 0.0000
# 4 0.0000 0.0000 0.0000 15.9406 0.0000 0.0000
# 5 0.0000 0.0000 0.0000 0.0000 27.7075 0.0000
# 6 0.0000 0.0000 0.0000 0.0000 0.0000 37.8764
#
#
#
# Elastic Compliance Matrix: (Units=1/GPa)
#
#
# Indices 1 2 3 4 5 6 
#
# 1 0.015348 -0.003135 -0.003321 0.000000 0.000000 0.000000
# 2 -0.003135 0.015103 -0.000455 0.000000 0.000000 0.000000
# 3 -0.003321 -0.000455 0.009448 0.000000 0.000000 0.000000
# 4 0.000000 0.000000 0.000000 0.062733 0.000000 0.000000
# 5 0.000000 0.000000 0.000000 0.000000 0.036091 0.000000
# 6 0.000000 0.000000 0.000000 0.000000 0.000000 0.026402
#
#
# Mechanical properties :
#
#
# Convention : Reuss Voigt Hill
#
# Bulk Modulus (GPa) = 38.34973 40.47610 39.41292
# Shear Modulus (GPa) = 26.64675 30.14999 28.39837
#
# Velocity S-wave (km/s) = 3.45071 3.67053 3.56232
# Velocity P-wave (km/s) = 5.74573 6.00424 5.87641
#
# Compressibility (1/GPa) = 0.02607580
#
# Stress axis : x y z
#
# Youngs Moduli (GPa) = 65.15435 66.21367 105.83933
#
# Poissons Ratio (x) = 0.20756 0.35154
# Poissons Ratio (y) = 0.20424 0.04821
# Poissons Ratio (z) = 0.21641 0.03016
#
# Static dielectric constant tensor:
#      x y z
#    x 3.953020 0.000000 0.000000 
#    y 0.000000 3.763670 0.000000 
#    z 0.000000 0.000000 4.232350 
# 
# 
# High freq. dielectric constant tensor:
#      x y z
#    x 1.875310 0.000000 0.000000 
#    y 0.000000 1.863890 0.000000 
#    z 0.000000 0.000000 1.897950 
# 
# From -- ./inp_files/231.got.cif
#   From: 2010.03.12/outbox.cif.g09.slc.cpg/sg61_1_cif.got.tgz:231.got - 2010.04.10 19:05:03.
