data_PCOD8249396
_publ_section_title
;
Structure prediction by ZEFSAII (Michael W. Deem and Ramdas Pophale) SiO2 
 PCOD8249396
Probable space group: P B C A
;
_chemical_formula_sum "Si O2"
_cell_formula_units_Z 32
_cell_length_a 8.623281
_cell_length_b 13.524507
_cell_length_c 8.964276
_cell_angle_alpha 90.000000
_cell_angle_beta 90.000000
_cell_angle_gamma 90.000000
_cell_volume 1045.464284
_symmetry_space_group_name_H-M "P B C A"
_symmetry_group_IT_number 61
_symmetry_cell_setting 'orthorhombic'
loop_
_space_group_symop_operation_xyz
x,y,z
1/2-x,-y,1/2+z
1/2+x,1/2-y,-z
-x,1/2+y,1/2-z
-x,-y,-z
1/2+x,y,1/2-z
1/2-x,1/2+y,z
x,1/2-y,1/2+z
loop_
_atom_site_type_symbol
_atom_site_label
_atom_site_fract_x
_atom_site_fract_y
_atom_site_fract_z
Si Si1 0.650574 0.137070 0.368591
Si Si2 0.214638 0.123323 0.566639
Si Si3 0.980348 0.757925 0.121455
Si Si4 0.372724 0.021748 0.305482
O O1 0.622004 0.151436 0.546528
O O2 0.573121 0.237653 0.292925
O O3 0.556418 0.037736 0.319714
O O4 0.821568 0.114544 0.304741
O O5 0.336718 0.214429 0.598885
O O6 0.291331 0.034690 0.467647
O O7 0.068908 0.159929 0.469814
O O8 0.156089 0.082270 0.725051
#
# Coordination Sequence:
#
# PCOD8249396 Si02
#       4
#     8   8   8   8
#     4  10  22  40  60  92 124 160 206 248 304 362
#     4  10  23  42  64  90 123 162 204 250 303 362
#     4  10  22  40  64  90 124 164 204 248 304 366
#     4  10  23  40  60  90 123 156 206 254 303 360
#
# _framework density 30.608412999999999
#
# number of rings (size 3 to 8) (size 9 to 14) (size 15 to 20)
#    0.000    2.000    0.000    1.500    0.000   14.000 
#    0.000    2.500    0.000    0.000    0.000    0.000 
#    0.000    0.000    0.000    0.000    0.000    0.000 
#
# Total GULP energy -396814.909410 kJ/mol
# GULP energy per Si atom -12400.465919 kJ/mol
# Density = 3.053875 g / cm^3
# Si number density = 30.608413 Si / 1000 Ang^3
#
#
#
# Elastic Constant Matrix: (Units=GPa)
#
#
# Indices 1 2 3 4 5 6 
#
# 1 94.3250 33.8127 33.6385 0.0000 0.0000 0.0000
# 2 33.8127 96.9884 12.9956 0.0000 0.0000 0.0000
# 3 33.6385 12.9956 157.9500 0.0000 0.0000 0.0000
# 4 0.0000 0.0000 0.0000 17.8276 0.0000 0.0000
# 5 0.0000 0.0000 0.0000 0.0000 37.1068 0.0000
# 6 0.0000 0.0000 0.0000 0.0000 0.0000 33.1873
#
#
#
# Elastic Compliance Matrix: (Units=1/GPa)
#
#
# Indices 1 2 3 4 5 6 
#
# 1 0.012968 -0.004197 -0.002416 0.000000 0.000000 0.000000
# 2 -0.004197 0.011784 -0.000076 0.000000 0.000000 0.000000
# 3 -0.002416 -0.000076 0.006852 0.000000 0.000000 0.000000
# 4 0.000000 0.000000 0.000000 0.056093 0.000000 0.000000
# 5 0.000000 0.000000 0.000000 0.000000 0.026949 0.000000
# 6 0.000000 0.000000 0.000000 0.000000 0.000000 0.030132
#
#
# Mechanical properties :
#
#
# Convention : Reuss Voigt Hill
#
# Bulk Modulus (GPa) = 54.86897 56.68409 55.77653
# Shear Modulus (GPa) = 30.44479 35.54543 32.99511
#
# Velocity S-wave (km/s) = 3.15724 3.41148 3.28682
# Velocity P-wave (km/s) = 5.59070 5.83754 5.71545
#
# Compressibility (1/GPa) = 0.01822524
#
# Stress axis : x y z
#
# Youngs Moduli (GPa) = 77.11303 84.86152 145.94333
#
# Poissons Ratio (x) = 0.35618 0.35267
# Poissons Ratio (y) = 0.32366 0.01104
# Poissons Ratio (z) = 0.18634 0.00642
#
# Static dielectric constant tensor:
#      x y z
#    x 5.266880 0.000000 0.000000 
#    y 0.000000 5.590770 0.000000 
#    z 0.000000 0.000000 5.888540 
# 
# 
# High freq. dielectric constant tensor:
#      x y z
#    x 2.241970 0.000000 0.000000 
#    y 0.000000 2.289060 0.000000 
#    z 0.000000 0.000000 2.285370 
# 
# From -- ./inp_files/1972.got.cif
#   From: 2010.03.12/outbox.cif.g09.slc.cpg/sg61_1_cif.got.tgz:1972.got - 2010.04.10 19:05:03.
