data_PCOD8249320
_publ_section_title
;
Structure prediction by ZEFSAII (Michael W. Deem and Ramdas Pophale) SiO2 
 PCOD8249320
Probable space group: P B C A
;
_chemical_formula_sum "Si O2"
_cell_formula_units_Z 56
_cell_length_a 22.181236
_cell_length_b 12.849543
_cell_length_c 9.392246
_cell_angle_alpha 90.000000
_cell_angle_beta 90.000000
_cell_angle_gamma 90.000000
_cell_volume 2676.966175
_symmetry_space_group_name_H-M "P B C A"
_symmetry_group_IT_number 61
_symmetry_cell_setting 'orthorhombic'
loop_
_space_group_symop_operation_xyz
x,y,z
1/2-x,-y,1/2+z
1/2+x,1/2-y,-z
-x,1/2+y,1/2-z
-x,-y,-z
1/2+x,y,1/2-z
1/2-x,1/2+y,z
x,1/2-y,1/2+z
loop_
_atom_site_type_symbol
_atom_site_label
_atom_site_fract_x
_atom_site_fract_y
_atom_site_fract_z
Si Si1 0.168248 0.670739 0.151956
Si Si2 0.657641 0.627572 0.669892
Si Si3 0.889447 0.894463 0.975577
Si Si4 0.093021 0.482235 0.223158
Si Si5 0.707530 0.084580 0.247605
Si Si6 0.045619 0.010578 0.277655
Si Si7 0.887646 0.658549 0.032856
O O1 0.159788 0.787052 0.206829
O O2 0.110185 0.601119 0.189760
O O3 0.224518 0.619941 0.233562
O O4 0.175224 0.676899 0.981792
O O5 0.705705 0.536890 0.704666
O O6 0.590353 0.580509 0.669935
O O7 0.907689 0.775232 0.000242
O O8 0.940639 0.952357 0.882977
O O9 0.825368 0.899246 0.897988
O O10 0.882610 0.954320 0.122498
O O11 0.021417 0.468025 0.211879
O O12 0.124902 0.404357 0.112260
O O13 0.673519 0.153178 0.126930
O O14 0.056272 0.108283 0.382217
#
# Coordination Sequence:
#
# PCOD8249320 Si02
#       7
#     8   8   8   8   8   8   8
#     4  12  27  42  72  99 134 183 223 273 344 400
#     4  10  26  47  65 102 135 178 222 277 342 394
#     4  10  23  40  68  98 126 175 227 275 337 398
#     4  12  23  41  70  97 132 183 222 274 344 397
#     4  10  25  45  64  96 144 166 224 287 324 407
#     4  10  23  47  61  98 144 165 226 290 326 410
#     4  10  21  42  66  93 128 176 224 274 336 396
#
# _framework density 20.919203
#
# number of rings (size 3 to 8) (size 9 to 14) (size 15 to 20)
#    0.000    1.714    2.857    2.571    8.000    3.429 
#    0.000    0.000    0.000    0.000    0.000    0.000 
#    0.000    0.000    0.000    0.000    0.000    0.000 
#
# Total GULP energy -694581.536140 kJ/mol
# GULP energy per Si atom -12403.241717 kJ/mol
# Density = 2.087159 g / cm^3
# Si number density = 20.919203 Si / 1000 Ang^3
#
#
#
# Elastic Constant Matrix: (Units=GPa)
#
#
# Indices 1 2 3 4 5 6 
#
# 1 98.4833 15.6502 18.3348 0.0000 0.0000 0.0000
# 2 15.6502 99.1346 31.4590 0.0000 0.0000 0.0000
# 3 18.3348 31.4590 147.1653 0.0000 0.0000 0.0000
# 4 0.0000 0.0000 0.0000 42.2797 0.0000 0.0000
# 5 0.0000 0.0000 0.0000 0.0000 20.6414 0.0000
# 6 0.0000 0.0000 0.0000 0.0000 0.0000 12.4136
#
#
#
# Elastic Compliance Matrix: (Units=1/GPa)
#
#
# Indices 1 2 3 4 5 6 
#
# 1 0.010559 -0.001340 -0.001029 0.000000 0.000000 0.000000
# 2 -0.001340 0.010992 -0.002183 0.000000 0.000000 0.000000
# 3 -0.001029 -0.002183 0.007390 0.000000 0.000000 0.000000
# 4 0.000000 0.000000 0.000000 0.023652 0.000000 0.000000
# 5 0.000000 0.000000 0.000000 0.000000 0.048446 0.000000
# 6 0.000000 0.000000 0.000000 0.000000 0.000000 0.080557
#
#
# Mechanical properties :
#
#
# Convention : Reuss Voigt Hill
#
# Bulk Modulus (GPa) = 50.41310 52.85235 51.63272
# Shear Modulus (GPa) = 25.34075 33.68956 29.51515
#
# Velocity S-wave (km/s) = 3.48424 4.01741 3.76029
# Velocity P-wave (km/s) = 6.35121 6.84392 6.60216
#
# Compressibility (1/GPa) = 0.01983611
#
# Stress axis : x y z
#
# Youngs Moduli (GPa) = 94.70989 90.97924 135.32088
#
# Poissons Ratio (x) = 0.12194 0.13924
# Poissons Ratio (y) = 0.12694 0.29535
# Poissons Ratio (z) = 0.09745 0.19857
#
# Static dielectric constant tensor:
#      x y z
#    x 3.594310 0.000000 0.000000 
#    y 0.000000 3.760560 0.000000 
#    z 0.000000 0.000000 4.018510 
# 
# 
# High freq. dielectric constant tensor:
#      x y z
#    x 1.801780 0.000000 0.000000 
#    y 0.000000 1.819210 0.000000 
#    z 0.000000 0.000000 1.841180 
# 
# From -- ./inp_files/3953.got.cif
#   From: 2010.03.12/outbox.cif.g09.slc.cpg/sg61_2_cif.got.tgz:3953.got - 2010.04.10 19:05:03.
