data_PCOD8249326
_publ_section_title
;
Structure prediction by ZEFSAII (Michael W. Deem and Ramdas Pophale) SiO2 
 PCOD8249326
Probable space group: P B C A
;
_chemical_formula_sum "Si O2"
_cell_formula_units_Z 64
_cell_length_a 13.988805
_cell_length_b 25.284506
_cell_length_c 7.978017
_cell_angle_alpha 90.000000
_cell_angle_beta 90.000000
_cell_angle_gamma 90.000000
_cell_volume 2821.824804
_symmetry_space_group_name_H-M "P B C A"
_symmetry_group_IT_number 61
_symmetry_cell_setting 'orthorhombic'
loop_
_space_group_symop_operation_xyz
x,y,z
1/2-x,-y,1/2+z
1/2+x,1/2-y,-z
-x,1/2+y,1/2-z
-x,-y,-z
1/2+x,y,1/2-z
1/2-x,1/2+y,z
x,1/2-y,1/2+z
loop_
_atom_site_type_symbol
_atom_site_label
_atom_site_fract_x
_atom_site_fract_y
_atom_site_fract_z
Si Si1 0.628615 0.401339 0.409798
Si Si2 0.895561 0.778972 0.023377
Si Si3 0.261328 0.153990 0.844597
Si Si4 0.460567 0.143279 0.695649
Si Si5 0.927245 0.673367 0.175830
Si Si6 0.661806 0.994144 0.753656
Si Si7 0.970113 0.403633 0.643293
Si Si8 0.314750 0.933864 0.565356
O O1 0.716600 0.375217 0.314411
O O2 0.527206 0.389730 0.320289
O O3 0.630103 0.377279 0.597882
O O4 0.640578 0.465196 0.406972
O O5 0.795220 0.791236 0.118386
O O6 0.927672 0.717292 0.027706
O O7 0.981876 0.809001 0.113453
O O8 0.878358 0.796896 0.832303
O O9 0.371554 0.165796 0.801895
O O10 0.250827 0.114883 0.003525
O O11 0.424103 0.106003 0.540558
O O12 0.030415 0.649483 0.237718
O O13 0.575657 0.952357 0.739907
O O14 0.760319 0.962927 0.783825
O O15 0.668420 0.024684 0.581458
O O16 0.083854 0.411469 0.620220
#
# Coordination Sequence:
#
# PCOD8249326 Si02
#       8
#     8   8   8   8   8   8   8   8
#     4  10  23  42  62  97 133 181 224 280 332 400
#     4  10  21  45  66  98 130 175 215 287 348 395
#     4  10  21  42  67  98 131 178 224 279 335 407
#     4  10  21  42  69  95 137 176 229 277 341 405
#     4  11  23  44  72  93 137 171 226 280 349 410
#     4  11  26  40  68 100 137 192 227 279 344 399
#     4  11  24  45  67 101 144 183 222 288 341 401
#     4  11  24  44  64 101 140 180 234 279 335 404
#
# _framework density 22.680361000000001
#
# number of rings (size 3 to 8) (size 9 to 14) (size 15 to 20)
#    0.000    1.500    5.000    1.875    7.000    0.500 
#    0.000    8.750    0.000    0.000    0.000    0.000 
#    0.000    0.000    0.000    0.000    0.000    0.000 
#
# Total GULP energy -793134.786259 kJ/mol
# GULP energy per Si atom -12392.731035 kJ/mol
# Density = 2.262874 g / cm^3
# Si number density = 22.680361 Si / 1000 Ang^3
#
#
#
# Elastic Constant Matrix: (Units=GPa)
#
#
# Indices 1 2 3 4 5 6 
#
# 1 75.8559 14.0197 13.0414 0.0000 0.0000 0.0000
# 2 14.0197 104.2275 29.8146 0.0000 0.0000 0.0000
# 3 13.0414 29.8146 70.4639 0.0000 0.0000 0.0000
# 4 0.0000 0.0000 0.0000 43.5159 0.0000 0.0000
# 5 0.0000 0.0000 0.0000 0.0000 20.0525 0.0000
# 6 0.0000 0.0000 0.0000 0.0000 0.0000 17.7588
#
#
#
# Elastic Compliance Matrix: (Units=1/GPa)
#
#
# Indices 1 2 3 4 5 6 
#
# 1 0.013764 -0.001277 -0.002007 0.000000 0.000000 0.000000
# 2 -0.001277 0.011034 -0.004432 0.000000 0.000000 0.000000
# 3 -0.002007 -0.004432 0.016439 0.000000 0.000000 0.000000
# 4 0.000000 0.000000 0.000000 0.022980 0.000000 0.000000
# 5 0.000000 0.000000 0.000000 0.000000 0.049869 0.000000
# 6 0.000000 0.000000 0.000000 0.000000 0.000000 0.056310
#
#
# Mechanical properties :
#
#
# Convention : Reuss Voigt Hill
#
# Bulk Modulus (GPa) = 38.75462 40.47765 39.61614
# Shear Modulus (GPa) = 25.71614 29.17687 27.44651
#
# Velocity S-wave (km/s) = 3.37092 3.59059 3.48249
# Velocity P-wave (km/s) = 5.68113 5.92246 5.80305
#
# Compressibility (1/GPa) = 0.02580338
#
# Stress axis : x y z
#
# Youngs Moduli (GPa) = 72.65321 90.62820 60.83272
#
# Poissons Ratio (x) = 0.11576 0.12209
# Poissons Ratio (y) = 0.09280 0.26963
# Poissons Ratio (z) = 0.14581 0.40169
#
# Static dielectric constant tensor:
#      x y z
#    x 3.747630 0.000000 0.000000 
#    y 0.000000 4.386690 0.000000 
#    z 0.000000 0.000000 4.334950 
# 
# 
# High freq. dielectric constant tensor:
#      x y z
#    x 1.864210 0.000000 0.000000 
#    y 0.000000 1.898900 0.000000 
#    z 0.000000 0.000000 1.907210 
# 
# From -- ./inp_files/3197.got.cif
#   From: 2010.03.12/outbox.cif.g09.slc.cpg/sg61_2_cif.got.tgz:3197.got - 2010.04.10 19:05:03.
