data_PCOD8249973
_publ_section_title
;
Structure prediction by ZEFSAII (Michael W. Deem and Ramdas Pophale) SiO2 
 PCOD8249973
Probable space group: P N M A
;
_chemical_formula_sum "Si O2"
_cell_formula_units_Z 28
_cell_length_a 11.395477
_cell_length_b 14.057954
_cell_length_c 7.452643
_cell_angle_alpha 90.000000
_cell_angle_beta 90.000000
_cell_angle_gamma 90.000000
_cell_volume 1193.891732
_symmetry_space_group_name_H-M "P N M A"
_symmetry_group_IT_number 62
_symmetry_cell_setting 'orthorhombic'
loop_
_space_group_symop_operation_xyz
x,y,z
1/2-x,-y,1/2+z
1/2+x,1/2-y,1/2-z
-x,1/2+y,-z
-x,-y,-z
1/2+x,y,1/2-z
1/2-x,1/2+y,1/2+z
x,1/2-y,z
loop_
_atom_site_type_symbol
_atom_site_label
_atom_site_fract_x
_atom_site_fract_y
_atom_site_fract_z
Si Si1 0.181299 0.592268 0.133979
Si Si2 0.988898 0.250000 0.463685
Si Si3 0.491667 0.250000 0.604090
Si Si4 0.247422 0.250000 0.908582
Si Si5 0.097597 0.443027 0.393475
O O1 0.079796 0.656485 0.042064
O O2 0.239255 0.654393 0.291867
O O3 0.121378 0.495954 0.206524
O O4 0.278676 0.561349 0.994027
O O5 0.012232 0.250000 0.678750
O O6 0.847123 0.250000 0.436022
O O7 0.047031 0.338302 0.362401
O O8 0.617702 0.250000 0.506184
O O9 0.000000 0.500000 0.500000
#
# Coordination Sequence:
#
# PCOD8249973 Si02
#       5
#     8   4   4   4   8
#     4  10  21  33  64  87 119 151 197 245 296 345
#     4  10  19  32  63  80 114 157 197 240 289 350
#     4  10  17  36  60  89 108 152 215 243 265 354
#     4  10  16  34  59  87 104 157 206 231 276 350
#     4  12  20  40  60  90 120 155 197 245 298 349
#
# _framework density 23.452714
#
# number of rings (size 3 to 8) (size 9 to 14) (size 15 to 20)
#    0.000    1.714    8.571    0.857    0.000    0.000 
#    0.000   10.000    0.000    0.000    0.000    0.000 
#    0.000    0.000    0.000    0.000    0.000    0.000 
#
# Total GULP energy -347148.615353 kJ/mol
# GULP energy per Si atom -12398.164834 kJ/mol
# Density = 2.339933 g / cm^3
# Si number density = 23.452714 Si / 1000 Ang^3
#
#
#
# Elastic Constant Matrix: (Units=GPa)
#
#
# Indices 1 2 3 4 5 6 
#
# 1 212.6298 68.4980 28.4132 0.0000 0.0000 0.0000
# 2 68.4980 169.4968 22.7414 0.0000 0.0000 0.0000
# 3 28.4132 22.7414 24.5779 0.0000 0.0000 0.0000
# 4 0.0000 0.0000 0.0000 4.3481 0.0000 0.0000
# 5 0.0000 0.0000 0.0000 0.0000 17.8424 0.0000
# 6 0.0000 0.0000 0.0000 0.0000 0.0000 43.5586
#
#
#
# Elastic Compliance Matrix: (Units=1/GPa)
#
#
# Indices 1 2 3 4 5 6 
#
# 1 0.005960 -0.001695 -0.005322 0.000000 0.000000 0.000000
# 2 -0.001695 0.007218 -0.004720 0.000000 0.000000 0.000000
# 3 -0.005322 -0.004720 0.051207 0.000000 0.000000 0.000000
# 4 0.000000 0.000000 0.000000 0.229984 0.000000 0.000000
# 5 0.000000 0.000000 0.000000 0.000000 0.056046 0.000000
# 6 0.000000 0.000000 0.000000 0.000000 0.000000 0.022958
#
#
# Mechanical properties :
#
#
# Convention : Reuss Voigt Hill
#
# Bulk Modulus (GPa) = 24.44271 71.77884 48.11078
# Shear Modulus (GPa) = 12.18078 32.28663 22.23370
#
# Velocity S-wave (km/s) = 2.28145 3.71437 3.08234
# Velocity P-wave (km/s) = 4.16951 7.00483 5.76422
#
# Compressibility (1/GPa) = 0.04091199
#
# Stress axis : x y z
#
# Youngs Moduli (GPa) = 167.78244 138.54549 19.52870
#
# Poissons Ratio (x) = 0.23477 0.10394
# Poissons Ratio (y) = 0.28432 0.09217
# Poissons Ratio (z) = 0.89298 0.65387
#
# Static dielectric constant tensor:
#      x y z
#    x 4.732850 0.000000 0.000000 
#    y 0.000000 3.144560 0.000000 
#    z 0.000000 0.000000 3.457060 
# 
# 
# High freq. dielectric constant tensor:
#      x y z
#    x 1.952370 0.000000 0.000000 
#    y 0.000000 1.945490 0.000000 
#    z 0.000000 0.000000 1.865860 
# 
# From -- ./inp_files/4790.got.cif
#   From: 2010.03.12/outbox.cif.g09.slc.cpg/sg62_3_cif.got.tgz:4790.got - 2010.04.10 19:12:36.
