data_PCOD8249190
_publ_section_title
;
Structure prediction by ZEFSAII (Michael W. Deem and Ramdas Pophale) SiO2 
 PCOD8249190
Probable space group: P B C A
;
_chemical_formula_sum "Si O2"
_cell_formula_units_Z 56
_cell_length_a 15.873758
_cell_length_b 12.933422
_cell_length_c 13.274397
_cell_angle_alpha 90.000000
_cell_angle_beta 90.000000
_cell_angle_gamma 90.000000
_cell_volume 2725.260398
_symmetry_space_group_name_H-M "P B C A"
_symmetry_group_IT_number 61
_symmetry_cell_setting 'orthorhombic'
loop_
_space_group_symop_operation_xyz
x,y,z
1/2-x,-y,1/2+z
1/2+x,1/2-y,-z
-x,1/2+y,1/2-z
-x,-y,-z
1/2+x,y,1/2-z
1/2-x,1/2+y,z
x,1/2-y,1/2+z
loop_
_atom_site_type_symbol
_atom_site_label
_atom_site_fract_x
_atom_site_fract_y
_atom_site_fract_z
Si Si1 0.852431 0.242098 0.782879
Si Si2 0.600735 0.315927 0.762448
Si Si3 0.367394 0.543590 0.941535
Si Si4 0.696479 0.107942 0.767836
Si Si5 0.990812 0.773426 0.090377
Si Si6 0.747270 0.083756 0.368663
Si Si7 0.557667 0.670341 0.101521
O O1 0.791159 0.148176 0.762289
O O2 0.813385 0.321815 0.864595
O O3 0.867835 0.292269 0.673760
O O4 0.939712 0.197883 0.825948
O O5 0.629687 0.198726 0.793039
O O6 0.571483 0.311184 0.643704
O O7 0.678460 0.394390 0.778877
O O8 0.524782 0.354965 0.831984
O O9 0.322406 0.548605 0.834580
O O10 0.442786 0.624418 0.944239
O O11 0.407042 0.430362 0.957174
O O12 0.299548 0.575721 0.025393
O O13 0.698021 0.020064 0.853503
O O14 0.035210 0.741944 0.984030
#
# Coordination Sequence:
#
# PCOD8249190 Si02
#       7
#     8   8   8   8   8   8   8
#     4  10  23  38  62  89 126 162 196 261 308 359
#     4   9  22  39  60  87 122 156 196 259 300 358
#     4  11  22  37  66  89 118 165 210 247 303 382
#     4  10  22  41  56  90 124 157 198 259 306 363
#     4  10  21  38  61  89 117 159 207 245 299 362
#     4  11  21  42  61  92 124 159 205 255 311 360
#     4  11  20  39  61  92 117 160 208 248 304 377
#
# _framework density 20.548494999999999
#
# number of rings (size 3 to 8) (size 9 to 14) (size 15 to 20)
#    0.000    1.714    2.857    1.286    4.000    0.000 
#    2.571    0.000    0.000    1.714    0.000    0.000 
#    0.000    0.000    0.000    0.000    0.000    0.000 
#
# Total GULP energy -693978.123665 kJ/mol
# GULP energy per Si atom -12392.466494 kJ/mol
# Density = 2.050173 g / cm^3
# Si number density = 20.548495 Si / 1000 Ang^3
#
#
#
# Elastic Constant Matrix: (Units=GPa)
#
#
# Indices 1 2 3 4 5 6 
#
# 1 61.5043 13.6734 22.8707 0.0000 0.0000 0.0000
# 2 13.6734 56.2275 13.7912 0.0000 0.0000 0.0000
# 3 22.8707 13.7912 78.1067 0.0000 0.0000 0.0000
# 4 0.0000 0.0000 0.0000 17.2180 0.0000 0.0000
# 5 0.0000 0.0000 0.0000 0.0000 42.3516 0.0000
# 6 0.0000 0.0000 0.0000 0.0000 0.0000 22.0439
#
#
#
# Elastic Compliance Matrix: (Units=1/GPa)
#
#
# Indices 1 2 3 4 5 6 
#
# 1 0.018839 -0.003374 -0.004920 0.000000 0.000000 0.000000
# 2 -0.003374 0.019194 -0.002401 0.000000 0.000000 0.000000
# 3 -0.004920 -0.002401 0.014668 0.000000 0.000000 0.000000
# 4 0.000000 0.000000 0.000000 0.058079 0.000000 0.000000
# 5 0.000000 0.000000 0.000000 0.000000 0.023612 0.000000
# 6 0.000000 0.000000 0.000000 0.000000 0.000000 0.045364
#
#
# Mechanical properties :
#
#
# Convention : Reuss Voigt Hill
#
# Bulk Modulus (GPa) = 31.93947 32.94543 32.44245
# Shear Modulus (GPa) = 23.63128 26.02290 24.82709
#
# Velocity S-wave (km/s) = 3.39488 3.56253 3.47972
# Velocity P-wave (km/s) = 5.56275 5.74369 5.65394
#
# Compressibility (1/GPa) = 0.03130922
#
# Stress axis : x y z
#
# Youngs Moduli (GPa) = 53.08162 52.09851 68.17681
#
# Poissons Ratio (x) = 0.17580 0.33546
# Poissons Ratio (y) = 0.17912 0.16370
# Poissons Ratio (z) = 0.26119 0.12509
#
# Static dielectric constant tensor:
#      x y z
#    x 3.921410 0.000000 0.000000 
#    y 0.000000 3.511860 0.000000 
#    z 0.000000 0.000000 3.869760 
# 
# 
# High freq. dielectric constant tensor:
#      x y z
#    x 1.820360 0.000000 0.000000 
#    y 0.000000 1.776440 0.000000 
#    z 0.000000 0.000000 1.799720 
# 
# From -- ./inp_files/5794.got.cif
#   From: 2010.03.12/outbox.cif.g09.slc.cpg/sg61_3_cif.got.tgz:5794.got - 2010.04.10 19:05:03.
