data_PCOD8249863
_publ_section_title
;
Structure prediction by ZEFSAII (Michael W. Deem and Ramdas Pophale) SiO2 
 PCOD8249863
Probable space group: P B C A
;
_chemical_formula_sum "Si O2"
_cell_formula_units_Z 64
_cell_length_a 15.149426
_cell_length_b 8.328250
_cell_length_c 21.806838
_cell_angle_alpha 90.000000
_cell_angle_beta 90.000000
_cell_angle_gamma 90.000000
_cell_volume 2751.329653
_symmetry_space_group_name_H-M "P B C A"
_symmetry_group_IT_number 61
_symmetry_cell_setting 'orthorhombic'
loop_
_space_group_symop_operation_xyz
x,y,z
1/2-x,-y,1/2+z
1/2+x,1/2-y,-z
-x,1/2+y,1/2-z
-x,-y,-z
1/2+x,y,1/2-z
1/2-x,1/2+y,z
x,1/2-y,1/2+z
loop_
_atom_site_type_symbol
_atom_site_label
_atom_site_fract_x
_atom_site_fract_y
_atom_site_fract_z
Si Si1 0.839822 0.538488 0.384732
Si Si2 0.799704 0.844307 0.749886
Si Si3 0.620659 0.510045 0.251743
Si Si4 0.810923 0.283870 0.944114
Si Si5 0.149258 0.523484 0.868929
Si Si6 0.470863 0.530199 0.869642
Si Si7 0.812428 0.351445 0.579245
Si Si8 0.031345 0.894223 0.622522
O O1 0.814875 0.582867 0.316450
O O2 0.783971 0.632409 0.436272
O O3 0.817096 0.351399 0.391859
O O4 0.944272 0.567236 0.395398
O O5 0.831681 0.662296 0.746394
O O6 0.694613 0.855122 0.737890
O O7 0.850175 0.953831 0.699933
O O8 0.545729 0.525182 0.200141
O O9 0.575209 0.537366 0.316212
O O10 0.893290 0.403238 0.930143
O O11 0.821406 0.216902 0.011547
O O12 0.174979 0.710763 0.870682
O O13 0.216421 0.427396 0.912666
O O14 0.050190 0.508485 0.895937
O O15 0.386274 0.489082 0.911429
O O16 0.489605 0.718520 0.869784
#
# Coordination Sequence:
#
# PCOD8249863 Si02
#       8
#     8   8   8   8   8   8   8   8
#     4  11  25  45  72 100 145 185 239 299 377 429
#     4  12  24  44  75 103 145 186 233 303 374 440
#     4  12  25  44  71 107 148 182 241 300 375 442
#     4  11  26  47  70 105 142 195 247 301 357 437
#     4  12  25  46  72 105 143 189 242 304 369 433
#     4  11  26  44  69 107 142 191 239 301 369 435
#     4  12  27  46  75 102 145 194 250 300 359 430
#     4  11  26  45  70 104 148 186 243 301 367 443
#
# _framework density 23.261479000000001
#
# number of rings (size 3 to 8) (size 9 to 14) (size 15 to 20)
#    0.000    0.500    3.750    3.750    3.500    3.500 
#    0.000    0.000    0.000    0.000    0.000    0.000 
#    0.000    0.000    0.000    0.000    0.000    0.000 
#
# Total GULP energy -793774.616463 kJ/mol
# GULP energy per Si atom -12402.728382 kJ/mol
# Density = 2.320853 g / cm^3
# Si number density = 23.261479 Si / 1000 Ang^3
#
#
#
# Elastic Constant Matrix: (Units=GPa)
#
#
# Indices 1 2 3 4 5 6 
#
# 1 147.6468 57.3165 18.2374 0.0000 0.0000 0.0000
# 2 57.3165 72.0597 7.5848 0.0000 0.0000 0.0000
# 3 18.2374 7.5848 63.6815 0.0000 0.0000 0.0000
# 4 0.0000 0.0000 0.0000 28.1754 0.0000 0.0000
# 5 0.0000 0.0000 0.0000 0.0000 25.7549 0.0000
# 6 0.0000 0.0000 0.0000 0.0000 0.0000 40.7212
#
#
#
# Elastic Compliance Matrix: (Units=1/GPa)
#
#
# Indices 1 2 3 4 5 6 
#
# 1 0.010031 -0.007774 -0.001947 0.000000 0.000000 0.000000
# 2 -0.007774 0.020078 -0.000165 0.000000 0.000000 0.000000
# 3 -0.001947 -0.000165 0.016280 0.000000 0.000000 0.000000
# 4 0.000000 0.000000 0.000000 0.035492 0.000000 0.000000
# 5 0.000000 0.000000 0.000000 0.000000 0.038828 0.000000
# 6 0.000000 0.000000 0.000000 0.000000 0.000000 0.024557
#
#
# Mechanical properties :
#
#
# Convention : Reuss Voigt Hill
#
# Bulk Modulus (GPa) = 37.56862 49.96283 43.76573
# Shear Modulus (GPa) = 28.75033 32.28024 30.51529
#
# Velocity S-wave (km/s) = 3.51944 3.72924 3.62586
# Velocity P-wave (km/s) = 5.71847 6.32996 6.03197
#
# Compressibility (1/GPa) = 0.02661796
#
# Stress axis : x y z
#
# Youngs Moduli (GPa) = 99.68854 49.80530 61.42372
#
# Poissons Ratio (x) = 0.38718 0.11958
# Poissons Ratio (y) = 0.77497 0.01014
# Poissons Ratio (z) = 0.19408 0.00822
#
# Static dielectric constant tensor:
#      x y z
#    x 4.699590 0.000000 0.000000 
#    y 0.000000 4.347050 0.000000 
#    z 0.000000 0.000000 4.004010 
# 
# 
# High freq. dielectric constant tensor:
#      x y z
#    x 1.939710 0.000000 0.000000 
#    y 0.000000 1.920150 0.000000 
#    z 0.000000 0.000000 1.913390 
# 
# From -- ./inp_files/11098.got.cif
#   From: 2010.03.12/outbox.cif.g09.slc.cpg/sg61_6_cif.got.tgz:11098.got - 2010.04.10 19:05:03.
