data_PCOD8249903
_publ_section_title
;
Structure prediction by ZEFSAII (Michael W. Deem and Ramdas Pophale) SiO2 
 PCOD8249903
Probable space group: P B C A
;
_chemical_formula_sum "Si O2"
_cell_formula_units_Z 40
_cell_length_a 28.582878
_cell_length_b 4.996968
_cell_length_c 10.229840
_cell_angle_alpha 90.000000
_cell_angle_beta 90.000000
_cell_angle_gamma 90.000000
_cell_volume 1461.104792
_symmetry_space_group_name_H-M "P B C A"
_symmetry_group_IT_number 61
_symmetry_cell_setting 'orthorhombic'
loop_
_space_group_symop_operation_xyz
x,y,z
1/2-x,-y,1/2+z
1/2+x,1/2-y,-z
-x,1/2+y,1/2-z
-x,-y,-z
1/2+x,y,1/2-z
1/2-x,1/2+y,z
x,1/2-y,1/2+z
loop_
_atom_site_type_symbol
_atom_site_label
_atom_site_fract_x
_atom_site_fract_y
_atom_site_fract_z
Si Si1 0.893579 0.735092 0.574840
Si Si2 0.410492 0.244450 0.083074
Si Si3 0.218539 0.685591 0.510075
Si Si4 0.838233 0.367294 0.224475
Si Si5 0.006467 0.379763 0.326415
O O1 0.881390 0.448847 0.509815
O O2 0.942943 0.737204 0.646550
O O3 0.899964 0.944485 0.457089
O O4 0.850293 0.836633 0.665516
O O5 0.389630 0.253435 0.231353
O O6 0.465252 0.333126 0.066208
O O7 0.261863 0.485817 0.501434
O O8 0.184931 0.670631 0.382663
O O9 0.193353 0.618869 0.646453
O O10 0.010452 0.692752 0.294285
#
# Coordination Sequence:
#
# PCOD8249903 Si02
#       5
#     8   8   8   8   8
#     4  12  27  47  78 115 168 220 280 339 404 489
#     4  12  27  47  76 118 164 224 276 343 402 494
#     4  12  30  55  86 120 161 204 266 343 431 511
#     4  12  28  54  87 121 164 212 276 338 422 501
#     4  12  24  45  73 112 168 228 286 343 406 476
#
# _framework density 27.376543000000002
#
# number of rings (size 3 to 8) (size 9 to 14) (size 15 to 20)
#    0.000    0.000    4.000    4.800    2.800    3.200 
#    0.000    0.000    0.000    0.000    0.000    0.000 
#    0.000    0.000    0.000    0.000    0.000    0.000 
#
# Total GULP energy -495794.902146 kJ/mol
# GULP energy per Si atom -12394.872554 kJ/mol
# Density = 2.731423 g / cm^3
# Si number density = 27.376543 Si / 1000 Ang^3
#
#
#
# Elastic Constant Matrix: (Units=GPa)
#
#
# Indices 1 2 3 4 5 6 
#
# 1 128.6649 17.4823 49.5952 0.0000 0.0000 0.0000
# 2 17.4823 56.0135 14.6811 0.0000 0.0000 0.0000
# 3 49.5952 14.6811 120.5075 0.0000 0.0000 0.0000
# 4 0.0000 0.0000 0.0000 24.1326 0.0000 0.0000
# 5 0.0000 0.0000 0.0000 0.0000 54.5365 0.0000
# 6 0.0000 0.0000 0.0000 0.0000 0.0000 53.3910
#
#
#
# Elastic Compliance Matrix: (Units=1/GPa)
#
#
# Indices 1 2 3 4 5 6 
#
# 1 0.009448 -0.001993 -0.003646 0.000000 0.000000 0.000000
# 2 -0.001993 0.018862 -0.001478 0.000000 0.000000 0.000000
# 3 -0.003646 -0.001478 0.009979 0.000000 0.000000 0.000000
# 4 0.000000 0.000000 0.000000 0.041438 0.000000 0.000000
# 5 0.000000 0.000000 0.000000 0.000000 0.018336 0.000000
# 6 0.000000 0.000000 0.000000 0.000000 0.000000 0.018730
#
#
# Mechanical properties :
#
#
# Convention : Reuss Voigt Hill
#
# Bulk Modulus (GPa) = 41.56963 52.07812 46.82388
# Shear Modulus (GPa) = 35.95967 41.30715 38.63341
#
# Velocity S-wave (km/s) = 3.62819 3.88861 3.76065
# Velocity P-wave (km/s) = 5.72442 6.26306 5.99979
#
# Compressibility (1/GPa) = 0.02405602
#
# Stress axis : x y z
#
# Youngs Moduli (GPa) = 105.84029 53.01595 100.21453
#
# Poissons Ratio (x) = 0.10568 0.36534
# Poissons Ratio (y) = 0.21098 0.14807
# Poissons Ratio (z) = 0.38585 0.07833
#
# Static dielectric constant tensor:
#      x y z
#    x 5.358400 0.000000 0.000000 
#    y 0.000000 4.864810 0.000000 
#    z 0.000000 0.000000 5.040100 
# 
# 
# High freq. dielectric constant tensor:
#      x y z
#    x 2.124860 0.000000 0.000000 
#    y 0.000000 2.105430 0.000000 
#    z 0.000000 0.000000 2.110290 
# 
# From -- ./inp_files/6654.got.cif
#   From: 2010.03.12/outbox.cif.g09.slc.cpg/sg61_4_cif.got.tgz:6654.got - 2010.04.10 19:05:03.
