data_PCOD8249647
_publ_section_title
;
Structure prediction by ZEFSAII (Michael W. Deem and Ramdas Pophale) SiO2 
 PCOD8249647
Probable space group: P B C A
;
_chemical_formula_sum "Si O2"
_cell_formula_units_Z 24
_cell_length_a 13.822550
_cell_length_b 6.598338
_cell_length_c 9.886155
_cell_angle_alpha 90.000000
_cell_angle_beta 90.000000
_cell_angle_gamma 90.000000
_cell_volume 901.675238
_symmetry_space_group_name_H-M "P B C A"
_symmetry_group_IT_number 61
_symmetry_cell_setting 'orthorhombic'
loop_
_space_group_symop_operation_xyz
x,y,z
1/2-x,-y,1/2+z
1/2+x,1/2-y,-z
-x,1/2+y,1/2-z
-x,-y,-z
1/2+x,y,1/2-z
1/2-x,1/2+y,z
x,1/2-y,1/2+z
loop_
_atom_site_type_symbol
_atom_site_label
_atom_site_fract_x
_atom_site_fract_y
_atom_site_fract_z
Si Si1 0.581203 0.402434 0.865292
Si Si2 0.830551 0.710243 0.109481
Si Si3 0.883281 0.289434 0.151153
O O1 0.616567 0.237143 0.752567
O O2 0.595770 0.630792 0.806141
O O3 0.469053 0.355614 0.903131
O O4 0.647715 0.380006 0.998061
O O5 0.872997 0.492253 0.058373
O O6 0.717630 0.669505 0.143670
#
# Coordination Sequence:
#
# PCOD8249647 Si02
#       3
#     8   8   8
#     4  10  25  44  69  97 140 172 231 276 338 402
#     4  10  25  42  69  99 136 176 228 275 339 400
#     4  10  25  41  71  97 138 177 228 273 342 393
#
# _framework density 26.617118999999999
#
# number of rings (size 3 to 8) (size 9 to 14) (size 15 to 20)
#    2.000    0.000    0.000    1.000    9.333    4.000 
#    0.000    0.000    0.000    0.000    0.000    0.000 
#    0.000    0.000    0.000    0.000    0.000    0.000 
#
# Total GULP energy -297387.901919 kJ/mol
# GULP energy per Si atom -12391.162580 kJ/mol
# Density = 2.655654 g / cm^3
# Si number density = 26.617119 Si / 1000 Ang^3
#
#
#
# Elastic Constant Matrix: (Units=GPa)
#
#
# Indices 1 2 3 4 5 6 
#
# 1 221.5314 39.3610 49.3392 0.0000 0.0000 0.0000
# 2 39.3610 59.5718 7.6870 0.0000 0.0000 0.0000
# 3 49.3392 7.6870 86.3397 0.0000 0.0000 0.0000
# 4 0.0000 0.0000 0.0000 22.0297 0.0000 0.0000
# 5 0.0000 0.0000 0.0000 0.0000 35.2909 0.0000
# 6 0.0000 0.0000 0.0000 0.0000 0.0000 54.7272
#
#
#
# Elastic Compliance Matrix: (Units=1/GPa)
#
#
# Indices 1 2 3 4 5 6 
#
# 1 0.005795 -0.003441 -0.003005 0.000000 0.000000 0.000000
# 2 -0.003441 0.019025 0.000273 0.000000 0.000000 0.000000
# 3 -0.003005 0.000273 0.013275 0.000000 0.000000 0.000000
# 4 0.000000 0.000000 0.000000 0.045393 0.000000 0.000000
# 5 0.000000 0.000000 0.000000 0.000000 0.028336 0.000000
# 6 0.000000 0.000000 0.000000 0.000000 0.000000 0.018272
#
#
# Mechanical properties :
#
#
# Convention : Reuss Voigt Hill
#
# Bulk Modulus (GPa) = 38.83835 62.24634 50.54234
# Shear Modulus (GPa) = 33.10690 40.47993 36.79342
#
# Velocity S-wave (km/s) = 3.53061 3.90400 3.72199
# Velocity P-wave (km/s) = 5.58958 6.61500 6.12379
#
# Compressibility (1/GPa) = 0.02574775
#
# Stress axis : x y z
#
# Youngs Moduli (GPa) = 172.57166 52.56278 75.32877
#
# Poissons Ratio (x) = 0.18087 0.22637
# Poissons Ratio (y) = 0.59382 -0.02053
# Poissons Ratio (z) = 0.51859 -0.01433
#
# Static dielectric constant tensor:
#      x y z
#    x 4.709080 0.000000 0.000000 
#    y 0.000000 4.317990 0.000000 
#    z 0.000000 0.000000 4.346580 
# 
# 
# High freq. dielectric constant tensor:
#      x y z
#    x 2.079440 0.000000 0.000000 
#    y 0.000000 2.056730 0.000000 
#    z 0.000000 0.000000 2.045550 
# 
# From -- ./inp_files/1577.got.cif
#   From: 2010.03.12/outbox.cif.g09.slc.cpg/sg61_1_cif.got.tgz:1577.got - 2010.04.10 19:05:03.
