data_PCOD8249590
_publ_section_title
;
Structure prediction by ZEFSAII (Michael W. Deem and Ramdas Pophale) SiO2 
 PCOD8249590
Probable space group: P B C A
;
_chemical_formula_sum "Si O2"
_cell_formula_units_Z 64
_cell_length_a 22.936966
_cell_length_b 14.506632
_cell_length_c 8.787547
_cell_angle_alpha 90.000000
_cell_angle_beta 90.000000
_cell_angle_gamma 90.000000
_cell_volume 2923.951912
_symmetry_space_group_name_H-M "P B C A"
_symmetry_group_IT_number 61
_symmetry_cell_setting 'orthorhombic'
loop_
_space_group_symop_operation_xyz
x,y,z
1/2-x,-y,1/2+z
1/2+x,1/2-y,-z
-x,1/2+y,1/2-z
-x,-y,-z
1/2+x,y,1/2-z
1/2-x,1/2+y,z
x,1/2-y,1/2+z
loop_
_atom_site_type_symbol
_atom_site_label
_atom_site_fract_x
_atom_site_fract_y
_atom_site_fract_z
Si Si1 0.859431 0.272276 0.380004
Si Si2 0.585468 0.136903 0.446568
Si Si3 0.731487 0.465991 0.762269
Si Si4 0.398516 0.038237 0.732783
Si Si5 0.221452 0.709448 0.368386
Si Si6 0.787562 0.607748 0.574397
Si Si7 0.526349 0.255545 0.694621
Si Si8 0.953607 0.160534 0.551765
O O1 0.898630 0.360369 0.340921
O O2 0.836070 0.213575 0.237715
O O3 0.801478 0.310613 0.462737
O O4 0.894112 0.204720 0.491376
O O5 0.649773 0.138140 0.514432
O O6 0.545263 0.169524 0.587215
O O7 0.579106 0.204305 0.298830
O O8 0.570701 0.033969 0.383551
O O9 0.667291 0.507092 0.729587
O O10 0.733336 0.369883 0.672753
O O11 0.784337 0.533031 0.710132
O O12 0.745552 0.443637 0.937081
O O13 0.437480 0.056693 0.886909
O O14 0.255002 0.804838 0.361721
O O15 0.501351 0.337503 0.584972
O O16 0.475725 0.222543 0.806761
#
# Coordination Sequence:
#
# PCOD8249590 Si02
#       8
#     8   8   8   8   8   8   8   8
#     4  12  21  41  68 100 132 178 225 275 344 405
#     4  10  25  43  68  96 139 177 227 284 334 415
#     4  11  24  42  64 102 141 178 228 279 331 427
#     4  11  23  42  68 100 135 170 234 278 338 414
#     4  12  23  38  67  96 137 183 220 269 345 408
#     4  11  24  43  64  98 139 184 222 276 339 410
#     4  10  23  46  69  98 130 181 234 275 363 401
#     4  11  21  43  73  95 133 175 226 297 336 407
#
# _framework density 21.888185
#
# number of rings (size 3 to 8) (size 9 to 14) (size 15 to 20)
#    0.000    1.000    5.000    1.500    3.500    1.000 
#    0.000    0.000    5.500    0.000    0.000    0.000 
#    0.000    0.000    0.000    0.000    0.000    0.000 
#
# Total GULP energy -793072.680017 kJ/mol
# GULP energy per Si atom -12391.760625 kJ/mol
# Density = 2.183837 g / cm^3
# Si number density = 21.888185 Si / 1000 Ang^3
#
#
#
# Elastic Constant Matrix: (Units=GPa)
#
#
# Indices 1 2 3 4 5 6 
#
# 1 74.2700 47.8612 40.1305 0.0000 0.0000 0.0000
# 2 47.8612 92.5238 33.8503 0.0000 0.0000 0.0000
# 3 40.1305 33.8503 79.0700 0.0000 0.0000 0.0000
# 4 0.0000 0.0000 0.0000 34.7616 0.0000 0.0000
# 5 0.0000 0.0000 0.0000 0.0000 33.3243 0.0000
# 6 0.0000 0.0000 0.0000 0.0000 0.0000 34.9692
#
#
#
# Elastic Compliance Matrix: (Units=1/GPa)
#
#
# Indices 1 2 3 4 5 6 
#
# 1 0.023901 -0.009398 -0.008107 0.000000 0.000000 0.000000
# 2 -0.009398 0.016510 -0.002299 0.000000 0.000000 0.000000
# 3 -0.008107 -0.002299 0.017746 0.000000 0.000000 0.000000
# 4 0.000000 0.000000 0.000000 0.028767 0.000000 0.000000
# 5 0.000000 0.000000 0.000000 0.000000 0.030008 0.000000
# 6 0.000000 0.000000 0.000000 0.000000 0.000000 0.028597
#
#
# Mechanical properties :
#
#
# Convention : Reuss Voigt Hill
#
# Bulk Modulus (GPa) = 53.90815 54.39418 54.15116
# Shear Modulus (GPa) = 26.13431 28.87915 27.50673
#
# Velocity S-wave (km/s) = 3.45917 3.63629 3.54883
# Velocity P-wave (km/s) = 6.37470 6.52189 6.44871
#
# Compressibility (1/GPa) = 0.01855007
#
# Stress axis : x y z
#
# Youngs Moduli (GPa) = 41.83918 60.56873 56.35138
#
# Poissons Ratio (x) = 0.56920 0.45686
# Poissons Ratio (y) = 0.39318 0.12953
# Poissons Ratio (z) = 0.33921 0.13922
#
# Static dielectric constant tensor:
#      x y z
#    x 3.932940 0.000000 0.000000 
#    y 0.000000 4.012680 0.000000 
#    z 0.000000 0.000000 4.328080 
# 
# 
# High freq. dielectric constant tensor:
#      x y z
#    x 1.849690 0.000000 0.000000 
#    y 0.000000 1.851390 0.000000 
#    z 0.000000 0.000000 1.878020 
# 
# From -- ./inp_files/4319.got.cif
#   From: 2010.03.12/outbox.cif.g09.slc.cpg/sg61_3_cif.got.tgz:4319.got - 2010.04.10 19:05:03.
