data_PCOD8249217
_publ_section_title
;
Structure prediction by ZEFSAII (Michael W. Deem and Ramdas Pophale) SiO2 
 PCOD8249217
Probable space group: P B C A
;
_chemical_formula_sum "Si O2"
_cell_formula_units_Z 64
_cell_length_a 24.609659
_cell_length_b 13.705114
_cell_length_c 8.640934
_cell_angle_alpha 90.000000
_cell_angle_beta 90.000000
_cell_angle_gamma 90.000000
_cell_volume 2914.398511
_symmetry_space_group_name_H-M "P B C A"
_symmetry_group_IT_number 61
_symmetry_cell_setting 'orthorhombic'
loop_
_space_group_symop_operation_xyz
x,y,z
1/2-x,-y,1/2+z
1/2+x,1/2-y,-z
-x,1/2+y,1/2-z
-x,-y,-z
1/2+x,y,1/2-z
1/2-x,1/2+y,z
x,1/2-y,1/2+z
loop_
_atom_site_type_symbol
_atom_site_label
_atom_site_fract_x
_atom_site_fract_y
_atom_site_fract_z
Si Si1 0.163671 0.122326 0.035816
Si Si2 0.360326 0.044448 0.738965
Si Si3 0.330865 0.355882 0.675570
Si Si4 0.052488 0.365092 0.031166
Si Si5 0.699082 0.674724 0.981121
Si Si6 0.728213 0.502516 0.506728
Si Si7 0.433588 0.414280 0.514226
Si Si8 0.885376 0.748682 0.222311
O O1 0.220471 0.074659 0.987964
O O2 0.137999 0.163759 0.879794
O O3 0.163596 0.206748 0.169210
O O4 0.125725 0.037572 0.110501
O O5 0.343456 0.141193 0.648254
O O6 0.308054 0.008604 0.839223
O O7 0.412299 0.072491 0.838987
O O8 0.291356 0.286825 0.568519
O O9 0.329284 0.329149 0.853192
O O10 0.307987 0.465116 0.641890
O O11 0.392810 0.350310 0.617896
O O12 0.061354 0.476851 0.084217
O O13 0.089716 0.338374 0.882517
O O14 0.066741 0.292905 0.171573
O O15 0.989280 0.353725 0.987015
O O16 0.754066 0.610262 0.983301
#
# Coordination Sequence:
#
# PCOD8249217 Si02
#       8
#     8   8   8   8   8   8   8   8
#     4  10  21  39  60  94 127 167 208 264 311 373
#     4  10  21  41  63  89 130 166 209 259 315 377
#     4  11  24  41  64  92 125 167 212 257 319 378
#     4  10  22  42  66  94 128 161 217 264 319 375
#     4  11  23  40  61  90 127 165 212 251 310 379
#     4  10  23  41  62  89 127 166 209 260 308 379
#     4  10  22  42  66  91 128 170 203 268 323 369
#     4  10  22  40  66  95 125 168 216 262 312 377
#
# _framework density 21.959932999999999
#
# number of rings (size 3 to 8) (size 9 to 14) (size 15 to 20)
#    0.000    1.750    1.250    3.000    3.500    5.000 
#    2.250    1.875    0.000    0.000    0.000    0.000 
#    0.000    0.000    0.000    0.000    0.000    0.000 
#
# Total GULP energy -793337.094866 kJ/mol
# GULP energy per Si atom -12395.892107 kJ/mol
# Density = 2.190995 g / cm^3
# Si number density = 21.959933 Si / 1000 Ang^3
#
#
#
# Elastic Constant Matrix: (Units=GPa)
#
#
# Indices 1 2 3 4 5 6 
#
# 1 88.1015 19.8439 13.3093 0.0000 0.0000 0.0000
# 2 19.8439 57.6780 17.1086 0.0000 0.0000 0.0000
# 3 13.3093 17.1086 77.4927 0.0000 0.0000 0.0000
# 4 0.0000 0.0000 0.0000 33.9155 0.0000 0.0000
# 5 0.0000 0.0000 0.0000 0.0000 23.1268 0.0000
# 6 0.0000 0.0000 0.0000 0.0000 0.0000 28.9643
#
#
#
# Elastic Compliance Matrix: (Units=1/GPa)
#
#
# Indices 1 2 3 4 5 6 
#
# 1 0.012420 -0.003896 -0.001273 0.000000 0.000000 0.000000
# 2 -0.003896 0.019774 -0.003697 0.000000 0.000000 0.000000
# 3 -0.001273 -0.003697 0.013939 0.000000 0.000000 0.000000
# 4 0.000000 0.000000 0.000000 0.029485 0.000000 0.000000
# 5 0.000000 0.000000 0.000000 0.000000 0.043240 0.000000
# 6 0.000000 0.000000 0.000000 0.000000 0.000000 0.034525
#
#
# Mechanical properties :
#
#
# Convention : Reuss Voigt Hill
#
# Bulk Modulus (GPa) = 35.20722 35.97731 35.59226
# Shear Modulus (GPa) = 27.68816 28.73533 28.21175
#
# Velocity S-wave (km/s) = 3.55470 3.62129 3.58815
# Velocity P-wave (km/s) = 5.73717 5.82269 5.78009
#
# Compressibility (1/GPa) = 0.02840327
#
# Stress axis : x y z
#
# Youngs Moduli (GPa) = 80.51338 50.57048 71.73989
#
# Poissons Ratio (x) = 0.19700 0.09133
# Poissons Ratio (y) = 0.31364 0.26520
# Poissons Ratio (z) = 0.10250 0.18694
#
# Static dielectric constant tensor:
#      x y z
#    x 3.762830 0.000000 0.000000 
#    y 0.000000 4.202850 0.000000 
#    z 0.000000 0.000000 3.989150 
# 
# 
# High freq. dielectric constant tensor:
#      x y z
#    x 1.838520 0.000000 0.000000 
#    y 0.000000 1.875110 0.000000 
#    z 0.000000 0.000000 1.869230 
# 
# From -- ./inp_files/4340.got.cif
#   From: 2010.03.12/outbox.cif.g09.slc.cpg/sg61_3_cif.got.tgz:4340.got - 2010.04.10 19:05:03.
