data_PCOD8249735
_publ_section_title
;
Structure prediction by ZEFSAII (Michael W. Deem and Ramdas Pophale) SiO2 
 PCOD8249735
Probable space group: P B C A
;
_chemical_formula_sum "Si O2"
_cell_formula_units_Z 48
_cell_length_a 17.505820
_cell_length_b 9.541732
_cell_length_c 13.011132
_cell_angle_alpha 90.000000
_cell_angle_beta 90.000000
_cell_angle_gamma 90.000000
_cell_volume 2173.325400
_symmetry_space_group_name_H-M "P B C A"
_symmetry_group_IT_number 61
_symmetry_cell_setting 'orthorhombic'
loop_
_space_group_symop_operation_xyz
x,y,z
1/2-x,-y,1/2+z
1/2+x,1/2-y,-z
-x,1/2+y,1/2-z
-x,-y,-z
1/2+x,y,1/2-z
1/2-x,1/2+y,z
x,1/2-y,1/2+z
loop_
_atom_site_type_symbol
_atom_site_label
_atom_site_fract_x
_atom_site_fract_y
_atom_site_fract_z
Si Si1 0.001328 0.275839 0.616828
Si Si2 0.300208 0.075535 0.672174
Si Si3 0.591554 0.312604 0.079549
Si Si4 0.158271 0.608281 0.444668
Si Si5 0.969411 0.065059 0.780176
Si Si6 0.716579 0.198565 0.213926
O O1 0.921907 0.308490 0.558921
O O2 0.001501 0.123260 0.671575
O O3 0.070869 0.263073 0.535673
O O4 0.018939 0.398260 0.701494
O O5 0.299333 0.120333 0.553621
O O6 0.382409 0.115187 0.718032
O O7 0.231976 0.153976 0.731017
O O8 0.287606 0.911434 0.692903
O O9 0.647079 0.444824 0.075245
O O10 0.511211 0.352923 0.128863
O O11 0.637718 0.198052 0.147483
O O12 0.212964 0.669578 0.359552
#
# Coordination Sequence:
#
# PCOD8249735 Si02
#       6
#     8   8   8   8   8   8
#     4  11  22  44  73  99 135 184 228 279 347 407
#     4  12  25  45  69 100 138 183 228 287 348 408
#     4  11  23  44  69 100 135 182 228 276 347 411
#     4  11  23  44  68  98 141 184 217 289 350 405
#     4  11  22  42  72  98 135 180 230 279 340 407
#     4  12  27  44  70 105 138 180 236 285 347 416
#
# _framework density 22.085968999999999
#
# number of rings (size 3 to 8) (size 9 to 14) (size 15 to 20)
#    0.000    0.667    6.667    2.000    2.333    0.000 
#    0.000    5.000    0.000    0.000    0.000    0.000 
#    0.000    0.000    0.000    0.000    0.000    0.000 
#
# Total GULP energy -595106.480832 kJ/mol
# GULP energy per Si atom -12398.051684 kJ/mol
# Density = 2.203570 g / cm^3
# Si number density = 22.085969 Si / 1000 Ang^3
#
#
#
# Elastic Constant Matrix: (Units=GPa)
#
#
# Indices 1 2 3 4 5 6 
#
# 1 80.4366 18.2645 27.3082 0.0000 0.0000 0.0000
# 2 18.2645 56.3675 36.1438 0.0000 0.0000 0.0000
# 3 27.3082 36.1438 105.8657 0.0000 0.0000 0.0000
# 4 0.0000 0.0000 0.0000 29.0569 0.0000 0.0000
# 5 0.0000 0.0000 0.0000 0.0000 43.5076 0.0000
# 6 0.0000 0.0000 0.0000 0.0000 0.0000 25.7653
#
#
#
# Elastic Compliance Matrix: (Units=1/GPa)
#
#
# Indices 1 2 3 4 5 6 
#
# 1 0.013971 -0.002837 -0.002635 0.000000 0.000000 0.000000
# 2 -0.002837 0.023289 -0.007219 0.000000 0.000000 0.000000
# 3 -0.002635 -0.007219 0.012590 0.000000 0.000000 0.000000
# 4 0.000000 0.000000 0.000000 0.034415 0.000000 0.000000
# 5 0.000000 0.000000 0.000000 0.000000 0.022985 0.000000
# 6 0.000000 0.000000 0.000000 0.000000 0.000000 0.038812
#
#
# Mechanical properties :
#
#
# Convention : Reuss Voigt Hill
#
# Bulk Modulus (GPa) = 40.87108 45.12252 42.99680
# Shear Modulus (GPa) = 27.83940 30.39617 29.11779
#
# Velocity S-wave (km/s) = 3.55421 3.71383 3.63489
# Velocity P-wave (km/s) = 5.94885 6.23416 6.09318
#
# Compressibility (1/GPa) = 0.02446718
#
# Stress axis : x y z
#
# Youngs Moduli (GPa) = 71.57661 42.93834 79.42529
#
# Poissons Ratio (x) = 0.12183 0.20930
# Poissons Ratio (y) = 0.20308 0.57340
# Poissons Ratio (z) = 0.18862 0.30999
#
# Static dielectric constant tensor:
#      x y z
#    x 4.059110 0.000000 0.000000 
#    y 0.000000 3.816700 0.000000 
#    z 0.000000 0.000000 4.117760 
# 
# 
# High freq. dielectric constant tensor:
#      x y z
#    x 1.877210 0.000000 0.000000 
#    y 0.000000 1.848460 0.000000 
#    z 0.000000 0.000000 1.874540 
# 
# From -- ./inp_files/8119.got.cif
#   From: 2010.03.12/outbox.cif.g09.slc.cpg/sg61_5_cif.got.tgz:8119.got - 2010.04.10 19:05:03.
