data_PCOD8249140
_publ_section_title
;
Structure prediction by ZEFSAII (Michael W. Deem and Ramdas Pophale) SiO2 
 PCOD8249140
Probable space group: P B C A
;
_chemical_formula_sum "Si O2"
_cell_formula_units_Z 64
_cell_length_a 9.465687
_cell_length_b 19.146459
_cell_length_c 15.634612
_cell_angle_alpha 90.000000
_cell_angle_beta 90.000000
_cell_angle_gamma 90.000000
_cell_volume 2833.529338
_symmetry_space_group_name_H-M "P B C A"
_symmetry_group_IT_number 61
_symmetry_cell_setting 'orthorhombic'
loop_
_space_group_symop_operation_xyz
x,y,z
1/2-x,-y,1/2+z
1/2+x,1/2-y,-z
-x,1/2+y,1/2-z
-x,-y,-z
1/2+x,y,1/2-z
1/2-x,1/2+y,z
x,1/2-y,1/2+z
loop_
_atom_site_type_symbol
_atom_site_label
_atom_site_fract_x
_atom_site_fract_y
_atom_site_fract_z
Si Si1 0.558109 0.432663 0.863229
Si Si2 0.160644 0.791990 0.499382
Si Si3 0.778973 0.418112 0.544689
Si Si4 0.556757 0.588241 0.867078
Si Si5 0.615132 0.211124 0.086294
Si Si6 0.830840 0.788696 0.826919
Si Si7 0.280939 0.570477 0.962294
Si Si8 0.438485 0.227998 0.735284
O O1 0.396113 0.411891 0.880671
O O2 0.577632 0.511085 0.823363
O O3 0.630715 0.370550 0.809020
O O4 0.624171 0.439739 0.955525
O O5 0.236429 0.751566 0.422321
O O6 0.260801 0.778658 0.581009
O O7 0.156198 0.873710 0.474448
O O8 0.003512 0.763745 0.516682
O O9 0.647392 0.369686 0.569300
O O10 0.711968 0.495307 0.553794
O O11 0.841832 0.400019 0.449882
O O12 0.391019 0.596031 0.889885
O O13 0.584917 0.648530 0.796586
O O14 0.543549 0.224354 0.176979
O O15 0.713524 0.765068 0.756902
O O16 0.970650 0.737290 0.823106
#
# Coordination Sequence:
#
# PCOD8249140 Si02
#       8
#     8   8   8   8   8   8   8   8
#     4   8  17  33  61  80 112 153 189 227 284 355
#     4  10  21  36  55  84 118 149 191 240 292 338
#     4   9  17  30  59  90 110 148 187 228 292 344
#     4   9  16  36  58  87 114 146 190 236 285 346
#     4  11  22  33  57  88 116 149 189 245 285 344
#     4  10  23  38  55  83 112 156 192 239 285 342
#     4   8  15  32  56  85 114 143 184 232 288 343
#     4  11  23  38  57  83 120 149 196 239 285 344
#
# _framework density 22.586673000000001
#
# number of rings (size 3 to 8) (size 9 to 14) (size 15 to 20)
#    0.000    2.500    1.250    3.000    5.250    0.500 
#    0.000    1.250    0.000    1.500    0.000    0.000 
#    0.000    0.000    0.000    0.000    0.000    0.000 
#
# Total GULP energy -792887.043388 kJ/mol
# GULP energy per Si atom -12388.860053 kJ/mol
# Density = 2.253526 g / cm^3
# Si number density = 22.586673 Si / 1000 Ang^3
#
#
#
# Elastic Constant Matrix: (Units=GPa)
#
#
# Indices 1 2 3 4 5 6 
#
# 1 73.5694 34.0099 -6.2386 0.0000 0.0000 0.0000
# 2 34.0099 141.0454 17.8217 0.0000 0.0000 0.0000
# 3 -6.2386 17.8217 14.4364 0.0000 0.0000 0.0000
# 4 0.0000 0.0000 0.0000 19.5265 0.0000 0.0000
# 5 0.0000 0.0000 0.0000 0.0000 24.7581 0.0000
# 6 0.0000 0.0000 0.0000 0.0000 0.0000 41.6866
#
#
#
# Elastic Compliance Matrix: (Units=1/GPa)
#
#
# Indices 1 2 3 4 5 6 
#
# 1 0.017775 -0.006228 0.015370 0.000000 0.000000 0.000000
# 2 -0.006228 0.010582 -0.015755 0.000000 0.000000 0.000000
# 3 0.015370 -0.015755 0.095361 0.000000 0.000000 0.000000
# 4 0.000000 0.000000 0.000000 0.051213 0.000000 0.000000
# 5 0.000000 0.000000 0.000000 0.000000 0.040391 0.000000
# 6 0.000000 0.000000 0.000000 0.000000 0.000000 0.023989
#
#
# Mechanical properties :
#
#
# Convention : Reuss Voigt Hill
#
# Bulk Modulus (GPa) = 9.05044 35.58192 22.31618
# Shear Modulus (GPa) = 17.27900 29.42479 23.35189
#
# Velocity S-wave (km/s) = 2.76888 3.61328 3.21889
# Velocity P-wave (km/s) = 3.77332 5.76155 4.86998
#
# Compressibility (1/GPa) = 0.11049189
#
# Stress axis : x y z
#
# Youngs Moduli (GPa) = 56.25833 94.49588 10.48643
#
# Poissons Ratio (x) = 0.58853 -0.16118
# Poissons Ratio (y) = 0.35039 0.16522
# Poissons Ratio (z) = -0.86470 1.48883
#
# Static dielectric constant tensor:
#      x y z
#    x 4.086950 0.000000 0.000000 
#    y 0.000000 4.372670 0.000000 
#    z 0.000000 0.000000 3.695670 
# 
# 
# High freq. dielectric constant tensor:
#      x y z
#    x 1.882180 0.000000 0.000000 
#    y 0.000000 1.900550 0.000000 
#    z 0.000000 0.000000 1.852040 
# 
# From -- ./inp_files/9058.got.cif
#   From: 2010.03.12/outbox.cif.g09.slc.cpg/sg61_5_cif.got.tgz:9058.got - 2010.04.10 19:05:03.
