data_PCOD8249344
_publ_section_title
;
Structure prediction by ZEFSAII (Michael W. Deem and Ramdas Pophale) SiO2 
 PCOD8249344
Probable space group: P B C A
;
_chemical_formula_sum "Si O2"
_cell_formula_units_Z 40
_cell_length_a 11.795224
_cell_length_b 11.377124
_cell_length_c 13.290140
_cell_angle_alpha 90.000000
_cell_angle_beta 90.000000
_cell_angle_gamma 90.000000
_cell_volume 1783.479987
_symmetry_space_group_name_H-M "P B C A"
_symmetry_group_IT_number 61
_symmetry_cell_setting 'orthorhombic'
loop_
_space_group_symop_operation_xyz
x,y,z
1/2-x,-y,1/2+z
1/2+x,1/2-y,-z
-x,1/2+y,1/2-z
-x,-y,-z
1/2+x,y,1/2-z
1/2-x,1/2+y,z
x,1/2-y,1/2+z
loop_
_atom_site_type_symbol
_atom_site_label
_atom_site_fract_x
_atom_site_fract_y
_atom_site_fract_z
Si Si1 0.835619 0.621629 0.860156
Si Si2 0.114927 0.235666 0.962167
Si Si3 0.982479 0.556252 0.158914
Si Si4 0.302065 0.362392 0.329857
Si Si5 0.507854 0.689612 0.151320
O O1 0.803773 0.680776 0.967658
O O2 0.728249 0.611369 0.786749
O O3 0.928721 0.705079 0.804821
O O4 0.897283 0.495974 0.879291
O O5 0.030123 0.162076 0.035952
O O6 0.036631 0.318786 0.893470
O O7 0.189223 0.143914 0.898439
O O8 0.880413 0.468121 0.131218
O O9 0.991878 0.574901 0.279586
O O10 0.362927 0.235856 0.340478
#
# Coordination Sequence:
#
# PCOD8249344 Si02
#       5
#     8   8   8   8   8
#     4   9  22  40  63  95 124 173 213 264 330 380
#     4  10  21  44  62  97 127 170 218 270 319 387
#     4  11  22  42  65  93 132 172 218 270 328 388
#     4  11  23  41  67  96 130 179 213 267 334 389
#     4   9  23  41  63  93 133 167 215 278 311 389
#
# _framework density 22.428062000000001
#
# number of rings (size 3 to 8) (size 9 to 14) (size 15 to 20)
#    1.200    0.800    2.000    0.600    2.800    3.200 
#    0.000    1.000    0.000    0.000    0.000    0.000 
#    0.000    0.000    0.000    0.000    0.000    0.000 
#
# Total GULP energy -495695.329729 kJ/mol
# GULP energy per Si atom -12392.383243 kJ/mol
# Density = 2.237701 g / cm^3
# Si number density = 22.428062 Si / 1000 Ang^3
#
#
#
# Elastic Constant Matrix: (Units=GPa)
#
#
# Indices 1 2 3 4 5 6 
#
# 1 60.9502 6.0994 16.0993 0.0000 0.0000 0.0000
# 2 6.0994 50.5314 13.7089 0.0000 0.0000 0.0000
# 3 16.0993 13.7089 92.6030 0.0000 0.0000 0.0000
# 4 0.0000 0.0000 0.0000 32.7487 0.0000 0.0000
# 5 0.0000 0.0000 0.0000 0.0000 24.9312 0.0000
# 6 0.0000 0.0000 0.0000 0.0000 0.0000 23.6506
#
#
#
# Elastic Compliance Matrix: (Units=1/GPa)
#
#
# Indices 1 2 3 4 5 6 
#
# 1 0.017281 -0.001324 -0.002808 0.000000 0.000000 0.000000
# 2 -0.001324 0.020719 -0.002837 0.000000 0.000000 0.000000
# 3 -0.002808 -0.002837 0.011707 0.000000 0.000000 0.000000
# 4 0.000000 0.000000 0.000000 0.030536 0.000000 0.000000
# 5 0.000000 0.000000 0.000000 0.000000 0.040110 0.000000
# 6 0.000000 0.000000 0.000000 0.000000 0.000000 0.042282
#
#
# Mechanical properties :
#
#
# Convention : Reuss Voigt Hill
#
# Bulk Modulus (GPa) = 27.95764 30.65554 29.30659
# Shear Modulus (GPa) = 26.52560 27.47791 27.00175
#
# Velocity S-wave (km/s) = 3.44277 3.50402 3.47353
# Velocity P-wave (km/s) = 5.31940 5.48352 5.40208
#
# Compressibility (1/GPa) = 0.03576839
#
# Stress axis : x y z
#
# Youngs Moduli (GPa) = 57.86661 48.26449 85.41881
#
# Poissons Ratio (x) = 0.06390 0.23989
# Poissons Ratio (y) = 0.07662 0.24234
# Poissons Ratio (z) = 0.16251 0.13693
#
# Static dielectric constant tensor:
#      x y z
#    x 3.689660 0.000000 0.000000 
#    y 0.000000 3.609100 0.000000 
#    z 0.000000 0.000000 3.899180 
# 
# 
# High freq. dielectric constant tensor:
#      x y z
#    x 1.860270 0.000000 0.000000 
#    y 0.000000 1.855960 0.000000 
#    z 0.000000 0.000000 1.886850 
# 
# From -- ./inp_files/7367.got.cif
#   From: 2010.03.12/outbox.cif.g09.slc.cpg/sg61_4_cif.got.tgz:7367.got - 2010.04.10 19:05:03.
