data_PCOD8249074
_publ_section_title
;
Structure prediction by ZEFSAII (Michael W. Deem and Ramdas Pophale) SiO2 
 PCOD8249074
Probable space group: P B C A
;
_chemical_formula_sum "Si O2"
_cell_formula_units_Z 48
_cell_length_a 8.413867
_cell_length_b 22.592870
_cell_length_c 12.845810
_cell_angle_alpha 90.000000
_cell_angle_beta 90.000000
_cell_angle_gamma 90.000000
_cell_volume 2441.903741
_symmetry_space_group_name_H-M "P B C A"
_symmetry_group_IT_number 61
_symmetry_cell_setting 'orthorhombic'
loop_
_space_group_symop_operation_xyz
x,y,z
1/2-x,-y,1/2+z
1/2+x,1/2-y,-z
-x,1/2+y,1/2-z
-x,-y,-z
1/2+x,y,1/2-z
1/2-x,1/2+y,z
x,1/2-y,1/2+z
loop_
_atom_site_type_symbol
_atom_site_label
_atom_site_fract_x
_atom_site_fract_y
_atom_site_fract_z
Si Si1 0.815677 0.873674 0.778908
Si Si2 0.521189 0.183298 0.803390
Si Si3 0.657313 0.665712 0.892406
Si Si4 0.600356 0.072384 0.911891
Si Si5 0.098868 0.803269 0.874204
Si Si6 0.032992 0.944366 0.638859
O O1 0.744752 0.833822 0.685881
O O2 0.680255 0.899035 0.854586
O O3 0.932897 0.834715 0.848253
O O4 0.908630 0.929296 0.729668
O O5 0.499078 0.171387 0.679490
O O6 0.703220 0.201145 0.829931
O O7 0.480697 0.121242 0.862201
O O8 0.405075 0.234704 0.842651
O O9 0.717927 0.597658 0.907450
O O10 0.626055 0.695475 0.002742
O O11 0.591704 0.011712 0.846745
O O12 0.554386 0.062445 0.030216
#
# Coordination Sequence:
#
# PCOD8249074 Si02
#       6
#     8   8   8   8   8   8
#     4  10  22  37  63  92 114 167 193 248 304 361
#     4  10  23  38  63  85 119 160 193 249 301 353
#     4  10  23  41  58  93 118 155 202 245 300 354
#     4   9  22  40  59  86 119 162 198 253 297 356
#     4  11  22  42  61  90 126 151 204 245 300 369
#     4  10  20  40  62  84 125 155 206 248 299 361
#
# _framework density 19.656794000000001
#
# number of rings (size 3 to 8) (size 9 to 14) (size 15 to 20)
#    1.000    1.000    1.667    1.000    2.333    8.000 
#    0.000    0.833    0.000    0.000    0.000    0.000 
#    0.000    0.000    0.000    0.000    0.000    0.000 
#
# Total GULP energy -594926.578750 kJ/mol
# GULP energy per Si atom -12394.303724 kJ/mol
# Density = 1.961205 g / cm^3
# Si number density = 19.656794 Si / 1000 Ang^3
#
#
#
# Elastic Constant Matrix: (Units=GPa)
#
#
# Indices 1 2 3 4 5 6 
#
# 1 81.0529 18.7493 41.7016 0.0000 0.0000 0.0000
# 2 18.7493 110.0956 38.7229 0.0000 0.0000 0.0000
# 3 41.7016 38.7229 115.2365 0.0000 0.0000 0.0000
# 4 0.0000 0.0000 0.0000 26.6358 0.0000 0.0000
# 5 0.0000 0.0000 0.0000 0.0000 35.3243 0.0000
# 6 0.0000 0.0000 0.0000 0.0000 0.0000 11.9102
#
#
#
# Elastic Compliance Matrix: (Units=1/GPa)
#
#
# Indices 1 2 3 4 5 6 
#
# 1 0.015214 -0.000742 -0.005256 0.000000 0.000000 0.000000
# 2 -0.000742 0.010337 -0.003205 0.000000 0.000000 0.000000
# 3 -0.005256 -0.003205 0.011657 0.000000 0.000000 0.000000
# 4 0.000000 0.000000 0.000000 0.037544 0.000000 0.000000
# 5 0.000000 0.000000 0.000000 0.000000 0.028309 0.000000
# 6 0.000000 0.000000 0.000000 0.000000 0.000000 0.083962
#
#
# Mechanical properties :
#
#
# Convention : Reuss Voigt Hill
#
# Bulk Modulus (GPa) = 53.18931 56.08141 54.63536
# Shear Modulus (GPa) = 23.61895 28.58812 26.10353
#
# Velocity S-wave (km/s) = 3.47012 3.81775 3.64808
# Velocity P-wave (km/s) = 6.57065 6.93007 6.75275
#
# Compressibility (1/GPa) = 0.01880077
#
# Stress axis : x y z
#
# Youngs Moduli (GPa) = 65.73092 96.74346 85.78707
#
# Poissons Ratio (x) = 0.07180 0.45090
# Poissons Ratio (y) = 0.04879 0.27493
# Poissons Ratio (z) = 0.34548 0.31005
#
# Static dielectric constant tensor:
#      x y z
#    x 3.484800 0.000000 0.000000 
#    y 0.000000 3.674620 0.000000 
#    z 0.000000 0.000000 3.417060 
# 
# 
# High freq. dielectric constant tensor:
#      x y z
#    x 1.753250 0.000000 0.000000 
#    y 0.000000 1.768410 0.000000 
#    z 0.000000 0.000000 1.765680 
# 
# From -- ./inp_files/4859.got.cif
#   From: 2010.03.12/outbox.cif.g09.slc.cpg/sg61_3_cif.got.tgz:4859.got - 2010.04.10 19:05:03.
