data_PCOD8249172
_publ_section_title
;
Structure prediction by ZEFSAII (Michael W. Deem and Ramdas Pophale) SiO2 
 PCOD8249172
Probable space group: P B C A
;
_chemical_formula_sum "Si O2"
_cell_formula_units_Z 40
_cell_length_a 14.285093
_cell_length_b 24.062747
_cell_length_c 4.951056
_cell_angle_alpha 90.000000
_cell_angle_beta 90.000000
_cell_angle_gamma 90.000000
_cell_volume 1701.868953
_symmetry_space_group_name_H-M "P B C A"
_symmetry_group_IT_number 61
_symmetry_cell_setting 'orthorhombic'
loop_
_space_group_symop_operation_xyz
x,y,z
1/2-x,-y,1/2+z
1/2+x,1/2-y,-z
-x,1/2+y,1/2-z
-x,-y,-z
1/2+x,y,1/2-z
1/2-x,1/2+y,z
x,1/2-y,1/2+z
loop_
_atom_site_type_symbol
_atom_site_label
_atom_site_fract_x
_atom_site_fract_y
_atom_site_fract_z
Si Si1 0.230783 0.613037 0.878979
Si Si2 0.537410 0.895584 0.935284
Si Si3 0.886036 0.212788 0.622850
Si Si4 0.567163 0.434899 0.068133
Si Si5 0.301017 0.474798 0.977094
O O1 0.214055 0.679748 0.885952
O O2 0.207985 0.589020 0.576249
O O3 0.147327 0.585096 0.067485
O O4 0.335035 0.598747 0.964535
O O5 0.532544 0.831468 0.042534
O O6 0.472241 0.931872 0.129866
O O7 0.503294 0.904074 0.632219
O O8 0.894161 0.265400 0.427160
O O9 0.590860 0.500811 0.018666
O O10 0.246559 0.514390 0.190838
#
# Coordination Sequence:
#
# PCOD8249172 Si02
#       5
#     8   8   8   8   8
#     4   9  24  41  65  91 131 162 207 256 308 367
#     4  10  24  38  65  90 123 164 208 255 306 365
#     4  10  22  43  63  86 124 161 207 267 313 352
#     4  11  21  41  63  95 127 163 206 248 310 384
#     4  10  21  37  62  94 131 167 196 254 306 368
#
# _framework density 23.503571000000001
#
# number of rings (size 3 to 8) (size 9 to 14) (size 15 to 20)
#    1.200    0.800    0.000    3.600    0.000   11.200 
#    0.000    6.000    0.000    0.000    0.000    0.000 
#    0.000    0.000    0.000    0.000    0.000    0.000 
#
# Total GULP energy -495586.895850 kJ/mol
# GULP energy per Si atom -12389.672396 kJ/mol
# Density = 2.345008 g / cm^3
# Si number density = 23.503571 Si / 1000 Ang^3
#
#
#
# Elastic Constant Matrix: (Units=GPa)
#
#
# Indices 1 2 3 4 5 6 
#
# 1 96.6900 4.9803 33.3403 0.0000 0.0000 0.0000
# 2 4.9803 96.4152 11.9941 0.0000 0.0000 0.0000
# 3 33.3403 11.9941 54.8250 0.0000 0.0000 0.0000
# 4 0.0000 0.0000 0.0000 40.5904 0.0000 0.0000
# 5 0.0000 0.0000 0.0000 0.0000 38.9327 0.0000
# 6 0.0000 0.0000 0.0000 0.0000 0.0000 35.6929
#
#
#
# Elastic Compliance Matrix: (Units=1/GPa)
#
#
# Indices 1 2 3 4 5 6 
#
# 1 0.013096 0.000323 -0.008035 0.000000 0.000000 0.000000
# 2 0.000323 0.010670 -0.002531 0.000000 0.000000 0.000000
# 3 -0.008035 -0.002531 0.023680 0.000000 0.000000 0.000000
# 4 0.000000 0.000000 0.000000 0.024636 0.000000 0.000000
# 5 0.000000 0.000000 0.000000 0.000000 0.025685 0.000000
# 6 0.000000 0.000000 0.000000 0.000000 0.000000 0.028017
#
#
# Mechanical properties :
#
#
# Convention : Reuss Voigt Hill
#
# Bulk Modulus (GPa) = 37.09077 38.72885 37.90981
# Shear Modulus (GPa) = 32.20485 36.21757 34.21121
#
# Velocity S-wave (km/s) = 3.70565 3.92974 3.81934
# Velocity P-wave (km/s) = 5.84160 6.09131 5.96776
#
# Compressibility (1/GPa) = 0.02696088
#
# Stress axis : x y z
#
# Youngs Moduli (GPa) = 76.35797 93.72121 42.23038
#
# Poissons Ratio (x) = -0.03028 0.33931
# Poissons Ratio (y) = -0.02467 0.10687
# Poissons Ratio (z) = 0.61352 0.23718
#
# Static dielectric constant tensor:
#      x y z
#    x 4.260680 0.000000 0.000000 
#    y 0.000000 4.156220 0.000000 
#    z 0.000000 0.000000 4.179690 
# 
# 
# High freq. dielectric constant tensor:
#      x y z
#    x 1.928660 0.000000 0.000000 
#    y 0.000000 1.922230 0.000000 
#    z 0.000000 0.000000 1.944390 
# 
# From -- ./inp_files/444.got.cif
#   From: 2010.03.12/outbox.cif.g09.slc.cpg/sg61_1_cif.got.tgz:444.got - 2010.04.10 19:05:03.
