data_PCOD8249400
_publ_section_title
;
Structure prediction by ZEFSAII (Michael W. Deem and Ramdas Pophale) SiO2 
 PCOD8249400
Probable space group: P B C A
;
_chemical_formula_sum "Si O2"
_cell_formula_units_Z 64
_cell_length_a 17.102595
_cell_length_b 20.085150
_cell_length_c 8.838636
_cell_angle_alpha 90.000000
_cell_angle_beta 90.000000
_cell_angle_gamma 90.000000
_cell_volume 3036.143819
_symmetry_space_group_name_H-M "P B C A"
_symmetry_group_IT_number 61
_symmetry_cell_setting 'orthorhombic'
loop_
_space_group_symop_operation_xyz
x,y,z
1/2-x,-y,1/2+z
1/2+x,1/2-y,-z
-x,1/2+y,1/2-z
-x,-y,-z
1/2+x,y,1/2-z
1/2-x,1/2+y,z
x,1/2-y,1/2+z
loop_
_atom_site_type_symbol
_atom_site_label
_atom_site_fract_x
_atom_site_fract_y
_atom_site_fract_z
Si Si1 0.544031 0.808448 0.705773
Si Si2 0.708576 0.442969 0.168355
Si Si3 0.792968 0.701755 0.605065
Si Si4 0.548501 0.436886 0.315923
Si Si5 0.028353 0.309935 0.385237
Si Si6 0.719800 0.811778 0.791821
Si Si7 0.459262 0.928904 0.838353
Si Si8 0.299652 0.555211 0.187119
O O1 0.489874 0.751712 0.776865
O O2 0.530614 0.811606 0.526050
O O3 0.633894 0.791493 0.738635
O O4 0.526076 0.879264 0.781441
O O5 0.726475 0.365158 0.201265
O O6 0.630681 0.465286 0.256135
O O7 0.780651 0.486123 0.229782
O O8 0.698207 0.456131 0.991209
O O9 0.883201 0.696672 0.552025
O O10 0.782614 0.767307 0.703320
O O11 0.732693 0.704829 0.467033
O O12 0.517425 0.377171 0.211439
O O13 0.559552 0.412062 0.487554
O O14 0.485293 0.495346 0.313259
O O15 0.735645 0.889815 0.763750
O O16 0.383073 0.917023 0.737742
#
# Coordination Sequence:
#
# PCOD8249400 Si02
#       8
#     8   8   8   8   8   8   8   8
#     4  12  24  40  63  92 126 162 208 261 315 375
#     4  10  22  40  61  90 123 159 206 257 310 376
#     4  10  22  41  62  87 122 161 204 252 307 371
#     4  10  23  41  62  89 122 160 207 260 315 375
#     4  11  23  41  65  92 124 165 211 259 315 381
#     4  11  24  40  61  90 124 159 202 255 308 368
#     4  11  23  40  63  89 123 166 207 258 318 375
#     4  11  23  39  63  90 124 165 207 256 314 379
#
# _framework density 21.079370999999998
#
# number of rings (size 3 to 8) (size 9 to 14) (size 15 to 20)
#    0.000    1.250    0.000    6.750    0.000   11.000 
#    0.000    0.000    0.000    0.000    0.000    0.000 
#    0.000    0.000    0.000    0.000    0.000    0.000 
#
# Total GULP energy -793972.928715 kJ/mol
# GULP energy per Si atom -12405.827011 kJ/mol
# Density = 2.103139 g / cm^3
# Si number density = 21.079371 Si / 1000 Ang^3
#
#
#
# Elastic Constant Matrix: (Units=GPa)
#
#
# Indices 1 2 3 4 5 6 
#
# 1 83.4797 28.2164 38.2226 0.0000 0.0000 0.0000
# 2 28.2164 81.8742 49.7263 0.0000 0.0000 0.0000
# 3 38.2226 49.7263 129.2875 0.0000 0.0000 0.0000
# 4 0.0000 0.0000 0.0000 34.6245 0.0000 0.0000
# 5 0.0000 0.0000 0.0000 0.0000 35.0080 0.0000
# 6 0.0000 0.0000 0.0000 0.0000 0.0000 31.0437
#
#
#
# Elastic Compliance Matrix: (Units=1/GPa)
#
#
# Indices 1 2 3 4 5 6 
#
# 1 0.014437 -0.003109 -0.003072 0.000000 0.000000 0.000000
# 2 -0.003109 0.016606 -0.005468 0.000000 0.000000 0.000000
# 3 -0.003072 -0.005468 0.010746 0.000000 0.000000 0.000000
# 4 0.000000 0.000000 0.000000 0.028881 0.000000 0.000000
# 5 0.000000 0.000000 0.000000 0.000000 0.028565 0.000000
# 6 0.000000 0.000000 0.000000 0.000000 0.000000 0.032213
#
#
# Mechanical properties :
#
#
# Convention : Reuss Voigt Hill
#
# Bulk Modulus (GPa) = 54.08285 58.55244 56.31765
# Shear Modulus (GPa) = 31.07330 32.03364 31.55347
#
# Velocity S-wave (km/s) = 3.84358 3.90252 3.87316
# Velocity P-wave (km/s) = 6.73869 6.93856 6.83936
#
# Compressibility (1/GPa) = 0.01849015
#
# Stress axis : x y z
#
# Youngs Moduli (GPa) = 69.26852 60.21792 93.05829
#
# Poissons Ratio (x) = 0.18725 0.28588
# Poissons Ratio (y) = 0.21539 0.50883
# Poissons Ratio (z) = 0.21280 0.32926
#
# Static dielectric constant tensor:
#      x y z
#    x 3.607640 0.000000 0.000000 
#    y 0.000000 3.899590 0.000000 
#    z 0.000000 0.000000 3.806650 
# 
# 
# High freq. dielectric constant tensor:
#      x y z
#    x 1.823110 0.000000 0.000000 
#    y 0.000000 1.838760 0.000000 
#    z 0.000000 0.000000 1.833670 
# 
# From -- ./inp_files/3716.got.cif
#   From: 2010.03.12/outbox.cif.g09.slc.cpg/sg61_2_cif.got.tgz:3716.got - 2010.04.10 19:05:03.
