data_PCOD8249613
_publ_section_title
;
Structure prediction by ZEFSAII (Michael W. Deem and Ramdas Pophale) SiO2 
 PCOD8249613
Probable space group: P B C A
;
_chemical_formula_sum "Si O2"
_cell_formula_units_Z 40
_cell_length_a 9.459950
_cell_length_b 8.741434
_cell_length_c 19.393563
_cell_angle_alpha 90.000000
_cell_angle_beta 90.000000
_cell_angle_gamma 90.000000
_cell_volume 1603.722156
_symmetry_space_group_name_H-M "P B C A"
_symmetry_group_IT_number 61
_symmetry_cell_setting 'orthorhombic'
loop_
_space_group_symop_operation_xyz
x,y,z
1/2-x,-y,1/2+z
1/2+x,1/2-y,-z
-x,1/2+y,1/2-z
-x,-y,-z
1/2+x,y,1/2-z
1/2-x,1/2+y,z
x,1/2-y,1/2+z
loop_
_atom_site_type_symbol
_atom_site_label
_atom_site_fract_x
_atom_site_fract_y
_atom_site_fract_z
Si Si1 0.645456 0.622673 0.718197
Si Si2 0.561793 0.230114 0.888666
Si Si3 0.049853 0.730210 0.037733
Si Si4 0.570502 0.222917 0.186942
Si Si5 0.726355 0.501419 0.918335
O O1 0.583066 0.704124 0.649877
O O2 0.811990 0.655273 0.712112
O O3 0.576865 0.709995 0.783555
O O4 0.612011 0.442302 0.717685
O O5 0.626060 0.396120 0.870412
O O6 0.678580 0.103148 0.866087
O O7 0.547790 0.214073 0.971183
O O8 0.126405 0.894612 0.033973
O O9 0.170722 0.600946 0.034503
O O10 0.949268 0.712417 0.104624
#
# Coordination Sequence:
#
# PCOD8249613 Si02
#       5
#     8   8   8   8   8
#     4  12  30  49  75 105 146 191 242 297 360 431
#     4  11  25  44  74 105 144 188 242 297 359 423
#     4  11  25  44  74 105 144 188 242 297 359 423
#     4  12  30  49  75 105 146 191 242 297 360 431
#     4  10  24  42  72 104 146 186 238 296 364 418
#
# _framework density 24.941977999999999
#
# number of rings (size 3 to 8) (size 9 to 14) (size 15 to 20)
#    0.000    0.800    2.000    2.400   16.800    0.000 
#    0.000    0.000    0.000    0.000    0.000    0.000 
#    0.000    0.000    0.000    0.000    0.000    0.000 
#
# Total GULP energy -496048.510329 kJ/mol
# GULP energy per Si atom -12401.212758 kJ/mol
# Density = 2.488521 g / cm^3
# Si number density = 24.941978 Si / 1000 Ang^3
#
#
#
# Elastic Constant Matrix: (Units=GPa)
#
#
# Indices 1 2 3 4 5 6 
#
# 1 96.4985 26.4627 4.8532 0.0000 0.0000 0.0000
# 2 26.4627 145.1929 -2.1810 0.0000 0.0000 0.0000
# 3 4.8532 -2.1810 106.5917 0.0000 0.0000 0.0000
# 4 0.0000 0.0000 0.0000 18.3588 0.0000 0.0000
# 5 0.0000 0.0000 0.0000 0.0000 16.0790 0.0000
# 6 0.0000 0.0000 0.0000 0.0000 0.0000 40.7661
#
#
#
# Elastic Compliance Matrix: (Units=1/GPa)
#
#
# Indices 1 2 3 4 5 6 
#
# 1 0.010939 -0.002002 -0.000539 0.000000 0.000000 0.000000
# 2 -0.002002 0.007256 0.000240 0.000000 0.000000 0.000000
# 3 -0.000539 0.000240 0.009411 0.000000 0.000000 0.000000
# 4 0.000000 0.000000 0.000000 0.054470 0.000000 0.000000
# 5 0.000000 0.000000 0.000000 0.000000 0.062193 0.000000
# 6 0.000000 0.000000 0.000000 0.000000 0.000000 0.024530
#
#
# Mechanical properties :
#
#
# Convention : Reuss Voigt Hill
#
# Bulk Modulus (GPa) = 43.47194 45.17255 44.32224
# Shear Modulus (GPa) = 27.61379 36.31733 31.96556
#
# Velocity S-wave (km/s) = 3.33095 3.81999 3.58382
# Velocity P-wave (km/s) = 5.67985 6.13244 5.91048
#
# Compressibility (1/GPa) = 0.02300335
#
# Stress axis : x y z
#
# Youngs Moduli (GPa) = 91.41669 137.82011 106.25817
#
# Poissons Ratio (x) = 0.27589 0.05728
# Poissons Ratio (y) = 0.18300 -0.02546
# Poissons Ratio (z) = 0.04928 -0.03302
#
# Static dielectric constant tensor:
#      x y z
#    x 4.467670 0.000000 0.000000 
#    y 0.000000 4.895900 0.000000 
#    z 0.000000 0.000000 4.100420 
# 
# 
# High freq. dielectric constant tensor:
#      x y z
#    x 2.002980 0.000000 0.000000 
#    y 0.000000 2.017880 0.000000 
#    z 0.000000 0.000000 1.975990 
# 
# From -- ./inp_files/9116.got.cif
#   From: 2010.03.12/outbox.cif.g09.slc.cpg/sg61_5_cif.got.tgz:9116.got - 2010.04.10 19:05:03.
