data_PCOD8249171
_publ_section_title
;
Structure prediction by ZEFSAII (Michael W. Deem and Ramdas Pophale) SiO2 
 PCOD8249171
Probable space group: P B C A
;
_chemical_formula_sum "Si O2"
_cell_formula_units_Z 48
_cell_length_a 7.086351
_cell_length_b 9.077101
_cell_length_c 23.968389
_cell_angle_alpha 90.000000
_cell_angle_beta 90.000000
_cell_angle_gamma 90.000000
_cell_volume 1541.731239
_symmetry_space_group_name_H-M "P B C A"
_symmetry_group_IT_number 61
_symmetry_cell_setting 'orthorhombic'
loop_
_space_group_symop_operation_xyz
x,y,z
1/2-x,-y,1/2+z
1/2+x,1/2-y,-z
-x,1/2+y,1/2-z
-x,-y,-z
1/2+x,y,1/2-z
1/2-x,1/2+y,z
x,1/2-y,1/2+z
loop_
_atom_site_type_symbol
_atom_site_label
_atom_site_fract_x
_atom_site_fract_y
_atom_site_fract_z
Si Si1 0.368716 0.608825 0.594105
Si Si2 0.890937 0.313391 0.312465
Si Si3 0.588907 0.118517 0.262947
Si Si4 0.219406 0.111482 0.027474
Si Si5 0.309184 0.238664 0.345911
Si Si6 0.890850 0.539674 0.585631
O O1 0.166150 0.606706 0.629061
O O2 0.399531 0.447836 0.563933
O O3 0.537984 0.634501 0.637646
O O4 0.355272 0.730641 0.545348
O O5 0.722365 0.194829 0.308027
O O6 0.891609 0.440874 0.263572
O O7 0.077209 0.197215 0.299393
O O8 0.372673 0.165107 0.284850
O O9 0.077050 0.978523 0.047448
O O10 0.256307 0.107416 0.960519
O O11 0.116783 0.344412 0.359579
O O12 0.319205 0.115650 0.392826
#
# Coordination Sequence:
#
# PCOD8249171 Si02
#       6
#     8   8   8   8   8   8
#     4  10  21  39  61  90 125 163 210 263 325 391
#     4  11  23  43  67  96 133 174 225 277 335 401
#     4  11  25  44  68  96 130 174 223 278 338 400
#     4  10  21  37  62  91 124 166 209 265 326 388
#     4  10  23  40  60  89 125 164 211 266 323 389
#     4  10  21  39  60  90 127 163 212 264 321 393
#
# _framework density 31.13383
#
# number of rings (size 3 to 8) (size 9 to 14) (size 15 to 20)
#    0.000    1.667    0.000    5.000    0.000    7.333 
#    0.000    3.333    0.000    0.000    0.000    0.000 
#    0.000    0.000    0.000    0.000    0.000    0.000 
#
# Total GULP energy -594909.404904 kJ/mol
# GULP energy per Si atom -12393.945936 kJ/mol
# Density = 3.106297 g / cm^3
# Si number density = 31.133830 Si / 1000 Ang^3
#
#
#
# Elastic Constant Matrix: (Units=GPa)
#
#
# Indices 1 2 3 4 5 6 
#
# 1 113.6692 9.7290 5.0529 0.0000 0.0000 0.0000
# 2 9.7290 117.6906 15.2257 0.0000 0.0000 0.0000
# 3 5.0529 15.2257 116.7612 0.0000 0.0000 0.0000
# 4 0.0000 0.0000 0.0000 56.4844 0.0000 0.0000
# 5 0.0000 0.0000 0.0000 0.0000 22.2824 0.0000
# 6 0.0000 0.0000 0.0000 0.0000 0.0000 40.2132
#
#
#
# Elastic Compliance Matrix: (Units=1/GPa)
#
#
# Indices 1 2 3 4 5 6 
#
# 1 0.008870 -0.000695 -0.000293 0.000000 0.000000 0.000000
# 2 -0.000695 0.008697 -0.001104 0.000000 0.000000 0.000000
# 3 -0.000293 -0.001104 0.008721 0.000000 0.000000 0.000000
# 4 0.000000 0.000000 0.000000 0.017704 0.000000 0.000000
# 5 0.000000 0.000000 0.000000 0.000000 0.044879 0.000000
# 6 0.000000 0.000000 0.000000 0.000000 0.000000 0.024867
#
#
# Mechanical properties :
#
#
# Convention : Reuss Voigt Hill
#
# Bulk Modulus (GPa) = 45.24218 45.34845 45.29532
# Shear Modulus (GPa) = 39.90706 45.00355 42.45530
#
# Velocity S-wave (km/s) = 3.58409 3.80608 3.69675
# Velocity P-wave (km/s) = 5.62945 5.82342 5.72726
#
# Compressibility (1/GPa) = 0.02210327
#
# Stress axis : x y z
#
# Youngs Moduli (GPa) = 112.73952 114.98002 114.66388
#
# Poissons Ratio (x) = 0.07995 0.03362
# Poissons Ratio (y) = 0.07839 0.12659
# Poissons Ratio (z) = 0.03305 0.12694
#
# Static dielectric constant tensor:
#      x y z
#    x 7.160020 0.000000 0.000000 
#    y 0.000000 5.427780 0.000000 
#    z 0.000000 0.000000 6.111850 
# 
# 
# High freq. dielectric constant tensor:
#      x y z
#    x 2.352260 0.000000 0.000000 
#    y 0.000000 2.273450 0.000000 
#    z 0.000000 0.000000 2.317420 
# 
# From -- ./inp_files/11670.got.cif
#   From: 2010.03.12/outbox.cif.g09.slc.cpg/sg61_6_cif.got.tgz:11670.got - 2010.04.10 19:05:03.
