data_PCOD8249508
_publ_section_title
;
Structure prediction by ZEFSAII (Michael W. Deem and Ramdas Pophale) SiO2 
 PCOD8249508
Probable space group: P B C A
;
_chemical_formula_sum "Si O2"
_cell_formula_units_Z 48
_cell_length_a 11.408745
_cell_length_b 10.172573
_cell_length_c 22.155871
_cell_angle_alpha 90.000000
_cell_angle_beta 90.000000
_cell_angle_gamma 90.000000
_cell_volume 2571.328220
_symmetry_space_group_name_H-M "P B C A"
_symmetry_group_IT_number 61
_symmetry_cell_setting 'orthorhombic'
loop_
_space_group_symop_operation_xyz
x,y,z
1/2-x,-y,1/2+z
1/2+x,1/2-y,-z
-x,1/2+y,1/2-z
-x,-y,-z
1/2+x,y,1/2-z
1/2-x,1/2+y,z
x,1/2-y,1/2+z
loop_
_atom_site_type_symbol
_atom_site_label
_atom_site_fract_x
_atom_site_fract_y
_atom_site_fract_z
Si Si1 0.393604 0.533414 0.575034
Si Si2 0.848099 0.956066 0.560505
Si Si3 0.968190 0.764607 0.848907
Si Si4 0.206499 0.304691 0.242486
Si Si5 0.778371 0.948517 0.822709
Si Si6 0.270500 0.282954 0.373688
O O1 0.328313 0.533567 0.510981
O O2 0.513657 0.450211 0.574188
O O3 0.422409 0.683666 0.592921
O O4 0.308710 0.463228 0.621732
O O5 0.786685 0.080692 0.591503
O O6 0.791218 0.821419 0.583242
O O7 0.923412 0.686141 0.788487
O O8 0.107150 0.777212 0.849813
O O9 0.907485 0.909241 0.849004
O O10 0.288207 0.422921 0.218730
O O11 0.192017 0.309109 0.314486
O O12 0.268228 0.169775 0.220087
#
# Coordination Sequence:
#
# PCOD8249508 Si02
#       6
#     8   8   8   8   8   8
#     4   9  19  41  59  79 114 158 195 228 302 342
#     4  10  23  36  60  83 118 154 188 246 287 348
#     4   8  20  37  58  78 117 146 191 241 278 344
#     4   9  19  35  55  82 112 147 187 231 290 338
#     4   9  18  37  59  82 106 156 188 238 278 346
#     4  11  21  40  54  89 117 149 192 242 291 348
#
# _framework density 18.667394000000002
#
# number of rings (size 3 to 8) (size 9 to 14) (size 15 to 20)
#    1.000    1.667    0.000    1.000    2.333    1.333 
#   12.000    0.833    0.000    0.000    0.000    0.000 
#    0.000    0.000    0.000    0.000    0.000    0.000 
#
# Total GULP energy -594874.327018 kJ/mol
# GULP energy per Si atom -12393.215146 kJ/mol
# Density = 1.862491 g / cm^3
# Si number density = 18.667394 Si / 1000 Ang^3
#
#
#
# Elastic Constant Matrix: (Units=GPa)
#
#
# Indices 1 2 3 4 5 6 
#
# 1 50.3255 11.7886 29.0548 0.0000 0.0000 0.0000
# 2 11.7886 75.1968 37.6957 0.0000 0.0000 0.0000
# 3 29.0548 37.6957 139.6348 0.0000 0.0000 0.0000
# 4 0.0000 0.0000 0.0000 27.3104 0.0000 0.0000
# 5 0.0000 0.0000 0.0000 0.0000 23.0364 0.0000
# 6 0.0000 0.0000 0.0000 0.0000 0.0000 28.1520
#
#
#
# Elastic Compliance Matrix: (Units=1/GPa)
#
#
# Indices 1 2 3 4 5 6 
#
# 1 0.022706 -0.001378 -0.004353 0.000000 0.000000 0.000000
# 2 -0.001378 0.015463 -0.003888 0.000000 0.000000 0.000000
# 3 -0.004353 -0.003888 0.009117 0.000000 0.000000 0.000000
# 4 0.000000 0.000000 0.000000 0.036616 0.000000 0.000000
# 5 0.000000 0.000000 0.000000 0.000000 0.043410 0.000000
# 6 0.000000 0.000000 0.000000 0.000000 0.000000 0.035521
#
#
# Mechanical properties :
#
#
# Convention : Reuss Voigt Hill
#
# Bulk Modulus (GPa) = 35.65058 46.91505 41.28281
# Shear Modulus (GPa) = 26.12055 28.14096 27.13076
#
# Velocity S-wave (km/s) = 3.74473 3.88686 3.81645
# Velocity P-wave (km/s) = 6.15114 6.73277 6.44852
#
# Compressibility (1/GPa) = 0.02805004
#
# Stress axis : x y z
#
# Youngs Moduli (GPa) = 44.04046 64.66902 109.68760
#
# Poissons Ratio (x) = 0.08909 0.47744
# Poissons Ratio (y) = 0.06067 0.42645
# Poissons Ratio (z) = 0.19170 0.25142
#
# Static dielectric constant tensor:
#      x y z
#    x 3.198000 0.000000 0.000000 
#    y 0.000000 3.322050 0.000000 
#    z 0.000000 0.000000 3.461670 
# 
# 
# High freq. dielectric constant tensor:
#      x y z
#    x 1.705080 0.000000 0.000000 
#    y 0.000000 1.720650 0.000000 
#    z 0.000000 0.000000 1.731160 
# 
# From -- ./inp_files/10279.got.cif
#   From: 2010.03.12/outbox.cif.g09.slc.cpg/sg61_6_cif.got.tgz:10279.got - 2010.04.10 19:05:03.
