data_PCOD8249099
_publ_section_title
;
Structure prediction by ZEFSAII (Michael W. Deem and Ramdas Pophale) SiO2 
 PCOD8249099
Probable space group: P B C A
;
_chemical_formula_sum "Si O2"
_cell_formula_units_Z 64
_cell_length_a 12.403116
_cell_length_b 17.353231
_cell_length_c 14.356339
_cell_angle_alpha 90.000000
_cell_angle_beta 90.000000
_cell_angle_gamma 90.000000
_cell_volume 3089.974236
_symmetry_space_group_name_H-M "P B C A"
_symmetry_group_IT_number 61
_symmetry_cell_setting 'orthorhombic'
loop_
_space_group_symop_operation_xyz
x,y,z
1/2-x,-y,1/2+z
1/2+x,1/2-y,-z
-x,1/2+y,1/2-z
-x,-y,-z
1/2+x,y,1/2-z
1/2-x,1/2+y,z
x,1/2-y,1/2+z
loop_
_atom_site_type_symbol
_atom_site_label
_atom_site_fract_x
_atom_site_fract_y
_atom_site_fract_z
Si Si1 0.819806 0.293580 0.358954
Si Si2 0.870259 0.605652 0.837596
Si Si3 0.037117 0.258341 0.614240
Si Si4 0.207608 0.331350 0.743553
Si Si5 0.988069 0.412390 0.335241
Si Si6 0.212402 0.477062 0.634399
Si Si7 0.792537 0.266454 0.576147
Si Si8 0.346285 0.865951 0.475744
O O1 0.734790 0.347074 0.301058
O O2 0.804559 0.208289 0.317325
O O3 0.793444 0.297695 0.469977
O O4 0.938882 0.325666 0.338498
O O5 0.933339 0.667725 0.902033
O O6 0.954814 0.574541 0.762648
O O7 0.818710 0.529112 0.883338
O O8 0.094119 0.295220 0.706209
O O9 0.077169 0.303031 0.523721
O O10 0.909795 0.266665 0.622767
O O11 0.217434 0.423207 0.726463
O O12 0.219542 0.318857 0.854698
O O13 0.082316 0.420014 0.410439
O O14 0.897249 0.474450 0.358002
O O15 0.211932 0.421650 0.546824
O O16 0.746258 0.179693 0.580194
#
# Coordination Sequence:
#
# PCOD8249099 Si02
#       8
#     8   8   8   8   8   8   8   8
#     4  10  20  41  67  95 126 167 221 273 319 385
#     4  10  21  41  59  90 134 162 209 273 321 384
#     4  10  21  40  64  95 125 162 226 266 325 386
#     4  10  22  41  64  98 131 164 224 271 322 398
#     4  11  22  39  68  91 127 179 213 264 333 399
#     4  10  23  41  60  89 136 167 213 267 327 404
#     4  12  21  39  73  96 129 170 215 288 331 365
#     4  11  21  40  66  97 123 169 223 273 319 392
#
# _framework density 20.712147000000002
#
# number of rings (size 3 to 8) (size 9 to 14) (size 15 to 20)
#    0.000    1.500    5.000    2.625    0.000    3.000 
#    4.500    1.875    0.000    0.000    0.000    0.000 
#    0.000    0.000    0.000    0.000    0.000    0.000 
#
# Total GULP energy -793027.876330 kJ/mol
# GULP energy per Si atom -12391.060568 kJ/mol
# Density = 2.066501 g / cm^3
# Si number density = 20.712147 Si / 1000 Ang^3
#
#
#
# Elastic Constant Matrix: (Units=GPa)
#
#
# Indices 1 2 3 4 5 6 
#
# 1 83.6212 22.5211 14.9778 0.0000 0.0000 0.0000
# 2 22.5211 105.0782 22.3977 0.0000 0.0000 0.0000
# 3 14.9778 22.3977 68.2602 0.0000 0.0000 0.0000
# 4 0.0000 0.0000 0.0000 26.9463 0.0000 0.0000
# 5 0.0000 0.0000 0.0000 0.0000 28.7089 0.0000
# 6 0.0000 0.0000 0.0000 0.0000 0.0000 29.1174
#
#
#
# Elastic Compliance Matrix: (Units=1/GPa)
#
#
# Indices 1 2 3 4 5 6 
#
# 1 0.012960 -0.002335 -0.002078 0.000000 0.000000 0.000000
# 2 -0.002335 0.010653 -0.002983 0.000000 0.000000 0.000000
# 3 -0.002078 -0.002983 0.016085 0.000000 0.000000 0.000000
# 4 0.000000 0.000000 0.000000 0.037111 0.000000 0.000000
# 5 0.000000 0.000000 0.000000 0.000000 0.034832 0.000000
# 6 0.000000 0.000000 0.000000 0.000000 0.000000 0.034344
#
#
# Mechanical properties :
#
#
# Convention : Reuss Voigt Hill
#
# Bulk Modulus (GPa) = 40.15072 41.86144 41.00608
# Shear Modulus (GPa) = 29.57230 30.09205 29.83217
#
# Velocity S-wave (km/s) = 3.78269 3.81579 3.79928
# Velocity P-wave (km/s) = 6.20528 6.29830 6.25196
#
# Compressibility (1/GPa) = 0.02490615
#
# Stress axis : x y z
#
# Youngs Moduli (GPa) = 77.16282 93.87027 62.17151
#
# Poissons Ratio (x) = 0.21916 0.12916
# Poissons Ratio (y) = 0.18016 0.18547
# Poissons Ratio (z) = 0.16031 0.28003
#
# Static dielectric constant tensor:
#      x y z
#    x 3.867430 0.000000 0.000000 
#    y 0.000000 3.871430 0.000000 
#    z 0.000000 0.000000 3.655420 
# 
# 
# High freq. dielectric constant tensor:
#      x y z
#    x 1.813910 0.000000 0.000000 
#    y 0.000000 1.803300 0.000000 
#    z 0.000000 0.000000 1.794590 
# 
# From -- ./inp_files/7641.got.cif
#   From: 2010.03.12/outbox.cif.g09.slc.cpg/sg61_4_cif.got.tgz:7641.got - 2010.04.10 19:05:03.
