data_PCOD8249295
_publ_section_title
;
Structure prediction by ZEFSAII (Michael W. Deem and Ramdas Pophale) SiO2 
 PCOD8249295
Probable space group: P B C A
;
_chemical_formula_sum "Si O2"
_cell_formula_units_Z 64
_cell_length_a 12.570009
_cell_length_b 25.667413
_cell_length_c 9.433423
_cell_angle_alpha 90.000000
_cell_angle_beta 90.000000
_cell_angle_gamma 90.000000
_cell_volume 3043.595940
_symmetry_space_group_name_H-M "P B C A"
_symmetry_group_IT_number 61
_symmetry_cell_setting 'orthorhombic'
loop_
_space_group_symop_operation_xyz
x,y,z
1/2-x,-y,1/2+z
1/2+x,1/2-y,-z
-x,1/2+y,1/2-z
-x,-y,-z
1/2+x,y,1/2-z
1/2-x,1/2+y,z
x,1/2-y,1/2+z
loop_
_atom_site_type_symbol
_atom_site_label
_atom_site_fract_x
_atom_site_fract_y
_atom_site_fract_z
Si Si1 0.955164 0.524543 0.266321
Si Si2 0.406123 0.221885 0.280562
Si Si3 0.473537 0.124182 0.121298
Si Si4 0.806894 0.291495 0.448627
Si Si5 0.040378 0.872826 0.152306
Si Si6 0.433128 0.805670 0.127422
Si Si7 0.612291 0.038289 0.568454
Si Si8 0.850671 0.065886 0.607945
O O1 0.879255 0.519007 0.405478
O O2 0.912234 0.488015 0.139397
O O3 0.952123 0.582723 0.203212
O O4 0.072795 0.506288 0.320900
O O5 0.430466 0.162092 0.243259
O O6 0.304620 0.225271 0.386763
O O7 0.374115 0.249364 0.136866
O O8 0.504560 0.250540 0.361821
O O9 0.536845 0.158870 0.007466
O O10 0.381781 0.089804 0.044987
O O11 0.878108 0.343898 0.451640
O O12 0.691409 0.295395 0.382915
O O13 0.118156 0.893013 0.274032
O O14 0.953249 0.835713 0.225879
O O15 0.977325 0.916658 0.067292
O O16 0.725189 0.058177 0.619500
#
# Coordination Sequence:
#
# PCOD8249295 Si02
#       8
#     8   8   8   8   8   8   8   8
#     4  10  23  41  62  94 132 163 217 272 319 391
#     4  11  24  43  62  95 133 163 222 275 321 397
#     4  11  23  44  64  96 129 168 220 268 327 395
#     4  11  23  40  66  92 127 175 211 270 332 387
#     4   9  20  41  63  94 129 165 218 265 319 391
#     4  10  23  42  64  94 128 172 215 272 325 383
#     4  10  21  41  64  95 128 171 209 271 326 381
#     4  10  22  40  65  92 128 171 213 267 326 388
#
# _framework density 21.027757999999999
#
# number of rings (size 3 to 8) (size 9 to 14) (size 15 to 20)
#    0.000    1.750    1.250    1.875    3.500    1.000 
#    9.000    0.000    0.000    0.000    0.000    0.000 
#    0.000    0.000    0.000    0.000    0.000    0.000 
#
# Total GULP energy -793335.805548 kJ/mol
# GULP energy per Si atom -12395.871962 kJ/mol
# Density = 2.097990 g / cm^3
# Si number density = 21.027758 Si / 1000 Ang^3
#
#
#
# Elastic Constant Matrix: (Units=GPa)
#
#
# Indices 1 2 3 4 5 6 
#
# 1 103.1189 39.4765 30.1917 0.0000 0.0000 0.0000
# 2 39.4765 118.4229 41.2314 0.0000 0.0000 0.0000
# 3 30.1917 41.2314 88.3240 0.0000 0.0000 0.0000
# 4 0.0000 0.0000 0.0000 36.7408 0.0000 0.0000
# 5 0.0000 0.0000 0.0000 0.0000 15.9723 0.0000
# 6 0.0000 0.0000 0.0000 0.0000 0.0000 21.0667
#
#
#
# Elastic Compliance Matrix: (Units=1/GPa)
#
#
# Indices 1 2 3 4 5 6 
#
# 1 0.011587 -0.002966 -0.002576 0.000000 0.000000 0.000000
# 2 -0.002966 0.010842 -0.004048 0.000000 0.000000 0.000000
# 3 -0.002576 -0.004048 0.014092 0.000000 0.000000 0.000000
# 4 0.000000 0.000000 0.000000 0.027218 0.000000 0.000000
# 5 0.000000 0.000000 0.000000 0.000000 0.062608 0.000000
# 6 0.000000 0.000000 0.000000 0.000000 0.000000 0.047468
#
#
# Mechanical properties :
#
#
# Convention : Reuss Voigt Hill
#
# Bulk Modulus (GPa) = 57.66268 59.07388 58.36828
# Shear Modulus (GPa) = 25.15395 28.02036 26.58715
#
# Velocity S-wave (km/s) = 3.46240 3.65436 3.55967
# Velocity P-wave (km/s) = 6.59288 6.77939 6.68678
#
# Compressibility (1/GPa) = 0.01734224
#
# Stress axis : x y z
#
# Youngs Moduli (GPa) = 86.30219 92.23259 70.96142
#
# Poissons Ratio (x) = 0.27352 0.18283
# Poissons Ratio (y) = 0.25594 0.28722
# Poissons Ratio (z) = 0.22235 0.37332
#
# Static dielectric constant tensor:
#      x y z
#    x 3.463010 0.000000 0.000000 
#    y 0.000000 3.972660 0.000000 
#    z 0.000000 0.000000 3.863950 
# 
# 
# High freq. dielectric constant tensor:
#      x y z
#    x 1.800840 0.000000 0.000000 
#    y 0.000000 1.833860 0.000000 
#    z 0.000000 0.000000 1.835080 
# 
# From -- ./inp_files/2469.got.cif
#   From: 2010.03.12/outbox.cif.g09.slc.cpg/sg61_2_cif.got.tgz:2469.got - 2010.04.10 19:05:03.
