data_PCOD8249537
_publ_section_title
;
Structure prediction by ZEFSAII (Michael W. Deem and Ramdas Pophale) SiO2 
 PCOD8249537
Probable space group: P B C A
;
_chemical_formula_sum "Si O2"
_cell_formula_units_Z 24
_cell_length_a 5.380449
_cell_length_b 11.972657
_cell_length_c 13.625278
_cell_angle_alpha 90.000000
_cell_angle_beta 90.000000
_cell_angle_gamma 90.000000
_cell_volume 877.716842
_symmetry_space_group_name_H-M "P B C A"
_symmetry_group_IT_number 61
_symmetry_cell_setting 'orthorhombic'
loop_
_space_group_symop_operation_xyz
x,y,z
1/2-x,-y,1/2+z
1/2+x,1/2-y,-z
-x,1/2+y,1/2-z
-x,-y,-z
1/2+x,y,1/2-z
1/2-x,1/2+y,z
x,1/2-y,1/2+z
loop_
_atom_site_type_symbol
_atom_site_label
_atom_site_fract_x
_atom_site_fract_y
_atom_site_fract_z
Si Si1 0.779947 0.317611 0.501097
Si Si2 0.633418 0.612255 0.791670
Si Si3 0.848569 0.632272 0.212501
O O1 0.551291 0.234564 0.483391
O O2 0.793531 0.396173 0.405799
O O3 0.722094 0.386809 0.599339
O O4 0.358136 0.669153 0.773905
O O5 0.574844 0.486876 0.757085
O O6 0.622946 0.692992 0.275424
#
# Coordination Sequence:
#
# PCOD8249537 Si02
#       3
#     8   8   8
#     4  12  26  42  66 100 134 168 214 274 332 380
#     4  10  23  42  67  95 130 173 219 264 320 392
#     4  10  23  42  67  95 130 173 219 264 320 392
#
# _framework density 27.343669999999999
#
# number of rings (size 3 to 8) (size 9 to 14) (size 15 to 20)
#    0.000    1.333    0.000    4.000    0.000   18.667 
#    0.000    0.000    0.000    0.000    0.000    0.000 
#    0.000    0.000    0.000    0.000    0.000    0.000 
#
# Total GULP energy -297696.395932 kJ/mol
# GULP energy per Si atom -12404.016497 kJ/mol
# Density = 2.728143 g / cm^3
# Si number density = 27.343670 Si / 1000 Ang^3
#
#
#
# Elastic Constant Matrix: (Units=GPa)
#
#
# Indices 1 2 3 4 5 6 
#
# 1 216.4047 41.9848 47.3806 0.0000 0.0000 0.0000
# 2 41.9848 52.9426 18.5276 0.0000 0.0000 0.0000
# 3 47.3806 18.5276 235.1282 0.0000 0.0000 0.0000
# 4 0.0000 0.0000 0.0000 40.8490 0.0000 0.0000
# 5 0.0000 0.0000 0.0000 0.0000 57.2004 0.0000
# 6 0.0000 0.0000 0.0000 0.0000 0.0000 28.7939
#
#
#
# Elastic Compliance Matrix: (Units=1/GPa)
#
#
# Indices 1 2 3 4 5 6 
#
# 1 0.005604 -0.004164 -0.000801 0.000000 0.000000 0.000000
# 2 -0.004164 0.022518 -0.000935 0.000000 0.000000 0.000000
# 3 -0.000801 -0.000935 0.004488 0.000000 0.000000 0.000000
# 4 0.000000 0.000000 0.000000 0.024480 0.000000 0.000000
# 5 0.000000 0.000000 0.000000 0.000000 0.017482 0.000000
# 6 0.000000 0.000000 0.000000 0.000000 0.000000 0.034730
#
#
# Mechanical properties :
#
#
# Convention : Reuss Voigt Hill
#
# Bulk Modulus (GPa) = 48.05532 80.02905 64.04219
# Shear Modulus (GPa) = 39.05036 51.80749 45.42892
#
# Velocity S-wave (km/s) = 3.78316 4.35751 4.08046
# Velocity P-wave (km/s) = 6.05771 7.39247 6.75812
#
# Compressibility (1/GPa) = 0.02080935
#
# Stress axis : x y z
#
# Youngs Moduli (GPa) = 178.43669 44.40941 222.80913
#
# Poissons Ratio (x) = 0.18492 0.17851
# Poissons Ratio (y) = 0.74299 0.20839
# Poissons Ratio (z) = 0.14296 0.04154
#
# Static dielectric constant tensor:
#      x y z
#    x 6.234010 0.000000 0.000000 
#    y 0.000000 5.480120 0.000000 
#    z 0.000000 0.000000 5.102990 
# 
# 
# High freq. dielectric constant tensor:
#      x y z
#    x 2.176120 0.000000 0.000000 
#    y 0.000000 2.136160 0.000000 
#    z 0.000000 0.000000 2.090980 
# 
# From -- ./inp_files/126.got.cif
#   From: 2010.03.12/outbox.cif.g09.slc.cpg/sg61_1_cif.got.tgz:126.got - 2010.04.10 19:05:03.
