data_PCOD8249622
_publ_section_title
;
Structure prediction by ZEFSAII (Michael W. Deem and Ramdas Pophale) SiO2 
 PCOD8249622
Probable space group: P B C A
;
_chemical_formula_sum "Si O2"
_cell_formula_units_Z 40
_cell_length_a 8.817266
_cell_length_b 15.340369
_cell_length_c 11.073823
_cell_angle_alpha 90.000000
_cell_angle_beta 90.000000
_cell_angle_gamma 90.000000
_cell_volume 1497.846562
_symmetry_space_group_name_H-M "P B C A"
_symmetry_group_IT_number 61
_symmetry_cell_setting 'orthorhombic'
loop_
_space_group_symop_operation_xyz
x,y,z
1/2-x,-y,1/2+z
1/2+x,1/2-y,-z
-x,1/2+y,1/2-z
-x,-y,-z
1/2+x,y,1/2-z
1/2-x,1/2+y,z
x,1/2-y,1/2+z
loop_
_atom_site_type_symbol
_atom_site_label
_atom_site_fract_x
_atom_site_fract_y
_atom_site_fract_z
Si Si1 0.952797 0.020590 0.845201
Si Si2 0.330451 0.784194 0.782201
Si Si3 0.398965 0.370180 0.938475
Si Si4 0.376684 0.200293 0.079042
Si Si5 0.278357 0.097217 0.871632
O O1 0.903552 0.052709 0.714392
O O2 0.131196 0.037187 0.872704
O O3 0.853051 0.070122 0.945582
O O4 0.954873 0.914806 0.866874
O O5 0.245436 0.863231 0.850954
O O6 0.287765 0.780687 0.639758
O O7 0.508783 0.803174 0.805164
O O8 0.278677 0.692273 0.835276
O O9 0.441230 0.275175 0.990494
O O10 0.361384 0.110522 0.002061
#
# Coordination Sequence:
#
# PCOD8249622 Si02
#       5
#     8   8   8   8   8
#     4  11  24  47  71 104 150 192 246 307 376 438
#     4  11  23  43  69 107 140 192 243 305 356 443
#     4  10  24  44  71 101 145 193 239 311 363 435
#     4  11  25  44  78 108 146 193 257 300 370 442
#     4  11  24  44  73 106 142 197 242 307 368 444
#
# _framework density 26.705003000000001
#
# number of rings (size 3 to 8) (size 9 to 14) (size 15 to 20)
#    0.000    1.200    4.000    0.000    5.600    3.200 
#    3.600    4.000    0.000    0.000    0.000    0.000 
#    0.000    0.000    0.000    0.000    0.000    0.000 
#
# Total GULP energy -495636.387319 kJ/mol
# GULP energy per Si atom -12390.909683 kJ/mol
# Density = 2.664422 g / cm^3
# Si number density = 26.705003 Si / 1000 Ang^3
#
#
#
# Elastic Constant Matrix: (Units=GPa)
#
#
# Indices 1 2 3 4 5 6 
#
# 1 106.5825 33.8787 51.9103 0.0000 0.0000 0.0000
# 2 33.8787 71.9013 18.6246 0.0000 0.0000 0.0000
# 3 51.9103 18.6246 125.6185 0.0000 0.0000 0.0000
# 4 0.0000 0.0000 0.0000 51.2917 0.0000 0.0000
# 5 0.0000 0.0000 0.0000 0.0000 46.1170 0.0000
# 6 0.0000 0.0000 0.0000 0.0000 0.0000 28.0202
#
#
#
# Elastic Compliance Matrix: (Units=1/GPa)
#
#
# Indices 1 2 3 4 5 6 
#
# 1 0.013295 -0.005035 -0.004748 0.000000 0.000000 0.000000
# 2 -0.005035 0.016370 -0.000347 0.000000 0.000000 0.000000
# 3 -0.004748 -0.000347 0.009974 0.000000 0.000000 0.000000
# 4 0.000000 0.000000 0.000000 0.019496 0.000000 0.000000
# 5 0.000000 0.000000 0.000000 0.000000 0.021684 0.000000
# 6 0.000000 0.000000 0.000000 0.000000 0.000000 0.035689
#
#
# Mechanical properties :
#
#
# Convention : Reuss Voigt Hill
#
# Bulk Modulus (GPa) = 51.59600 56.99215 54.29407
# Shear Modulus (GPa) = 34.90997 38.39835 36.65416
#
# Velocity S-wave (km/s) = 3.61951 3.79604 3.70882
# Velocity P-wave (km/s) = 6.06881 6.37189 6.22219
#
# Compressibility (1/GPa) = 0.01938135
#
# Stress axis : x y z
#
# Youngs Moduli (GPa) = 75.21633 61.08755 100.26208
#
# Poissons Ratio (x) = 0.30755 0.47600
# Poissons Ratio (y) = 0.37869 0.03475
# Poissons Ratio (z) = 0.35709 0.02117
#
# Static dielectric constant tensor:
#      x y z
#    x 4.672700 0.000000 0.000000 
#    y 0.000000 5.257690 0.000000 
#    z 0.000000 0.000000 5.116610 
# 
# 
# High freq. dielectric constant tensor:
#      x y z
#    x 2.050210 0.000000 0.000000 
#    y 0.000000 2.083220 0.000000 
#    z 0.000000 0.000000 2.089540 
# 
# From -- ./inp_files/4779.got.cif
#   From: 2010.03.12/outbox.cif.g09.slc.cpg/sg61_3_cif.got.tgz:4779.got - 2010.04.10 19:05:03.
