data_PCOD8249527
_publ_section_title
;
Structure prediction by ZEFSAII (Michael W. Deem and Ramdas Pophale) SiO2 
 PCOD8249527
Probable space group: P B C A
;
_chemical_formula_sum "Si O2"
_cell_formula_units_Z 48
_cell_length_a 8.885649
_cell_length_b 25.806909
_cell_length_c 9.212864
_cell_angle_alpha 90.000000
_cell_angle_beta 90.000000
_cell_angle_gamma 90.000000
_cell_volume 2112.612302
_symmetry_space_group_name_H-M "P B C A"
_symmetry_group_IT_number 61
_symmetry_cell_setting 'orthorhombic'
loop_
_space_group_symop_operation_xyz
x,y,z
1/2-x,-y,1/2+z
1/2+x,1/2-y,-z
-x,1/2+y,1/2-z
-x,-y,-z
1/2+x,y,1/2-z
1/2-x,1/2+y,z
x,1/2-y,1/2+z
loop_
_atom_site_type_symbol
_atom_site_label
_atom_site_fract_x
_atom_site_fract_y
_atom_site_fract_z
Si Si1 0.276076 0.451618 0.192827
Si Si2 0.539203 0.607890 0.201498
Si Si3 0.445136 0.777509 0.364594
Si Si4 0.322968 0.953491 0.875669
Si Si5 0.560510 0.391111 0.109944
Si Si6 0.860859 0.218781 0.149814
O O1 0.365889 0.499237 0.267011
O O2 0.388285 0.405131 0.150157
O O3 0.167099 0.433779 0.321338
O O4 0.179918 0.467384 0.047913
O O5 0.657217 0.562978 0.171210
O O6 0.444112 0.592477 0.345277
O O7 0.627564 0.662358 0.226069
O O8 0.423716 0.609901 0.064929
O O9 0.388381 0.835251 0.326257
O O10 0.541953 0.782786 0.507454
O O11 0.311979 0.735226 0.378813
O O12 0.565936 0.762371 0.246504
#
# Coordination Sequence:
#
# PCOD8249527 Si02
#       6
#     8   8   8   8   8   8
#     4  11  23  40  63  92 124 164 208 255 310 373
#     4  10  23  41  59  88 124 160 203 256 306 366
#     4  11  23  41  64  93 127 168 212 265 319 379
#     4  11  23  39  62  89 124 163 207 255 308 369
#     4  10  23  41  60  88 125 160 204 255 309 368
#     4  11  23  40  64  92 126 165 212 261 318 378
#
# _framework density 22.720686000000001
#
# number of rings (size 3 to 8) (size 9 to 14) (size 15 to 20)
#    0.000    1.333    0.000    5.000    0.000   12.000 
#    0.000    0.000    0.000    0.000    0.000    0.000 
#    0.000    0.000    0.000    0.000    0.000    0.000 
#
# Total GULP energy -595165.336162 kJ/mol
# GULP energy per Si atom -12399.277837 kJ/mol
# Density = 2.266897 g / cm^3
# Si number density = 22.720686 Si / 1000 Ang^3
#
#
#
# Elastic Constant Matrix: (Units=GPa)
#
#
# Indices 1 2 3 4 5 6 
#
# 1 60.9015 9.3007 5.5147 0.0000 0.0000 0.0000
# 2 9.3007 110.0694 38.7957 0.0000 0.0000 0.0000
# 3 5.5147 38.7957 57.7059 0.0000 0.0000 0.0000
# 4 0.0000 0.0000 0.0000 31.5810 0.0000 0.0000
# 5 0.0000 0.0000 0.0000 0.0000 31.1180 0.0000
# 6 0.0000 0.0000 0.0000 0.0000 0.0000 39.3858
#
#
#
# Elastic Compliance Matrix: (Units=1/GPa)
#
#
# Indices 1 2 3 4 5 6 
#
# 1 0.016666 -0.001110 -0.000847 0.000000 0.000000 0.000000
# 2 -0.001110 0.011981 -0.007948 0.000000 0.000000 0.000000
# 3 -0.000847 -0.007948 0.022754 0.000000 0.000000 0.000000
# 4 0.000000 0.000000 0.000000 0.031665 0.000000 0.000000
# 5 0.000000 0.000000 0.000000 0.000000 0.032136 0.000000
# 6 0.000000 0.000000 0.000000 0.000000 0.000000 0.025390
#
#
# Mechanical properties :
#
#
# Convention : Reuss Voigt Hill
#
# Bulk Modulus (GPa) = 31.65477 37.32210 34.48844
# Shear Modulus (GPa) = 29.25164 32.08801 30.66982
#
# Velocity S-wave (km/s) = 3.59199 3.76211 3.67803
# Velocity P-wave (km/s) = 5.58261 5.94419 5.76624
#
# Compressibility (1/GPa) = 0.03159082
#
# Stress axis : x y z
#
# Youngs Moduli (GPa) = 60.00197 83.46893 43.94860
#
# Poissons Ratio (x) = 0.09264 0.03720
# Poissons Ratio (y) = 0.06660 0.34932
# Poissons Ratio (z) = 0.05079 0.66345
#
# Static dielectric constant tensor:
#      x y z
#    x 3.857090 0.000000 0.000000 
#    y 0.000000 4.643970 0.000000 
#    z 0.000000 0.000000 4.014150 
# 
# 
# High freq. dielectric constant tensor:
#      x y z
#    x 1.891480 0.000000 0.000000 
#    y 0.000000 1.906570 0.000000 
#    z 0.000000 0.000000 1.894120 
# 
# From -- ./inp_files/1878.got.cif
#   From: 2010.03.12/outbox.cif.g09.slc.cpg/sg61_1_cif.got.tgz:1878.got - 2010.04.10 19:05:03.
