data_PCOD8249782
_publ_section_title
;
Structure prediction by ZEFSAII (Michael W. Deem and Ramdas Pophale) SiO2 
 PCOD8249782
Probable space group: P B C A
;
_chemical_formula_sum "Si O2"
_cell_formula_units_Z 48
_cell_length_a 8.879925
_cell_length_b 8.829434
_cell_length_c 28.669560
_cell_angle_alpha 90.000000
_cell_angle_beta 90.000000
_cell_angle_gamma 90.000000
_cell_volume 2247.828587
_symmetry_space_group_name_H-M "P B C A"
_symmetry_group_IT_number 61
_symmetry_cell_setting 'orthorhombic'
loop_
_space_group_symop_operation_xyz
x,y,z
1/2-x,-y,1/2+z
1/2+x,1/2-y,-z
-x,1/2+y,1/2-z
-x,-y,-z
1/2+x,y,1/2-z
1/2-x,1/2+y,z
x,1/2-y,1/2+z
loop_
_atom_site_type_symbol
_atom_site_label
_atom_site_fract_x
_atom_site_fract_y
_atom_site_fract_z
Si Si1 0.610638 0.457921 0.297626
Si Si2 0.435747 0.614546 0.964481
Si Si3 0.083720 0.643141 0.981671
Si Si4 0.433888 0.181287 0.714767
Si Si5 0.379879 0.977469 0.364404
Si Si6 0.933849 0.322204 0.123508
O O1 0.781907 0.414151 0.288787
O O2 0.590651 0.638283 0.290191
O O3 0.502226 0.358634 0.264881
O O4 0.571358 0.403967 0.349998
O O5 0.261693 0.637555 0.976438
O O6 0.465301 0.564495 0.911843
O O7 0.500000 0.500000 0.000000
O O8 0.539658 0.756455 0.974233
O O9 0.020751 0.694452 0.930946
O O10 0.000000 0.500000 0.000000
O O11 0.550470 0.121769 0.676551
O O12 0.205381 0.936189 0.369566
O O13 0.395669 0.156956 0.355122
#
# Coordination Sequence:
#
# PCOD8249782 Si02
#       6
#     8   8   8   8   8   8
#     4  12  26  46  71 100 136 171 223 269 339 394
#     4  11  23  44  64  97 134 180 228 282 340 407
#     4  11  25  40  68  95 136 180 230 282 345 402
#     4  12  26  46  71 101 134 175 217 277 329 404
#     4  11  24  43  69  95 136 176 225 273 337 397
#     4  11  24  44  67  98 132 179 223 276 334 402
#
# _framework density 21.353940999999999
#
# number of rings (size 3 to 8) (size 9 to 14) (size 15 to 20)
#    0.000    0.667    1.667    6.000    9.333    2.667 
#    0.000    0.000    0.000    0.000    0.000    0.000 
#    0.000    0.000    0.000    0.000    0.000    0.000 
#
# Total GULP energy -594959.011830 kJ/mol
# GULP energy per Si atom -12394.979413 kJ/mol
# Density = 2.130534 g / cm^3
# Si number density = 21.353941 Si / 1000 Ang^3
#
#
#
# Elastic Constant Matrix: (Units=GPa)
#
#
# Indices 1 2 3 4 5 6 
#
# 1 60.2527 -3.3862 22.0601 0.0000 0.0000 0.0000
# 2 -3.3862 135.9062 8.7545 0.0000 0.0000 0.0000
# 3 22.0601 8.7545 92.2186 0.0000 0.0000 0.0000
# 4 0.0000 0.0000 0.0000 40.3958 0.0000 0.0000
# 5 0.0000 0.0000 0.0000 0.0000 31.9775 0.0000
# 6 0.0000 0.0000 0.0000 0.0000 0.0000 39.5928
#
#
#
# Elastic Compliance Matrix: (Units=1/GPa)
#
#
# Indices 1 2 3 4 5 6 
#
# 1 0.018264 0.000741 -0.004439 0.000000 0.000000 0.000000
# 2 0.000741 0.007433 -0.000883 0.000000 0.000000 0.000000
# 3 -0.004439 -0.000883 0.011990 0.000000 0.000000 0.000000
# 4 0.000000 0.000000 0.000000 0.024755 0.000000 0.000000
# 5 0.000000 0.000000 0.000000 0.000000 0.031272 0.000000
# 6 0.000000 0.000000 0.000000 0.000000 0.000000 0.025257
#
#
# Mechanical properties :
#
#
# Convention : Reuss Voigt Hill
#
# Bulk Modulus (GPa) = 35.05793 38.13717 36.59755
# Shear Modulus (GPa) = 36.32629 39.78983 38.05806
#
# Velocity S-wave (km/s) = 4.12898 4.32133 4.22625
# Velocity P-wave (km/s) = 6.25975 6.54193 6.40240
#
# Compressibility (1/GPa) = 0.02852422
#
# Stress axis : x y z
#
# Youngs Moduli (GPa) = 54.75321 134.52883 83.40580
#
# Poissons Ratio (x) = -0.09969 0.37027
# Poissons Ratio (y) = -0.04057 0.07364
# Poissons Ratio (z) = 0.24307 0.11878
#
# Static dielectric constant tensor:
#      x y z
#    x 3.815600 0.000000 0.000000 
#    y 0.000000 3.952200 0.000000 
#    z 0.000000 0.000000 4.147000 
# 
# 
# High freq. dielectric constant tensor:
#      x y z
#    x 1.837500 0.000000 0.000000 
#    y 0.000000 1.859830 0.000000 
#    z 0.000000 0.000000 1.853340 
# 
# From -- ./inp_files/11678.got.cif
#   From: 2010.03.12/outbox.cif.g09.slc.cpg/sg61_6_cif.got.tgz:11678.got - 2010.04.10 19:05:03.
