data_PCOD8249303
_publ_section_title
;
Structure prediction by ZEFSAII (Michael W. Deem and Ramdas Pophale) SiO2 
 PCOD8249303
Probable space group: P B C A
;
_chemical_formula_sum "Si O2"
_cell_formula_units_Z 56
_cell_length_a 8.897715
_cell_length_b 19.733248
_cell_length_c 14.313086
_cell_angle_alpha 90.000000
_cell_angle_beta 90.000000
_cell_angle_gamma 90.000000
_cell_volume 2513.103330
_symmetry_space_group_name_H-M "P B C A"
_symmetry_group_IT_number 61
_symmetry_cell_setting 'orthorhombic'
loop_
_space_group_symop_operation_xyz
x,y,z
1/2-x,-y,1/2+z
1/2+x,1/2-y,-z
-x,1/2+y,1/2-z
-x,-y,-z
1/2+x,y,1/2-z
1/2-x,1/2+y,z
x,1/2-y,1/2+z
loop_
_atom_site_type_symbol
_atom_site_label
_atom_site_fract_x
_atom_site_fract_y
_atom_site_fract_z
Si Si1 0.200742 0.794903 0.531411
Si Si2 0.219673 0.499308 0.950274
Si Si3 0.365689 0.082414 0.293676
Si Si4 0.180465 0.077156 0.118355
Si Si5 0.817917 0.233757 0.159591
Si Si6 0.350933 0.711292 0.676042
Si Si7 0.026162 0.108584 0.545768
O O1 0.317352 0.855100 0.555554
O O2 0.246737 0.750527 0.442224
O O3 0.211892 0.743726 0.617726
O O4 0.035568 0.826713 0.513279
O O5 0.322373 0.516932 0.041485
O O6 0.129084 0.432277 0.976015
O O7 0.312040 0.479418 0.858989
O O8 0.113509 0.562113 0.921751
O O9 0.328833 0.068275 0.184352
O O10 0.544224 0.080716 0.308710
O O11 0.290420 0.154727 0.318722
O O12 0.716792 0.285717 0.220694
O O13 0.995032 0.246673 0.170426
O O14 0.384678 0.635333 0.637674
#
# Coordination Sequence:
#
# PCOD8249303 Si02
#       7
#     8   8   8   8   8   8   8
#     4  10  21  41  66  94 138 170 225 283 343 411
#     4  10  23  45  68  95 137 182 236 277 348 405
#     4  12  23  43  70  99 130 186 230 279 349 413
#     4  11  25  44  67 101 137 171 235 287 332 426
#     4  11  23  40  68  98 134 180 220 289 345 415
#     4  11  22  43  64 102 134 171 228 274 354 406
#     4   9  22  42  67  97 136 180 221 289 339 402
#
# _framework density 22.283206
#
# number of rings (size 3 to 8) (size 9 to 14) (size 15 to 20)
#    0.000    1.429    2.857    1.286    6.000    3.429 
#   10.286    0.000    0.000    0.000    0.000    0.000 
#    0.000    0.000    0.000    0.000    0.000    0.000 
#
# Total GULP energy -693989.374180 kJ/mol
# GULP energy per Si atom -12392.667396 kJ/mol
# Density = 2.223249 g / cm^3
# Si number density = 22.283206 Si / 1000 Ang^3
#
#
#
# Elastic Constant Matrix: (Units=GPa)
#
#
# Indices 1 2 3 4 5 6 
#
# 1 61.6643 16.6224 15.5392 0.0000 0.0000 0.0000
# 2 16.6224 81.5660 28.2535 0.0000 0.0000 0.0000
# 3 15.5392 28.2535 88.8503 0.0000 0.0000 0.0000
# 4 0.0000 0.0000 0.0000 37.6962 0.0000 0.0000
# 5 0.0000 0.0000 0.0000 0.0000 30.5398 0.0000
# 6 0.0000 0.0000 0.0000 0.0000 0.0000 25.5360
#
#
#
# Elastic Compliance Matrix: (Units=1/GPa)
#
#
# Indices 1 2 3 4 5 6 
#
# 1 0.017523 -0.002820 -0.002168 0.000000 0.000000 0.000000
# 2 -0.002820 0.014231 -0.004032 0.000000 0.000000 0.000000
# 3 -0.002168 -0.004032 0.012916 0.000000 0.000000 0.000000
# 4 0.000000 0.000000 0.000000 0.026528 0.000000 0.000000
# 5 0.000000 0.000000 0.000000 0.000000 0.032744 0.000000
# 6 0.000000 0.000000 0.000000 0.000000 0.000000 0.039160
#
#
# Mechanical properties :
#
#
# Convention : Reuss Voigt Hill
#
# Bulk Modulus (GPa) = 37.55102 39.21232 38.38167
# Shear Modulus (GPa) = 29.40814 30.19877 29.80345
#
# Velocity S-wave (km/s) = 3.63677 3.68533 3.66113
# Velocity P-wave (km/s) = 5.87564 5.97866 5.92737
#
# Compressibility (1/GPa) = 0.02663044
#
# Stress axis : x y z
#
# Youngs Moduli (GPa) = 57.06664 70.26688 77.42189
#
# Poissons Ratio (x) = 0.19816 0.16784
# Poissons Ratio (y) = 0.16094 0.31218
# Poissons Ratio (z) = 0.12372 0.28333
#
# Static dielectric constant tensor:
#      x y z
#    x 3.894640 0.000000 0.000000 
#    y 0.000000 4.092960 0.000000 
#    z 0.000000 0.000000 4.014850 
# 
# 
# High freq. dielectric constant tensor:
#      x y z
#    x 1.865000 0.000000 0.000000 
#    y 0.000000 1.874560 0.000000 
#    z 0.000000 0.000000 1.878640 
# 
# From -- ./inp_files/3978.got.cif
#   From: 2010.03.12/outbox.cif.g09.slc.cpg/sg61_2_cif.got.tgz:3978.got - 2010.04.10 19:05:03.
