data_PCOD8249801
_publ_section_title
;
Structure prediction by ZEFSAII (Michael W. Deem and Ramdas Pophale) SiO2 
 PCOD8249801
Probable space group: P B C A
;
_chemical_formula_sum "Si O2"
_cell_formula_units_Z 56
_cell_length_a 10.925532
_cell_length_b 14.549507
_cell_length_c 15.120630
_cell_angle_alpha 90.000000
_cell_angle_beta 90.000000
_cell_angle_gamma 90.000000
_cell_volume 2403.592043
_symmetry_space_group_name_H-M "P B C A"
_symmetry_group_IT_number 61
_symmetry_cell_setting 'orthorhombic'
loop_
_space_group_symop_operation_xyz
x,y,z
1/2-x,-y,1/2+z
1/2+x,1/2-y,-z
-x,1/2+y,1/2-z
-x,-y,-z
1/2+x,y,1/2-z
1/2-x,1/2+y,z
x,1/2-y,1/2+z
loop_
_atom_site_type_symbol
_atom_site_label
_atom_site_fract_x
_atom_site_fract_y
_atom_site_fract_z
Si Si1 0.031414 0.163294 0.759326
Si Si2 0.476277 0.004472 0.142894
Si Si3 0.147636 0.822760 0.702212
Si Si4 0.698901 0.182013 0.570244
Si Si5 0.353012 0.345428 0.893140
Si Si6 0.700573 0.006213 0.013621
Si Si7 0.887264 0.712987 0.394591
O O1 0.006979 0.057716 0.731536
O O2 0.127358 0.166716 0.838978
O O3 0.090932 0.202020 0.669816
O O4 0.909334 0.219935 0.786463
O O5 0.461621 0.110513 0.171113
O O6 0.599368 0.997220 0.088560
O O7 0.358850 0.976195 0.082476
O O8 0.201264 0.862084 0.794948
O O9 0.256949 0.830177 0.632525
O O10 0.824370 0.238058 0.585074
O O11 0.619335 0.241442 0.498647
O O12 0.721749 0.086814 0.519690
O O13 0.293646 0.410960 0.965959
O O14 0.499575 0.358562 0.887627
#
# Coordination Sequence:
#
# PCOD8249801 Si02
#       7
#     8   8   8   8   8   8   8
#     4  11  25  45  72 105 138 193 246 295 363 438
#     4  11  24  45  72 104 142 188 240 298 362 434
#     4  11  23  47  69  97 144 184 240 298 361 431
#     4  12  24  45  71 102 143 182 240 297 358 431
#     4  11  25  44  70 102 140 185 237 291 356 437
#     4  11  24  44  71 104 142 188 238 298 365 430
#     4  11  25  44  68 101 140 189 234 292 361 420
#
# _framework density 23.298463000000002
#
# number of rings (size 3 to 8) (size 9 to 14) (size 15 to 20)
#    0.000    0.857    2.857    4.286    4.000    2.857 
#    0.000    0.000    0.000    0.000    0.000    0.000 
#    0.000    0.000    0.000    0.000    0.000    0.000 
#
# Total GULP energy -694166.323750 kJ/mol
# GULP energy per Si atom -12395.827210 kJ/mol
# Density = 2.324543 g / cm^3
# Si number density = 23.298463 Si / 1000 Ang^3
#
#
#
# Elastic Constant Matrix: (Units=GPa)
#
#
# Indices 1 2 3 4 5 6 
#
# 1 106.6456 44.0755 37.7314 0.0000 0.0000 0.0000
# 2 44.0755 95.4585 28.2642 0.0000 0.0000 0.0000
# 3 37.7314 28.2642 114.2486 0.0000 0.0000 0.0000
# 4 0.0000 0.0000 0.0000 35.2322 0.0000 0.0000
# 5 0.0000 0.0000 0.0000 0.0000 36.0951 0.0000
# 6 0.0000 0.0000 0.0000 0.0000 0.0000 29.2350
#
#
#
# Elastic Compliance Matrix: (Units=1/GPa)
#
#
# Indices 1 2 3 4 5 6 
#
# 1 0.012416 -0.004876 -0.002894 0.000000 0.000000 0.000000
# 2 -0.004876 0.013218 -0.001660 0.000000 0.000000 0.000000
# 3 -0.002894 -0.001660 0.010119 0.000000 0.000000 0.000000
# 4 0.000000 0.000000 0.000000 0.028383 0.000000 0.000000
# 5 0.000000 0.000000 0.000000 0.000000 0.027705 0.000000
# 6 0.000000 0.000000 0.000000 0.000000 0.000000 0.034206
#
#
# Mechanical properties :
#
#
# Convention : Reuss Voigt Hill
#
# Bulk Modulus (GPa) = 59.19272 59.61053 59.40163
# Shear Modulus (GPa) = 33.21416 33.86457 33.53936
#
# Velocity S-wave (km/s) = 3.77980 3.81663 3.79826
# Velocity P-wave (km/s) = 6.67163 6.71293 6.69231
#
# Compressibility (1/GPa) = 0.01689397
#
# Stress axis : x y z
#
# Youngs Moduli (GPa) = 80.54161 75.65156 98.82085
#
# Poissons Ratio (x) = 0.36886 0.28601
# Poissons Ratio (y) = 0.39270 0.16403
# Poissons Ratio (z) = 0.23310 0.12557
#
# Static dielectric constant tensor:
#      x y z
#    x 4.027080 0.000000 0.000000 
#    y 0.000000 4.033160 0.000000 
#    z 0.000000 0.000000 4.482500 
# 
# 
# High freq. dielectric constant tensor:
#      x y z
#    x 1.915610 0.000000 0.000000 
#    y 0.000000 1.906890 0.000000 
#    z 0.000000 0.000000 1.941000 
# 
# From -- ./inp_files/7519.got.cif
#   From: 2010.03.12/outbox.cif.g09.slc.cpg/sg61_4_cif.got.tgz:7519.got - 2010.04.10 19:05:03.
