data_PCOD8249383
_publ_section_title
;
Structure prediction by ZEFSAII (Michael W. Deem and Ramdas Pophale) SiO2 
 PCOD8249383
Probable space group: P B C A
;
_chemical_formula_sum "Si O2"
_cell_formula_units_Z 64
_cell_length_a 17.732748
_cell_length_b 18.636296
_cell_length_c 9.441297
_cell_angle_alpha 90.000000
_cell_angle_beta 90.000000
_cell_angle_gamma 90.000000
_cell_volume 3120.091295
_symmetry_space_group_name_H-M "P B C A"
_symmetry_group_IT_number 61
_symmetry_cell_setting 'orthorhombic'
loop_
_space_group_symop_operation_xyz
x,y,z
1/2-x,-y,1/2+z
1/2+x,1/2-y,-z
-x,1/2+y,1/2-z
-x,-y,-z
1/2+x,y,1/2-z
1/2-x,1/2+y,z
x,1/2-y,1/2+z
loop_
_atom_site_type_symbol
_atom_site_label
_atom_site_fract_x
_atom_site_fract_y
_atom_site_fract_z
Si Si1 0.678302 0.799047 0.532181
Si Si2 0.974050 0.576857 0.663174
Si Si3 0.713347 0.960411 0.514638
Si Si4 0.575968 0.192976 0.272480
Si Si5 0.691008 0.435523 0.259449
Si Si6 0.011106 0.776678 0.058867
Si Si7 0.083726 0.039249 0.138090
Si Si8 0.269378 0.722868 0.739282
O O1 0.672594 0.885154 0.550929
O O2 0.597413 0.768072 0.487635
O O3 0.743646 0.777441 0.422971
O O4 0.702317 0.762281 0.677946
O O5 0.898972 0.562955 0.752238
O O6 0.964288 0.563813 0.496655
O O7 0.002711 0.658514 0.673397
O O8 0.036925 0.521811 0.722700
O O9 0.789634 0.948199 0.424851
O O10 0.728490 0.003593 0.659371
O O11 0.662758 0.007445 0.409905
O O12 0.542645 0.214484 0.424044
O O13 0.515879 0.207149 0.146915
O O14 0.596539 0.108642 0.263536
O O15 0.651823 0.236961 0.243446
O O16 0.721721 0.358715 0.205168
#
# Coordination Sequence:
#
# PCOD8249383 Si02
#       8
#     8   8   8   8   8   8   8   8
#     4  11  24  40  63  92 130 161 208 254 319 368
#     4   9  17  37  61  81 117 154 202 241 295 365
#     4  10  22  39  61  88 120 162 206 254 307 367
#     4  11  23  38  66  90 122 159 210 254 307 365
#     4  10  22  39  61  89 121 164 204 256 307 368
#     4  11  21  41  61  90 121 164 200 253 308 371
#     4   9  19  35  60  87 110 156 207 245 288 369
#     4  11  24  41  60  95 127 163 202 265 312 373
#
# _framework density 20.512219000000002
#
# number of rings (size 3 to 8) (size 9 to 14) (size 15 to 20)
#    0.000    1.750    2.500    1.500    7.000    0.000 
#    2.250    0.000    0.000    1.500    0.000    0.000 
#    0.000    0.000    0.000    0.000    0.000    0.000 
#
# Total GULP energy -793645.019205 kJ/mol
# GULP energy per Si atom -12400.703425 kJ/mol
# Density = 2.046553 g / cm^3
# Si number density = 20.512219 Si / 1000 Ang^3
#
#
#
# Elastic Constant Matrix: (Units=GPa)
#
#
# Indices 1 2 3 4 5 6 
#
# 1 51.8973 15.3352 6.5939 0.0000 0.0000 0.0000
# 2 15.3352 95.1379 22.9298 0.0000 0.0000 0.0000
# 3 6.5939 22.9298 43.6218 0.0000 0.0000 0.0000
# 4 0.0000 0.0000 0.0000 30.0339 0.0000 0.0000
# 5 0.0000 0.0000 0.0000 0.0000 25.9322 0.0000
# 6 0.0000 0.0000 0.0000 0.0000 0.0000 31.8720
#
#
#
# Elastic Compliance Matrix: (Units=1/GPa)
#
#
# Indices 1 2 3 4 5 6 
#
# 1 0.020323 -0.002903 -0.001546 0.000000 0.000000 0.000000
# 2 -0.002903 0.012451 -0.006106 0.000000 0.000000 0.000000
# 3 -0.001546 -0.006106 0.026368 0.000000 0.000000 0.000000
# 4 0.000000 0.000000 0.000000 0.033296 0.000000 0.000000
# 5 0.000000 0.000000 0.000000 0.000000 0.038562 0.000000
# 6 0.000000 0.000000 0.000000 0.000000 0.000000 0.031376
#
#
# Mechanical properties :
#
#
# Convention : Reuss Voigt Hill
#
# Bulk Modulus (GPa) = 26.29420 31.15275 28.72348
# Shear Modulus (GPa) = 25.48917 27.28749 26.38833
#
# Velocity S-wave (km/s) = 3.52893 3.65129 3.59063
# Velocity P-wave (km/s) = 5.42688 5.74424 5.58781
#
# Compressibility (1/GPa) = 0.03803120
#
# Stress axis : x y z
#
# Youngs Moduli (GPa) = 49.20503 80.31717 37.92547
#
# Poissons Ratio (x) = 0.23318 0.05863
# Poissons Ratio (y) = 0.14286 0.23157
# Poissons Ratio (z) = 0.07607 0.49040
#
# Static dielectric constant tensor:
#      x y z
#    x 3.597750 0.000000 0.000000 
#    y 0.000000 4.071270 0.000000 
#    z 0.000000 0.000000 3.486550 
# 
# 
# High freq. dielectric constant tensor:
#      x y z
#    x 1.802780 0.000000 0.000000 
#    y 0.000000 1.813920 0.000000 
#    z 0.000000 0.000000 1.774750 
# 
# From -- ./inp_files/4091.got.cif
#   From: 2010.03.12/outbox.cif.g09.slc.cpg/sg61_3_cif.got.tgz:4091.got - 2010.04.10 19:05:03.
