data_PCOD8249589
_publ_section_title
;
Structure prediction by ZEFSAII (Michael W. Deem and Ramdas Pophale) SiO2 
 PCOD8249589
Probable space group: P B C A
;
_chemical_formula_sum "Si O2"
_cell_formula_units_Z 40
_cell_length_a 21.842315
_cell_length_b 10.450400
_cell_length_c 7.353058
_cell_angle_alpha 90.000000
_cell_angle_beta 90.000000
_cell_angle_gamma 90.000000
_cell_volume 1678.415848
_symmetry_space_group_name_H-M "P B C A"
_symmetry_group_IT_number 61
_symmetry_cell_setting 'orthorhombic'
loop_
_space_group_symop_operation_xyz
x,y,z
1/2-x,-y,1/2+z
1/2+x,1/2-y,-z
-x,1/2+y,1/2-z
-x,-y,-z
1/2+x,y,1/2-z
1/2-x,1/2+y,z
x,1/2-y,1/2+z
loop_
_atom_site_type_symbol
_atom_site_label
_atom_site_fract_x
_atom_site_fract_y
_atom_site_fract_z
Si Si1 0.172353 0.053050 0.048400
Si Si2 0.296074 0.399972 0.712729
Si Si3 0.516961 0.888467 0.253479
Si Si4 0.647826 0.849081 0.156960
Si Si5 0.039521 0.150135 0.119614
O O1 0.194917 0.024263 0.841943
O O2 0.226194 0.128485 0.153103
O O3 0.108599 0.129876 0.046864
O O4 0.164215 0.923957 0.161166
O O5 0.336766 0.421181 0.531556
O O6 0.316615 0.283562 0.838607
O O7 0.575682 0.821528 0.164776
O O8 0.513073 0.873493 0.470419
O O9 0.461167 0.799632 0.180298
O O10 0.521181 0.044487 0.220241
#
# Coordination Sequence:
#
# PCOD8249589 Si02
#       5
#     8   8   8   8   8
#     4  11  25  44  65 104 140 182 239 302 358 428
#     4  12  23  42  69  99 137 183 241 293 360 439
#     4  10  23  46  69 104 142 186 240 299 361 432
#     4  11  23  42  71  98 136 190 234 296 369 426
#     4  10  24  46  70 103 146 186 242 297 367 436
#
# _framework density 23.831997000000001
#
# number of rings (size 3 to 8) (size 9 to 14) (size 15 to 20)
#    0.000    1.200    4.000    1.200    5.600    2.400 
#    7.200    0.000    0.000    0.000    0.000    0.000 
#    0.000    0.000    0.000    0.000    0.000    0.000 
#
# Total GULP energy -495538.371036 kJ/mol
# GULP energy per Si atom -12388.459276 kJ/mol
# Density = 2.377775 g / cm^3
# Si number density = 23.831997 Si / 1000 Ang^3
#
#
#
# Elastic Constant Matrix: (Units=GPa)
#
#
# Indices 1 2 3 4 5 6 
#
# 1 139.8803 56.4987 45.3708 0.0000 0.0000 0.0000
# 2 56.4987 67.2178 33.6038 0.0000 0.0000 0.0000
# 3 45.3708 33.6038 107.5510 0.0000 0.0000 0.0000
# 4 0.0000 0.0000 0.0000 25.9518 0.0000 0.0000
# 5 0.0000 0.0000 0.0000 0.0000 36.6226 0.0000
# 6 0.0000 0.0000 0.0000 0.0000 0.0000 29.6681
#
#
#
# Elastic Compliance Matrix: (Units=1/GPa)
#
#
# Indices 1 2 3 4 5 6 
#
# 1 0.011216 -0.008369 -0.002117 0.000000 0.000000 0.000000
# 2 -0.008369 0.023876 -0.003929 0.000000 0.000000 0.000000
# 3 -0.002117 -0.003929 0.011419 0.000000 0.000000 0.000000
# 4 0.000000 0.000000 0.000000 0.038533 0.000000 0.000000
# 5 0.000000 0.000000 0.000000 0.000000 0.027306 0.000000
# 6 0.000000 0.000000 0.000000 0.000000 0.000000 0.033706
#
#
# Mechanical properties :
#
#
# Convention : Reuss Voigt Hill
#
# Bulk Modulus (GPa) = 56.56061 65.06617 60.81339
# Shear Modulus (GPa) = 27.65814 30.39355 29.02584
#
# Velocity S-wave (km/s) = 3.41038 3.57504 3.49368
# Velocity P-wave (km/s) = 6.26834 6.66352 6.46895
#
# Compressibility (1/GPa) = 0.01768015
#
# Stress axis : x y z
#
# Youngs Moduli (GPa) = 89.15955 41.88318 87.57717
#
# Poissons Ratio (x) = 0.35053 0.18536
# Poissons Ratio (y) = 0.74619 0.34412
# Poissons Ratio (z) = 0.18871 0.16457
#
# Static dielectric constant tensor:
#      x y z
#    x 4.488250 0.000000 0.000000 
#    y 0.000000 4.243780 0.000000 
#    z 0.000000 0.000000 4.134770 
# 
# 
# High freq. dielectric constant tensor:
#      x y z
#    x 1.946280 0.000000 0.000000 
#    y 0.000000 1.928910 0.000000 
#    z 0.000000 0.000000 1.944810 
# 
# From -- ./inp_files/3822.got.cif
#   From: 2010.03.12/outbox.cif.g09.slc.cpg/sg61_2_cif.got.tgz:3822.got - 2010.04.10 19:05:03.
