data_PCOD8249185
_publ_section_title
;
Structure prediction by ZEFSAII (Michael W. Deem and Ramdas Pophale) SiO2 
 PCOD8249185
Probable space group: P B C A
;
_chemical_formula_sum "Si O2"
_cell_formula_units_Z 48
_cell_length_a 13.517475
_cell_length_b 20.106571
_cell_length_c 8.742165
_cell_angle_alpha 90.000000
_cell_angle_beta 90.000000
_cell_angle_gamma 90.000000
_cell_volume 2376.033645
_symmetry_space_group_name_H-M "P B C A"
_symmetry_group_IT_number 61
_symmetry_cell_setting 'orthorhombic'
loop_
_space_group_symop_operation_xyz
x,y,z
1/2-x,-y,1/2+z
1/2+x,1/2-y,-z
-x,1/2+y,1/2-z
-x,-y,-z
1/2+x,y,1/2-z
1/2-x,1/2+y,z
x,1/2-y,1/2+z
loop_
_atom_site_type_symbol
_atom_site_label
_atom_site_fract_x
_atom_site_fract_y
_atom_site_fract_z
Si Si1 0.400664 0.032129 0.063232
Si Si2 0.992713 0.449090 0.639136
Si Si3 0.409742 0.228976 0.693814
Si Si4 0.987320 0.337330 0.022645
Si Si5 0.156248 0.420302 0.883561
Si Si6 0.653134 0.660935 0.086834
O O1 0.407629 0.022852 0.246066
O O2 0.398604 0.110637 0.020803
O O3 0.500000 0.000000 0.000000
O O4 0.316317 0.987948 0.980555
O O5 0.952966 0.376881 0.587645
O O6 0.000000 0.500000 0.500000
O O7 0.098223 0.438196 0.725600
O O8 0.478479 0.181444 0.798717
O O9 0.479552 0.271905 0.582158
O O10 0.334700 0.185372 0.588956
O O11 0.344773 0.275500 0.802989
O O12 0.092722 0.370785 0.990191
O O13 0.260127 0.386109 0.850232
#
# Coordination Sequence:
#
# PCOD8249185 Si02
#       6
#     8   8   8   8   8   8
#     4   8  17  36  57  81 116 153 189 249 301 347
#     4  10  21  39  62  92 123 157 203 257 303 367
#     4  10  21  38  60  81 122 161 196 254 296 366
#     4   9  18  38  59  79 114 162 194 243 310 354
#     4  10  22  39  62  87 124 160 201 256 305 360
#     4  11  23  40  60  94 120 157 212 246 303 366
#
# _framework density 20.201733000000001
#
# number of rings (size 3 to 8) (size 9 to 14) (size 15 to 20)
#    0.000    2.667    3.333    0.000    7.000    2.667 
#    0.000    1.667    0.000    0.000    0.000    0.000 
#    0.000    0.000    0.000    0.000    0.000    0.000 
#
# Total GULP energy -594652.077522 kJ/mol
# GULP energy per Si atom -12388.584948 kJ/mol
# Density = 2.015575 g / cm^3
# Si number density = 20.201733 Si / 1000 Ang^3
#
#
#
# Elastic Constant Matrix: (Units=GPa)
#
#
# Indices 1 2 3 4 5 6 
#
# 1 46.5355 23.6914 29.2903 0.0000 0.0000 0.0000
# 2 23.6914 92.3565 58.8877 0.0000 0.0000 0.0000
# 3 29.2903 58.8877 152.5547 0.0000 0.0000 0.0000
# 4 0.0000 0.0000 0.0000 48.3994 0.0000 0.0000
# 5 0.0000 0.0000 0.0000 0.0000 20.1766 0.0000
# 6 0.0000 0.0000 0.0000 0.0000 0.0000 31.2013
#
#
#
# Elastic Compliance Matrix: (Units=1/GPa)
#
#
# Indices 1 2 3 4 5 6 
#
# 1 0.025834 -0.004595 -0.003186 0.000000 0.000000 0.000000
# 2 -0.004595 0.015180 -0.004977 0.000000 0.000000 0.000000
# 3 -0.003186 -0.004977 0.009088 0.000000 0.000000 0.000000
# 4 0.000000 0.000000 0.000000 0.020661 0.000000 0.000000
# 5 0.000000 0.000000 0.000000 0.000000 0.049562 0.000000
# 6 0.000000 0.000000 0.000000 0.000000 0.000000 0.032050
#
#
# Mechanical properties :
#
#
# Convention : Reuss Voigt Hill
#
# Bulk Modulus (GPa) = 40.67653 57.24281 48.95967
# Shear Modulus (GPa) = 26.86895 31.92729 29.39812
#
# Velocity S-wave (km/s) = 3.65092 3.97977 3.81888
# Velocity P-wave (km/s) = 6.16045 7.03670 6.61310
#
# Compressibility (1/GPa) = 0.02458420
#
# Stress axis : x y z
#
# Youngs Moduli (GPa) = 38.70871 65.87594 110.03420
#
# Poissons Ratio (x) = 0.30273 0.35059
# Poissons Ratio (y) = 0.17788 0.54768
# Poissons Ratio (z) = 0.12333 0.32789
#
# Static dielectric constant tensor:
#      x y z
#    x 3.329240 0.000000 0.000000 
#    y 0.000000 4.699440 0.000000 
#    z 0.000000 0.000000 4.255740 
# 
# 
# High freq. dielectric constant tensor:
#      x y z
#    x 1.733790 0.000000 0.000000 
#    y 0.000000 1.806340 0.000000 
#    z 0.000000 0.000000 1.801090 
# 
# From -- ./inp_files/3629.got.cif
#   From: 2010.03.12/outbox.cif.g09.slc.cpg/sg61_2_cif.got.tgz:3629.got - 2010.04.10 19:05:03.
