data_PCOD8249587
_publ_section_title
;
Structure prediction by ZEFSAII (Michael W. Deem and Ramdas Pophale) SiO2 
 PCOD8249587
Probable space group: P B C A
;
_chemical_formula_sum "Si O2"
_cell_formula_units_Z 48
_cell_length_a 9.668588
_cell_length_b 21.832954
_cell_length_c 9.453329
_cell_angle_alpha 90.000000
_cell_angle_beta 90.000000
_cell_angle_gamma 90.000000
_cell_volume 1995.539491
_symmetry_space_group_name_H-M "P B C A"
_symmetry_group_IT_number 61
_symmetry_cell_setting 'orthorhombic'
loop_
_space_group_symop_operation_xyz
x,y,z
1/2-x,-y,1/2+z
1/2+x,1/2-y,-z
-x,1/2+y,1/2-z
-x,-y,-z
1/2+x,y,1/2-z
1/2-x,1/2+y,z
x,1/2-y,1/2+z
loop_
_atom_site_type_symbol
_atom_site_label
_atom_site_fract_x
_atom_site_fract_y
_atom_site_fract_z
Si Si1 0.177540 0.815653 0.797192
Si Si2 0.181096 0.458872 0.067304
Si Si3 0.952556 0.379848 0.458878
Si Si4 0.033708 0.354764 0.921555
Si Si5 0.100068 0.819055 0.318765
Si Si6 0.282867 0.565150 0.886723
O O1 0.335758 0.835504 0.825270
O O2 0.177296 0.742915 0.772065
O O3 0.110212 0.853357 0.666634
O O4 0.072853 0.828117 0.925327
O O5 0.320860 0.422831 0.040001
O O6 0.166963 0.466636 0.237845
O O7 0.055319 0.421115 0.994924
O O8 0.183681 0.521957 0.979664
O O9 0.084374 0.422765 0.486817
O O10 0.984704 0.344838 0.313337
O O11 0.009441 0.308110 0.053441
O O12 0.212007 0.869767 0.361757
#
# Coordination Sequence:
#
# PCOD8249587 Si02
#       6
#     8   8   8   8   8   8
#     4  11  27  42  75 103 143 189 240 295 357 435
#     4  10  24  45  69 104 139 188 241 291 359 429
#     4  10  23  46  68 101 141 185 239 292 360 426
#     4  11  26  48  66 106 143 184 244 295 353 432
#     4  11  25  44  69 101 140 189 236 294 358 423
#     4  11  24  43  72 102 145 190 233 303 358 428
#
# _framework density 24.053644999999999
#
# number of rings (size 3 to 8) (size 9 to 14) (size 15 to 20)
#    0.000    1.333    1.667    1.500    9.333    2.000 
#    3.000    0.000    0.000    0.000    0.000    0.000 
#    0.000    0.000    0.000    0.000    0.000    0.000 
#
# Total GULP energy -594982.672911 kJ/mol
# GULP energy per Si atom -12395.472352 kJ/mol
# Density = 2.399890 g / cm^3
# Si number density = 24.053645 Si / 1000 Ang^3
#
#
#
# Elastic Constant Matrix: (Units=GPa)
#
#
# Indices 1 2 3 4 5 6 
#
# 1 48.1591 18.5958 46.8605 0.0000 0.0000 0.0000
# 2 18.5958 80.0522 19.6770 0.0000 0.0000 0.0000
# 3 46.8605 19.6770 89.6375 0.0000 0.0000 0.0000
# 4 0.0000 0.0000 0.0000 35.7064 0.0000 0.0000
# 5 0.0000 0.0000 0.0000 0.0000 44.8755 0.0000
# 6 0.0000 0.0000 0.0000 0.0000 0.0000 22.3688
#
#
#
# Elastic Compliance Matrix: (Units=1/GPa)
#
#
# Indices 1 2 3 4 5 6 
#
# 1 0.043957 -0.004823 -0.021921 0.000000 0.000000 0.000000
# 2 -0.004823 0.013733 -0.000494 0.000000 0.000000 0.000000
# 3 -0.021921 -0.000494 0.022724 0.000000 0.000000 0.000000
# 4 0.000000 0.000000 0.000000 0.028006 0.000000 0.000000
# 5 0.000000 0.000000 0.000000 0.000000 0.022284 0.000000
# 6 0.000000 0.000000 0.000000 0.000000 0.000000 0.044705
#
#
# Mechanical properties :
#
#
# Convention : Reuss Voigt Hill
#
# Bulk Modulus (GPa) = 38.55063 43.12394 40.83728
# Shear Modulus (GPa) = 20.96171 29.43782 25.19976
#
# Velocity S-wave (km/s) = 2.95525 3.50214 3.24025
# Velocity P-wave (km/s) = 5.26368 5.85837 5.56897
#
# Compressibility (1/GPa) = 0.02593991
#
# Stress axis : x y z
#
# Youngs Moduli (GPa) = 22.74976 72.81481 44.00611
#
# Poissons Ratio (x) = 0.35117 0.96465
# Poissons Ratio (y) = 0.10972 0.02172
# Poissons Ratio (z) = 0.49869 0.03593
#
# Static dielectric constant tensor:
#      x y z
#    x 4.224310 0.000000 0.000000 
#    y 0.000000 4.187790 0.000000 
#    z 0.000000 0.000000 4.666840 
# 
# 
# High freq. dielectric constant tensor:
#      x y z
#    x 1.958010 0.000000 0.000000 
#    y 0.000000 1.945060 0.000000 
#    z 0.000000 0.000000 1.962160 
# 
# From -- ./inp_files/2289.got.cif
#   From: 2010.03.12/outbox.cif.g09.slc.cpg/sg61_2_cif.got.tgz:2289.got - 2010.04.10 19:05:03.
