data_PCOD8249297
_publ_section_title
;
Structure prediction by ZEFSAII (Michael W. Deem and Ramdas Pophale) SiO2 
 PCOD8249297
Probable space group: P B C A
;
_chemical_formula_sum "Si O2"
_cell_formula_units_Z 56
_cell_length_a 14.101904
_cell_length_b 13.564918
_cell_length_c 13.462796
_cell_angle_alpha 90.000000
_cell_angle_beta 90.000000
_cell_angle_gamma 90.000000
_cell_volume 2575.314017
_symmetry_space_group_name_H-M "P B C A"
_symmetry_group_IT_number 61
_symmetry_cell_setting 'orthorhombic'
loop_
_space_group_symop_operation_xyz
x,y,z
1/2-x,-y,1/2+z
1/2+x,1/2-y,-z
-x,1/2+y,1/2-z
-x,-y,-z
1/2+x,y,1/2-z
1/2-x,1/2+y,z
x,1/2-y,1/2+z
loop_
_atom_site_type_symbol
_atom_site_label
_atom_site_fract_x
_atom_site_fract_y
_atom_site_fract_z
Si Si1 0.808672 0.564830 0.859660
Si Si2 0.439131 0.002947 0.294689
Si Si3 0.200835 0.351721 0.934281
Si Si4 0.549031 0.198908 0.612518
Si Si5 0.424616 0.754571 0.677881
Si Si6 0.855772 0.547540 0.268486
Si Si7 0.586235 0.816065 0.559328
O O1 0.876024 0.484097 0.805589
O O2 0.842695 0.673307 0.826656
O O3 0.704220 0.537576 0.822238
O O4 0.810116 0.565469 0.979537
O O5 0.406531 0.904976 0.353362
O O6 0.544350 0.994093 0.249486
O O7 0.428671 0.087790 0.374394
O O8 0.124465 0.263936 0.951131
O O9 0.192683 0.412344 0.832325
O O10 0.302014 0.294264 0.941760
O O11 0.529377 0.262459 0.711610
O O12 0.452228 0.174674 0.553221
O O13 0.373220 0.859605 0.656966
O O14 0.515975 0.733522 0.607357
#
# Coordination Sequence:
#
# PCOD8249297 Si02
#       7
#     8   8   8   8   8   8   8
#     4  11  21  44  64 101 136 175 225 277 340 400
#     4  10  22  41  68  92 134 180 220 281 336 403
#     4  11  23  41  68 102 135 173 229 279 332 413
#     4  10  21  41  64  97 134 174 228 274 331 408
#     4   9  22  42  65  94 138 174 227 281 329 399
#     4  10  22  44  66  97 135 177 225 278 335 407
#     4  11  20  43  68  95 134 178 223 277 344 393
#
# _framework density 21.74492
#
# number of rings (size 3 to 8) (size 9 to 14) (size 15 to 20)
#    0.000    1.714    2.857    1.286    0.000    1.714 
#   23.143    0.000    0.000    0.000    0.000    0.000 
#    0.000    0.000    0.000    0.000    0.000    0.000 
#
# Total GULP energy -693763.490290 kJ/mol
# GULP energy per Si atom -12388.633755 kJ/mol
# Density = 2.169543 g / cm^3
# Si number density = 21.744920 Si / 1000 Ang^3
#
#
#
# Elastic Constant Matrix: (Units=GPa)
#
#
# Indices 1 2 3 4 5 6 
#
# 1 113.1387 20.6986 32.8489 0.0000 0.0000 0.0000
# 2 20.6986 66.8638 13.4469 0.0000 0.0000 0.0000
# 3 32.8489 13.4469 70.3789 0.0000 0.0000 0.0000
# 4 0.0000 0.0000 0.0000 29.3606 0.0000 0.0000
# 5 0.0000 0.0000 0.0000 0.0000 39.0983 0.0000
# 6 0.0000 0.0000 0.0000 0.0000 0.0000 34.9604
#
#
#
# Elastic Compliance Matrix: (Units=1/GPa)
#
#
# Indices 1 2 3 4 5 6 
#
# 1 0.010574 -0.002372 -0.004482 0.000000 0.000000 0.000000
# 2 -0.002372 0.016085 -0.001966 0.000000 0.000000 0.000000
# 3 -0.004482 -0.001966 0.016677 0.000000 0.000000 0.000000
# 4 0.000000 0.000000 0.000000 0.034059 0.000000 0.000000
# 5 0.000000 0.000000 0.000000 0.000000 0.025577 0.000000
# 6 0.000000 0.000000 0.000000 0.000000 0.000000 0.028604
#
#
# Mechanical properties :
#
#
# Convention : Reuss Voigt Hill
#
# Bulk Modulus (GPa) = 38.91768 42.70781 40.81275
# Shear Modulus (GPa) = 31.68941 32.90966 32.29954
#
# Velocity S-wave (km/s) = 3.82163 3.89452 3.85825
# Velocity P-wave (km/s) = 6.11632 6.31712 6.21753
#
# Compressibility (1/GPa) = 0.02569526
#
# Stress axis : x y z
#
# Youngs Moduli (GPa) = 94.57149 62.16782 59.96455
#
# Poissons Ratio (x) = 0.14746 0.26877
# Poissons Ratio (y) = 0.22432 0.11791
# Poissons Ratio (z) = 0.42388 0.12224
#
# Static dielectric constant tensor:
#      x y z
#    x 4.186190 0.000000 0.000000 
#    y 0.000000 3.771330 0.000000 
#    z 0.000000 0.000000 4.196680 
# 
# 
# High freq. dielectric constant tensor:
#      x y z
#    x 1.855140 0.000000 0.000000 
#    y 0.000000 1.834380 0.000000 
#    z 0.000000 0.000000 1.864430 
# 
# From -- ./inp_files/7529.got.cif
#   From: 2010.03.12/outbox.cif.g09.slc.cpg/sg61_4_cif.got.tgz:7529.got - 2010.04.10 19:05:03.
