data_PCOD8249665
_publ_section_title
;
Structure prediction by ZEFSAII (Michael W. Deem and Ramdas Pophale) SiO2 
 PCOD8249665
Probable space group: P B C A
;
_chemical_formula_sum "Si O2"
_cell_formula_units_Z 40
_cell_length_a 13.574600
_cell_length_b 9.071251
_cell_length_c 13.649095
_cell_angle_alpha 90.000000
_cell_angle_beta 90.000000
_cell_angle_gamma 90.000000
_cell_volume 1680.730502
_symmetry_space_group_name_H-M "P B C A"
_symmetry_group_IT_number 61
_symmetry_cell_setting 'orthorhombic'
loop_
_space_group_symop_operation_xyz
x,y,z
1/2-x,-y,1/2+z
1/2+x,1/2-y,-z
-x,1/2+y,1/2-z
-x,-y,-z
1/2+x,y,1/2-z
1/2-x,1/2+y,z
x,1/2-y,1/2+z
loop_
_atom_site_type_symbol
_atom_site_label
_atom_site_fract_x
_atom_site_fract_y
_atom_site_fract_z
Si Si1 0.138475 0.145480 0.855706
Si Si2 0.258471 0.913293 0.751436
Si Si3 0.036597 0.035217 0.202743
Si Si4 0.546275 0.230695 0.962610
Si Si5 0.081803 0.916386 0.614515
O O1 0.190092 0.265614 0.788366
O O2 0.203921 0.997453 0.840534
O O3 0.129758 0.193113 0.968727
O O4 0.027623 0.110740 0.817530
O O5 0.348101 0.009668 0.705203
O O6 0.183559 0.868532 0.665020
O O7 0.012176 0.155951 0.119871
O O8 0.009013 0.099414 0.309718
O O9 0.595657 0.086352 0.916818
O O10 0.446827 0.185528 0.022090
#
# Coordination Sequence:
#
# PCOD8249665 Si02
#       5
#     8   8   8   8   8
#     4  11  26  46  73 113 147 204 256 314 376 460
#     4  11  25  48  78 110 154 204 256 314 389 455
#     4  11  23  47  76 107 159 197 250 317 389 441
#     4  11  24  50  75 114 149 204 255 317 388 457
#     4  10  25  47  79 113 156 197 255 323 385 463
#
# _framework density 23.799175999999999
#
# number of rings (size 3 to 8) (size 9 to 14) (size 15 to 20)
#    0.000    1.200    2.000    3.000    2.800    3.200 
#    7.200    0.000    0.000    0.000    0.000    0.000 
#    0.000    0.000    0.000    0.000    0.000    0.000 
#
# Total GULP energy -495983.383064 kJ/mol
# GULP energy per Si atom -12399.584577 kJ/mol
# Density = 2.374501 g / cm^3
# Si number density = 23.799176 Si / 1000 Ang^3
#
#
#
# Elastic Constant Matrix: (Units=GPa)
#
#
# Indices 1 2 3 4 5 6 
#
# 1 138.8968 21.5665 33.7451 0.0000 0.0000 0.0000
# 2 21.5665 87.7046 40.7894 0.0000 0.0000 0.0000
# 3 33.7451 40.7894 124.7870 0.0000 0.0000 0.0000
# 4 0.0000 0.0000 0.0000 58.0618 0.0000 0.0000
# 5 0.0000 0.0000 0.0000 0.0000 32.2581 0.0000
# 6 0.0000 0.0000 0.0000 0.0000 0.0000 31.9681
#
#
#
# Elastic Compliance Matrix: (Units=1/GPa)
#
#
# Indices 1 2 3 4 5 6 
#
# 1 0.007796 -0.001104 -0.001747 0.000000 0.000000 0.000000
# 2 -0.001104 0.013602 -0.004148 0.000000 0.000000 0.000000
# 3 -0.001747 -0.004148 0.009842 0.000000 0.000000 0.000000
# 4 0.000000 0.000000 0.000000 0.017223 0.000000 0.000000
# 5 0.000000 0.000000 0.000000 0.000000 0.031000 0.000000
# 6 0.000000 0.000000 0.000000 0.000000 0.000000 0.031281
#
#
# Mechanical properties :
#
#
# Convention : Reuss Voigt Hill
#
# Bulk Modulus (GPa) = 57.99910 60.39892 59.19901
# Shear Modulus (GPa) = 38.31734 41.47679 39.89706
#
# Velocity S-wave (km/s) = 4.01687 4.17919 4.09883
# Velocity P-wave (km/s) = 6.77767 6.98006 6.87961
#
# Compressibility (1/GPa) = 0.01724165
#
# Stress axis : x y z
#
# Youngs Moduli (GPa) = 128.27881 73.51625 101.60705
#
# Poissons Ratio (x) = 0.08119 0.17752
# Poissons Ratio (y) = 0.14167 0.42143
# Poissons Ratio (z) = 0.22411 0.30492
#
# Static dielectric constant tensor:
#      x y z
#    x 4.398250 0.000000 0.000000 
#    y 0.000000 4.216690 0.000000 
#    z 0.000000 0.000000 4.374690 
# 
# 
# High freq. dielectric constant tensor:
#      x y z
#    x 1.940920 0.000000 0.000000 
#    y 0.000000 1.950880 0.000000 
#    z 0.000000 0.000000 1.943970 
# 
# From -- ./inp_files/7709.got.cif
#   From: 2010.03.12/outbox.cif.g09.slc.cpg/sg61_4_cif.got.tgz:7709.got - 2010.04.10 19:05:03.
