data_PCOD8249898
_publ_section_title
;
Structure prediction by ZEFSAII (Michael W. Deem and Ramdas Pophale) SiO2 
 PCOD8249898
Probable space group: P B C A
;
_chemical_formula_sum "Si O2"
_cell_formula_units_Z 40
_cell_length_a 14.064418
_cell_length_b 24.556577
_cell_length_c 4.954941
_cell_angle_alpha 90.000000
_cell_angle_beta 90.000000
_cell_angle_gamma 90.000000
_cell_volume 1711.307612
_symmetry_space_group_name_H-M "P B C A"
_symmetry_group_IT_number 61
_symmetry_cell_setting 'orthorhombic'
loop_
_space_group_symop_operation_xyz
x,y,z
1/2-x,-y,1/2+z
1/2+x,1/2-y,-z
-x,1/2+y,1/2-z
-x,-y,-z
1/2+x,y,1/2-z
1/2-x,1/2+y,z
x,1/2-y,1/2+z
loop_
_atom_site_type_symbol
_atom_site_label
_atom_site_fract_x
_atom_site_fract_y
_atom_site_fract_z
Si Si1 0.232238 0.465362 0.370903
Si Si2 0.522428 0.036995 0.746042
Si Si3 0.118373 0.213549 0.086396
Si Si4 0.311112 0.353131 0.549954
Si Si5 0.933499 0.351983 0.416929
O O1 0.212905 0.500444 0.641229
O O2 0.296676 0.414066 0.442492
O O3 0.000000 0.500000 0.500000
O O4 0.132594 0.445727 0.247398
O O5 0.461553 0.091376 0.722528
O O6 0.500000 0.000000 0.000000
O O7 0.117873 0.265812 0.892895
O O8 0.025075 0.178577 0.027430
O O9 0.211362 0.177326 0.055446
O O10 0.379459 0.321657 0.332728
O O11 0.358195 0.357589 0.842354
#
# Coordination Sequence:
#
# PCOD8249898 Si02
#       5
#     8   8   8   8   8
#     4  12  24  42  68 104 146 189 238 290 353 436
#     4  12  24  42  68 104 146 189 238 290 357 437
#     4  12  28  50  76 107 145 193 251 312 369 431
#     4  12  26  47  74 106 149 190 243 304 367 438
#     4  12  26  47  74 107 148 190 244 305 368 437
#
# _framework density 23.373940000000001
#
# number of rings (size 3 to 8) (size 9 to 14) (size 15 to 20)
#    0.000    0.000    2.000    9.600    0.000    4.800 
#    0.000    0.000    0.000    0.000    0.000    0.000 
#    0.000    0.000    0.000    0.000    0.000    0.000 
#
# Total GULP energy -496085.700955 kJ/mol
# GULP energy per Si atom -12402.142524 kJ/mol
# Density = 2.332074 g / cm^3
# Si number density = 23.373940 Si / 1000 Ang^3
#
#
#
# Elastic Constant Matrix: (Units=GPa)
#
#
# Indices 1 2 3 4 5 6 
#
# 1 149.4379 40.1553 35.7756 0.0000 0.0000 0.0000
# 2 40.1553 82.7124 24.8090 0.0000 0.0000 0.0000
# 3 35.7756 24.8090 141.0675 0.0000 0.0000 0.0000
# 4 0.0000 0.0000 0.0000 39.3760 0.0000 0.0000
# 5 0.0000 0.0000 0.0000 0.0000 48.0285 0.0000
# 6 0.0000 0.0000 0.0000 0.0000 0.0000 25.5970
#
#
#
# Elastic Compliance Matrix: (Units=1/GPa)
#
#
# Indices 1 2 3 4 5 6 
#
# 1 0.007954 -0.003438 -0.001413 0.000000 0.000000 0.000000
# 2 -0.003438 0.014249 -0.001634 0.000000 0.000000 0.000000
# 3 -0.001413 -0.001634 0.007734 0.000000 0.000000 0.000000
# 4 0.000000 0.000000 0.000000 0.025396 0.000000 0.000000
# 5 0.000000 0.000000 0.000000 0.000000 0.020821 0.000000
# 6 0.000000 0.000000 0.000000 0.000000 0.000000 0.039067
#
#
# Mechanical properties :
#
#
# Convention : Reuss Voigt Hill
#
# Bulk Modulus (GPa) = 58.93247 63.85529 61.39388
# Shear Modulus (GPa) = 37.35631 40.76551 39.06091
#
# Velocity S-wave (km/s) = 4.00209 4.18072 4.09238
# Velocity P-wave (km/s) = 6.82812 7.11919 6.97518
#
# Compressibility (1/GPa) = 0.01696858
#
# Stress axis : x y z
#
# Youngs Moduli (GPa) = 125.72870 70.17956 129.29229
#
# Poissons Ratio (x) = 0.24125 0.18263
# Poissons Ratio (y) = 0.43221 0.21128
# Poissons Ratio (z) = 0.17759 0.11468
#
# Static dielectric constant tensor:
#      x y z
#    x 4.535820 0.000000 0.000000 
#    y 0.000000 4.153370 0.000000 
#    z 0.000000 0.000000 4.424290 
# 
# 
# High freq. dielectric constant tensor:
#      x y z
#    x 1.958500 0.000000 0.000000 
#    y 0.000000 1.912650 0.000000 
#    z 0.000000 0.000000 1.945850 
# 
# From -- ./inp_files/221.got.cif
#   From: 2010.03.12/outbox.cif.g09.slc.cpg/sg61_1_cif.got.tgz:221.got - 2010.04.10 19:05:03.
