data_PCOD8249839
_publ_section_title
;
Structure prediction by ZEFSAII (Michael W. Deem and Ramdas Pophale) SiO2 
 PCOD8249839
Probable space group: P B C A
;
_chemical_formula_sum "Si O2"
_cell_formula_units_Z 32
_cell_length_a 18.695404
_cell_length_b 8.187465
_cell_length_c 7.292172
_cell_angle_alpha 90.000000
_cell_angle_beta 90.000000
_cell_angle_gamma 90.000000
_cell_volume 1116.197935
_symmetry_space_group_name_H-M "P B C A"
_symmetry_group_IT_number 61
_symmetry_cell_setting 'orthorhombic'
loop_
_space_group_symop_operation_xyz
x,y,z
1/2-x,-y,1/2+z
1/2+x,1/2-y,-z
-x,1/2+y,1/2-z
-x,-y,-z
1/2+x,y,1/2-z
1/2-x,1/2+y,z
x,1/2-y,1/2+z
loop_
_atom_site_type_symbol
_atom_site_label
_atom_site_fract_x
_atom_site_fract_y
_atom_site_fract_z
Si Si1 0.960458 0.735483 0.951966
Si Si2 0.951351 0.442880 0.291510
Si Si3 0.819967 0.339373 0.526839
Si Si4 0.174269 0.008791 0.583155
O O1 0.889987 0.626754 0.979224
O O2 0.032973 0.628549 0.914002
O O3 0.950752 0.859548 0.773127
O O4 0.976416 0.875113 0.104913
O O5 0.879125 0.380289 0.377269
O O6 0.744718 0.382639 0.434304
O O7 0.834578 0.438833 0.711997
O O8 0.821199 0.143212 0.559189
#
# Coordination Sequence:
#
# PCOD8249839 Si02
#       4
#     8   8   8   8
#     4  11  25  46  73 105 143 192 247 307 371 446
#     4  11  24  45  73 106 145 191 246 306 374 446
#     4  12  26  47  74 109 152 199 250 312 379 448
#     4  12  27  47  74 108 150 196 251 311 376 454
#
# _framework density 28.668749999999999
#
# number of rings (size 3 to 8) (size 9 to 14) (size 15 to 20)
#    0.000    0.500    0.000    9.000    0.000   10.000 
#    0.000    0.000    0.000    0.000    0.000    0.000 
#    0.000    0.000    0.000    0.000    0.000    0.000 
#
# Total GULP energy -396739.849422 kJ/mol
# GULP energy per Si atom -12398.120294 kJ/mol
# Density = 2.860350 g / cm^3
# Si number density = 28.668750 Si / 1000 Ang^3
#
#
#
# Elastic Constant Matrix: (Units=GPa)
#
#
# Indices 1 2 3 4 5 6 
#
# 1 191.9437 88.8210 45.2607 0.0000 0.0000 0.0000
# 2 88.8210 233.1906 32.2409 0.0000 0.0000 0.0000
# 3 45.2607 32.2409 81.1678 0.0000 0.0000 0.0000
# 4 0.0000 0.0000 0.0000 51.3935 0.0000 0.0000
# 5 0.0000 0.0000 0.0000 0.0000 46.2669 0.0000
# 6 0.0000 0.0000 0.0000 0.0000 0.0000 64.1196
#
#
#
# Elastic Compliance Matrix: (Units=1/GPa)
#
#
# Indices 1 2 3 4 5 6 
#
# 1 0.006948 -0.002233 -0.002987 0.000000 0.000000 0.000000
# 2 -0.002233 0.005255 -0.000842 0.000000 0.000000 0.000000
# 3 -0.002987 -0.000842 0.014320 0.000000 0.000000 0.000000
# 4 0.000000 0.000000 0.000000 0.019458 0.000000 0.000000
# 5 0.000000 0.000000 0.000000 0.000000 0.021614 0.000000
# 6 0.000000 0.000000 0.000000 0.000000 0.000000 0.015596
#
#
# Mechanical properties :
#
#
# Convention : Reuss Voigt Hill
#
# Bulk Modulus (GPa) = 69.45260 93.21636 81.33448
# Shear Modulus (GPa) = 49.94243 55.02131 52.48187
#
# Velocity S-wave (km/s) = 4.17832 4.38563 4.28323
# Velocity P-wave (km/s) = 6.89610 7.63090 7.27279
#
# Compressibility (1/GPa) = 0.01439831
#
# Stress axis : x y z
#
# Youngs Moduli (GPa) = 143.93294 190.27892 69.83087
#
# Poissons Ratio (x) = 0.42496 0.20859
# Poissons Ratio (y) = 0.32145 0.05881
# Poissons Ratio (z) = 0.42993 0.16025
#
# Static dielectric constant tensor:
#      x y z
#    x 5.084010 0.000000 0.000000 
#    y 0.000000 6.121750 0.000000 
#    z 0.000000 0.000000 5.882620 
# 
# 
# High freq. dielectric constant tensor:
#      x y z
#    x 2.164050 0.000000 0.000000 
#    y 0.000000 2.195360 0.000000 
#    z 0.000000 0.000000 2.195190 
# 
# From -- ./inp_files/3768.got.cif
#   From: 2010.03.12/outbox.cif.g09.slc.cpg/sg61_2_cif.got.tgz:3768.got - 2010.04.10 19:05:03.
