data_PCOD8249692
_publ_section_title
;
Structure prediction by ZEFSAII (Michael W. Deem and Ramdas Pophale) SiO2 
 PCOD8249692
Probable space group: P B C A
;
_chemical_formula_sum "Si O2"
_cell_formula_units_Z 64
_cell_length_a 10.401813
_cell_length_b 9.822553
_cell_length_c 28.239901
_cell_angle_alpha 90.000000
_cell_angle_beta 90.000000
_cell_angle_gamma 90.000000
_cell_volume 2885.337317
_symmetry_space_group_name_H-M "P B C A"
_symmetry_group_IT_number 61
_symmetry_cell_setting 'orthorhombic'
loop_
_space_group_symop_operation_xyz
x,y,z
1/2-x,-y,1/2+z
1/2+x,1/2-y,-z
-x,1/2+y,1/2-z
-x,-y,-z
1/2+x,y,1/2-z
1/2-x,1/2+y,z
x,1/2-y,1/2+z
loop_
_atom_site_type_symbol
_atom_site_label
_atom_site_fract_x
_atom_site_fract_y
_atom_site_fract_z
Si Si1 0.738656 0.632485 0.430918
Si Si2 0.384540 0.211031 0.915403
Si Si3 0.451953 0.160366 0.146094
Si Si4 0.146373 0.410425 0.204721
Si Si5 0.430292 0.838066 0.650001
Si Si6 0.171056 0.080647 0.419570
Si Si7 0.937923 0.412484 0.286584
Si Si8 0.123637 0.363927 0.022334
O O1 0.631150 0.707965 0.399010
O O2 0.860530 0.604167 0.396697
O O3 0.779186 0.735174 0.473090
O O4 0.688462 0.491216 0.451472
O O5 0.449280 0.244420 0.864984
O O6 0.303082 0.342207 0.929444
O O7 0.489444 0.177254 0.954846
O O8 0.295254 0.077675 0.910359
O O9 0.595248 0.133317 0.126513
O O10 0.460973 0.270922 0.186982
O O11 0.382276 0.023922 0.165192
O O12 0.160473 0.261698 0.180707
O O13 0.287613 0.434613 0.227873
O O14 0.029543 0.413249 0.241419
O O15 0.482216 0.963684 0.680355
O O16 0.089736 0.100418 0.468071
#
# Coordination Sequence:
#
# PCOD8249692 Si02
#       8
#     8   8   8   8   8   8   8   8
#     4  11  20  43  75  98 135 186 241 288 341 428
#     4  11  26  45  65 100 139 187 233 297 350 425
#     4  12  24  43  72  98 140 193 234 284 361 424
#     4  12  24  47  71 107 142 186 237 300 364 439
#     4  11  23  45  70  99 139 183 238 286 353 430
#     4  12  26  44  69 100 149 184 240 294 366 414
#     4  12  26  42  74 107 140 182 243 294 366 437
#     4  11  24  43  69 105 139 185 236 302 349 416
#
# _framework density 22.181115999999999
#
# number of rings (size 3 to 8) (size 9 to 14) (size 15 to 20)
#    0.000    0.500    5.000    3.375    3.500    2.000 
#    0.000    1.875    0.000    0.000    0.000    0.000 
#    0.000    0.000    0.000    0.000    0.000    0.000 
#
# Total GULP energy -793666.780339 kJ/mol
# GULP energy per Si atom -12401.043443 kJ/mol
# Density = 2.213063 g / cm^3
# Si number density = 22.181116 Si / 1000 Ang^3
#
#
#
# Elastic Constant Matrix: (Units=GPa)
#
#
# Indices 1 2 3 4 5 6 
#
# 1 111.5468 56.0052 43.5537 0.0000 0.0000 0.0000
# 2 56.0052 111.9202 23.7549 0.0000 0.0000 0.0000
# 3 43.5537 23.7549 83.8358 0.0000 0.0000 0.0000
# 4 0.0000 0.0000 0.0000 33.8114 0.0000 0.0000
# 5 0.0000 0.0000 0.0000 0.0000 34.1818 0.0000
# 6 0.0000 0.0000 0.0000 0.0000 0.0000 35.9894
#
#
#
# Elastic Compliance Matrix: (Units=1/GPa)
#
#
# Indices 1 2 3 4 5 6 
#
# 1 0.014125 -0.005863 -0.005677 0.000000 0.000000 0.000000
# 2 -0.005863 0.011941 -0.000337 0.000000 0.000000 0.000000
# 3 -0.005677 -0.000337 0.014973 0.000000 0.000000 0.000000
# 4 0.000000 0.000000 0.000000 0.029576 0.000000 0.000000
# 5 0.000000 0.000000 0.000000 0.000000 0.029255 0.000000
# 6 0.000000 0.000000 0.000000 0.000000 0.000000 0.027786
#
#
# Mechanical properties :
#
#
# Convention : Reuss Voigt Hill
#
# Bulk Modulus (GPa) = 57.85813 61.54782 59.70298
# Shear Modulus (GPa) = 31.81226 33.06245 32.43735
#
# Velocity S-wave (km/s) = 3.79120 3.86498 3.82826
# Velocity P-wave (km/s) = 6.73092 6.90836 6.82022
#
# Compressibility (1/GPa) = 0.01728365
#
# Stress axis : x y z
#
# Youngs Moduli (GPa) = 70.79504 83.74789 66.78763
#
# Poissons Ratio (x) = 0.49105 0.37914
# Poissons Ratio (y) = 0.41510 0.02252
# Poissons Ratio (z) = 0.40189 0.02824
#
# Static dielectric constant tensor:
#      x y z
#    x 3.973310 0.000000 0.000000 
#    y 0.000000 4.194150 0.000000 
#    z 0.000000 0.000000 3.934540 
# 
# 
# High freq. dielectric constant tensor:
#      x y z
#    x 1.871010 0.000000 0.000000 
#    y 0.000000 1.886530 0.000000 
#    z 0.000000 0.000000 1.867390 
# 
# From -- ./inp_files/11776.got.cif
#   From: 2010.03.12/outbox.cif.g09.slc.cpg/sg61_6_cif.got.tgz:11776.got - 2010.04.10 19:05:03.
