data_PCOD8249283
_publ_section_title
;
Structure prediction by ZEFSAII (Michael W. Deem and Ramdas Pophale) SiO2 
 PCOD8249283
Probable space group: P B C A
;
_chemical_formula_sum "Si O2"
_cell_formula_units_Z 64
_cell_length_a 22.602699
_cell_length_b 8.965231
_cell_length_c 14.948954
_cell_angle_alpha 90.000000
_cell_angle_beta 90.000000
_cell_angle_gamma 90.000000
_cell_volume 3029.232386
_symmetry_space_group_name_H-M "P B C A"
_symmetry_group_IT_number 61
_symmetry_cell_setting 'orthorhombic'
loop_
_space_group_symop_operation_xyz
x,y,z
1/2-x,-y,1/2+z
1/2+x,1/2-y,-z
-x,1/2+y,1/2-z
-x,-y,-z
1/2+x,y,1/2-z
1/2-x,1/2+y,z
x,1/2-y,1/2+z
loop_
_atom_site_type_symbol
_atom_site_label
_atom_site_fract_x
_atom_site_fract_y
_atom_site_fract_z
Si Si1 0.686906 0.118245 0.836340
Si Si2 0.522372 0.592092 0.584466
Si Si3 0.434584 0.895862 0.251172
Si Si4 0.710254 0.306661 0.530505
Si Si5 0.821411 0.023551 0.008169
Si Si6 0.115910 0.398073 0.829922
Si Si7 0.546928 0.934986 0.570515
Si Si8 0.194684 0.470194 0.684421
O O1 0.628631 0.051772 0.788596
O O2 0.694710 0.291690 0.817439
O O3 0.740126 0.027246 0.790564
O O4 0.686063 0.099098 0.944508
O O5 0.500000 0.500000 0.500000
O O6 0.478305 0.596705 0.667751
O O7 0.581894 0.508263 0.606688
O O8 0.538897 0.759871 0.559889
O O9 0.427895 0.727473 0.288734
O O10 0.461933 0.003144 0.328433
O O11 0.777595 0.356484 0.554041
O O12 0.668189 0.321155 0.615078
O O13 0.712903 0.132617 0.510589
O O14 0.828185 0.057527 0.903018
O O15 0.886033 0.017054 0.049965
O O16 0.145402 0.508906 0.757745
O O17 0.500000 0.000000 0.500000
#
# Coordination Sequence:
#
# PCOD8249283 Si02
#       8
#     8   8   8   8   8   8   8   8
#     4   9  20  39  62  93 133 176 217 276 343 408
#     4  12  28  47  69 101 135 184 241 289 348 419
#     4  11  24  46  71  97 136 186 230 290 353 413
#     4  10  21  40  68  98 140 175 231 282 354 413
#     4  10  23  43  67  98 136 183 225 283 350 421
#     4  11  23  41  70  96 138 176 225 298 345 418
#     4  12  28  45  72 100 140 187 237 288 358 425
#     4   9  21  37  63  92 130 170 214 275 338 407
#
# _framework density 21.127465000000001
#
# number of rings (size 3 to 8) (size 9 to 14) (size 15 to 20)
#    0.000    1.500    1.250    2.250   10.500    1.000 
#    4.500    0.000    0.000    0.000    0.000    0.000 
#    0.000    0.000    0.000    0.000    0.000    0.000 
#
# Total GULP energy -793334.476065 kJ/mol
# GULP energy per Si atom -12395.851189 kJ/mol
# Density = 2.107938 g / cm^3
# Si number density = 21.127465 Si / 1000 Ang^3
#
#
#
# Elastic Constant Matrix: (Units=GPa)
#
#
# Indices 1 2 3 4 5 6 
#
# 1 101.3913 28.1643 39.9731 0.0000 0.0000 0.0000
# 2 28.1643 71.7554 28.6820 0.0000 0.0000 0.0000
# 3 39.9731 28.6820 101.7473 0.0000 0.0000 0.0000
# 4 0.0000 0.0000 0.0000 30.6598 0.0000 0.0000
# 5 0.0000 0.0000 0.0000 0.0000 49.8751 0.0000
# 6 0.0000 0.0000 0.0000 0.0000 0.0000 37.9880
#
#
#
# Elastic Compliance Matrix: (Units=1/GPa)
#
#
# Indices 1 2 3 4 5 6 
#
# 1 0.012315 -0.003268 -0.003917 0.000000 0.000000 0.000000
# 2 -0.003268 0.016573 -0.003388 0.000000 0.000000 0.000000
# 3 -0.003917 -0.003388 0.012322 0.000000 0.000000 0.000000
# 4 0.000000 0.000000 0.000000 0.032616 0.000000 0.000000
# 5 0.000000 0.000000 0.000000 0.000000 0.020050 0.000000
# 6 0.000000 0.000000 0.000000 0.000000 0.000000 0.026324
#
#
# Mechanical properties :
#
#
# Convention : Reuss Voigt Hill
#
# Bulk Modulus (GPa) = 49.83941 52.05919 50.94930
# Shear Modulus (GPa) = 33.77603 35.57622 34.67613
#
# Velocity S-wave (km/s) = 4.00269 4.10797 4.05567
# Velocity P-wave (km/s) = 6.70843 6.86983 6.78961
#
# Compressibility (1/GPa) = 0.02006444
#
# Stress axis : x y z
#
# Youngs Moduli (GPa) = 81.20349 60.33842 81.15486
#
# Poissons Ratio (x) = 0.19718 0.31787
# Poissons Ratio (y) = 0.26537 0.27495
# Poissons Ratio (z) = 0.31806 0.20443
#
# Static dielectric constant tensor:
#      x y z
#    x 3.912360 0.000000 0.000000 
#    y 0.000000 3.685310 0.000000 
#    z 0.000000 0.000000 4.196980 
# 
# 
# High freq. dielectric constant tensor:
#      x y z
#    x 1.832870 0.000000 0.000000 
#    y 0.000000 1.818420 0.000000 
#    z 0.000000 0.000000 1.844310 
# 
# From -- ./inp_files/3207.got.cif
#   From: 2010.03.12/outbox.cif.g09.slc.cpg/sg61_2_cif.got.tgz:3207.got - 2010.04.10 19:05:03.
