data_PCOD8249443
_publ_section_title
;
Structure prediction by ZEFSAII (Michael W. Deem and Ramdas Pophale) SiO2 
 PCOD8249443
Probable space group: P B C A
;
_chemical_formula_sum "Si O2"
_cell_formula_units_Z 32
_cell_length_a 7.518073
_cell_length_b 12.872641
_cell_length_c 16.798358
_cell_angle_alpha 90.000000
_cell_angle_beta 90.000000
_cell_angle_gamma 90.000000
_cell_volume 1625.702331
_symmetry_space_group_name_H-M "P B C A"
_symmetry_group_IT_number 61
_symmetry_cell_setting 'orthorhombic'
loop_
_space_group_symop_operation_xyz
x,y,z
1/2-x,-y,1/2+z
1/2+x,1/2-y,-z
-x,1/2+y,1/2-z
-x,-y,-z
1/2+x,y,1/2-z
1/2-x,1/2+y,z
x,1/2-y,1/2+z
loop_
_atom_site_type_symbol
_atom_site_label
_atom_site_fract_x
_atom_site_fract_y
_atom_site_fract_z
Si Si1 0.869556 0.888732 0.671983
Si Si2 0.826516 0.401550 0.940703
Si Si3 0.520523 0.184605 0.344221
Si Si4 0.522139 0.908362 0.105892
O O1 0.683798 0.843456 0.642497
O O2 0.026577 0.843402 0.615502
O O3 0.902042 0.858620 0.762549
O O4 0.866491 0.014987 0.664519
O O5 0.629730 0.367167 0.916213
O O6 0.853185 0.526812 0.929804
O O7 0.854760 0.370487 0.032509
O O8 0.544627 0.309096 0.345107
#
# Coordination Sequence:
#
# PCOD8249443 Si02
#       4
#     8   8   8   8
#     4  10  22  42  58  97 126 157 220 251 311 386
#     4   9  22  45  58  93 131 152 221 252 305 396
#     4  12  22  40  69  88 128 171 202 265 322 368
#     4   9  23  43  63  94 129 161 209 269 305 379
#
# _framework density 19.683799
#
# number of rings (size 3 to 8) (size 9 to 14) (size 15 to 20)
#    1.500    0.500    2.500    0.000    3.500    5.000 
#    4.500    0.000    0.000    0.000    0.000    0.000 
#    0.000    0.000    0.000    0.000    0.000    0.000 
#
# Total GULP energy -396623.670125 kJ/mol
# GULP energy per Si atom -12394.489691 kJ/mol
# Density = 1.963900 g / cm^3
# Si number density = 19.683799 Si / 1000 Ang^3
#
#
#
# Elastic Constant Matrix: (Units=GPa)
#
#
# Indices 1 2 3 4 5 6 
#
# 1 73.6119 22.1520 27.4485 0.0000 0.0000 0.0000
# 2 22.1520 109.0245 47.6427 0.0000 0.0000 0.0000
# 3 27.4485 47.6427 108.6457 0.0000 0.0000 0.0000
# 4 0.0000 0.0000 0.0000 15.2142 0.0000 0.0000
# 5 0.0000 0.0000 0.0000 0.0000 15.7773 0.0000
# 6 0.0000 0.0000 0.0000 0.0000 0.0000 20.3296
#
#
#
# Elastic Compliance Matrix: (Units=1/GPa)
#
#
# Indices 1 2 3 4 5 6 
#
# 1 0.015263 -0.001752 -0.003088 0.000000 0.000000 0.000000
# 2 -0.001752 0.011548 -0.004621 0.000000 0.000000 0.000000
# 3 -0.003088 -0.004621 0.012011 0.000000 0.000000 0.000000
# 4 0.000000 0.000000 0.000000 0.065728 0.000000 0.000000
# 5 0.000000 0.000000 0.000000 0.000000 0.063382 0.000000
# 6 0.000000 0.000000 0.000000 0.000000 0.000000 0.049189
#
#
# Mechanical properties :
#
#
# Convention : Reuss Voigt Hill
#
# Bulk Modulus (GPa) = 50.25176 53.97427 52.11301
# Shear Modulus (GPa) = 20.60352 23.20013 21.90182
#
# Velocity S-wave (km/s) = 3.23882 3.43686 3.33931
# Velocity P-wave (km/s) = 6.29059 6.57492 6.43432
#
# Compressibility (1/GPa) = 0.01989980
#
# Stress axis : x y z
#
# Youngs Moduli (GPa) = 65.51626 86.59784 83.25806
#
# Poissons Ratio (x) = 0.15171 0.25710
# Poissons Ratio (y) = 0.11478 0.38475
# Poissons Ratio (z) = 0.20231 0.40019
#
# Static dielectric constant tensor:
#      x y z
#    x 3.431850 0.000000 0.000000 
#    y 0.000000 3.419060 0.000000 
#    z 0.000000 0.000000 3.443860 
# 
# 
# High freq. dielectric constant tensor:
#      x y z
#    x 1.752290 0.000000 0.000000 
#    y 0.000000 1.751890 0.000000 
#    z 0.000000 0.000000 1.770400 
# 
# From -- ./inp_files/2185.got.cif
#   From: 2010.03.12/outbox.cif.g09.slc.cpg/sg61_2_cif.got.tgz:2185.got - 2010.04.10 19:05:03.
