data_PCOD8249123
_publ_section_title
;
Structure prediction by ZEFSAII (Michael W. Deem and Ramdas Pophale) SiO2 
 PCOD8249123
Probable space group: P B C A
;
_chemical_formula_sum "Si O2"
_cell_formula_units_Z 64
_cell_length_a 10.896304
_cell_length_b 27.811578
_cell_length_c 9.983486
_cell_angle_alpha 90.000000
_cell_angle_beta 90.000000
_cell_angle_gamma 90.000000
_cell_volume 3025.429627
_symmetry_space_group_name_H-M "P B C A"
_symmetry_group_IT_number 61
_symmetry_cell_setting 'orthorhombic'
loop_
_space_group_symop_operation_xyz
x,y,z
1/2-x,-y,1/2+z
1/2+x,1/2-y,-z
-x,1/2+y,1/2-z
-x,-y,-z
1/2+x,y,1/2-z
1/2-x,1/2+y,z
x,1/2-y,1/2+z
loop_
_atom_site_type_symbol
_atom_site_label
_atom_site_fract_x
_atom_site_fract_y
_atom_site_fract_z
Si Si1 0.100362 0.398727 0.468918
Si Si2 0.625451 0.081106 0.988096
Si Si3 0.648283 0.633808 0.876729
Si Si4 0.967131 0.339687 0.106994
Si Si5 0.353556 0.960701 0.724824
Si Si6 0.807426 0.778522 0.328720
Si Si7 0.232756 0.201438 0.961135
Si Si8 0.899376 0.980360 0.253967
O O1 0.150036 0.422431 0.604751
O O2 0.175781 0.350889 0.437244
O O3 0.118526 0.436673 0.349279
O O4 0.959859 0.380211 0.479874
O O5 0.652691 0.068056 0.138442
O O6 0.746812 0.094962 0.904527
O O7 0.530672 0.124736 0.996951
O O8 0.565754 0.038038 0.902473
O O9 0.600927 0.629746 0.723780
O O10 0.701826 0.687931 0.896580
O O11 0.876986 0.307556 0.017054
O O12 0.063252 0.304882 0.177198
O O13 0.482335 0.989066 0.706362
O O14 0.229569 0.991886 0.728041
O O15 0.820200 0.729225 0.411277
O O16 0.779808 0.766585 0.173794
#
# Coordination Sequence:
#
# PCOD8249123 Si02
#       8
#     8   8   8   8   8   8   8   8
#     4  12  24  45  70  95 137 189 227 271 354 416
#     4  11  23  42  69  98 136 175 230 286 348 397
#     4  10  20  44  69  95 132 188 226 267 335 438
#     4  10  21  41  69  95 130 179 229 268 336 423
#     4  12  28  41  66 107 139 176 235 301 342 399
#     4  10  23  42  65 103 128 177 226 275 341 394
#     4  11  25  40  69  97 134 174 225 277 335 414
#     4  12  24  45  69  96 137 186 235 284 349 422
#
# _framework density 21.154021
#
# number of rings (size 3 to 8) (size 9 to 14) (size 15 to 20)
#    0.000    1.000    2.500    4.500    5.250    2.000 
#    2.250    0.000    0.000    0.000    0.000    0.000 
#    0.000    0.000    0.000    0.000    0.000    0.000 
#
# Total GULP energy -793345.700788 kJ/mol
# GULP energy per Si atom -12396.026575 kJ/mol
# Density = 2.110587 g / cm^3
# Si number density = 21.154021 Si / 1000 Ang^3
#
#
#
# Elastic Constant Matrix: (Units=GPa)
#
#
# Indices 1 2 3 4 5 6 
#
# 1 103.6150 38.0125 28.6145 0.0000 0.0000 0.0000
# 2 38.0125 86.5361 54.8177 0.0000 0.0000 0.0000
# 3 28.6145 54.8177 125.7552 0.0000 0.0000 0.0000
# 4 0.0000 0.0000 0.0000 20.5467 0.0000 0.0000
# 5 0.0000 0.0000 0.0000 0.0000 25.1424 0.0000
# 6 0.0000 0.0000 0.0000 0.0000 0.0000 15.8176
#
#
#
# Elastic Compliance Matrix: (Units=1/GPa)
#
#
# Indices 1 2 3 4 5 6 
#
# 1 0.011535 -0.004703 -0.000575 0.000000 0.000000 0.000000
# 2 -0.004703 0.017882 -0.006725 0.000000 0.000000 0.000000
# 3 -0.000575 -0.006725 0.011014 0.000000 0.000000 0.000000
# 4 0.000000 0.000000 0.000000 0.048670 0.000000 0.000000
# 5 0.000000 0.000000 0.000000 0.000000 0.039773 0.000000
# 6 0.000000 0.000000 0.000000 0.000000 0.000000 0.063221
#
#
# Mechanical properties :
#
#
# Convention : Reuss Voigt Hill
#
# Bulk Modulus (GPa) = 60.87815 62.08842 61.48328
# Shear Modulus (GPa) = 22.56579 25.26545 23.91562
#
# Velocity S-wave (km/s) = 3.26964 3.45970 3.36601
# Velocity P-wave (km/s) = 6.56468 6.73600 6.65089
#
# Compressibility (1/GPa) = 0.01642626
#
# Stress axis : x y z
#
# Youngs Moduli (GPa) = 86.69146 55.92359 90.79343
#
# Poissons Ratio (x) = 0.26301 0.05218
# Poissons Ratio (y) = 0.40771 0.61055
# Poissons Ratio (z) = 0.04982 0.37606
#
# Static dielectric constant tensor:
#      x y z
#    x 4.281190 0.000000 0.000000 
#    y 0.000000 3.830620 0.000000 
#    z 0.000000 0.000000 3.648050 
# 
# 
# High freq. dielectric constant tensor:
#      x y z
#    x 1.850230 0.000000 0.000000 
#    y 0.000000 1.823850 0.000000 
#    z 0.000000 0.000000 1.818700 
# 
# From -- ./inp_files/2435.got.cif
#   From: 2010.03.12/outbox.cif.g09.slc.cpg/sg61_2_cif.got.tgz:2435.got - 2010.04.10 19:05:03.
