data_PCOD8249519
_publ_section_title
;
Structure prediction by ZEFSAII (Michael W. Deem and Ramdas Pophale) SiO2 
 PCOD8249519
Probable space group: P B C A
;
_chemical_formula_sum "Si O2"
_cell_formula_units_Z 56
_cell_length_a 19.890671
_cell_length_b 14.677869
_cell_length_c 8.972897
_cell_angle_alpha 90.000000
_cell_angle_beta 90.000000
_cell_angle_gamma 90.000000
_cell_volume 2619.661176
_symmetry_space_group_name_H-M "P B C A"
_symmetry_group_IT_number 61
_symmetry_cell_setting 'orthorhombic'
loop_
_space_group_symop_operation_xyz
x,y,z
1/2-x,-y,1/2+z
1/2+x,1/2-y,-z
-x,1/2+y,1/2-z
-x,-y,-z
1/2+x,y,1/2-z
1/2-x,1/2+y,z
x,1/2-y,1/2+z
loop_
_atom_site_type_symbol
_atom_site_label
_atom_site_fract_x
_atom_site_fract_y
_atom_site_fract_z
Si Si1 0.610303 0.476449 0.700479
Si Si2 0.019219 0.876650 0.627353
Si Si3 0.376291 0.141610 0.636602
Si Si4 0.278338 0.654729 0.235940
Si Si5 0.226516 0.151735 0.588421
Si Si6 0.340583 0.467022 0.599377
Si Si7 0.941342 0.258036 0.624911
O O1 0.546127 0.439107 0.610274
O O2 0.583616 0.549739 0.820418
O O3 0.652944 0.401243 0.789126
O O4 0.656894 0.531753 0.581336
O O5 0.086790 0.934580 0.659565
O O6 0.005288 0.812000 0.771574
O O7 0.023176 0.819433 0.473863
O O8 0.298625 0.116219 0.638625
O O9 0.400738 0.171977 0.476010
O O10 0.386984 0.219374 0.759450
O O11 0.291546 0.752711 0.163497
O O12 0.269882 0.665871 0.411854
O O13 0.215555 0.603763 0.157313
O O14 0.175134 0.072512 0.644045
#
# Coordination Sequence:
#
# PCOD8249519 Si02
#       7
#     8   8   8   8   8   8   8
#     4  11  25  42  68  95 136 171 220 276 333 396
#     4  11  23  44  67  99 132 173 222 271 334 397
#     4  11  20  42  64  98 126 175 219 270 328 400
#     4  11  25  44  64  99 130 177 224 277 335 395
#     4  11  24  40  68  95 135 171 226 279 334 392
#     4  11  23  41  67  97 130 176 221 274 337 395
#     4  10  23  39  70  94 131 175 222 268 330 406
#
# _framework density 21.376811
#
# number of rings (size 3 to 8) (size 9 to 14) (size 15 to 20)
#    0.000    1.143    2.857    3.857    2.000    2.857 
#    5.143    0.000    0.000    0.000    0.000    0.000 
#    0.000    0.000    0.000    0.000    0.000    0.000 
#
# Total GULP energy -694184.251930 kJ/mol
# GULP energy per Si atom -12396.147356 kJ/mol
# Density = 2.132816 g / cm^3
# Si number density = 21.376811 Si / 1000 Ang^3
#
#
#
# Elastic Constant Matrix: (Units=GPa)
#
#
# Indices 1 2 3 4 5 6 
#
# 1 71.1628 26.3903 22.1468 0.0000 0.0000 0.0000
# 2 26.3903 122.9272 50.8564 0.0000 0.0000 0.0000
# 3 22.1468 50.8564 115.1205 0.0000 0.0000 0.0000
# 4 0.0000 0.0000 0.0000 5.7510 0.0000 0.0000
# 5 0.0000 0.0000 0.0000 0.0000 22.2062 0.0000
# 6 0.0000 0.0000 0.0000 0.0000 0.0000 28.2411
#
#
#
# Elastic Compliance Matrix: (Units=1/GPa)
#
#
# Indices 1 2 3 4 5 6 
#
# 1 0.015587 -0.002577 -0.001860 0.000000 0.000000 0.000000
# 2 -0.002577 0.010380 -0.004090 0.000000 0.000000 0.000000
# 3 -0.001860 -0.004090 0.010851 0.000000 0.000000 0.000000
# 4 0.000000 0.000000 0.000000 0.173883 0.000000 0.000000
# 5 0.000000 0.000000 0.000000 0.000000 0.045032 0.000000
# 6 0.000000 0.000000 0.000000 0.000000 0.000000 0.035409
#
#
# Mechanical properties :
#
#
# Convention : Reuss Voigt Hill
#
# Bulk Modulus (GPa) = 50.59583 56.44415 53.51999
# Shear Modulus (GPa) = 15.88386 25.22747 20.55567
#
# Velocity S-wave (km/s) = 2.72884 3.43903 3.10431
# Velocity P-wave (km/s) = 5.80075 6.49854 6.15953
#
# Compressibility (1/GPa) = 0.01976447
#
# Stress axis : x y z
#
# Youngs Moduli (GPa) = 64.15713 96.33844 92.15555
#
# Poissons Ratio (x) = 0.24822 0.17144
# Poissons Ratio (y) = 0.16530 0.37691
# Poissons Ratio (z) = 0.11935 0.39401
#
# Static dielectric constant tensor:
#      x y z
#    x 3.680650 0.000000 0.000000 
#    y 0.000000 4.222310 0.000000 
#    z 0.000000 0.000000 3.911170 
# 
# 
# High freq. dielectric constant tensor:
#      x y z
#    x 1.819910 0.000000 0.000000 
#    y 0.000000 1.856690 0.000000 
#    z 0.000000 0.000000 1.843400 
# 
# From -- ./inp_files/3975.got.cif
#   From: 2010.03.12/outbox.cif.g09.slc.cpg/sg61_2_cif.got.tgz:3975.got - 2010.04.10 19:05:03.
