data_PCOD8249095
_publ_section_title
;
Structure prediction by ZEFSAII (Michael W. Deem and Ramdas Pophale) SiO2 
 PCOD8249095
Probable space group: P B C A
;
_chemical_formula_sum "Si O2"
_cell_formula_units_Z 48
_cell_length_a 20.353533
_cell_length_b 13.692853
_cell_length_c 8.894720
_cell_angle_alpha 90.000000
_cell_angle_beta 90.000000
_cell_angle_gamma 90.000000
_cell_volume 2478.940100
_symmetry_space_group_name_H-M "P B C A"
_symmetry_group_IT_number 61
_symmetry_cell_setting 'orthorhombic'
loop_
_space_group_symop_operation_xyz
x,y,z
1/2-x,-y,1/2+z
1/2+x,1/2-y,-z
-x,1/2+y,1/2-z
-x,-y,-z
1/2+x,y,1/2-z
1/2-x,1/2+y,z
x,1/2-y,1/2+z
loop_
_atom_site_type_symbol
_atom_site_label
_atom_site_fract_x
_atom_site_fract_y
_atom_site_fract_z
Si Si1 0.656420 0.525677 0.171056
Si Si2 0.701320 0.711138 0.989274
Si Si3 0.999509 0.268824 0.116822
Si Si4 0.778980 0.834261 0.212386
Si Si5 0.917646 0.844974 0.117403
Si Si6 0.087338 0.827995 0.643077
O O1 0.717021 0.452913 0.210332
O O2 0.598985 0.460157 0.091547
O O3 0.626495 0.571578 0.325124
O O4 0.684901 0.608640 0.065251
O O5 0.763741 0.698466 0.881239
O O6 0.637531 0.742021 0.896605
O O7 0.720388 0.795171 0.107269
O O8 0.033265 0.336653 0.241161
O O9 0.946657 0.199834 0.198694
O O10 0.052111 0.199642 0.033417
O O11 0.964746 0.338803 0.993013
O O12 0.849457 0.789257 0.161107
#
# Coordination Sequence:
#
# PCOD8249095 Si02
#       6
#     8   8   8   8   8   8
#     4  10  24  37  61  96 118 157 217 238 313 369
#     4  12  21  43  63  90 129 162 197 268 305 371
#     4  10  20  41  65  82 129 163 199 252 305 354
#     4  10  24  38  67  87 128 157 208 251 315 368
#     4   9  22  40  62  93 117 166 202 252 304 368
#     4  11  21  39  63  89 118 168 199 247 306 360
#
# _framework density 19.363113999999999
#
# number of rings (size 3 to 8) (size 9 to 14) (size 15 to 20)
#    1.000    0.667    3.333    1.000    2.333    1.333 
#    0.000    0.000    3.667    0.000    0.000    0.000 
#    0.000    0.000    0.000    0.000    0.000    0.000 
#
# Total GULP energy -594872.549358 kJ/mol
# GULP energy per Si atom -12393.178112 kJ/mol
# Density = 1.931904 g / cm^3
# Si number density = 19.363114 Si / 1000 Ang^3
#
#
#
# Elastic Constant Matrix: (Units=GPa)
#
#
# Indices 1 2 3 4 5 6 
#
# 1 83.0447 35.3555 40.5740 0.0000 0.0000 0.0000
# 2 35.3555 96.5858 33.1936 0.0000 0.0000 0.0000
# 3 40.5740 33.1936 91.5177 0.0000 0.0000 0.0000
# 4 0.0000 0.0000 0.0000 23.4393 0.0000 0.0000
# 5 0.0000 0.0000 0.0000 0.0000 39.0042 0.0000
# 6 0.0000 0.0000 0.0000 0.0000 0.0000 36.8294
#
#
#
# Elastic Compliance Matrix: (Units=1/GPa)
#
#
# Indices 1 2 3 4 5 6 
#
# 1 0.016662 -0.004067 -0.005912 0.000000 0.000000 0.000000
# 2 -0.004067 0.012821 -0.002847 0.000000 0.000000 0.000000
# 3 -0.005912 -0.002847 0.014580 0.000000 0.000000 0.000000
# 4 0.000000 0.000000 0.000000 0.042663 0.000000 0.000000
# 5 0.000000 0.000000 0.000000 0.000000 0.025638 0.000000
# 6 0.000000 0.000000 0.000000 0.000000 0.000000 0.027152
#
#
# Mechanical properties :
#
#
# Convention : Reuss Voigt Hill
#
# Bulk Modulus (GPa) = 54.31544 54.37715 54.34629
# Shear Modulus (GPa) = 29.18765 30.65625 29.92195
#
# Velocity S-wave (km/s) = 3.88672 3.98330 3.93530
# Velocity P-wave (km/s) = 6.94651 7.02135 6.98403
#
# Compressibility (1/GPa) = 0.01841097
#
# Stress axis : x y z
#
# Youngs Moduli (GPa) = 60.01801 77.99861 68.58567
#
# Poissons Ratio (x) = 0.31725 0.40545
# Poissons Ratio (y) = 0.24412 0.19525
# Poissons Ratio (z) = 0.35480 0.22205
#
# Static dielectric constant tensor:
#      x y z
#    x 3.634080 0.000000 0.000000 
#    y 0.000000 3.270400 0.000000 
#    z 0.000000 0.000000 3.528310 
# 
# 
# High freq. dielectric constant tensor:
#      x y z
#    x 1.762670 0.000000 0.000000 
#    y 0.000000 1.730860 0.000000 
#    z 0.000000 0.000000 1.757360 
# 
# From -- ./inp_files/3846.got.cif
#   From: 2010.03.12/outbox.cif.g09.slc.cpg/sg61_2_cif.got.tgz:3846.got - 2010.04.10 19:05:03.
