data_PCOD8249970
_publ_section_title
;
Structure prediction by ZEFSAII (Michael W. Deem and Ramdas Pophale) SiO2 
 PCOD8249970
Probable space group: P N M A
;
_chemical_formula_sum "Si O2"
_cell_formula_units_Z 56
_cell_length_a 20.851295
_cell_length_b 15.330485
_cell_length_c 8.374442
_cell_angle_alpha 90.000000
_cell_angle_beta 90.000000
_cell_angle_gamma 90.000000
_cell_volume 2676.978026
_symmetry_space_group_name_H-M "P N M A"
_symmetry_group_IT_number 62
_symmetry_cell_setting 'orthorhombic'
loop_
_space_group_symop_operation_xyz
x,y,z
1/2-x,-y,1/2+z
1/2+x,1/2-y,1/2-z
-x,1/2+y,-z
-x,-y,-z
1/2+x,y,1/2-z
1/2-x,1/2+y,1/2+z
x,1/2-y,z
loop_
_atom_site_type_symbol
_atom_site_label
_atom_site_fract_x
_atom_site_fract_y
_atom_site_fract_z
Si Si1 0.056206 0.421179 0.667735
Si Si2 0.104289 0.350105 0.999948
Si Si3 0.836432 0.004316 0.515690
Si Si4 0.877495 0.152190 0.951356
Si Si5 0.013062 0.928713 0.866335
Si Si6 0.700724 0.488005 0.376688
Si Si7 0.572296 0.653188 0.102845
O O1 0.119243 0.428234 0.557703
O O2 0.027159 0.518209 0.704171
O O3 0.001538 0.371349 0.567248
O O4 0.074235 0.367781 0.826460
O O5 0.126525 0.250000 0.012432
O O6 0.165316 0.412431 0.024034
O O7 0.051013 0.369298 0.138324
O O8 0.814067 0.975899 0.690704
O O9 0.876357 0.093414 0.514925
O O10 0.776305 0.020898 0.400865
O O11 0.849280 0.250000 0.973252
O O12 0.819734 0.083196 0.942094
O O13 0.920333 0.145291 0.793218
O O14 0.924472 0.129663 0.097631
O O15 0.000000 0.000000 0.000000
O O16 0.585703 0.750000 0.039313
#
# Coordination Sequence:
#
# PCOD8249970 Si02
#       7
#     8   8   8   8   8   8   8
#     4  11  20  38  64  96 126 167 206 258 320 384
#     4  11  21  37  66  97 128 165 206 256 316 384
#     4  11  25  42  65  86 124 175 215 262 322 369
#     4  10  18  34  61  92 122 158 204 252 303 369
#     4  10  16  31  60  92 124 154 200 249 306 368
#     4  11  23  43  61  88 123 169 216 262 311 376
#     4  10  20  37  63  95 126 159 209 260 311 379
#
# _framework density 20.919111000000001
#
# number of rings (size 3 to 8) (size 9 to 14) (size 15 to 20)
#    0.000    1.429    5.714    3.000    0.000    0.571 
#    0.000    9.286    0.000    0.000    0.000    0.000 
#    0.000    0.000    0.000    0.000    0.000    0.000 
#
# Total GULP energy -694431.805342 kJ/mol
# GULP energy per Si atom -12400.567953 kJ/mol
# Density = 2.087150 g / cm^3
# Si number density = 20.919111 Si / 1000 Ang^3
#
#
#
# Elastic Constant Matrix: (Units=GPa)
#
#
# Indices 1 2 3 4 5 6 
#
# 1 144.9528 48.5631 29.8778 0.0000 0.0000 0.0000
# 2 48.5631 135.2732 26.0926 0.0000 0.0000 0.0000
# 3 29.8778 26.0926 27.6519 0.0000 0.0000 0.0000
# 4 0.0000 0.0000 0.0000 20.3000 0.0000 0.0000
# 5 0.0000 0.0000 0.0000 0.0000 37.2891 0.0000
# 6 0.0000 0.0000 0.0000 0.0000 0.0000 15.0240
#
#
#
# Elastic Compliance Matrix: (Units=1/GPa)
#
#
# Indices 1 2 3 4 5 6 
#
# 1 0.009181 -0.001690 -0.008325 0.000000 0.000000 0.000000
# 2 -0.001690 0.009348 -0.006995 0.000000 0.000000 0.000000
# 3 -0.008325 -0.006995 0.051760 0.000000 0.000000 0.000000
# 4 0.000000 0.000000 0.000000 0.049261 0.000000 0.000000
# 5 0.000000 0.000000 0.000000 0.000000 0.026818 0.000000
# 6 0.000000 0.000000 0.000000 0.000000 0.000000 0.066560
#
#
# Mechanical properties :
#
#
# Convention : Reuss Voigt Hill
#
# Bulk Modulus (GPa) = 27.57223 57.43834 42.50529
# Shear Modulus (GPa) = 19.30213 28.07890 23.69052
#
# Velocity S-wave (km/s) = 3.04090 3.66766 3.36889
# Velocity P-wave (km/s) = 5.05356 6.74186 5.95781
#
# Compressibility (1/GPa) = 0.03626838
#
# Stress axis : x y z
#
# Youngs Moduli (GPa) = 108.91995 106.96914 19.31998
#
# Poissons Ratio (x) = 0.18079 0.16084
# Poissons Ratio (y) = 0.18409 0.13515
# Poissons Ratio (z) = 0.90679 0.74826
#
# Static dielectric constant tensor:
#      x y z
#    x 3.808280 0.000000 0.000000 
#    y 0.000000 3.895570 0.000000 
#    z 0.000000 0.000000 3.660510 
# 
# 
# High freq. dielectric constant tensor:
#      x y z
#    x 1.813880 0.000000 0.000000 
#    y 0.000000 1.812210 0.000000 
#    z 0.000000 0.000000 1.803550 
# 
# From -- ./inp_files/8759.got.cif
#   From: 2010.03.12/outbox.cif.g09.slc.cpg/sg62_5_cif.got.tgz:8759.got - 2010.04.10 19:12:36.
