data_PCOD8249725
_publ_section_title
;
Structure prediction by ZEFSAII (Michael W. Deem and Ramdas Pophale) SiO2 
 PCOD8249725
Probable space group: P B C A
;
_chemical_formula_sum "Si O2"
_cell_formula_units_Z 40
_cell_length_a 23.979055
_cell_length_b 9.355101
_cell_length_c 7.433397
_cell_angle_alpha 90.000000
_cell_angle_beta 90.000000
_cell_angle_gamma 90.000000
_cell_volume 1667.507794
_symmetry_space_group_name_H-M "P B C A"
_symmetry_group_IT_number 61
_symmetry_cell_setting 'orthorhombic'
loop_
_space_group_symop_operation_xyz
x,y,z
1/2-x,-y,1/2+z
1/2+x,1/2-y,-z
-x,1/2+y,1/2-z
-x,-y,-z
1/2+x,y,1/2-z
1/2-x,1/2+y,z
x,1/2-y,1/2+z
loop_
_atom_site_type_symbol
_atom_site_label
_atom_site_fract_x
_atom_site_fract_y
_atom_site_fract_z
Si Si1 0.202475 0.651696 0.695878
Si Si2 0.074080 0.051751 0.698059
Si Si3 0.805436 0.467069 0.908894
Si Si4 0.531362 0.655842 0.589079
Si Si5 0.913310 0.074802 0.947315
O O1 0.204741 0.825070 0.712606
O O2 0.192501 0.589189 0.890693
O O3 0.258849 0.587506 0.614369
O O4 0.152520 0.598058 0.570591
O O5 0.034889 0.183968 0.632186
O O6 0.137352 0.051223 0.629913
O O7 0.040455 0.920257 0.603318
O O8 0.074875 0.057073 0.917193
O O9 0.564852 0.800847 0.578901
O O10 0.555895 0.562302 0.757001
#
# Coordination Sequence:
#
# PCOD8249725 Si02
#       5
#     8   8   8   8   8
#     4  12  24  43  72  99 136 182 227 284 340 414
#     4  11  23  40  64  93 133 169 222 272 326 402
#     4  12  24  45  68 103 137 179 232 282 346 407
#     4  11  22  38  65  94 125 175 217 269 330 398
#     4  12  20  42  66  94 133 177 221 270 347 397
#
# _framework density 23.987894000000001
#
# number of rings (size 3 to 8) (size 9 to 14) (size 15 to 20)
#    0.000    0.400    6.000    4.200    0.000    0.000 
#    0.000    8.000    0.000    0.000    0.000    0.000 
#    0.000    0.000    0.000    0.000    0.000    0.000 
#
# Total GULP energy -495644.389515 kJ/mol
# GULP energy per Si atom -12391.109738 kJ/mol
# Density = 2.393330 g / cm^3
# Si number density = 23.987894 Si / 1000 Ang^3
#
#
#
# Elastic Constant Matrix: (Units=GPa)
#
#
# Indices 1 2 3 4 5 6 
#
# 1 196.8191 41.1874 48.8097 0.0000 0.0000 0.0000
# 2 41.1874 17.4476 11.4941 0.0000 0.0000 0.0000
# 3 48.8097 11.4941 136.0632 0.0000 0.0000 0.0000
# 4 0.0000 0.0000 0.0000 33.2799 0.0000 0.0000
# 5 0.0000 0.0000 0.0000 0.0000 33.2656 0.0000
# 6 0.0000 0.0000 0.0000 0.0000 0.0000 23.6107
#
#
#
# Elastic Compliance Matrix: (Units=1/GPa)
#
#
# Indices 1 2 3 4 5 6 
#
# 1 0.010424 -0.023448 -0.001758 0.000000 0.000000 0.000000
# 2 -0.023448 0.113439 -0.001171 0.000000 0.000000 0.000000
# 3 -0.001758 -0.001171 0.008079 0.000000 0.000000 0.000000
# 4 0.000000 0.000000 0.000000 0.030048 0.000000 0.000000
# 5 0.000000 0.000000 0.000000 0.000000 0.030061 0.000000
# 6 0.000000 0.000000 0.000000 0.000000 0.000000 0.042354
#
#
# Mechanical properties :
#
#
# Convention : Reuss Voigt Hill
#
# Bulk Modulus (GPa) = 12.62851 61.47914 37.05383
# Shear Modulus (GPa) = 15.94606 34.62047 25.28326
#
# Velocity S-wave (km/s) = 2.58108 3.80313 3.25006
# Velocity P-wave (km/s) = 3.76279 6.70596 5.43730
#
# Compressibility (1/GPa) = 0.07918588
#
# Stress axis : x y z
#
# Youngs Moduli (GPa) = 95.93392 8.81530 123.77317
#
# Poissons Ratio (x) = 0.20670 0.21765
# Poissons Ratio (y) = 2.24950 0.14498
# Poissons Ratio (z) = 0.16870 0.01033
#
# Static dielectric constant tensor:
#      x y z
#    x 4.992640 0.000000 0.000000 
#    y 0.000000 4.752220 0.000000 
#    z 0.000000 0.000000 4.495370 
# 
# 
# High freq. dielectric constant tensor:
#      x y z
#    x 1.969290 0.000000 0.000000 
#    y 0.000000 1.903510 0.000000 
#    z 0.000000 0.000000 1.980810 
# 
# From -- ./inp_files/4149.got.cif
#   From: 2010.03.12/outbox.cif.g09.slc.cpg/sg61_3_cif.got.tgz:4149.got - 2010.04.10 19:05:03.
