data_PCOD8249481
_publ_section_title
;
Structure prediction by ZEFSAII (Michael W. Deem and Ramdas Pophale) SiO2 
 PCOD8249481
Probable space group: P B C A
;
_chemical_formula_sum "Si O2"
_cell_formula_units_Z 48
_cell_length_a 13.482370
_cell_length_b 17.400631
_cell_length_c 9.572057
_cell_angle_alpha 90.000000
_cell_angle_beta 90.000000
_cell_angle_gamma 90.000000
_cell_volume 2245.621279
_symmetry_space_group_name_H-M "P B C A"
_symmetry_group_IT_number 61
_symmetry_cell_setting 'orthorhombic'
loop_
_space_group_symop_operation_xyz
x,y,z
1/2-x,-y,1/2+z
1/2+x,1/2-y,-z
-x,1/2+y,1/2-z
-x,-y,-z
1/2+x,y,1/2-z
1/2-x,1/2+y,z
x,1/2-y,1/2+z
loop_
_atom_site_type_symbol
_atom_site_label
_atom_site_fract_x
_atom_site_fract_y
_atom_site_fract_z
Si Si1 0.893649 0.654981 0.946103
Si Si2 0.985811 0.892472 0.709765
Si Si3 0.165394 0.516572 0.748636
Si Si4 0.179835 0.813295 0.151531
Si Si5 0.070407 0.761536 0.886030
Si Si6 0.653766 0.983026 0.927026
O O1 0.791664 0.696840 0.903673
O O2 0.893482 0.566593 0.896097
O O3 0.984036 0.698449 0.872097
O O4 0.907654 0.655927 0.114811
O O5 0.029190 0.842955 0.834612
O O6 0.072668 0.918316 0.603925
O O7 0.933894 0.967298 0.775994
O O8 0.153083 0.597541 0.671132
O O9 0.254572 0.469507 0.676812
O O10 0.189100 0.526256 0.913008
O O11 0.164374 0.767175 0.295548
O O12 0.104087 0.773758 0.044137
#
# Coordination Sequence:
#
# PCOD8249481 Si02
#       6
#     8   8   8   8   8   8
#     4  10  23  46  65  97 129 179 216 272 330 400
#     4  11  23  41  71  94 135 173 222 277 336 386
#     4  10  23  44  67  99 128 176 221 276 329 398
#     4  11  26  43  68  95 137 174 226 272 334 402
#     4  12  25  43  66  99 134 175 222 271 335 400
#     4  10  22  43  72  92 135 171 227 272 339 388
#
# _framework density 21.374931
#
# number of rings (size 3 to 8) (size 9 to 14) (size 15 to 20)
#    0.000    1.333    1.667    4.000    9.333    0.667 
#    6.000    0.000    0.000    0.000    0.000    0.000 
#    0.000    0.000    0.000    0.000    0.000    0.000 
#
# Total GULP energy -595376.690127 kJ/mol
# GULP energy per Si atom -12403.681044 kJ/mol
# Density = 2.132628 g / cm^3
# Si number density = 21.374931 Si / 1000 Ang^3
#
#
#
# Elastic Constant Matrix: (Units=GPa)
#
#
# Indices 1 2 3 4 5 6 
#
# 1 96.9273 34.4021 38.3497 0.0000 0.0000 0.0000
# 2 34.4021 64.3403 28.3316 0.0000 0.0000 0.0000
# 3 38.3497 28.3316 83.2940 0.0000 0.0000 0.0000
# 4 0.0000 0.0000 0.0000 35.5930 0.0000 0.0000
# 5 0.0000 0.0000 0.0000 0.0000 18.1957 0.0000
# 6 0.0000 0.0000 0.0000 0.0000 0.0000 27.7291
#
#
#
# Elastic Compliance Matrix: (Units=1/GPa)
#
#
# Indices 1 2 3 4 5 6 
#
# 1 0.014098 -0.005504 -0.004619 0.000000 0.000000 0.000000
# 2 -0.005504 0.020429 -0.004415 0.000000 0.000000 0.000000
# 3 -0.004619 -0.004415 0.015634 0.000000 0.000000 0.000000
# 4 0.000000 0.000000 0.000000 0.028095 0.000000 0.000000
# 5 0.000000 0.000000 0.000000 0.000000 0.054958 0.000000
# 6 0.000000 0.000000 0.000000 0.000000 0.000000 0.036063
#
#
# Mechanical properties :
#
#
# Convention : Reuss Voigt Hill
#
# Bulk Modulus (GPa) = 47.42482 49.63650 48.53066
# Shear Modulus (GPa) = 24.34493 25.86877 25.10685
#
# Velocity S-wave (km/s) = 3.37849 3.48262 3.43095
# Velocity P-wave (km/s) = 6.11999 6.28043 6.20073
#
# Compressibility (1/GPa) = 0.02108601
#
# Stress axis : x y z
#
# Youngs Moduli (GPa) = 70.93185 48.94918 63.96411
#
# Poissons Ratio (x) = 0.26943 0.29543
# Poissons Ratio (y) = 0.39043 0.28237
# Poissons Ratio (z) = 0.32761 0.21609
#
# Static dielectric constant tensor:
#      x y z
#    x 3.961600 0.000000 0.000000 
#    y 0.000000 3.846520 0.000000 
#    z 0.000000 0.000000 3.748030 
# 
# 
# High freq. dielectric constant tensor:
#      x y z
#    x 1.839240 0.000000 0.000000 
#    y 0.000000 1.842440 0.000000 
#    z 0.000000 0.000000 1.834350 
# 
# From -- ./inp_files/2825.got.cif
#   From: 2010.03.12/outbox.cif.g09.slc.cpg/sg61_2_cif.got.tgz:2825.got - 2010.04.10 19:05:03.
