data_PCOD8249689
_publ_section_title
;
Structure prediction by ZEFSAII (Michael W. Deem and Ramdas Pophale) SiO2 
 PCOD8249689
Probable space group: P B C A
;
_chemical_formula_sum "Si O2"
_cell_formula_units_Z 48
_cell_length_a 14.953179
_cell_length_b 14.337221
_cell_length_c 10.620471
_cell_angle_alpha 90.000000
_cell_angle_beta 90.000000
_cell_angle_gamma 90.000000
_cell_volume 2276.891256
_symmetry_space_group_name_H-M "P B C A"
_symmetry_group_IT_number 61
_symmetry_cell_setting 'orthorhombic'
loop_
_space_group_symop_operation_xyz
x,y,z
1/2-x,-y,1/2+z
1/2+x,1/2-y,-z
-x,1/2+y,1/2-z
-x,-y,-z
1/2+x,y,1/2-z
1/2-x,1/2+y,z
x,1/2-y,1/2+z
loop_
_atom_site_type_symbol
_atom_site_label
_atom_site_fract_x
_atom_site_fract_y
_atom_site_fract_z
Si Si1 0.695957 0.669835 0.854689
Si Si2 0.970472 0.468071 0.363108
Si Si3 0.108633 0.349453 0.201294
Si Si4 0.982699 0.391296 0.997256
Si Si5 0.137827 0.746796 0.893825
Si Si6 0.978763 0.836683 0.769052
O O1 0.613492 0.599751 0.860943
O O2 0.788564 0.619129 0.816388
O O3 0.684848 0.745267 0.742261
O O4 0.701858 0.718053 0.992919
O O5 0.936596 0.561921 0.293843
O O6 0.000000 0.500000 0.500000
O O7 0.055359 0.421083 0.292177
O O8 0.070102 0.348182 0.061025
O O9 0.097744 0.242209 0.248178
O O10 0.894983 0.359596 0.076448
O O11 0.968346 0.344331 0.862260
O O12 0.000000 0.500000 0.000000
O O13 0.049783 0.812173 0.879757
#
# Coordination Sequence:
#
# PCOD8249689 Si02
#       6
#     8   8   8   8   8   8
#     4  12  25  46  68 105 142 182 241 297 350 429
#     4  12  24  47  70  98 143 192 235 293 360 430
#     4  11  27  44  69 104 138 179 241 291 352 430
#     4  11  20  42  69  94 132 178 229 283 346 414
#     4  11  22  42  70  93 137 184 223 288 356 414
#     4  11  22  43  71  95 136 185 227 283 361 419
#
# _framework density 21.081375999999999
#
# number of rings (size 3 to 8) (size 9 to 14) (size 15 to 20)
#    0.000    0.667    8.333    0.000    4.667    0.000 
#   12.000    0.000    0.000    0.000    0.000    0.000 
#    0.000    0.000    0.000    0.000    0.000    0.000 
#
# Total GULP energy -594696.334152 kJ/mol
# GULP energy per Si atom -12389.506962 kJ/mol
# Density = 2.103339 g / cm^3
# Si number density = 21.081376 Si / 1000 Ang^3
#
#
#
# Elastic Constant Matrix: (Units=GPa)
#
#
# Indices 1 2 3 4 5 6 
#
# 1 118.8993 28.9192 40.7109 0.0000 0.0000 0.0000
# 2 28.9192 108.6468 43.2541 0.0000 0.0000 0.0000
# 3 40.7109 43.2541 142.2284 0.0000 0.0000 0.0000
# 4 0.0000 0.0000 0.0000 34.2953 0.0000 0.0000
# 5 0.0000 0.0000 0.0000 0.0000 23.4530 0.0000
# 6 0.0000 0.0000 0.0000 0.0000 0.0000 14.1041
#
#
#
# Elastic Compliance Matrix: (Units=1/GPa)
#
#
# Indices 1 2 3 4 5 6 
#
# 1 0.009580 -0.001659 -0.002238 0.000000 0.000000 0.000000
# 2 -0.001659 0.010759 -0.002797 0.000000 0.000000 0.000000
# 3 -0.002238 -0.002797 0.008522 0.000000 0.000000 0.000000
# 4 0.000000 0.000000 0.000000 0.029159 0.000000 0.000000
# 5 0.000000 0.000000 0.000000 0.000000 0.042639 0.000000
# 6 0.000000 0.000000 0.000000 0.000000 0.000000 0.070901
#
#
# Mechanical properties :
#
#
# Convention : Reuss Voigt Hill
#
# Bulk Modulus (GPa) = 64.62581 66.17144 65.39863
# Shear Modulus (GPa) = 26.30110 31.49648 28.89879
#
# Velocity S-wave (km/s) = 3.53597 3.86948 3.70648
# Velocity P-wave (km/s) = 6.88424 7.17081 7.02899
#
# Compressibility (1/GPa) = 0.01547369
#
# Stress axis : x y z
#
# Youngs Moduli (GPa) = 104.38211 92.94215 117.34195
#
# Poissons Ratio (x) = 0.15421 0.26257
# Poissons Ratio (y) = 0.17319 0.32823
# Poissons Ratio (z) = 0.23357 0.25998
#
# Static dielectric constant tensor:
#      x y z
#    x 3.418490 0.000000 0.000000 
#    y 0.000000 4.064070 0.000000 
#    z 0.000000 0.000000 3.142190 
# 
# 
# High freq. dielectric constant tensor:
#      x y z
#    x 1.792590 0.000000 0.000000 
#    y 0.000000 1.826170 0.000000 
#    z 0.000000 0.000000 1.852590 
# 
# From -- ./inp_files/5744.got.cif
#   From: 2010.03.12/outbox.cif.g09.slc.cpg/sg61_3_cif.got.tgz:5744.got - 2010.04.10 19:05:03.
