data_PCOD8249503
_publ_section_title
;
Structure prediction by ZEFSAII (Michael W. Deem and Ramdas Pophale) SiO2 
 PCOD8249503
Probable space group: P B C A
;
_chemical_formula_sum "Si O2"
_cell_formula_units_Z 48
_cell_length_a 14.012888
_cell_length_b 11.395540
_cell_length_c 13.708697
_cell_angle_alpha 90.000000
_cell_angle_beta 90.000000
_cell_angle_gamma 90.000000
_cell_volume 2189.065408
_symmetry_space_group_name_H-M "P B C A"
_symmetry_group_IT_number 61
_symmetry_cell_setting 'orthorhombic'
loop_
_space_group_symop_operation_xyz
x,y,z
1/2-x,-y,1/2+z
1/2+x,1/2-y,-z
-x,1/2+y,1/2-z
-x,-y,-z
1/2+x,y,1/2-z
1/2-x,1/2+y,z
x,1/2-y,1/2+z
loop_
_atom_site_type_symbol
_atom_site_label
_atom_site_fract_x
_atom_site_fract_y
_atom_site_fract_z
Si Si1 0.535144 0.557969 0.344783
Si Si2 0.623059 0.310673 0.388700
Si Si3 0.148242 0.799640 0.804332
Si Si4 0.953218 0.247467 0.997114
Si Si5 0.171253 0.614441 0.638689
Si Si6 0.655828 0.111589 0.243182
O O1 0.562320 0.424949 0.362907
O O2 0.578920 0.603870 0.243452
O O3 0.571448 0.635363 0.435849
O O4 0.420929 0.563895 0.333763
O O5 0.566822 0.244878 0.477546
O O6 0.731752 0.343692 0.416710
O O7 0.618899 0.230846 0.292652
O O8 0.108256 0.752256 0.905210
O O9 0.159014 0.686328 0.737344
O O10 0.249552 0.863585 0.819343
O O11 0.919927 0.135762 0.932120
O O12 0.177830 0.478499 0.667977
#
# Coordination Sequence:
#
# PCOD8249503 Si02
#       6
#     8   8   8   8   8   8
#     4  11  23  43  71  97 137 184 237 292 353 425
#     4  11  23  44  67  99 137 183 232 288 353 422
#     4  10  22  46  65  99 137 184 230 291 353 422
#     4  11  24  43  69 102 136 180 241 290 344 428
#     4  10  24  43  68  98 144 177 235 294 348 428
#     4  11  23  43  71  98 139 188 229 288 366 421
#
# _framework density 21.927166
#
# number of rings (size 3 to 8) (size 9 to 14) (size 15 to 20)
#    0.000    1.333    3.333    1.500    4.667    0.667 
#    0.000    0.000    0.000    0.000    0.000    0.000 
#    0.000    0.000    0.000    0.000    0.000    0.000 
#
# Total GULP energy -595234.052300 kJ/mol
# GULP energy per Si atom -12400.709423 kJ/mol
# Density = 2.187726 g / cm^3
# Si number density = 21.927166 Si / 1000 Ang^3
#
#
#
# Elastic Constant Matrix: (Units=GPa)
#
#
# Indices 1 2 3 4 5 6 
#
# 1 117.6017 31.0630 58.8169 0.0000 0.0000 0.0000
# 2 31.0630 65.9925 33.4673 0.0000 0.0000 0.0000
# 3 58.8169 33.4673 106.9191 0.0000 0.0000 0.0000
# 4 0.0000 0.0000 0.0000 24.4219 0.0000 0.0000
# 5 0.0000 0.0000 0.0000 0.0000 39.0900 0.0000
# 6 0.0000 0.0000 0.0000 0.0000 0.0000 31.6256
#
#
#
# Elastic Compliance Matrix: (Units=1/GPa)
#
#
# Indices 1 2 3 4 5 6 
#
# 1 0.012141 -0.002767 -0.005813 0.000000 0.000000 0.000000
# 2 -0.002767 0.018643 -0.004313 0.000000 0.000000 0.000000
# 3 -0.005813 -0.004313 0.013901 0.000000 0.000000 0.000000
# 4 0.000000 0.000000 0.000000 0.040947 0.000000 0.000000
# 5 0.000000 0.000000 0.000000 0.000000 0.025582 0.000000
# 6 0.000000 0.000000 0.000000 0.000000 0.000000 0.031620
#
#
# Mechanical properties :
#
#
# Convention : Reuss Voigt Hill
#
# Bulk Modulus (GPa) = 52.91417 59.68975 56.30196
# Shear Modulus (GPa) = 28.58439 30.17190 29.37814
#
# Velocity S-wave (km/s) = 3.61447 3.71348 3.66431
# Velocity P-wave (km/s) = 6.45006 6.75777 6.60571
#
# Compressibility (1/GPa) = 0.01889853
#
# Stress axis : x y z
#
# Youngs Moduli (GPa) = 82.36261 53.63885 71.93847
#
# Poissons Ratio (x) = 0.14842 0.41817
# Poissons Ratio (y) = 0.22790 0.31030
# Poissons Ratio (z) = 0.47877 0.23137
#
# Static dielectric constant tensor:
#      x y z
#    x 4.324290 0.000000 0.000000 
#    y 0.000000 3.922060 0.000000 
#    z 0.000000 0.000000 3.766090 
# 
# 
# High freq. dielectric constant tensor:
#      x y z
#    x 1.876100 0.000000 0.000000 
#    y 0.000000 1.861180 0.000000 
#    z 0.000000 0.000000 1.845710 
# 
# From -- ./inp_files/7796.got.cif
#   From: 2010.03.12/outbox.cif.g09.slc.cpg/sg61_4_cif.got.tgz:7796.got - 2010.04.10 19:05:03.
