data_PCOD8249861
_publ_section_title
;
Structure prediction by ZEFSAII (Michael W. Deem and Ramdas Pophale) SiO2 
 PCOD8249861
Probable space group: P B C A
;
_chemical_formula_sum "Si O2"
_cell_formula_units_Z 40
_cell_length_a 10.019336
_cell_length_b 18.305057
_cell_length_c 9.189753
_cell_angle_alpha 90.000000
_cell_angle_beta 90.000000
_cell_angle_gamma 90.000000
_cell_volume 1685.442206
_symmetry_space_group_name_H-M "P B C A"
_symmetry_group_IT_number 61
_symmetry_cell_setting 'orthorhombic'
loop_
_space_group_symop_operation_xyz
x,y,z
1/2-x,-y,1/2+z
1/2+x,1/2-y,-z
-x,1/2+y,1/2-z
-x,-y,-z
1/2+x,y,1/2-z
1/2-x,1/2+y,z
x,1/2-y,1/2+z
loop_
_atom_site_type_symbol
_atom_site_label
_atom_site_fract_x
_atom_site_fract_y
_atom_site_fract_z
Si Si1 0.385875 0.610118 0.491690
Si Si2 0.860624 0.200556 0.964374
Si Si3 0.271026 0.015475 0.303682
Si Si4 0.097195 0.659611 0.213312
Si Si5 0.971891 0.424252 0.278544
O O1 0.291992 0.674653 0.549041
O O2 0.297025 0.537975 0.457492
O O3 0.452135 0.632066 0.337693
O O4 0.498164 0.592506 0.609918
O O5 0.855863 0.283008 0.908429
O O6 0.960240 0.150279 0.869394
O O7 0.912719 0.198620 0.130135
O O8 0.303747 0.090406 0.217590
O O9 0.406976 0.972509 0.342415
O O10 0.169963 0.965717 0.210364
#
# Coordination Sequence:
#
# PCOD8249861 Si02
#       5
#     8   8   8   8   8
#     4  11  25  49  73 110 153 193 249 305 378 436
#     4  11  27  49  73 108 145 200 246 306 370 447
#     4  11  25  44  79 111 145 194 244 306 369 440
#     4  11  26  48  74 106 149 190 250 300 373 441
#     4  12  24  49  77 111 149 193 249 309 372 439
#
# _framework density 23.732644000000001
#
# number of rings (size 3 to 8) (size 9 to 14) (size 15 to 20)
#    0.000    0.800    4.000    1.800    0.000   11.200 
#    7.200    0.000    0.000    0.000    0.000    0.000 
#    0.000    0.000    0.000    0.000    0.000    0.000 
#
# Total GULP energy -496071.593437 kJ/mol
# GULP energy per Si atom -12401.789836 kJ/mol
# Density = 2.367863 g / cm^3
# Si number density = 23.732644 Si / 1000 Ang^3
#
#
#
# Elastic Constant Matrix: (Units=GPa)
#
#
# Indices 1 2 3 4 5 6 
#
# 1 121.6392 39.7326 36.7332 0.0000 0.0000 0.0000
# 2 39.7326 101.2393 39.1952 0.0000 0.0000 0.0000
# 3 36.7332 39.1952 125.7785 0.0000 0.0000 0.0000
# 4 0.0000 0.0000 0.0000 37.8246 0.0000 0.0000
# 5 0.0000 0.0000 0.0000 0.0000 38.5836 0.0000
# 6 0.0000 0.0000 0.0000 0.0000 0.0000 25.3303
#
#
#
# Elastic Compliance Matrix: (Units=1/GPa)
#
#
# Indices 1 2 3 4 5 6 
#
# 1 0.009811 -0.003117 -0.001894 0.000000 0.000000 0.000000
# 2 -0.003117 0.012223 -0.002899 0.000000 0.000000 0.000000
# 3 -0.001894 -0.002899 0.009407 0.000000 0.000000 0.000000
# 4 0.000000 0.000000 0.000000 0.026438 0.000000 0.000000
# 5 0.000000 0.000000 0.000000 0.000000 0.025918 0.000000
# 6 0.000000 0.000000 0.000000 0.000000 0.000000 0.039478
#
#
# Mechanical properties :
#
#
# Convention : Reuss Voigt Hill
#
# Bulk Modulus (GPa) = 64.01376 64.44212 64.22794
# Shear Modulus (GPa) = 34.64952 35.88077 35.26515
#
# Velocity S-wave (km/s) = 3.82513 3.89250 3.85896
# Velocity P-wave (km/s) = 6.82204 6.88581 6.85400
#
# Compressibility (1/GPa) = 0.01562164
#
# Stress axis : x y z
#
# Youngs Moduli (GPa) = 101.92422 81.81155 106.30538
#
# Poissons Ratio (x) = 0.25503 0.20133
# Poissons Ratio (y) = 0.31773 0.30814
# Poissons Ratio (z) = 0.19304 0.23714
#
# Static dielectric constant tensor:
#      x y z
#    x 4.343580 0.000000 0.000000 
#    y 0.000000 4.318970 0.000000 
#    z 0.000000 0.000000 4.154520 
# 
# 
# High freq. dielectric constant tensor:
#      x y z
#    x 1.946230 0.000000 0.000000 
#    y 0.000000 1.945430 0.000000 
#    z 0.000000 0.000000 1.941540 
# 
# From -- ./inp_files/2125.got.cif
#   From: 2010.03.12/outbox.cif.g09.slc.cpg/sg61_2_cif.got.tgz:2125.got - 2010.04.10 19:05:03.
