data_PCOD8249941
_publ_section_title
;
Structure prediction by ZEFSAII (Michael W. Deem and Ramdas Pophale) SiO2 
 PCOD8249941
Probable space group: P N M A
;
_chemical_formula_sum "Si O2"
_cell_formula_units_Z 64
_cell_length_a 21.655291
_cell_length_b 8.853484
_cell_length_c 17.630684
_cell_angle_alpha 90.000000
_cell_angle_beta 90.000000
_cell_angle_gamma 90.000000
_cell_volume 3380.238877
_symmetry_space_group_name_H-M "P N M A"
_symmetry_group_IT_number 62
_symmetry_cell_setting 'orthorhombic'
loop_
_space_group_symop_operation_xyz
x,y,z
1/2-x,-y,1/2+z
1/2+x,1/2-y,1/2-z
-x,1/2+y,-z
-x,-y,-z
1/2+x,y,1/2-z
1/2-x,1/2+y,1/2+z
x,1/2-y,z
loop_
_atom_site_type_symbol
_atom_site_label
_atom_site_fract_x
_atom_site_fract_y
_atom_site_fract_z
Si Si1 0.863631 0.075170 0.983171
Si Si2 0.116548 0.927294 0.392084
Si Si3 0.997203 0.075440 0.419308
Si Si4 0.559798 0.423094 0.355219
Si Si5 0.242297 0.573675 0.121878
Si Si6 0.039271 0.429119 0.930688
Si Si7 0.834219 0.578337 0.746110
Si Si8 0.860990 0.076393 0.434691
O O1 0.871008 0.250000 0.004062
O O2 0.793693 0.035170 0.957313
O O3 0.903782 0.035664 0.909953
O O4 0.888878 0.977582 0.055228
O O5 0.112333 0.750000 0.384039
O O6 0.134539 0.976171 0.477456
O O7 0.049344 0.995131 0.368246
O O8 0.167967 0.990090 0.333747
O O9 0.014623 0.250000 0.426153
O O10 0.926527 0.055730 0.390764
O O11 0.000000 0.000000 0.500000
O O12 0.559489 0.250000 0.385807
O O13 0.489552 0.491462 0.354604
O O14 0.594548 0.430658 0.275066
O O15 0.237948 0.750000 0.139706
O O16 0.213895 0.488694 0.193966
O O17 0.312672 0.525305 0.110565
O O18 0.033881 0.250000 0.925552
O O19 0.000000 0.500000 0.000000
O O20 0.814323 0.750000 0.731620
O O21 0.839460 0.250000 0.431846
#
# Coordination Sequence:
#
# PCOD8249941 Si02
#       8
#     8   8   8   8   8   8   8   8
#     4   9  16  26  39  59  87 118 155 198 241 285
#     4  10  20  34  54  80 108 137 171 215 264 314
#     4   9  17  31  52  79 107 133 164 204 254 308
#     4   9  16  26  40  60  86 118 156 197 243 291
#     4  10  20  32  50  75 103 138 178 218 258 307
#     4  10  16  22  36  57  81 113 151 194 243 287
#     4  10  20  33  51  74 103 139 175 215 263 315
#     4   9  19  34  53  78 107 138 170 209 257 309
#
# _framework density 18.933572999999999
#
# number of rings (size 3 to 8) (size 9 to 14) (size 15 to 20)
#    0.000    2.500    0.000    5.625    0.000    6.000 
#    0.000    0.000    0.000    1.500    0.000    8.750 
#    0.000    0.000    0.000    0.000    0.000    0.000 
#
# Total GULP energy -792872.308221 kJ/mol
# GULP energy per Si atom -12388.629816 kJ/mol
# Density = 1.889048 g / cm^3
# Si number density = 18.933573 Si / 1000 Ang^3
#
#
#
# Elastic Constant Matrix: (Units=GPa)
#
#
# Indices 1 2 3 4 5 6 
#
# 1 82.8125 43.7005 29.3750 0.0000 0.0000 0.0000
# 2 43.7005 108.3213 30.0310 0.0000 0.0000 0.0000
# 3 29.3750 30.0310 51.7388 0.0000 0.0000 0.0000
# 4 0.0000 0.0000 0.0000 25.0039 0.0000 0.0000
# 5 0.0000 0.0000 0.0000 0.0000 17.6480 0.0000
# 6 0.0000 0.0000 0.0000 0.0000 0.0000 29.1165
#
#
#
# Elastic Compliance Matrix: (Units=1/GPa)
#
#
# Indices 1 2 3 4 5 6 
#
# 1 0.017147 -0.005028 -0.006817 0.000000 0.000000 0.000000
# 2 -0.005028 0.012476 -0.004387 0.000000 0.000000 0.000000
# 3 -0.006817 -0.004387 0.025745 0.000000 0.000000 0.000000
# 4 0.000000 0.000000 0.000000 0.039994 0.000000 0.000000
# 5 0.000000 0.000000 0.000000 0.000000 0.056664 0.000000
# 6 0.000000 0.000000 0.000000 0.000000 0.000000 0.034345
#
#
# Mechanical properties :
#
#
# Convention : Reuss Voigt Hill
#
# Bulk Modulus (GPa) = 43.66020 49.89842 46.77931
# Shear Modulus (GPa) = 22.07814 23.67143 22.87479
#
# Velocity S-wave (km/s) = 3.41850 3.53970 3.47963
# Velocity P-wave (km/s) = 6.22023 6.56640 6.39566
#
# Compressibility (1/GPa) = 0.02290416
#
# Stress axis : x y z
#
# Youngs Moduli (GPa) = 58.32040 80.15104 38.84291
#
# Poissons Ratio (x) = 0.40297 0.26479
# Poissons Ratio (y) = 0.29321 0.17042
# Poissons Ratio (z) = 0.39757 0.35165
#
# Static dielectric constant tensor:
#      x y z
#    x 3.944940 0.000000 0.000000 
#    y 0.000000 3.556240 0.000000 
#    z 0.000000 0.000000 3.324140 
# 
# 
# High freq. dielectric constant tensor:
#      x y z
#    x 1.723580 0.000000 0.000000 
#    y 0.000000 1.751150 0.000000 
#    z 0.000000 0.000000 1.690060 
# 
# From -- ./inp_files/27923.got.cif
#   From: 2010.03.12/outbox.cif.g09.slc.cpg/sg62_14_cif.got.tgz:27923.got - 2010.04.10 19:12:36.
