data_PCOD8249950
_publ_section_title
;
Structure prediction by ZEFSAII (Michael W. Deem and Ramdas Pophale) SiO2 
 PCOD8249950
Probable space group: P N M A
;
_chemical_formula_sum "Si O2"
_cell_formula_units_Z 64
_cell_length_a 13.097251
_cell_length_b 17.684990
_cell_length_c 17.524526
_cell_angle_alpha 90.000000
_cell_angle_beta 90.000000
_cell_angle_gamma 90.000000
_cell_volume 4059.114006
_symmetry_space_group_name_H-M "P N M A"
_symmetry_group_IT_number 62
_symmetry_cell_setting 'orthorhombic'
loop_
_space_group_symop_operation_xyz
x,y,z
1/2-x,-y,1/2+z
1/2+x,1/2-y,1/2-z
-x,1/2+y,-z
-x,-y,-z
1/2+x,y,1/2-z
1/2-x,1/2+y,1/2+z
x,1/2-y,z
loop_
_atom_site_type_symbol
_atom_site_label
_atom_site_fract_x
_atom_site_fract_y
_atom_site_fract_z
Si Si1 0.306905 0.016716 0.380256
Si Si2 0.998611 0.333397 0.957473
Si Si3 0.823258 0.916685 0.986510
Si Si4 0.340052 0.552850 0.755338
Si Si5 0.281960 0.162692 0.147145
Si Si6 0.494782 0.164837 0.221575
Si Si7 0.955236 0.019324 0.877758
Si Si8 0.392898 0.332428 0.381585
O O1 0.231485 0.001119 0.309381
O O2 0.301914 0.107514 0.392179
O O3 0.265516 0.973555 0.455240
O O4 0.424742 0.995089 0.363944
O O5 0.985365 0.250000 0.920635
O O6 0.938123 0.394316 0.905878
O O7 0.118562 0.354351 0.962148
O O8 0.962296 0.332612 0.044372
O O9 0.739680 0.876420 0.934098
O O10 0.911457 0.962637 0.941584
O O11 0.276212 0.616849 0.711919
O O12 0.423667 0.601102 0.802772
O O13 0.392851 0.491980 0.699923
O O14 0.244658 0.250000 0.147050
O O15 0.401607 0.157156 0.162991
O O16 0.539563 0.250000 0.216794
O O17 0.463356 0.146455 0.309019
O O18 0.342727 0.250000 0.367597
#
# Coordination Sequence:
#
# PCOD8249950 Si02
#       8
#     8   8   8   8   8   8   8   8
#     4  11  18  31  46  68  95 124 150 189 227 272
#     4  10  17  27  47  67  89 117 147 186 235 275
#     4  10  18  30  47  69  94 121 152 187 228 271
#     4  11  19  28  47  69  93 124 156 182 230 279
#     4  10  19  30  46  68  95 123 154 190 227 273
#     4  10  19  30  43  66 100 128 149 181 225 279
#     4  10  18  31  45  67  96 117 146 191 232 270
#     4  10  16  26  43  67  96 121 144 177 224 274
#
# _framework density 15.766987
#
# number of rings (size 3 to 8) (size 9 to 14) (size 15 to 20)
#    0.000    1.750    5.000    2.250    0.000    1.500 
#    0.000    0.625    0.000    3.750    0.000    0.000 
#    0.000    0.000    0.000    0.000    0.000    0.000 
#
# Total GULP energy -793253.730862 kJ/mol
# GULP energy per Si atom -12394.589545 kJ/mol
# Density = 1.573110 g / cm^3
# Si number density = 15.766987 Si / 1000 Ang^3
#
#
#
# Elastic Constant Matrix: (Units=GPa)
#
#
# Indices 1 2 3 4 5 6 
#
# 1 52.5326 31.6566 44.2230 0.0000 0.0000 0.0000
# 2 31.6566 88.7934 42.7469 0.0000 0.0000 0.0000
# 3 44.2230 42.7469 80.9658 0.0000 0.0000 0.0000
# 4 0.0000 0.0000 0.0000 25.7389 0.0000 0.0000
# 5 0.0000 0.0000 0.0000 0.0000 21.9397 0.0000
# 6 0.0000 0.0000 0.0000 0.0000 0.0000 17.6611
#
#
#
# Elastic Compliance Matrix: (Units=1/GPa)
#
#
# Indices 1 2 3 4 5 6 
#
# 1 0.036582 -0.004590 -0.017558 0.000000 0.000000 0.000000
# 2 -0.004590 0.015676 -0.005770 0.000000 0.000000 0.000000
# 3 -0.017558 -0.005770 0.024987 0.000000 0.000000 0.000000
# 4 0.000000 0.000000 0.000000 0.038852 0.000000 0.000000
# 5 0.000000 0.000000 0.000000 0.000000 0.045580 0.000000
# 6 0.000000 0.000000 0.000000 0.000000 0.000000 0.056622
#
#
# Mechanical properties :
#
#
# Convention : Reuss Voigt Hill
#
# Bulk Modulus (GPa) = 46.70451 51.06053 48.88252
# Shear Modulus (GPa) = 17.77659 19.97894 18.87776
#
# Velocity S-wave (km/s) = 3.36140 3.56355 3.46395
# Velocity P-wave (km/s) = 6.68965 7.02756 6.86069
#
# Compressibility (1/GPa) = 0.02141121
#
# Stress axis : x y z
#
# Youngs Moduli (GPa) = 27.33581 63.79211 40.02085
#
# Poissons Ratio (x) = 0.29278 0.70268
# Poissons Ratio (y) = 0.12546 0.23090
# Poissons Ratio (z) = 0.47996 0.36805
#
# Static dielectric constant tensor:
#      x y z
#    x 2.818920 0.000000 0.000000 
#    y 0.000000 3.285690 0.000000 
#    z 0.000000 0.000000 2.942940 
# 
# 
# High freq. dielectric constant tensor:
#      x y z
#    x 1.579480 0.000000 0.000000 
#    y 0.000000 1.608850 0.000000 
#    z 0.000000 0.000000 1.582610 
# 
# From -- ./inp_files/23327.got.cif
#   From: 2010.03.12/outbox.cif.g09.slc.cpg/sg62_12_cif.got.tgz:23327.got - 2010.04.10 19:12:36.
