data_PCOD8249102
_publ_section_title
;
Structure prediction by ZEFSAII (Michael W. Deem and Ramdas Pophale) SiO2 
 PCOD8249102
Probable space group: P B C A
;
_chemical_formula_sum "Si O2"
_cell_formula_units_Z 32
_cell_length_a 14.296335
_cell_length_b 19.776220
_cell_length_c 5.148305
_cell_angle_alpha 90.000000
_cell_angle_beta 90.000000
_cell_angle_gamma 90.000000
_cell_volume 1455.567228
_symmetry_space_group_name_H-M "P B C A"
_symmetry_group_IT_number 61
_symmetry_cell_setting 'orthorhombic'
loop_
_space_group_symop_operation_xyz
x,y,z
1/2-x,-y,1/2+z
1/2+x,1/2-y,-z
-x,1/2+y,1/2-z
-x,-y,-z
1/2+x,y,1/2-z
1/2-x,1/2+y,z
x,1/2-y,1/2+z
loop_
_atom_site_type_symbol
_atom_site_label
_atom_site_fract_x
_atom_site_fract_y
_atom_site_fract_z
Si Si1 0.280444 0.899552 0.800827
Si Si2 0.431425 0.794319 0.866821
Si Si3 0.411493 0.095175 0.089037
Si Si4 0.631823 0.975806 0.420644
O O1 0.335127 0.835061 0.909262
O O2 0.194056 0.875365 0.620119
O O3 0.354115 0.944912 0.636105
O O4 0.237002 0.943854 0.039611
O O5 0.435185 0.764510 0.578122
O O6 0.519626 0.842444 0.899256
O O7 0.430026 0.039528 0.320217
O O8 0.422910 0.058809 0.815185
#
# Coordination Sequence:
#
# PCOD8249102 Si02
#       4
#     8   8   8   8
#     4  10  23  42  71  96 130 159 217 270 327 376
#     4  12  29  43  61  95 132 179 223 249 307 395
#     4  10  22  42  64  95 129 165 205 271 319 383
#     4  10  20  41  69  99 123 159 211 270 343 365
#
# _framework density 21.984559000000001
#
# number of rings (size 3 to 8) (size 9 to 14) (size 15 to 20)
#    1.500    0.000    2.500    1.500    3.500    4.000 
#    0.000    0.000    0.000    0.000    0.000    0.000 
#    0.000    0.000    0.000    0.000    0.000    0.000 
#
# Total GULP energy -396711.796363 kJ/mol
# GULP energy per Si atom -12397.243636 kJ/mol
# Density = 2.193452 g / cm^3
# Si number density = 21.984559 Si / 1000 Ang^3
#
#
#
# Elastic Constant Matrix: (Units=GPa)
#
#
# Indices 1 2 3 4 5 6 
#
# 1 43.0461 17.5451 17.7537 0.0000 0.0000 0.0000
# 2 17.5451 55.1859 23.9653 0.0000 0.0000 0.0000
# 3 17.7537 23.9653 118.1142 0.0000 0.0000 0.0000
# 4 0.0000 0.0000 0.0000 32.9510 0.0000 0.0000
# 5 0.0000 0.0000 0.0000 0.0000 22.8092 0.0000
# 6 0.0000 0.0000 0.0000 0.0000 0.0000 9.3575
#
#
#
# Elastic Compliance Matrix: (Units=1/GPa)
#
#
# Indices 1 2 3 4 5 6 
#
# 1 0.027386 -0.007588 -0.002577 0.000000 0.000000 0.000000
# 2 -0.007588 0.021974 -0.003318 0.000000 0.000000 0.000000
# 3 -0.002577 -0.003318 0.009527 0.000000 0.000000 0.000000
# 4 0.000000 0.000000 0.000000 0.030348 0.000000 0.000000
# 5 0.000000 0.000000 0.000000 0.000000 0.043842 0.000000
# 6 0.000000 0.000000 0.000000 0.000000 0.000000 0.106866
#
#
# Mechanical properties :
#
#
# Convention : Reuss Voigt Hill
#
# Bulk Modulus (GPa) = 31.32652 37.20827 34.26739
# Shear Modulus (GPa) = 18.01482 23.49567 20.75525
#
# Velocity S-wave (km/s) = 2.86568 3.27270 3.07593
# Velocity P-wave (km/s) = 5.02292 5.58947 5.31375
#
# Compressibility (1/GPa) = 0.03192184
#
# Stress axis : x y z
#
# Youngs Moduli (GPa) = 36.51444 45.50871 104.96562
#
# Poissons Ratio (x) = 0.34531 0.27048
# Poissons Ratio (y) = 0.27707 0.34827
# Poissons Ratio (z) = 0.09409 0.15100
#
# Static dielectric constant tensor:
#      x y z
#    x 3.859750 0.000000 0.000000 
#    y 0.000000 3.629070 0.000000 
#    z 0.000000 0.000000 3.920010 
# 
# 
# High freq. dielectric constant tensor:
#      x y z
#    x 1.870680 0.000000 0.000000 
#    y 0.000000 1.845060 0.000000 
#    z 0.000000 0.000000 1.867990 
# 
# From -- ./inp_files/342.got.cif
#   From: 2010.03.12/outbox.cif.g09.slc.cpg/sg61_1_cif.got.tgz:342.got - 2010.04.10 19:05:03.
