data_PCOD8249441
_publ_section_title
;
Structure prediction by ZEFSAII (Michael W. Deem and Ramdas Pophale) SiO2 
 PCOD8249441
Probable space group: P B C A
;
_chemical_formula_sum "Si O2"
_cell_formula_units_Z 64
_cell_length_a 9.352018
_cell_length_b 23.162264
_cell_length_c 13.867378
_cell_angle_alpha 90.000000
_cell_angle_beta 90.000000
_cell_angle_gamma 90.000000
_cell_volume 3003.866968
_symmetry_space_group_name_H-M "P B C A"
_symmetry_group_IT_number 61
_symmetry_cell_setting 'orthorhombic'
loop_
_space_group_symop_operation_xyz
x,y,z
1/2-x,-y,1/2+z
1/2+x,1/2-y,-z
-x,1/2+y,1/2-z
-x,-y,-z
1/2+x,y,1/2-z
1/2-x,1/2+y,z
x,1/2-y,1/2+z
loop_
_atom_site_type_symbol
_atom_site_label
_atom_site_fract_x
_atom_site_fract_y
_atom_site_fract_z
Si Si1 0.156294 0.308983 0.061692
Si Si2 0.455782 0.153972 0.618362
Si Si3 0.064455 0.991657 0.763499
Si Si4 0.204952 0.433341 0.642407
Si Si5 0.448783 0.722278 0.357962
Si Si6 0.184505 0.437096 0.427395
Si Si7 0.226128 0.302865 0.673883
Si Si8 0.546313 0.607401 0.677356
O O1 0.318746 0.331592 0.052857
O O2 0.153924 0.244366 0.104509
O O3 0.067384 0.350429 0.130098
O O4 0.085922 0.310219 0.957029
O O5 0.559530 0.209010 0.627164
O O6 0.542630 0.102041 0.570608
O O7 0.397853 0.135577 0.723647
O O8 0.147881 0.946091 0.697545
O O9 0.920109 0.962003 0.796886
O O10 0.160582 0.008951 0.856026
O O11 0.032179 0.047175 0.698065
O O12 0.210591 0.460625 0.535165
O O13 0.182794 0.364946 0.631974
O O14 0.329435 0.703499 0.282230
O O15 0.604009 0.703884 0.320871
O O16 0.319586 0.399883 0.392918
#
# Coordination Sequence:
#
# PCOD8249441 Si02
#       8
#     8   8   8   8   8   8   8   8
#     4  11  24  42  70 106 136 179 229 278 343 412
#     4  10  22  41  69 101 141 177 226 282 333 407
#     4  11  25  46  68  97 134 179 226 291 337 400
#     4  12  25  46  66  96 139 178 230 274 347 407
#     4  11  24  42  66 102 140 183 221 273 347 405
#     4  11  24  43  72 101 130 183 228 285 341 406
#     4  11  25  44  66  99 141 184 216 283 338 411
#     4  11  22  44  73 100 134 175 233 287 338 400
#
# _framework density 21.305869999999999
#
# number of rings (size 3 to 8) (size 9 to 14) (size 15 to 20)
#    0.000    1.000    2.500    4.125    3.500    5.500 
#    2.250    0.000    0.000    0.000    0.000    0.000 
#    0.000    0.000    0.000    0.000    0.000    0.000 
#
# Total GULP energy -794080.831412 kJ/mol
# GULP energy per Si atom -12407.512991 kJ/mol
# Density = 2.125738 g / cm^3
# Si number density = 21.305870 Si / 1000 Ang^3
#
#
#
# Elastic Constant Matrix: (Units=GPa)
#
#
# Indices 1 2 3 4 5 6 
#
# 1 98.3146 32.4396 65.1434 0.0000 0.0000 0.0000
# 2 32.4396 84.2615 32.1694 0.0000 0.0000 0.0000
# 3 65.1434 32.1694 126.4464 0.0000 0.0000 0.0000
# 4 0.0000 0.0000 0.0000 17.8667 0.0000 0.0000
# 5 0.0000 0.0000 0.0000 0.0000 29.7778 0.0000
# 6 0.0000 0.0000 0.0000 0.0000 0.0000 25.6481
#
#
#
# Elastic Compliance Matrix: (Units=1/GPa)
#
#
# Indices 1 2 3 4 5 6 
#
# 1 0.016275 -0.003394 -0.007521 0.000000 0.000000 0.000000
# 2 -0.003394 0.013852 -0.001776 0.000000 0.000000 0.000000
# 3 -0.007521 -0.001776 0.012235 0.000000 0.000000 0.000000
# 4 0.000000 0.000000 0.000000 0.055970 0.000000 0.000000
# 5 0.000000 0.000000 0.000000 0.000000 0.033582 0.000000
# 6 0.000000 0.000000 0.000000 0.000000 0.000000 0.038989
#
#
# Mechanical properties :
#
#
# Convention : Reuss Voigt Hill
#
# Bulk Modulus (GPa) = 58.89083 63.16969 61.03026
# Shear Modulus (GPa) = 24.75917 26.60985 25.68451
#
# Velocity S-wave (km/s) = 3.41263 3.53788 3.47582
# Velocity P-wave (km/s) = 6.57486 6.81191 6.69443
#
# Compressibility (1/GPa) = 0.01698057
#
# Stress axis : x y z
#
# Youngs Moduli (GPa) = 61.44458 72.18955 81.73318
#
# Poissons Ratio (x) = 0.24503 0.61472
# Poissons Ratio (y) = 0.20856 0.14512
# Poissons Ratio (z) = 0.46213 0.12818
#
# Static dielectric constant tensor:
#      x y z
#    x 3.798210 0.000000 0.000000 
#    y 0.000000 3.985980 0.000000 
#    z 0.000000 0.000000 3.832920 
# 
# 
# High freq. dielectric constant tensor:
#      x y z
#    x 1.842780 0.000000 0.000000 
#    y 0.000000 1.838770 0.000000 
#    z 0.000000 0.000000 1.838930 
# 
# From -- ./inp_files/7238.got.cif
#   From: 2010.03.12/outbox.cif.g09.slc.cpg/sg61_4_cif.got.tgz:7238.got - 2010.04.10 19:05:03.
