data_PCOD8249676
_publ_section_title
;
Structure prediction by ZEFSAII (Michael W. Deem and Ramdas Pophale) SiO2 
 PCOD8249676
Probable space group: P B C A
;
_chemical_formula_sum "Si O2"
_cell_formula_units_Z 64
_cell_length_a 22.534259
_cell_length_b 8.781392
_cell_length_c 14.829621
_cell_angle_alpha 90.000000
_cell_angle_beta 90.000000
_cell_angle_gamma 90.000000
_cell_volume 2934.517461
_symmetry_space_group_name_H-M "P B C A"
_symmetry_group_IT_number 61
_symmetry_cell_setting 'orthorhombic'
loop_
_space_group_symop_operation_xyz
x,y,z
1/2-x,-y,1/2+z
1/2+x,1/2-y,-z
-x,1/2+y,1/2-z
-x,-y,-z
1/2+x,y,1/2-z
1/2-x,1/2+y,z
x,1/2-y,1/2+z
loop_
_atom_site_type_symbol
_atom_site_label
_atom_site_fract_x
_atom_site_fract_y
_atom_site_fract_z
Si Si1 0.690304 0.802404 0.215140
Si Si2 0.992618 0.731784 0.959737
Si Si3 0.281768 0.455416 0.015440
Si Si4 0.307695 0.350413 0.596102
Si Si5 0.062634 0.926191 0.609915
Si Si6 0.384447 0.645608 0.933454
Si Si7 0.297771 0.617186 0.359139
Si Si8 0.422678 0.380703 0.818242
O O1 0.685572 0.754611 0.317649
O O2 0.753627 0.744028 0.179590
O O3 0.634479 0.726826 0.163651
O O4 0.684808 0.985924 0.212314
O O5 0.971941 0.580942 0.908410
O O6 0.024727 0.831555 0.884181
O O7 0.937459 0.824037 0.998127
O O8 0.035332 0.702555 0.045131
O O9 0.247123 0.529918 0.101644
O O10 0.295813 0.275815 0.019002
O O11 0.339855 0.550714 0.995316
O O12 0.233215 0.479906 0.937552
O O13 0.368321 0.444723 0.582834
O O14 0.055194 0.878584 0.714698
O O15 0.356956 0.802164 0.895918
O O16 0.404193 0.551927 0.845112
#
# Coordination Sequence:
#
# PCOD8249676 Si02
#       8
#     8   8   8   8   8   8   8   8
#     4  11  23  42  64  98 135 178 219 284 336 412
#     4  11  26  47  72 101 137 184 235 286 352 403
#     4  12  22  40  67  97 135 176 220 277 340 407
#     4  11  24  42  66 100 137 174 229 276 339 406
#     4  10  26  47  73 102 139 182 231 294 342 411
#     4  12  25  42  69 103 134 181 232 285 343 418
#     4  12  22  41  68  96 136 178 220 268 350 408
#     4  11  25  47  72 101 140 178 237 289 344 413
#
# _framework density 21.809377000000001
#
# number of rings (size 3 to 8) (size 9 to 14) (size 15 to 20)
#    0.000    0.750    3.750    2.625    7.000    1.000 
#    4.500    0.000    0.000    0.000    0.000    0.000 
#    0.000    0.000    0.000    0.000    0.000    0.000 
#
# Total GULP energy -793688.848412 kJ/mol
# GULP energy per Si atom -12401.388256 kJ/mol
# Density = 2.175974 g / cm^3
# Si number density = 21.809377 Si / 1000 Ang^3
#
#
#
# Elastic Constant Matrix: (Units=GPa)
#
#
# Indices 1 2 3 4 5 6 
#
# 1 113.5345 33.9772 56.5950 0.0000 0.0000 0.0000
# 2 33.9772 86.4824 21.2138 0.0000 0.0000 0.0000
# 3 56.5950 21.2138 90.5471 0.0000 0.0000 0.0000
# 4 0.0000 0.0000 0.0000 34.5677 0.0000 0.0000
# 5 0.0000 0.0000 0.0000 0.0000 35.7188 0.0000
# 6 0.0000 0.0000 0.0000 0.0000 0.0000 42.3458
#
#
#
# Elastic Compliance Matrix: (Units=1/GPa)
#
#
# Indices 1 2 3 4 5 6 
#
# 1 0.013718 -0.003487 -0.007758 0.000000 0.000000 0.000000
# 2 -0.003487 0.013154 -0.000903 0.000000 0.000000 0.000000
# 3 -0.007758 -0.000903 0.016104 0.000000 0.000000 0.000000
# 4 0.000000 0.000000 0.000000 0.028929 0.000000 0.000000
# 5 0.000000 0.000000 0.000000 0.000000 0.027996 0.000000
# 6 0.000000 0.000000 0.000000 0.000000 0.000000 0.023615
#
#
# Mechanical properties :
#
#
# Convention : Reuss Voigt Hill
#
# Bulk Modulus (GPa) = 53.52408 57.12622 55.32515
# Shear Modulus (GPa) = 32.45942 34.44499 33.45221
#
# Velocity S-wave (km/s) = 3.86207 3.97844 3.92068
# Velocity P-wave (km/s) = 6.66952 6.88144 6.77631
#
# Compressibility (1/GPa) = 0.01868318
#
# Stress axis : x y z
#
# Youngs Moduli (GPa) = 72.89493 76.02070 62.09580
#
# Poissons Ratio (x) = 0.26507 0.48171
# Poissons Ratio (y) = 0.25417 0.05604
# Poissons Ratio (z) = 0.56549 0.06861
#
# Static dielectric constant tensor:
#      x y z
#    x 4.068620 0.000000 0.000000 
#    y 0.000000 3.938740 0.000000 
#    z 0.000000 0.000000 3.951090 
# 
# 
# High freq. dielectric constant tensor:
#      x y z
#    x 1.862730 0.000000 0.000000 
#    y 0.000000 1.863270 0.000000 
#    z 0.000000 0.000000 1.860040 
# 
# From -- ./inp_files/8504.got.cif
#   From: 2010.03.12/outbox.cif.g09.slc.cpg/sg61_5_cif.got.tgz:8504.got - 2010.04.10 19:05:03.
