data_PCOD8249183
_publ_section_title
;
Structure prediction by ZEFSAII (Michael W. Deem and Ramdas Pophale) SiO2 
 PCOD8249183
Probable space group: P B C A
;
_chemical_formula_sum "Si O2"
_cell_formula_units_Z 48
_cell_length_a 8.118829
_cell_length_b 24.567777
_cell_length_c 9.801987
_cell_angle_alpha 90.000000
_cell_angle_beta 90.000000
_cell_angle_gamma 90.000000
_cell_volume 1955.119818
_symmetry_space_group_name_H-M "P B C A"
_symmetry_group_IT_number 61
_symmetry_cell_setting 'orthorhombic'
loop_
_space_group_symop_operation_xyz
x,y,z
1/2-x,-y,1/2+z
1/2+x,1/2-y,-z
-x,1/2+y,1/2-z
-x,-y,-z
1/2+x,y,1/2-z
1/2-x,1/2+y,z
x,1/2-y,1/2+z
loop_
_atom_site_type_symbol
_atom_site_label
_atom_site_fract_x
_atom_site_fract_y
_atom_site_fract_z
Si Si1 0.419481 0.018996 0.652359
Si Si2 0.876480 0.590345 0.845131
Si Si3 0.055321 0.263198 0.899546
Si Si4 0.299549 0.054948 0.330173
Si Si5 0.001166 0.616851 0.107221
Si Si6 0.234105 0.209406 0.669402
O O1 0.263675 0.050132 0.579950
O O2 0.548102 0.062481 0.712209
O O3 0.334587 0.988973 0.781301
O O4 0.547119 0.973227 0.578916
O O5 0.788852 0.645873 0.798333
O O6 0.030055 0.603306 0.946957
O O7 0.973852 0.320457 0.852280
O O8 0.208492 0.245262 0.805577
O O9 0.919627 0.216338 0.882956
O O10 0.108750 0.268228 0.055748
O O11 0.198643 0.105834 0.390136
O O12 0.387677 0.077643 0.194858
#
# Coordination Sequence:
#
# PCOD8249183 Si02
#       6
#     8   8   8   8   8   8
#     4   9  19  35  56  83 113 147 191 237 286 351
#     4  10  21  38  58  83 116 154 193 242 299 356
#     4  11  23  40  63  91 124 165 208 257 311 369
#     4   9  19  35  56  83 113 148 191 237 286 351
#     4  10  21  38  58  82 116 154 194 242 299 356
#     4  11  23  40  63  90 124 163 207 256 311 369
#
# _framework density 24.550924999999999
#
# number of rings (size 3 to 8) (size 9 to 14) (size 15 to 20)
#    0.000    2.000    0.000    3.000    0.000    9.333 
#    0.000    5.000    0.000    0.000    0.000    0.000 
#    0.000    0.000    0.000    0.000    0.000    0.000 
#
# Total GULP energy -594752.376937 kJ/mol
# GULP energy per Si atom -12390.674520 kJ/mol
# Density = 2.449505 g / cm^3
# Si number density = 24.550925 Si / 1000 Ang^3
#
#
#
# Elastic Constant Matrix: (Units=GPa)
#
#
# Indices 1 2 3 4 5 6 
#
# 1 76.6168 12.5426 4.0303 0.0000 0.0000 0.0000
# 2 12.5426 86.7861 20.6056 0.0000 0.0000 0.0000
# 3 4.0303 20.6056 12.3380 0.0000 0.0000 0.0000
# 4 0.0000 0.0000 0.0000 36.1818 0.0000 0.0000
# 5 0.0000 0.0000 0.0000 0.0000 27.6305 0.0000
# 6 0.0000 0.0000 0.0000 0.0000 0.0000 48.4943
#
#
#
# Elastic Compliance Matrix: (Units=1/GPa)
#
#
# Indices 1 2 3 4 5 6 
#
# 1 0.013395 -0.001486 -0.001893 0.000000 0.000000 0.000000
# 2 -0.001486 0.019259 -0.031678 0.000000 0.000000 0.000000
# 3 -0.001893 -0.031678 0.134575 0.000000 0.000000 0.000000
# 4 0.000000 0.000000 0.000000 0.027638 0.000000 0.000000
# 5 0.000000 0.000000 0.000000 0.000000 0.036192 0.000000
# 6 0.000000 0.000000 0.000000 0.000000 0.000000 0.020621
#
#
# Mechanical properties :
#
#
# Convention : Reuss Voigt Hill
#
# Bulk Modulus (GPa) = 10.29732 27.78864 19.04298
# Shear Modulus (GPa) = 14.11765 31.69879 22.90822
#
# Velocity S-wave (km/s) = 2.40059 3.59715 3.05797
# Velocity P-wave (km/s) = 3.44778 5.34752 4.49906
#
# Compressibility (1/GPa) = 0.09711268
#
# Stress axis : x y z
#
# Youngs Moduli (GPa) = 74.65534 51.92434 7.43080
#
# Poissons Ratio (x) = 0.07718 0.01407
# Poissons Ratio (y) = 0.11097 0.23540
# Poissons Ratio (z) = 0.14134 1.64488
#
# Static dielectric constant tensor:
#      x y z
#    x 4.487100 0.000000 0.000000 
#    y 0.000000 4.500280 0.000000 
#    z 0.000000 0.000000 4.294820 
# 
# 
# High freq. dielectric constant tensor:
#      x y z
#    x 1.982880 0.000000 0.000000 
#    y 0.000000 1.982940 0.000000 
#    z 0.000000 0.000000 1.981980 
# 
# From -- ./inp_files/4223.got.cif
#   From: 2010.03.12/outbox.cif.g09.slc.cpg/sg61_3_cif.got.tgz:4223.got - 2010.04.10 19:05:03.
