data_PCOD8249219
_publ_section_title
;
Structure prediction by ZEFSAII (Michael W. Deem and Ramdas Pophale) SiO2 
 PCOD8249219
Probable space group: P B C A
;
_chemical_formula_sum "Si O2"
_cell_formula_units_Z 40
_cell_length_a 25.121151
_cell_length_b 14.918842
_cell_length_c 5.023435
_cell_angle_alpha 90.000000
_cell_angle_beta 90.000000
_cell_angle_gamma 90.000000
_cell_volume 1882.675347
_symmetry_space_group_name_H-M "P B C A"
_symmetry_group_IT_number 61
_symmetry_cell_setting 'orthorhombic'
loop_
_space_group_symop_operation_xyz
x,y,z
1/2-x,-y,1/2+z
1/2+x,1/2-y,-z
-x,1/2+y,1/2-z
-x,-y,-z
1/2+x,y,1/2-z
1/2-x,1/2+y,z
x,1/2-y,1/2+z
loop_
_atom_site_type_symbol
_atom_site_label
_atom_site_fract_x
_atom_site_fract_y
_atom_site_fract_z
Si Si1 0.346645 0.059386 0.813173
Si Si2 0.561133 0.691395 0.770409
Si Si3 0.250000 0.190678 0.812578
Si Si4 0.653357 0.059379 0.686826
Si Si5 0.061138 0.308606 0.229601
O O1 0.404454 0.103062 0.777458
O O2 0.302151 0.132925 0.755886
O O3 0.340113 0.977098 0.610889
O O4 0.340115 0.022910 0.110889
O O5 0.574574 0.769029 0.559183
O O6 0.499998 0.660872 0.750004
O O7 0.249997 0.274922 0.614558
O O8 0.197855 0.132911 0.755878
O O9 0.595550 0.103062 0.722533
O O10 0.074579 0.230972 0.440828
#
# Coordination Sequence:
#
# PCOD8249219 Si02
#       5
#     8   8   8   8   8
#     4  12  24  39  60  89 121 149 189 243 295 339
#     4  10  21  39  61  85 116 156 198 234 278 343
#     4  12  24  42  64  84 114 156 198 234 284 350
#     4  12  24  39  60  89 121 149 189 243 295 339
#     4  10  21  39  61  85 116 156 198 234 278 343
#
# _framework density 21.246359000000002
#
# number of rings (size 3 to 8) (size 9 to 14) (size 15 to 20)
#    0.000    0.800    0.000    8.400    0.000    1.600 
#    0.000    0.000    0.000    0.000    0.000    0.000 
#    0.000    0.000    0.000    0.000    0.000    0.000 
#
# Total GULP energy -496437.790072 kJ/mol
# GULP energy per Si atom -12410.944752 kJ/mol
# Density = 2.119800 g / cm^3
# Si number density = 21.246359 Si / 1000 Ang^3
#
#
#
# Elastic Constant Matrix: (Units=GPa)
#
#
# Indices 1 2 3 4 5 6 
#
# 1 110.9934 53.4912 24.1531 0.0000 0.0000 0.0000
# 2 53.4912 83.9234 12.2435 0.0000 0.0000 0.0000
# 3 24.1531 12.2435 77.9058 0.0000 0.0000 0.0000
# 4 0.0000 0.0000 0.0000 43.8317 0.0000 0.0000
# 5 0.0000 0.0000 0.0000 0.0000 26.6494 0.0000
# 6 0.0000 0.0000 0.0000 0.0000 0.0000 37.3280
#
#
#
# Elastic Compliance Matrix: (Units=1/GPa)
#
#
# Indices 1 2 3 4 5 6 
#
# 1 0.013626 -0.008258 -0.002927 0.000000 0.000000 0.000000
# 2 -0.008258 0.017200 -0.000143 0.000000 0.000000 0.000000
# 3 -0.002927 -0.000143 0.013766 0.000000 0.000000 0.000000
# 4 0.000000 0.000000 0.000000 0.022815 0.000000 0.000000
# 5 0.000000 0.000000 0.000000 0.000000 0.037524 0.000000
# 6 0.000000 0.000000 0.000000 0.000000 0.000000 0.026790
#
#
# Mechanical properties :
#
#
# Convention : Reuss Voigt Hill
#
# Bulk Modulus (GPa) = 45.58564 50.28869 47.93716
# Shear Modulus (GPa) = 30.92373 33.75750 32.34061
#
# Velocity S-wave (km/s) = 3.81922 3.99038 3.90573
# Velocity P-wave (km/s) = 6.39929 6.70459 6.55372
#
# Compressibility (1/GPa) = 0.02193673
#
# Stress axis : x y z
#
# Youngs Moduli (GPa) = 73.38758 58.13938 72.64357
#
# Poissons Ratio (x) = 0.48012 0.21261
# Poissons Ratio (y) = 0.60605 0.01038
# Poissons Ratio (z) = 0.21479 0.00830
#
# Static dielectric constant tensor:
#      x y z
#    x 3.991100 0.000000 0.000000 
#    y 0.000000 3.585930 0.000000 
#    z 0.000000 0.000000 3.987850 
# 
# 
# High freq. dielectric constant tensor:
#      x y z
#    x 1.847720 0.000000 0.000000 
#    y 0.000000 1.828280 0.000000 
#    z 0.000000 0.000000 1.851050 
# 
# From -- ./inp_files/1152.got.cif
#   From: 2010.03.12/outbox.cif.g09.slc.cpg/sg61_1_cif.got.tgz:1152.got - 2010.04.10 19:05:03.
