data_PCOD8249948
_publ_section_title
;
Structure prediction by ZEFSAII (Michael W. Deem and Ramdas Pophale) SiO2 
 PCOD8249948
Probable space group: P N M A
;
_chemical_formula_sum "Si O2"
_cell_formula_units_Z 64
_cell_length_a 19.169768
_cell_length_b 13.127963
_cell_length_c 17.126842
_cell_angle_alpha 90.000000
_cell_angle_beta 90.000000
_cell_angle_gamma 90.000000
_cell_volume 4310.141144
_symmetry_space_group_name_H-M "P N M A"
_symmetry_group_IT_number 62
_symmetry_cell_setting 'orthorhombic'
loop_
_space_group_symop_operation_xyz
x,y,z
1/2-x,-y,1/2+z
1/2+x,1/2-y,1/2-z
-x,1/2+y,-z
-x,-y,-z
1/2+x,y,1/2-z
1/2-x,1/2+y,1/2+z
x,1/2-y,z
loop_
_atom_site_type_symbol
_atom_site_label
_atom_site_fract_x
_atom_site_fract_y
_atom_site_fract_z
Si Si1 0.888547 0.131390 0.257743
Si Si2 0.182446 0.133400 0.998902
Si Si3 0.186780 0.546981 0.890032
Si Si4 0.545038 0.132123 0.247476
Si Si5 0.053613 0.441375 0.087183
Si Si6 0.258555 0.132044 0.148756
Si Si7 0.189164 0.368576 0.306067
Si Si8 0.422923 0.366120 0.494462
O O1 0.883374 0.250000 0.231356
O O2 0.860066 0.061262 0.187616
O O3 0.840814 0.113129 0.334550
O O4 0.967709 0.100807 0.281615
O O5 0.199404 0.250000 0.977393
O O6 0.187849 0.070143 0.918515
O O7 0.104708 0.125146 0.033352
O O8 0.235059 0.085714 0.065114
O O9 0.267144 0.577520 0.874576
O O10 0.154482 0.615091 0.960019
O O11 0.545822 0.250000 0.271793
O O12 0.569325 0.067972 0.321961
O O13 0.605748 0.111467 0.182928
O O14 0.976332 0.396620 0.074375
O O15 0.060304 0.561341 0.067818
O O16 0.239851 0.250000 0.141221
O O17 0.214094 0.088095 0.221662
O O18 0.207974 0.250000 0.310620
O O19 0.430827 0.250000 0.521859
#
# Coordination Sequence:
#
# PCOD8249948 Si02
#       8
#     8   8   8   8   8   8   8   8
#     4   9  16  26  42  64  87 108 131 164 211 255
#     4  10  18  28  41  60  84 112 143 170 203 245
#     4  10  18  26  41  63  83 110 135 168 209 249
#     4  10  16  25  42  62  86 108 130 167 210 250
#     4  10  18  25  38  60  84 112 139 161 196 245
#     4   8  14  25  40  58  80 106 137 169 201 240
#     4   9  16  26  42  62  83 106 133 171 210 246
#     4  10  18  27  38  55  87 116 135 160 196 245
#
# _framework density 14.848701999999999
#
# number of rings (size 3 to 8) (size 9 to 14) (size 15 to 20)
#    0.000    2.500    2.500    3.000    0.000    0.000 
#    0.000    0.000    0.000    1.500    0.000    0.000 
#    0.000    0.000    0.000    0.000    0.000    0.000 
#
# Total GULP energy -793084.984510 kJ/mol
# GULP energy per Si atom -12391.952883 kJ/mol
# Density = 1.481491 g / cm^3
# Si number density = 14.848702 Si / 1000 Ang^3
#
#
#
# Elastic Constant Matrix: (Units=GPa)
#
#
# Indices 1 2 3 4 5 6 
#
# 1 108.7843 30.7713 35.7892 0.0000 0.0000 0.0000
# 2 30.7713 71.3360 28.5542 0.0000 0.0000 0.0000
# 3 35.7892 28.5542 42.9611 0.0000 0.0000 0.0000
# 4 0.0000 0.0000 0.0000 16.6630 0.0000 0.0000
# 5 0.0000 0.0000 0.0000 0.0000 22.3611 0.0000
# 6 0.0000 0.0000 0.0000 0.0000 0.0000 14.5926
#
#
#
# Elastic Compliance Matrix: (Units=1/GPa)
#
#
# Indices 1 2 3 4 5 6 
#
# 1 0.012814 -0.001709 -0.009539 0.000000 0.000000 0.000000
# 2 -0.001709 0.019328 -0.011422 0.000000 0.000000 0.000000
# 3 -0.009539 -0.011422 0.038815 0.000000 0.000000 0.000000
# 4 0.000000 0.000000 0.000000 0.060013 0.000000 0.000000
# 5 0.000000 0.000000 0.000000 0.000000 0.044721 0.000000
# 6 0.000000 0.000000 0.000000 0.000000 0.000000 0.068528
#
#
# Mechanical properties :
#
#
# Convention : Reuss Voigt Hill
#
# Bulk Modulus (GPa) = 39.03790 45.92342 42.48066
# Shear Modulus (GPa) = 16.77298 19.25443 18.01371
#
# Velocity S-wave (km/s) = 3.36459 3.60489 3.48681
# Velocity P-wave (km/s) = 6.43750 6.95138 6.69937
#
# Compressibility (1/GPa) = 0.02561613
#
# Stress axis : x y z
#
# Youngs Moduli (GPa) = 78.03817 51.73966 25.76312
#
# Poissons Ratio (x) = 0.08844 0.24575
# Poissons Ratio (y) = 0.13339 0.29427
# Poissons Ratio (z) = 0.74440 0.59098
#
# Static dielectric constant tensor:
#      x y z
#    x 3.130310 0.000000 0.000000 
#    y 0.000000 2.645430 0.000000 
#    z 0.000000 0.000000 2.635280 
# 
# 
# High freq. dielectric constant tensor:
#      x y z
#    x 1.579940 0.000000 0.000000 
#    y 0.000000 1.534770 0.000000 
#    z 0.000000 0.000000 1.529800 
# 
# From -- ./inp_files/24855.got.cif
#   From: 2010.03.12/outbox.cif.g09.slc.cpg/sg62_13_cif.got.tgz:24855.got - 2010.04.10 19:12:36.
