data_PCOD8249670
_publ_section_title
;
Structure prediction by ZEFSAII (Michael W. Deem and Ramdas Pophale) SiO2 
 PCOD8249670
Probable space group: P B C A
;
_chemical_formula_sum "Si O2"
_cell_formula_units_Z 40
_cell_length_a 9.884754
_cell_length_b 16.666221
_cell_length_c 8.955164
_cell_angle_alpha 90.000000
_cell_angle_beta 90.000000
_cell_angle_gamma 90.000000
_cell_volume 1475.287103
_symmetry_space_group_name_H-M "P B C A"
_symmetry_group_IT_number 61
_symmetry_cell_setting 'orthorhombic'
loop_
_space_group_symop_operation_xyz
x,y,z
1/2-x,-y,1/2+z
1/2+x,1/2-y,-z
-x,1/2+y,1/2-z
-x,-y,-z
1/2+x,y,1/2-z
1/2-x,1/2+y,z
x,1/2-y,1/2+z
loop_
_atom_site_type_symbol
_atom_site_label
_atom_site_fract_x
_atom_site_fract_y
_atom_site_fract_z
Si Si1 0.779379 0.921471 0.601686
Si Si2 0.165731 0.429755 0.283257
Si Si3 0.997025 0.185515 0.307641
Si Si4 0.070612 0.580376 0.930298
Si Si5 0.044211 0.649716 0.533851
O O1 0.691776 0.894856 0.454505
O O2 0.846249 0.844096 0.680780
O O3 0.684438 0.972612 0.715765
O O4 0.900414 0.983351 0.546601
O O5 0.314591 0.389493 0.310567
O O6 0.924213 0.587613 0.567518
O O7 0.077977 0.399103 0.141888
O O8 0.908162 0.130975 0.419364
O O9 0.949986 0.177802 0.138269
O O10 0.978419 0.277110 0.353935
#
# Coordination Sequence:
#
# PCOD8249670 Si02
#       5
#     8   8   8   8   8
#     4  10  26  44  86 102 162 190 264 308 394 444
#     4  10  25  48  81 116 154 194 254 317 388 457
#     4  12  28  48  73 111 153 208 256 314 381 455
#     4  10  25  48  81 116 154 194 254 317 388 457
#     4  12  28  48  73 111 153 208 256 314 381 455
#
# _framework density 27.113367
#
# number of rings (size 3 to 8) (size 9 to 14) (size 15 to 20)
#    1.200    0.000    0.000    3.600    8.400    3.200 
#    0.000    2.000    0.000    0.000    0.000    0.000 
#    0.000    0.000    0.000    0.000    0.000    0.000 
#
# Total GULP energy -495676.587266 kJ/mol
# GULP energy per Si atom -12391.914682 kJ/mol
# Density = 2.705166 g / cm^3
# Si number density = 27.113367 Si / 1000 Ang^3
#
#
#
# Elastic Constant Matrix: (Units=GPa)
#
#
# Indices 1 2 3 4 5 6 
#
# 1 166.9830 33.4932 4.9976 0.0000 0.0000 0.0000
# 2 33.4932 100.0549 1.8557 0.0000 0.0000 0.0000
# 3 4.9976 1.8557 116.1189 0.0000 0.0000 0.0000
# 4 0.0000 0.0000 0.0000 42.4435 0.0000 0.0000
# 5 0.0000 0.0000 0.0000 0.0000 13.0498 0.0000
# 6 0.0000 0.0000 0.0000 0.0000 0.0000 45.8419
#
#
#
# Elastic Compliance Matrix: (Units=1/GPa)
#
#
# Indices 1 2 3 4 5 6 
#
# 1 0.006426 -0.002147 -0.000242 0.000000 0.000000 0.000000
# 2 -0.002147 0.010715 -0.000079 0.000000 0.000000 0.000000
# 3 -0.000242 -0.000079 0.008624 0.000000 0.000000 0.000000
# 4 0.000000 0.000000 0.000000 0.023561 0.000000 0.000000
# 5 0.000000 0.000000 0.000000 0.000000 0.076630 0.000000
# 6 0.000000 0.000000 0.000000 0.000000 0.000000 0.021814
#
#
# Mechanical properties :
#
#
# Convention : Reuss Voigt Hill
#
# Bulk Modulus (GPa) = 48.01026 51.53885 49.77455
# Shear Modulus (GPa) = 31.31892 43.12105 37.21999
#
# Velocity S-wave (km/s) = 3.40238 3.99231 3.70909
# Velocity P-wave (km/s) = 5.76026 6.34833 6.06143
#
# Compressibility (1/GPa) = 0.02082888
#
# Stress axis : x y z
#
# Youngs Moduli (GPa) = 155.60623 93.33066 115.96155
#
# Poissons Ratio (x) = 0.20036 0.02810
# Poissons Ratio (y) = 0.33405 0.00914
# Poissons Ratio (z) = 0.03770 0.00736
#
# Static dielectric constant tensor:
#      x y z
#    x 5.307640 0.000000 0.000000 
#    y 0.000000 4.693710 0.000000 
#    z 0.000000 0.000000 4.785230 
# 
# 
# High freq. dielectric constant tensor:
#      x y z
#    x 2.120660 0.000000 0.000000 
#    y 0.000000 2.073060 0.000000 
#    z 0.000000 0.000000 2.114820 
# 
# From -- ./inp_files/2203.got.cif
#   From: 2010.03.12/outbox.cif.g09.slc.cpg/sg61_2_cif.got.tgz:2203.got - 2010.04.10 19:05:03.
