data_PCOD8249802
_publ_section_title
;
Structure prediction by ZEFSAII (Michael W. Deem and Ramdas Pophale) SiO2 
 PCOD8249802
Probable space group: P B C A
;
_chemical_formula_sum "Si O2"
_cell_formula_units_Z 32
_cell_length_a 6.742363
_cell_length_b 13.312025
_cell_length_c 15.524582
_cell_angle_alpha 90.000000
_cell_angle_beta 90.000000
_cell_angle_gamma 90.000000
_cell_volume 1393.401170
_symmetry_space_group_name_H-M "P B C A"
_symmetry_group_IT_number 61
_symmetry_cell_setting 'orthorhombic'
loop_
_space_group_symop_operation_xyz
x,y,z
1/2-x,-y,1/2+z
1/2+x,1/2-y,-z
-x,1/2+y,1/2-z
-x,-y,-z
1/2+x,y,1/2-z
1/2-x,1/2+y,z
x,1/2-y,1/2+z
loop_
_atom_site_type_symbol
_atom_site_label
_atom_site_fract_x
_atom_site_fract_y
_atom_site_fract_z
Si Si1 0.609656 0.628501 0.172757
Si Si2 0.337974 0.701446 0.623987
Si Si3 0.007541 0.161479 0.438358
Si Si4 0.241218 0.981349 0.655469
O O1 0.470694 0.727598 0.185849
O O2 0.781492 0.657214 0.107666
O O3 0.692986 0.588385 0.262381
O O4 0.471213 0.540349 0.131844
O O5 0.464680 0.680346 0.538623
O O6 0.296433 0.597959 0.674688
O O7 0.126677 0.749956 0.601299
O O8 0.895428 0.055100 0.423925
#
# Coordination Sequence:
#
# PCOD8249802 Si02
#       4
#     8   8   8   8
#     4  11  24  46  68 105 143 176 242 290 346 432
#     4  11  25  45  76 102 140 192 231 298 354 411
#     4  11  23  47  70 104 139 181 243 286 346 428
#     4  11  25  44  69 105 140 184 234 295 359 419
#
# _framework density 22.965392000000001
#
# number of rings (size 3 to 8) (size 9 to 14) (size 15 to 20)
#    0.000    1.000    5.000    0.750    0.000    7.000 
#    0.000    0.000    0.000    0.000    0.000    0.000 
#    0.000    0.000    0.000    0.000    0.000    0.000 
#
# Total GULP energy -396725.879457 kJ/mol
# GULP energy per Si atom -12397.683733 kJ/mol
# Density = 2.291312 g / cm^3
# Si number density = 22.965392 Si / 1000 Ang^3
#
#
#
# Elastic Constant Matrix: (Units=GPa)
#
#
# Indices 1 2 3 4 5 6 
#
# 1 112.9022 18.2461 14.2417 0.0000 0.0000 0.0000
# 2 18.2461 120.0360 19.0404 0.0000 0.0000 0.0000
# 3 14.2417 19.0404 73.7251 0.0000 0.0000 0.0000
# 4 0.0000 0.0000 0.0000 25.8186 0.0000 0.0000
# 5 0.0000 0.0000 0.0000 0.0000 34.0866 0.0000
# 6 0.0000 0.0000 0.0000 0.0000 0.0000 25.7259
#
#
#
# Elastic Compliance Matrix: (Units=1/GPa)
#
#
# Indices 1 2 3 4 5 6 
#
# 1 0.009233 -0.001168 -0.001482 0.000000 0.000000 0.000000
# 2 -0.001168 0.008835 -0.002056 0.000000 0.000000 0.000000
# 3 -0.001482 -0.002056 0.014381 0.000000 0.000000 0.000000
# 4 0.000000 0.000000 0.000000 0.038732 0.000000 0.000000
# 5 0.000000 0.000000 0.000000 0.000000 0.029337 0.000000
# 6 0.000000 0.000000 0.000000 0.000000 0.000000 0.038871
#
#
# Mechanical properties :
#
#
# Convention : Reuss Voigt Hill
#
# Bulk Modulus (GPa) = 43.40965 45.52441 44.46703
# Shear Modulus (GPa) = 31.95298 34.13521 33.04410
#
# Velocity S-wave (km/s) = 3.73413 3.85954 3.79735
# Velocity P-wave (km/s) = 6.12657 6.30297 6.21540
#
# Compressibility (1/GPa) = 0.02303636
#
# Stress axis : x y z
#
# Youngs Moduli (GPa) = 108.30749 113.19190 69.53565
#
# Poissons Ratio (x) = 0.13226 0.10304
# Poissons Ratio (y) = 0.12655 0.14296
# Poissons Ratio (z) = 0.16049 0.23271
#
# Static dielectric constant tensor:
#      x y z
#    x 4.557090 0.000000 0.000000 
#    y 0.000000 4.268810 0.000000 
#    z 0.000000 0.000000 3.902700 
# 
# 
# High freq. dielectric constant tensor:
#      x y z
#    x 1.931370 0.000000 0.000000 
#    y 0.000000 1.909680 0.000000 
#    z 0.000000 0.000000 1.888920 
# 
# From -- ./inp_files/359.got.cif
#   From: 2010.03.12/outbox.cif.g09.slc.cpg/sg61_1_cif.got.tgz:359.got - 2010.04.10 19:05:03.
