data_PCOD8249829
_publ_section_title
;
Structure prediction by ZEFSAII (Michael W. Deem and Ramdas Pophale) SiO2 
 PCOD8249829
Probable space group: P B C A
;
_chemical_formula_sum "Si O2"
_cell_formula_units_Z 48
_cell_length_a 8.500475
_cell_length_b 9.502504
_cell_length_c 28.418768
_cell_angle_alpha 90.000000
_cell_angle_beta 90.000000
_cell_angle_gamma 90.000000
_cell_volume 2295.548655
_symmetry_space_group_name_H-M "P B C A"
_symmetry_group_IT_number 61
_symmetry_cell_setting 'orthorhombic'
loop_
_space_group_symop_operation_xyz
x,y,z
1/2-x,-y,1/2+z
1/2+x,1/2-y,-z
-x,1/2+y,1/2-z
-x,-y,-z
1/2+x,y,1/2-z
1/2-x,1/2+y,z
x,1/2-y,1/2+z
loop_
_atom_site_type_symbol
_atom_site_label
_atom_site_fract_x
_atom_site_fract_y
_atom_site_fract_z
Si Si1 0.094562 0.313677 0.706338
Si Si2 0.094649 0.782703 0.885968
Si Si3 0.561519 0.885424 0.964225
Si Si4 0.395997 0.969911 0.873186
Si Si5 0.571098 0.357657 0.982038
Si Si6 0.408213 0.014845 0.219082
O O1 0.250683 0.406001 0.704632
O O2 0.040437 0.301593 0.652694
O O3 0.967099 0.405876 0.734368
O O4 0.118571 0.154150 0.727307
O O5 0.240738 0.879884 0.875619
O O6 0.160838 0.625784 0.885078
O O7 0.021676 0.809682 0.936399
O O8 0.530263 0.924559 0.910145
O O9 0.745819 0.864036 0.970883
O O10 0.460246 0.747365 0.974974
O O11 0.500000 0.000000 0.000000
O O12 0.462795 0.959264 0.820846
O O13 0.500000 0.500000 0.000000
#
# Coordination Sequence:
#
# PCOD8249829 Si02
#       6
#     8   8   8   8   8   8
#     4  11  24  44  69  98 135 174 222 276 337 406
#     4  11  25  44  66  97 132 173 221 270 336 396
#     4  12  24  45  66  95 135 170 225 272 332 400
#     4  11  25  43  67  96 133 172 220 275 329 402
#     4  12  26  43  68  97 131 178 220 276 336 397
#     4  11  24  44  68  99 134 174 222 276 338 403
#
# _framework density 20.910035000000001
#
# number of rings (size 3 to 8) (size 9 to 14) (size 15 to 20)
#    0.000    0.667    1.667    6.000    2.333    5.333 
#    0.000    0.000    0.000    0.000    0.000    0.000 
#    0.000    0.000    0.000    0.000    0.000    0.000 
#
# Total GULP energy -595316.637788 kJ/mol
# GULP energy per Si atom -12402.429954 kJ/mol
# Density = 2.086244 g / cm^3
# Si number density = 20.910035 Si / 1000 Ang^3
#
#
#
# Elastic Constant Matrix: (Units=GPa)
#
#
# Indices 1 2 3 4 5 6 
#
# 1 115.5083 52.2064 -9.4605 0.0000 0.0000 0.0000
# 2 52.2064 157.3120 27.6872 0.0000 0.0000 0.0000
# 3 -9.4605 27.6872 64.7523 0.0000 0.0000 0.0000
# 4 0.0000 0.0000 0.0000 34.8376 0.0000 0.0000
# 5 0.0000 0.0000 0.0000 0.0000 25.0659 0.0000
# 6 0.0000 0.0000 0.0000 0.0000 0.0000 38.9011
#
#
#
# Elastic Compliance Matrix: (Units=1/GPa)
#
#
# Indices 1 2 3 4 5 6 
#
# 1 0.010825 -0.004186 0.003372 0.000000 0.000000 0.000000
# 2 -0.004186 0.008493 -0.004243 0.000000 0.000000 0.000000
# 3 0.003372 -0.004243 0.017750 0.000000 0.000000 0.000000
# 4 0.000000 0.000000 0.000000 0.028705 0.000000 0.000000
# 5 0.000000 0.000000 0.000000 0.000000 0.039895 0.000000
# 6 0.000000 0.000000 0.000000 0.000000 0.000000 0.025706
#
#
# Mechanical properties :
#
#
# Convention : Reuss Voigt Hill
#
# Bulk Modulus (GPa) = 37.10079 53.15986 45.13032
# Shear Modulus (GPa) = 33.22842 37.57023 35.39933
#
# Velocity S-wave (km/s) = 3.99069 4.24341 4.11899
# Velocity P-wave (km/s) = 6.24626 7.03471 6.65217
#
# Compressibility (1/GPa) = 0.02695361
#
# Stress axis : x y z
#
# Youngs Moduli (GPa) = 92.37471 117.74747 56.33711
#
# Poissons Ratio (x) = 0.49289 -0.18994
# Poissons Ratio (y) = 0.38668 0.23904
# Poissons Ratio (z) = -0.31144 0.49960
#
# Static dielectric constant tensor:
#      x y z
#    x 3.850200 0.000000 0.000000 
#    y 0.000000 4.257050 0.000000 
#    z 0.000000 0.000000 4.055030 
# 
# 
# High freq. dielectric constant tensor:
#      x y z
#    x 1.829740 0.000000 0.000000 
#    y 0.000000 1.841700 0.000000 
#    z 0.000000 0.000000 1.832230 
# 
# From -- ./inp_files/1877.got.cif
#   From: 2010.03.12/outbox.cif.g09.slc.cpg/sg61_1_cif.got.tgz:1877.got - 2010.04.10 19:05:03.
