data_PCOD8249144
_publ_section_title
;
Structure prediction by ZEFSAII (Michael W. Deem and Ramdas Pophale) SiO2 
 PCOD8249144
Probable space group: P B C A
;
_chemical_formula_sum "Si O2"
_cell_formula_units_Z 48
_cell_length_a 8.208463
_cell_length_b 16.611089
_cell_length_c 18.256890
_cell_angle_alpha 90.000000
_cell_angle_beta 90.000000
_cell_angle_gamma 90.000000
_cell_volume 2489.354509
_symmetry_space_group_name_H-M "P B C A"
_symmetry_group_IT_number 61
_symmetry_cell_setting 'orthorhombic'
loop_
_space_group_symop_operation_xyz
x,y,z
1/2-x,-y,1/2+z
1/2+x,1/2-y,-z
-x,1/2+y,1/2-z
-x,-y,-z
1/2+x,y,1/2-z
1/2-x,1/2+y,z
x,1/2-y,1/2+z
loop_
_atom_site_type_symbol
_atom_site_label
_atom_site_fract_x
_atom_site_fract_y
_atom_site_fract_z
Si Si1 0.030721 0.296218 0.592627
Si Si2 0.314382 0.201925 0.542243
Si Si3 0.603995 0.449405 0.441741
Si Si4 0.085663 0.651236 0.823774
Si Si5 0.940192 0.520547 0.418215
Si Si6 0.539932 0.373442 0.163579
O O1 0.215343 0.279873 0.567918
O O2 0.014316 0.390314 0.608084
O O3 0.908176 0.269428 0.529072
O O4 0.989582 0.239891 0.661858
O O5 0.192936 0.128015 0.522205
O O6 0.439976 0.179071 0.605716
O O7 0.500000 0.500000 0.500000
O O8 0.489143 0.417580 0.376348
O O9 0.745995 0.507092 0.410272
O O10 0.277923 0.658699 0.833733
O O11 0.048259 0.628942 0.741038
O O12 0.000000 0.500000 0.500000
O O13 0.040606 0.465666 0.362289
#
# Coordination Sequence:
#
# PCOD8249144 Si02
#       6
#     8   8   8   8   8   8
#     4  11  22  38  62  97 121 168 204 260 302 378
#     4  10  22  36  63  90 125 158 210 251 315 358
#     4  10  21  36  61  93 122 165 206 253 307 365
#     4  11  24  41  66  87 128 166 210 251 321 376
#     4  11  21  39  65  93 125 161 210 262 306 366
#     4  11  22  45  64  88 125 168 202 264 315 370
#
# _framework density 19.282108000000001
#
# number of rings (size 3 to 8) (size 9 to 14) (size 15 to 20)
#    0.000    1.333    3.333    5.000    4.667    0.000 
#    0.000    6.667    0.000    0.000    0.000    0.000 
#    0.000    0.000    0.000    0.000    0.000    0.000 
#
# Total GULP energy -595222.003585 kJ/mol
# GULP energy per Si atom -12400.458408 kJ/mol
# Density = 1.923822 g / cm^3
# Si number density = 19.282108 Si / 1000 Ang^3
#
#
#
# Elastic Constant Matrix: (Units=GPa)
#
#
# Indices 1 2 3 4 5 6 
#
# 1 92.1279 11.4085 6.5232 0.0000 0.0000 0.0000
# 2 11.4085 103.3213 30.2576 0.0000 0.0000 0.0000
# 3 6.5232 30.2576 83.4754 0.0000 0.0000 0.0000
# 4 0.0000 0.0000 0.0000 23.5586 0.0000 0.0000
# 5 0.0000 0.0000 0.0000 0.0000 33.8115 0.0000
# 6 0.0000 0.0000 0.0000 0.0000 0.0000 28.3334
#
#
#
# Elastic Compliance Matrix: (Units=1/GPa)
#
#
# Indices 1 2 3 4 5 6 
#
# 1 0.011021 -0.001079 -0.000470 0.000000 0.000000 0.000000
# 2 -0.001079 0.010934 -0.003879 0.000000 0.000000 0.000000
# 3 -0.000470 -0.003879 0.013422 0.000000 0.000000 0.000000
# 4 0.000000 0.000000 0.000000 0.042447 0.000000 0.000000
# 5 0.000000 0.000000 0.000000 0.000000 0.029576 0.000000
# 6 0.000000 0.000000 0.000000 0.000000 0.000000 0.035294
#
#
# Mechanical properties :
#
#
# Convention : Reuss Voigt Hill
#
# Bulk Modulus (GPa) = 40.78139 41.70036 41.24087
# Shear Modulus (GPa) = 30.91679 32.52305 31.71992
#
# Velocity S-wave (km/s) = 4.00858 4.11140 4.06031
# Velocity P-wave (km/s) = 6.52846 6.64917 6.58909
#
# Compressibility (1/GPa) = 0.02452099
#
# Stress axis : x y z
#
# Youngs Moduli (GPa) = 90.73246 91.46089 74.50298
#
# Poissons Ratio (x) = 0.09871 0.03502
# Poissons Ratio (y) = 0.09793 0.28898
# Poissons Ratio (z) = 0.04265 0.35476
#
# Static dielectric constant tensor:
#      x y z
#    x 3.869620 0.000000 0.000000 
#    y 0.000000 3.608480 0.000000 
#    z 0.000000 0.000000 3.404890 
# 
# 
# High freq. dielectric constant tensor:
#      x y z
#    x 1.771780 0.000000 0.000000 
#    y 0.000000 1.750380 0.000000 
#    z 0.000000 0.000000 1.735450 
# 
# From -- ./inp_files/8934.got.cif
#   From: 2010.03.12/outbox.cif.g09.slc.cpg/sg61_5_cif.got.tgz:8934.got - 2010.04.10 19:05:03.
