data_PCOD8249458
_publ_section_title
;
Structure prediction by ZEFSAII (Michael W. Deem and Ramdas Pophale) SiO2 
 PCOD8249458
Probable space group: P B C A
;
_chemical_formula_sum "Si O2"
_cell_formula_units_Z 64
_cell_length_a 30.355827
_cell_length_b 10.274652
_cell_length_c 8.764862
_cell_angle_alpha 90.000000
_cell_angle_beta 90.000000
_cell_angle_gamma 90.000000
_cell_volume 2733.721530
_symmetry_space_group_name_H-M "P B C A"
_symmetry_group_IT_number 61
_symmetry_cell_setting 'orthorhombic'
loop_
_space_group_symop_operation_xyz
x,y,z
1/2-x,-y,1/2+z
1/2+x,1/2-y,-z
-x,1/2+y,1/2-z
-x,-y,-z
1/2+x,y,1/2-z
1/2-x,1/2+y,z
x,1/2-y,1/2+z
loop_
_atom_site_type_symbol
_atom_site_label
_atom_site_fract_x
_atom_site_fract_y
_atom_site_fract_z
Si Si1 0.065326 0.168455 0.010010
Si Si2 0.490876 0.157956 0.878918
Si Si3 0.271839 0.575565 0.139297
Si Si4 0.067104 0.732419 0.632333
Si Si5 0.564313 0.997645 0.776937
Si Si6 0.375498 0.896561 0.984004
Si Si7 0.723228 0.343110 0.514409
Si Si8 0.869726 0.010425 0.825627
O O1 0.053309 0.063464 0.882967
O O2 0.089061 0.289922 0.927343
O O3 0.021866 0.214541 0.101254
O O4 0.098993 0.107916 0.129547
O O5 0.471655 0.145161 0.705775
O O6 0.522389 0.029488 0.891493
O O7 0.448947 0.177136 0.990689
O O8 0.263445 0.621652 0.312803
O O9 0.320964 0.518426 0.112710
O O10 0.259516 0.699187 0.032102
O O11 0.239855 0.456295 0.098776
O O12 0.111481 0.647927 0.607236
O O13 0.073067 0.846241 0.760172
O O14 0.609364 0.048345 0.852859
O O15 0.328774 0.829197 0.007589
O O16 0.371038 0.012239 0.859037
#
# Coordination Sequence:
#
# PCOD8249458 Si02
#       8
#     8   8   8   8   8   8   8   8
#     4  11  22  41  66  94 128 176 229 283 332 415
#     4  11  24  41  60  91 128 180 236 283 343 406
#     4  11  25  47  75 111 151 188 242 298 368 448
#     4  12  25  41  61  93 136 178 227 293 347 407
#     4  11  24  39  63  94 132 178 231 284 355 410
#     4  10  22  42  69  97 130 175 230 274 344 418
#     4  11  24  45  76 109 145 191 236 296 364 445
#     4  11  25  42  68  99 141 173 229 287 348 421
#
# _framework density 23.411307999999998
#
# number of rings (size 3 to 8) (size 9 to 14) (size 15 to 20)
#    0.000    1.000    2.500    4.125    5.250    3.000 
#    0.000    2.500    0.000    0.000    0.000    0.000 
#    0.000    0.000    0.000    0.000    0.000    0.000 
#
# Total GULP energy -793168.594880 kJ/mol
# GULP energy per Si atom -12393.259295 kJ/mol
# Density = 2.335802 g / cm^3
# Si number density = 23.411308 Si / 1000 Ang^3
#
#
#
# Elastic Constant Matrix: (Units=GPa)
#
#
# Indices 1 2 3 4 5 6 
#
# 1 50.1154 16.6268 29.8439 0.0000 0.0000 0.0000
# 2 16.6268 118.2068 16.2864 0.0000 0.0000 0.0000
# 3 29.8439 16.2864 67.6642 0.0000 0.0000 0.0000
# 4 0.0000 0.0000 0.0000 34.0188 0.0000 0.0000
# 5 0.0000 0.0000 0.0000 0.0000 29.3925 0.0000
# 6 0.0000 0.0000 0.0000 0.0000 0.0000 34.7159
#
#
#
# Elastic Compliance Matrix: (Units=1/GPa)
#
#
# Indices 1 2 3 4 5 6 
#
# 1 0.027646 -0.002284 -0.011643 0.000000 0.000000 0.000000
# 2 -0.002284 0.008939 -0.001144 0.000000 0.000000 0.000000
# 3 -0.011643 -0.001144 0.020190 0.000000 0.000000 0.000000
# 4 0.000000 0.000000 0.000000 0.029395 0.000000 0.000000
# 5 0.000000 0.000000 0.000000 0.000000 0.034022 0.000000
# 6 0.000000 0.000000 0.000000 0.000000 0.000000 0.028805
#
#
# Mechanical properties :
#
#
# Convention : Reuss Voigt Hill
#
# Bulk Modulus (GPa) = 37.55118 40.16672 38.85895
# Shear Modulus (GPa) = 26.59331 31.17408 28.88369
#
# Velocity S-wave (km/s) = 3.37399 3.65304 3.51629
# Velocity P-wave (km/s) = 5.59044 5.91500 5.75501
#
# Compressibility (1/GPa) = 0.02663032
#
# Stress axis : x y z
#
# Youngs Moduli (GPa) = 36.17218 111.87340 49.53035
#
# Poissons Ratio (x) = 0.25556 0.57670
# Poissons Ratio (y) = 0.08263 0.05666
# Poissons Ratio (z) = 0.42117 0.12798
#
# Static dielectric constant tensor:
#      x y z
#    x 4.049180 0.000000 0.000000 
#    y 0.000000 4.289220 0.000000 
#    z 0.000000 0.000000 4.128850 
# 
# 
# High freq. dielectric constant tensor:
#      x y z
#    x 1.910030 0.000000 0.000000 
#    y 0.000000 1.932860 0.000000 
#    z 0.000000 0.000000 1.926690 
# 
# From -- ./inp_files/4639.got.cif
#   From: 2010.03.12/outbox.cif.g09.slc.cpg/sg61_3_cif.got.tgz:4639.got - 2010.04.10 19:05:03.
