data_PCOD8249726
_publ_section_title
;
Structure prediction by ZEFSAII (Michael W. Deem and Ramdas Pophale) SiO2 
 PCOD8249726
Probable space group: P B C A
;
_chemical_formula_sum "Si O2"
_cell_formula_units_Z 48
_cell_length_a 8.314205
_cell_length_b 14.921923
_cell_length_c 18.946432
_cell_angle_alpha 90.000000
_cell_angle_beta 90.000000
_cell_angle_gamma 90.000000
_cell_volume 2350.568753
_symmetry_space_group_name_H-M "P B C A"
_symmetry_group_IT_number 61
_symmetry_cell_setting 'orthorhombic'
loop_
_space_group_symop_operation_xyz
x,y,z
1/2-x,-y,1/2+z
1/2+x,1/2-y,-z
-x,1/2+y,1/2-z
-x,-y,-z
1/2+x,y,1/2-z
1/2-x,1/2+y,z
x,1/2-y,1/2+z
loop_
_atom_site_type_symbol
_atom_site_label
_atom_site_fract_x
_atom_site_fract_y
_atom_site_fract_z
Si Si1 0.313973 0.157754 0.324745
Si Si2 0.313898 0.994905 0.919162
Si Si3 0.687197 0.350010 0.172216
Si Si4 0.313973 0.657754 0.175255
Si Si5 0.686102 0.505095 0.419162
Si Si6 0.687197 0.850010 0.327784
O O1 0.217062 0.246476 0.346949
O O2 0.500000 0.183657 0.317300
O O3 0.250000 0.120440 0.250000
O O4 0.291924 0.081747 0.382881
O O5 0.282786 0.090622 0.883847
O O6 0.500000 0.968804 0.912062
O O7 0.259359 1.000000 0.000000
O O8 0.500000 0.372941 0.167434
O O9 0.750000 0.372772 0.250000
O O10 0.291924 0.581747 0.117119
O O11 0.217062 0.746476 0.153051
O O12 0.717214 0.409378 0.383847
#
# Coordination Sequence:
#
# PCOD8249726 Si02
#       6
#     8   8   8   8   8   8
#     4  11  22  39  63  89 118 152 195 242 290 344
#     4  11  24  41  60  85 119 157 196 239 290 347
#     4  11  22  39  63  89 118 152 195 242 290 344
#     4  11  22  39  63  89 118 152 195 242 290 344
#     4  11  24  41  60  85 119 157 196 239 290 347
#     4  11  22  39  63  89 118 152 195 242 290 344
#
# _framework density 20.420590000000001
#
# number of rings (size 3 to 8) (size 9 to 14) (size 15 to 20)
#    0.000    1.000    0.000   10.000    0.000    4.000 
#    0.000    0.000    0.000    0.000    0.000    0.000 
#    0.000    0.000    0.000    0.000    0.000    0.000 
#
# Total GULP energy -595611.841070 kJ/mol
# GULP energy per Si atom -12408.580022 kJ/mol
# Density = 2.037411 g / cm^3
# Si number density = 20.420590 Si / 1000 Ang^3
#
#
#
# Elastic Constant Matrix: (Units=GPa)
#
#
# Indices 1 2 3 4 5 6 
#
# 1 79.5272 4.4430 22.2998 0.0000 0.0000 0.0000
# 2 4.4430 100.7068 73.2973 0.0000 0.0000 0.0000
# 3 22.2998 73.2973 139.2693 0.0000 0.0000 0.0000
# 4 0.0000 0.0000 0.0000 4.6479 0.0000 0.0000
# 5 0.0000 0.0000 0.0000 0.0000 28.1471 0.0000
# 6 0.0000 0.0000 0.0000 0.0000 0.0000 36.8576
#
#
#
# Elastic Compliance Matrix: (Units=1/GPa)
#
#
# Indices 1 2 3 4 5 6 
#
# 1 0.013316 0.001563 -0.002955 0.000000 0.000000 0.000000
# 2 0.001563 0.016279 -0.008818 0.000000 0.000000 0.000000
# 3 -0.002955 -0.008818 0.012294 0.000000 0.000000 0.000000
# 4 0.000000 0.000000 0.000000 0.215149 0.000000 0.000000
# 5 0.000000 0.000000 0.000000 0.000000 0.035528 0.000000
# 6 0.000000 0.000000 0.000000 0.000000 0.000000 0.027131
#
#
# Mechanical properties :
#
#
# Convention : Reuss Voigt Hill
#
# Bulk Modulus (GPa) = 46.57744 57.73150 52.15447
# Shear Modulus (GPa) = 14.39794 28.56142 21.47968
#
# Velocity S-wave (km/s) = 2.65820 3.74392 3.24676
# Velocity P-wave (km/s) = 5.68154 6.85725 6.29689
#
# Compressibility (1/GPa) = 0.02146962
#
# Stress axis : x y z
#
# Youngs Moduli (GPa) = 75.10044 61.43017 81.33924
#
# Poissons Ratio (x) = -0.09602 0.24033
# Poissons Ratio (y) = -0.11739 0.71723
# Poissons Ratio (z) = 0.22190 0.54167
#
# Static dielectric constant tensor:
#      x y z
#    x 3.733200 0.000000 0.000000 
#    y 0.000000 3.650280 0.000000 
#    z 0.000000 0.000000 3.700990 
# 
# 
# High freq. dielectric constant tensor:
#      x y z
#    x 1.815080 0.000000 0.000000 
#    y 0.000000 1.805850 0.000000 
#    z 0.000000 0.000000 1.792340 
# 
# From -- ./inp_files/2921.got.cif
#   From: 2010.03.12/outbox.cif.g09.slc.cpg/sg61_2_cif.got.tgz:2921.got - 2010.04.10 19:05:03.
