data_PCOD8249275
_publ_section_title
;
Structure prediction by ZEFSAII (Michael W. Deem and Ramdas Pophale) SiO2 
 PCOD8249275
Probable space group: P B C A
;
_chemical_formula_sum "Si O2"
_cell_formula_units_Z 64
_cell_length_a 9.011503
_cell_length_b 23.552617
_cell_length_c 14.208689
_cell_angle_alpha 90.000000
_cell_angle_beta 90.000000
_cell_angle_gamma 90.000000
_cell_volume 3015.715791
_symmetry_space_group_name_H-M "P B C A"
_symmetry_group_IT_number 61
_symmetry_cell_setting 'orthorhombic'
loop_
_space_group_symop_operation_xyz
x,y,z
1/2-x,-y,1/2+z
1/2+x,1/2-y,-z
-x,1/2+y,1/2-z
-x,-y,-z
1/2+x,y,1/2-z
1/2-x,1/2+y,z
x,1/2-y,1/2+z
loop_
_atom_site_type_symbol
_atom_site_label
_atom_site_fract_x
_atom_site_fract_y
_atom_site_fract_z
Si Si1 0.701768 0.986550 0.848662
Si Si2 0.383001 0.599695 0.037835
Si Si3 0.698584 0.579462 0.981002
Si Si4 0.173264 0.705848 0.579206
Si Si5 0.325563 0.255320 0.767259
Si Si6 0.916360 0.835323 0.776841
Si Si7 0.381127 0.944823 0.831844
Si Si8 0.831917 0.789052 0.049456
O O1 0.756747 0.943131 0.929096
O O2 0.523926 0.985145 0.842793
O O3 0.774968 0.971502 0.748405
O O4 0.747858 0.048764 0.885374
O O5 0.449869 0.636873 0.122895
O O6 0.523336 0.566164 0.994226
O O7 0.309478 0.643037 0.962936
O O8 0.720712 0.646650 0.966916
O O9 0.791161 0.558013 0.070902
O O10 0.194553 0.704715 0.691987
O O11 0.279262 0.755506 0.542344
O O12 0.004769 0.723911 0.560063
O O13 0.251903 0.315125 0.736620
O O14 0.495201 0.275986 0.769736
O O15 0.268424 0.232001 0.865379
O O16 0.943797 0.882768 0.696469
#
# Coordination Sequence:
#
# PCOD8249275 Si02
#       8
#     8   8   8   8   8   8   8   8
#     4  11  24  44  68  99 123 168 220 269 324 383
#     4  10  21  40  66  94 126 170 217 265 324 376
#     4  11  24  45  65  95 131 170 216 270 320 385
#     4  11  25  42  62  97 131 173 212 260 323 385
#     4  12  22  38  59  95 130 170 207 259 319 385
#     4  11  20  38  65  92 128 166 216 261 307 380
#     4  11  23  43  70  97 124 168 220 272 318 376
#     4  11  23  40  62  91 133 168 211 264 322 382
#
# _framework density 21.222159000000001
#
# number of rings (size 3 to 8) (size 9 to 14) (size 15 to 20)
#    0.000    1.000    2.500    6.750    0.000    0.000 
#    6.750    0.000    0.000    0.000    0.000    0.000 
#    0.000    0.000    0.000    0.000    0.000    0.000 
#
# Total GULP energy -793640.043438 kJ/mol
# GULP energy per Si atom -12400.625679 kJ/mol
# Density = 2.117386 g / cm^3
# Si number density = 21.222159 Si / 1000 Ang^3
#
#
#
# Elastic Constant Matrix: (Units=GPa)
#
#
# Indices 1 2 3 4 5 6 
#
# 1 71.7469 31.2408 20.4996 0.0000 0.0000 0.0000
# 2 31.2408 56.4334 30.3517 0.0000 0.0000 0.0000
# 3 20.4996 30.3517 83.4761 0.0000 0.0000 0.0000
# 4 0.0000 0.0000 0.0000 36.9895 0.0000 0.0000
# 5 0.0000 0.0000 0.0000 0.0000 23.7313 0.0000
# 6 0.0000 0.0000 0.0000 0.0000 0.0000 31.9532
#
#
#
# Elastic Compliance Matrix: (Units=1/GPa)
#
#
# Indices 1 2 3 4 5 6 
#
# 1 0.018434 -0.009659 -0.001015 0.000000 0.000000 0.000000
# 2 -0.009659 0.027089 -0.007477 0.000000 0.000000 0.000000
# 3 -0.001015 -0.007477 0.014947 0.000000 0.000000 0.000000
# 4 0.000000 0.000000 0.000000 0.027035 0.000000 0.000000
# 5 0.000000 0.000000 0.000000 0.000000 0.042138 0.000000
# 6 0.000000 0.000000 0.000000 0.000000 0.000000 0.031296
#
#
# Mechanical properties :
#
#
# Convention : Reuss Voigt Hill
#
# Bulk Modulus (GPa) = 41.37787 41.76006 41.56897
# Shear Modulus (GPa) = 24.35504 27.17243 25.76374
#
# Velocity S-wave (km/s) = 3.39133 3.58212 3.48803
# Velocity P-wave (km/s) = 5.90548 6.06870 5.98764
#
# Compressibility (1/GPa) = 0.02416751
#
# Stress axis : x y z
#
# Youngs Moduli (GPa) = 54.24888 36.91598 66.90096
#
# Poissons Ratio (x) = 0.35656 0.06790
# Poissons Ratio (y) = 0.52397 0.50024
# Poissons Ratio (z) = 0.05506 0.27603
#
# Static dielectric constant tensor:
#      x y z
#    x 3.798000 0.000000 0.000000 
#    y 0.000000 3.803010 0.000000 
#    z 0.000000 0.000000 3.925550 
# 
# 
# High freq. dielectric constant tensor:
#      x y z
#    x 1.839420 0.000000 0.000000 
#    y 0.000000 1.820380 0.000000 
#    z 0.000000 0.000000 1.836040 
# 
# From -- ./inp_files/7239.got.cif
#   From: 2010.03.12/outbox.cif.g09.slc.cpg/sg61_4_cif.got.tgz:7239.got - 2010.04.10 19:05:03.
