data_PCOD8249664
_publ_section_title
;
Structure prediction by ZEFSAII (Michael W. Deem and Ramdas Pophale) SiO2 
 PCOD8249664
Probable space group: P B C A
;
_chemical_formula_sum "Si O2"
_cell_formula_units_Z 64
_cell_length_a 8.635973
_cell_length_b 13.289899
_cell_length_c 23.271694
_cell_angle_alpha 90.000000
_cell_angle_beta 90.000000
_cell_angle_gamma 90.000000
_cell_volume 2670.920454
_symmetry_space_group_name_H-M "P B C A"
_symmetry_group_IT_number 61
_symmetry_cell_setting 'orthorhombic'
loop_
_space_group_symop_operation_xyz
x,y,z
1/2-x,-y,1/2+z
1/2+x,1/2-y,-z
-x,1/2+y,1/2-z
-x,-y,-z
1/2+x,y,1/2-z
1/2-x,1/2+y,z
x,1/2-y,1/2+z
loop_
_atom_site_type_symbol
_atom_site_label
_atom_site_fract_x
_atom_site_fract_y
_atom_site_fract_z
Si Si1 0.845492 0.269778 0.739645
Si Si2 0.857760 0.531822 0.425709
Si Si3 0.545220 0.706276 0.039133
Si Si4 0.993917 0.124355 0.854131
Si Si5 0.750863 0.326439 0.437448
Si Si6 0.903212 0.078712 0.341921
Si Si7 0.407757 0.872353 0.226370
Si Si8 0.810320 0.812756 0.629778
O O1 0.902512 0.340597 0.790715
O O2 0.764051 0.169292 0.764806
O O3 0.743882 0.333201 0.695343
O O4 0.991255 0.223270 0.704189
O O5 0.759109 0.444375 0.457919
O O6 0.746111 0.593631 0.382231
O O7 0.934450 0.608761 0.470747
O O8 0.997716 0.480991 0.388479
O O9 0.428684 0.794671 0.059625
O O10 0.670251 0.675878 0.086395
O O11 0.635490 0.735866 0.980833
O O12 0.014383 0.097833 0.787564
O O13 0.128640 0.198443 0.875879
O O14 0.826192 0.178080 0.872843
O O15 0.056018 0.103542 0.380001
O O16 0.908358 0.965004 0.317819
#
# Coordination Sequence:
#
# PCOD8249664 Si02
#       8
#     8   8   8   8   8   8   8   8
#     4  11  25  41  63  97 144 186 239 294 341 428
#     4  10  26  43  78  97 148 179 242 287 355 431
#     4  12  25  48  78 103 139 189 231 307 371 422
#     4   9  21  46  65 102 143 185 230 301 339 426
#     4  10  25  47  75 105 134 183 231 300 359 427
#     4  12  26  44  67 103 143 197 238 285 360 429
#     4  11  25  40  68  97 145 191 237 292 348 420
#     4  11  26  40  68 101 143 181 240 287 355 430
#
# _framework density 23.961777000000001
#
# number of rings (size 3 to 8) (size 9 to 14) (size 15 to 20)
#    0.750    0.500    2.500    2.625    8.750    1.000 
#    0.000    1.250    0.000    0.000    0.000    0.000 
#    0.000    0.000    0.000    0.000    0.000    0.000 
#
# Total GULP energy -792892.509755 kJ/mol
# GULP energy per Si atom -12388.945465 kJ/mol
# Density = 2.390724 g / cm^3
# Si number density = 23.961777 Si / 1000 Ang^3
#
#
#
# Elastic Constant Matrix: (Units=GPa)
#
#
# Indices 1 2 3 4 5 6 
#
# 1 98.5840 22.0215 20.6528 0.0000 0.0000 0.0000
# 2 22.0215 56.2563 -5.4502 0.0000 0.0000 0.0000
# 3 20.6528 -5.4502 64.4662 0.0000 0.0000 0.0000
# 4 0.0000 0.0000 0.0000 28.7737 0.0000 0.0000
# 5 0.0000 0.0000 0.0000 0.0000 38.3947 0.0000
# 6 0.0000 0.0000 0.0000 0.0000 0.0000 36.4279
#
#
#
# Elastic Compliance Matrix: (Units=1/GPa)
#
#
# Indices 1 2 3 4 5 6 
#
# 1 0.012218 -0.005205 -0.004354 0.000000 0.000000 0.000000
# 2 -0.005205 0.020140 0.003370 0.000000 0.000000 0.000000
# 3 -0.004354 0.003370 0.017192 0.000000 0.000000 0.000000
# 4 0.000000 0.000000 0.000000 0.034754 0.000000 0.000000
# 5 0.000000 0.000000 0.000000 0.000000 0.026045 0.000000
# 6 0.000000 0.000000 0.000000 0.000000 0.000000 0.027452
#
#
# Mechanical properties :
#
#
# Convention : Reuss Voigt Hill
#
# Bulk Modulus (GPa) = 26.90202 32.63942 29.77072
# Shear Modulus (GPa) = 30.75605 32.85809 31.80707
#
# Velocity S-wave (km/s) = 3.58655 3.70708 3.64731
# Velocity P-wave (km/s) = 5.32940 5.65458 5.49440
#
# Compressibility (1/GPa) = 0.03717194
#
# Stress axis : x y z
#
# Youngs Moduli (GPa) = 81.84312 49.65317 58.16678
#
# Poissons Ratio (x) = 0.25843 0.25328
# Poissons Ratio (y) = 0.42598 -0.19603
# Poissons Ratio (z) = 0.35638 -0.16734
#
# Static dielectric constant tensor:
#      x y z
#    x 4.488150 0.000000 0.000000 
#    y 0.000000 4.249530 0.000000 
#    z 0.000000 0.000000 4.097220 
# 
# 
# High freq. dielectric constant tensor:
#      x y z
#    x 1.959900 0.000000 0.000000 
#    y 0.000000 1.940990 0.000000 
#    z 0.000000 0.000000 1.935360 
# 
# From -- ./inp_files/10907.got.cif
#   From: 2010.03.12/outbox.cif.g09.slc.cpg/sg61_6_cif.got.tgz:10907.got - 2010.04.10 19:05:03.
