data_PCOD8249391
_publ_section_title
;
Structure prediction by ZEFSAII (Michael W. Deem and Ramdas Pophale) SiO2 
 PCOD8249391
Probable space group: P B C A
;
_chemical_formula_sum "Si O2"
_cell_formula_units_Z 56
_cell_length_a 13.614032
_cell_length_b 15.978429
_cell_length_c 10.602064
_cell_angle_alpha 90.000000
_cell_angle_beta 90.000000
_cell_angle_gamma 90.000000
_cell_volume 2306.275927
_symmetry_space_group_name_H-M "P B C A"
_symmetry_group_IT_number 61
_symmetry_cell_setting 'orthorhombic'
loop_
_space_group_symop_operation_xyz
x,y,z
1/2-x,-y,1/2+z
1/2+x,1/2-y,-z
-x,1/2+y,1/2-z
-x,-y,-z
1/2+x,y,1/2-z
1/2-x,1/2+y,z
x,1/2-y,1/2+z
loop_
_atom_site_type_symbol
_atom_site_label
_atom_site_fract_x
_atom_site_fract_y
_atom_site_fract_z
Si Si1 0.989180 0.447161 0.186622
Si Si2 0.341366 0.578107 0.354665
Si Si3 0.338165 0.225365 0.007682
Si Si4 0.336318 0.967534 0.345393
Si Si5 0.941355 0.697658 0.981041
Si Si6 0.184820 0.660891 0.737800
Si Si7 0.658349 0.367108 0.921040
O O1 0.068688 0.499248 0.268235
O O2 0.925150 0.511234 0.100407
O O3 0.914343 0.392847 0.271011
O O4 0.053527 0.381186 0.109909
O O5 0.231805 0.546019 0.386740
O O6 0.362075 0.669929 0.412136
O O7 0.354709 0.581727 0.205309
O O8 0.452114 0.213866 0.042434
O O9 0.297811 0.299738 0.098431
O O10 0.274827 0.144979 0.051146
O O11 0.324385 0.230678 0.853478
O O12 0.275948 0.899986 0.263403
O O13 0.383652 0.924388 0.467981
O O14 0.900701 0.779890 0.913129
#
# Coordination Sequence:
#
# PCOD8249391 Si02
#       7
#     8   8   8   8   8   8   8
#     4  10  22  44  69  93 135 182 221 282 358 412
#     4  11  27  43  69 103 134 183 235 278 353 428
#     4  10  22  39  67  95 139 171 225 288 349 399
#     4  10  23  44  67  93 143 175 225 284 347 420
#     4  11  25  43  73  98 141 178 237 289 353 418
#     4   9  20  39  63  99 127 181 222 276 344 415
#     4  11  26  44  67 109 135 180 241 284 343 424
#
# _framework density 24.281569999999999
#
# number of rings (size 3 to 8) (size 9 to 14) (size 15 to 20)
#    0.000    1.714    0.000    3.000   14.000    0.571 
#    2.571    0.000    0.000    0.000    0.000    0.000 
#    0.000    0.000    0.000    0.000    0.000    0.000 
#
# Total GULP energy -694073.779715 kJ/mol
# GULP energy per Si atom -12394.174638 kJ/mol
# Density = 2.422630 g / cm^3
# Si number density = 24.281570 Si / 1000 Ang^3
#
#
#
# Elastic Constant Matrix: (Units=GPa)
#
#
# Indices 1 2 3 4 5 6 
#
# 1 70.6834 -7.6134 18.2855 0.0000 0.0000 0.0000
# 2 -7.6134 47.7655 11.2198 0.0000 0.0000 0.0000
# 3 18.2855 11.2198 47.3286 0.0000 0.0000 0.0000
# 4 0.0000 0.0000 0.0000 38.4778 0.0000 0.0000
# 5 0.0000 0.0000 0.0000 0.0000 32.1235 0.0000
# 6 0.0000 0.0000 0.0000 0.0000 0.0000 22.7446
#
#
#
# Elastic Compliance Matrix: (Units=1/GPa)
#
#
# Indices 1 2 3 4 5 6 
#
# 1 0.016542 0.004382 -0.007430 0.000000 0.000000 0.000000
# 2 0.004382 0.023331 -0.007224 0.000000 0.000000 0.000000
# 3 -0.007430 -0.007224 0.025712 0.000000 0.000000 0.000000
# 4 0.000000 0.000000 0.000000 0.025989 0.000000 0.000000
# 5 0.000000 0.000000 0.000000 0.000000 0.031130 0.000000
# 6 0.000000 0.000000 0.000000 0.000000 0.000000 0.043967
#
#
# Mechanical properties :
#
#
# Convention : Reuss Voigt Hill
#
# Bulk Modulus (GPa) = 22.20201 23.28459 22.74330
# Shear Modulus (GPa) = 24.72477 28.26155 26.49316
#
# Velocity S-wave (km/s) = 3.19447 3.41531 3.30673
# Velocity P-wave (km/s) = 4.77175 5.01624 4.89552
#
# Compressibility (1/GPa) = 0.04504097
#
# Stress axis : x y z
#
# Youngs Moduli (GPa) = 60.45382 42.86179 38.89271
#
# Poissons Ratio (x) = -0.18781 0.28896
# Poissons Ratio (y) = -0.26489 0.28095
# Poissons Ratio (z) = 0.44915 0.30962
#
# Static dielectric constant tensor:
#      x y z
#    x 4.543780 0.000000 0.000000 
#    y 0.000000 4.151980 0.000000 
#    z 0.000000 0.000000 4.279900 
# 
# 
# High freq. dielectric constant tensor:
#      x y z
#    x 1.979250 0.000000 0.000000 
#    y 0.000000 1.946260 0.000000 
#    z 0.000000 0.000000 1.952260 
# 
# From -- ./inp_files/5831.got.cif
#   From: 2010.03.12/outbox.cif.g09.slc.cpg/sg61_3_cif.got.tgz:5831.got - 2010.04.10 19:05:03.
