data_PCOD8249143
_publ_section_title
;
Structure prediction by ZEFSAII (Michael W. Deem and Ramdas Pophale) SiO2 
 PCOD8249143
Probable space group: P B C A
;
_chemical_formula_sum "Si O2"
_cell_formula_units_Z 56
_cell_length_a 23.593683
_cell_length_b 8.658948
_cell_length_c 12.766249
_cell_angle_alpha 90.000000
_cell_angle_beta 90.000000
_cell_angle_gamma 90.000000
_cell_volume 2608.099660
_symmetry_space_group_name_H-M "P B C A"
_symmetry_group_IT_number 61
_symmetry_cell_setting 'orthorhombic'
loop_
_space_group_symop_operation_xyz
x,y,z
1/2-x,-y,1/2+z
1/2+x,1/2-y,-z
-x,1/2+y,1/2-z
-x,-y,-z
1/2+x,y,1/2-z
1/2-x,1/2+y,z
x,1/2-y,1/2+z
loop_
_atom_site_type_symbol
_atom_site_label
_atom_site_fract_x
_atom_site_fract_y
_atom_site_fract_z
Si Si1 0.974555 0.221113 0.471154
Si Si2 0.068774 0.076645 0.607586
Si Si3 0.001535 0.575018 0.707637
Si Si4 0.749575 0.690267 0.563627
Si Si5 0.808854 0.055353 0.197956
Si Si6 0.803976 0.943723 0.426027
Si Si7 0.069965 0.798935 0.818593
O O1 0.999611 0.368078 0.411044
O O2 0.927749 0.268536 0.557171
O O3 0.030096 0.139036 0.514842
O O4 0.941404 0.110091 0.389203
O O5 0.132507 0.118107 0.581750
O O6 0.049143 0.145636 0.719344
O O7 0.061666 0.632129 0.760067
O O8 0.989404 0.392243 0.703150
O O9 0.722862 0.791867 0.656784
O O10 0.799558 0.585355 0.615503
O O11 0.770210 0.794263 0.466556
O O12 0.702225 0.578309 0.512905
O O13 0.875113 0.100084 0.213385
O O14 0.783862 0.003532 0.311200
#
# Coordination Sequence:
#
# PCOD8249143 Si02
#       7
#     8   8   8   8   8   8   8
#     4  10  21  37  56  89 123 157 201 244 290 367
#     4  10  21  36  61  84 120 161 193 245 308 352
#     4  11  20  40  56  92 121 163 198 249 291 381
#     4  10  25  40  65  93 118 158 218 252 316 367
#     4  11  22  44  64  92 125 165 204 266 308 366
#     4  11  21  42  63  86 123 157 200 264 305 364
#     4  11  23  37  64  87 129 160 205 245 310 361
#
# _framework density 21.471571999999998
#
# number of rings (size 3 to 8) (size 9 to 14) (size 15 to 20)
#    0.000    1.429    2.857    2.143    2.000    0.000 
#    0.000    0.000    0.000    0.000    0.000    0.000 
#    0.000    0.000    0.000    0.000    0.000    0.000 
#
# Total GULP energy -693798.119805 kJ/mol
# GULP energy per Si atom -12389.252139 kJ/mol
# Density = 2.142270 g / cm^3
# Si number density = 21.471572 Si / 1000 Ang^3
#
#
#
# Elastic Constant Matrix: (Units=GPa)
#
#
# Indices 1 2 3 4 5 6 
#
# 1 68.9467 20.6813 10.3312 0.0000 0.0000 0.0000
# 2 20.6813 76.7691 26.4211 0.0000 0.0000 0.0000
# 3 10.3312 26.4211 95.5537 0.0000 0.0000 0.0000
# 4 0.0000 0.0000 0.0000 41.7257 0.0000 0.0000
# 5 0.0000 0.0000 0.0000 0.0000 30.3156 0.0000
# 6 0.0000 0.0000 0.0000 0.0000 0.0000 29.1959
#
#
#
# Elastic Compliance Matrix: (Units=1/GPa)
#
#
# Indices 1 2 3 4 5 6 
#
# 1 0.015809 -0.004057 -0.000588 0.000000 0.000000 0.000000
# 2 -0.004057 0.015437 -0.003830 0.000000 0.000000 0.000000
# 3 -0.000588 -0.003830 0.011588 0.000000 0.000000 0.000000
# 4 0.000000 0.000000 0.000000 0.023966 0.000000 0.000000
# 5 0.000000 0.000000 0.000000 0.000000 0.032986 0.000000
# 6 0.000000 0.000000 0.000000 0.000000 0.000000 0.034251
#
#
# Mechanical properties :
#
#
# Convention : Reuss Voigt Hill
#
# Bulk Modulus (GPa) = 38.63146 39.57075 39.10110
# Shear Modulus (GPa) = 31.32559 32.50316 31.91437
#
# Velocity S-wave (km/s) = 3.82374 3.89495 3.85951
# Velocity P-wave (km/s) = 6.12582 6.22068 6.17343
#
# Compressibility (1/GPa) = 0.02588564
#
# Stress axis : x y z
#
# Youngs Moduli (GPa) = 63.25584 64.77951 86.29761
#
# Poissons Ratio (x) = 0.26278 0.05071
# Poissons Ratio (y) = 0.25660 0.33050
# Poissons Ratio (z) = 0.03717 0.24809
#
# Static dielectric constant tensor:
#      x y z
#    x 3.538340 0.000000 0.000000 
#    y 0.000000 4.017400 0.000000 
#    z 0.000000 0.000000 4.125160 
# 
# 
# High freq. dielectric constant tensor:
#      x y z
#    x 1.807590 0.000000 0.000000 
#    y 0.000000 1.845260 0.000000 
#    z 0.000000 0.000000 1.868170 
# 
# From -- ./inp_files/8362.got.cif
#   From: 2010.03.12/outbox.cif.g09.slc.cpg/sg61_5_cif.got.tgz:8362.got - 2010.04.10 19:05:03.
