data_PCOD8249901
_publ_section_title
;
Structure prediction by ZEFSAII (Michael W. Deem and Ramdas Pophale) SiO2 
 PCOD8249901
Probable space group: P B C A
;
_chemical_formula_sum "Si O2"
_cell_formula_units_Z 32
_cell_length_a 12.983758
_cell_length_b 21.592448
_cell_length_c 4.859962
_cell_angle_alpha 90.000000
_cell_angle_beta 90.000000
_cell_angle_gamma 90.000000
_cell_volume 1362.495787
_symmetry_space_group_name_H-M "P B C A"
_symmetry_group_IT_number 61
_symmetry_cell_setting 'orthorhombic'
loop_
_space_group_symop_operation_xyz
x,y,z
1/2-x,-y,1/2+z
1/2+x,1/2-y,-z
-x,1/2+y,1/2-z
-x,-y,-z
1/2+x,y,1/2-z
1/2-x,1/2+y,z
x,1/2-y,1/2+z
loop_
_atom_site_type_symbol
_atom_site_label
_atom_site_fract_x
_atom_site_fract_y
_atom_site_fract_z
Si Si1 0.067489 0.626362 0.129057
Si Si2 0.569222 0.383686 0.134381
Si Si3 0.317729 0.496180 0.721103
Si Si4 0.241245 0.208653 0.070200
O O1 0.123548 0.560966 0.079938
O O2 0.030236 0.626694 0.443481
O O3 0.143340 0.682411 0.056082
O O4 0.967013 0.635340 0.938787
O O5 0.603656 0.455084 0.144136
O O6 0.663228 0.344300 0.019658
O O7 0.254933 0.528122 0.469947
O O8 0.224132 0.268933 0.881310
#
# Coordination Sequence:
#
# PCOD8249901 Si02
#       4
#     8   8   8   8
#     4  12  26  46  74 107 142 188 238 296 364 429
#     4  12  26  46  74 107 142 188 238 296 364 429
#     4  12  24  44  76 106 150 188 232 300 374 432
#     4  12  28  48  72 102 144 192 244 298 350 422
#
# _framework density 23.486312999999999
#
# number of rings (size 3 to 8) (size 9 to 14) (size 15 to 20)
#    0.000    0.000    2.500    7.500    3.500    6.000 
#    0.000    0.000    0.000    0.000    0.000    0.000 
#    0.000    0.000    0.000    0.000    0.000    0.000 
#
# Total GULP energy -396988.437646 kJ/mol
# GULP energy per Si atom -12405.888676 kJ/mol
# Density = 2.343286 g / cm^3
# Si number density = 23.486313 Si / 1000 Ang^3
#
#
#
# Elastic Constant Matrix: (Units=GPa)
#
#
# Indices 1 2 3 4 5 6 
#
# 1 85.3576 14.1268 33.0471 0.0000 0.0000 0.0000
# 2 14.1268 66.0979 19.5255 0.0000 0.0000 0.0000
# 3 33.0471 19.5255 110.5764 0.0000 0.0000 0.0000
# 4 0.0000 0.0000 0.0000 41.7773 0.0000 0.0000
# 5 0.0000 0.0000 0.0000 0.0000 53.4134 0.0000
# 6 0.0000 0.0000 0.0000 0.0000 0.0000 18.2898
#
#
#
# Elastic Compliance Matrix: (Units=1/GPa)
#
#
# Indices 1 2 3 4 5 6 
#
# 1 0.013444 -0.001779 -0.003704 0.000000 0.000000 0.000000
# 2 -0.001779 0.016197 -0.002328 0.000000 0.000000 0.000000
# 3 -0.003704 -0.002328 0.010562 0.000000 0.000000 0.000000
# 4 0.000000 0.000000 0.000000 0.023936 0.000000 0.000000
# 5 0.000000 0.000000 0.000000 0.000000 0.018722 0.000000
# 6 0.000000 0.000000 0.000000 0.000000 0.000000 0.054675
#
#
# Mechanical properties :
#
#
# Convention : Reuss Voigt Hill
#
# Bulk Modulus (GPa) = 40.68341 43.93674 42.31007
# Shear Modulus (GPa) = 30.98820 35.71828 33.35324
#
# Velocity S-wave (km/s) = 3.63632 3.90399 3.77253
# Velocity P-wave (km/s) = 5.91525 6.25056 6.08522
#
# Compressibility (1/GPa) = 0.02458004
#
# Stress axis : x y z
#
# Youngs Moduli (GPa) = 74.38379 61.73931 94.68311
#
# Poissons Ratio (x) = 0.10985 0.35068
# Poissons Ratio (y) = 0.13234 0.22045
# Poissons Ratio (z) = 0.27549 0.14375
#
# Static dielectric constant tensor:
#      x y z
#    x 4.310420 0.000000 0.000000 
#    y 0.000000 4.082860 0.000000 
#    z 0.000000 0.000000 4.316500 
# 
# 
# High freq. dielectric constant tensor:
#      x y z
#    x 1.938080 0.000000 0.000000 
#    y 0.000000 1.921880 0.000000 
#    z 0.000000 0.000000 1.947660 
# 
# From -- ./inp_files/168.got.cif
#   From: 2010.03.12/outbox.cif.g09.slc.cpg/sg61_1_cif.got.tgz:168.got - 2010.04.10 19:05:03.
