data_PCOD8249189
_publ_section_title
;
Structure prediction by ZEFSAII (Michael W. Deem and Ramdas Pophale) SiO2 
 PCOD8249189
Probable space group: P B C A
;
_chemical_formula_sum "Si O2"
_cell_formula_units_Z 40
_cell_length_a 14.960222
_cell_length_b 6.724444
_cell_length_c 17.530356
_cell_angle_alpha 90.000000
_cell_angle_beta 90.000000
_cell_angle_gamma 90.000000
_cell_volume 1763.539352
_symmetry_space_group_name_H-M "P B C A"
_symmetry_group_IT_number 61
_symmetry_cell_setting 'orthorhombic'
loop_
_space_group_symop_operation_xyz
x,y,z
1/2-x,-y,1/2+z
1/2+x,1/2-y,-z
-x,1/2+y,1/2-z
-x,-y,-z
1/2+x,y,1/2-z
1/2-x,1/2+y,z
x,1/2-y,1/2+z
loop_
_atom_site_type_symbol
_atom_site_label
_atom_site_fract_x
_atom_site_fract_y
_atom_site_fract_z
Si Si1 0.581041 0.083933 0.916454
Si Si2 0.371449 0.550389 0.272737
Si Si3 0.928898 0.696241 0.075854
Si Si4 0.672665 0.017433 0.769834
Si Si5 0.972436 0.424885 0.667174
O O1 0.660464 0.006475 0.861135
O O2 0.514494 0.237021 0.874408
O O3 0.528946 0.883592 0.939103
O O4 0.621736 0.184005 0.993611
O O5 0.382594 0.542182 0.364294
O O6 0.277335 0.461701 0.245840
O O7 0.375253 0.784576 0.257382
O O8 0.455468 0.465990 0.223653
O O9 0.935938 0.923038 0.103366
O O10 0.615235 0.853173 0.719700
#
# Coordination Sequence:
#
# PCOD8249189 Si02
#       5
#     8   8   8   8   8
#     4  10  21  38  61  88 118 156 200 253 307 353
#     4  10  22  36  61  89 118 162 206 245 301 373
#     4  10  21  38  61  88 118 156 200 253 307 353
#     4  10  22  36  61  89 118 162 206 245 301 373
#     4  10  21  40  61  84 120 162 206 252 301 368
#
# _framework density 22.681659
#
# number of rings (size 3 to 8) (size 9 to 14) (size 15 to 20)
#    0.000    2.000    2.000    0.600    5.600    0.000 
#    0.000   10.000    0.000    0.000    0.000    0.000 
#    0.000    0.000    0.000    0.000    0.000    0.000 
#
# Total GULP energy -495584.760662 kJ/mol
# GULP energy per Si atom -12389.619017 kJ/mol
# Density = 2.263003 g / cm^3
# Si number density = 22.681659 Si / 1000 Ang^3
#
#
#
# Elastic Constant Matrix: (Units=GPa)
#
#
# Indices 1 2 3 4 5 6 
#
# 1 114.7907 -1.9797 41.5336 0.0000 0.0000 0.0000
# 2 -1.9797 12.4146 9.2069 0.0000 0.0000 0.0000
# 3 41.5336 9.2069 168.1738 0.0000 0.0000 0.0000
# 4 0.0000 0.0000 0.0000 29.9509 0.0000 0.0000
# 5 0.0000 0.0000 0.0000 0.0000 25.1955 0.0000
# 6 0.0000 0.0000 0.0000 0.0000 0.0000 27.5738
#
#
#
# Elastic Compliance Matrix: (Units=1/GPa)
#
#
# Indices 1 2 3 4 5 6 
#
# 1 0.009707 0.003467 -0.002587 0.000000 0.000000 0.000000
# 2 0.003467 0.085197 -0.005520 0.000000 0.000000 0.000000
# 3 -0.002587 -0.005520 0.006887 0.000000 0.000000 0.000000
# 4 0.000000 0.000000 0.000000 0.033388 0.000000 0.000000
# 5 0.000000 0.000000 0.000000 0.000000 0.039690 0.000000
# 6 0.000000 0.000000 0.000000 0.000000 0.000000 0.036266
#
#
# Mechanical properties :
#
#
# Convention : Reuss Voigt Hill
#
# Bulk Modulus (GPa) = 10.80959 43.65562 27.23260
# Shear Modulus (GPa) = 19.90012 32.98526 26.44269
#
# Velocity S-wave (km/s) = 2.96525 3.81763 3.41811
# Velocity P-wave (km/s) = 4.06199 6.22264 5.25457
#
# Compressibility (1/GPa) = 0.09251049
#
# Stress axis : x y z
#
# Youngs Moduli (GPa) = 103.01418 11.73744 145.19244
#
# Poissons Ratio (x) = -0.04069 0.37564
# Poissons Ratio (y) = -0.35713 0.80152
# Poissons Ratio (z) = 0.26652 0.06480
#
# Static dielectric constant tensor:
#      x y z
#    x 3.844390 0.000000 0.000000 
#    y 0.000000 4.043640 0.000000 
#    z 0.000000 0.000000 4.623690 
# 
# 
# High freq. dielectric constant tensor:
#      x y z
#    x 1.864570 0.000000 0.000000 
#    y 0.000000 1.900210 0.000000 
#    z 0.000000 0.000000 1.904560 
# 
# From -- ./inp_files/3297.got.cif
#   From: 2010.03.12/outbox.cif.g09.slc.cpg/sg61_2_cif.got.tgz:3297.got - 2010.04.10 19:05:03.
