data_PCOD8249649
_publ_section_title
;
Structure prediction by ZEFSAII (Michael W. Deem and Ramdas Pophale) SiO2 
 PCOD8249649
Probable space group: P B C A
;
_chemical_formula_sum "Si O2"
_cell_formula_units_Z 64
_cell_length_a 30.887126
_cell_length_b 10.527471
_cell_length_c 8.929896
_cell_angle_alpha 90.000000
_cell_angle_beta 90.000000
_cell_angle_gamma 90.000000
_cell_volume 2903.674660
_symmetry_space_group_name_H-M "P B C A"
_symmetry_group_IT_number 61
_symmetry_cell_setting 'orthorhombic'
loop_
_space_group_symop_operation_xyz
x,y,z
1/2-x,-y,1/2+z
1/2+x,1/2-y,-z
-x,1/2+y,1/2-z
-x,-y,-z
1/2+x,y,1/2-z
1/2-x,1/2+y,z
x,1/2-y,1/2+z
loop_
_atom_site_type_symbol
_atom_site_label
_atom_site_fract_x
_atom_site_fract_y
_atom_site_fract_z
Si Si1 0.279018 0.391095 0.718928
Si Si2 0.404979 0.792872 0.225605
Si Si3 0.649833 0.150887 0.048751
Si Si4 0.125583 0.833013 0.679034
Si Si5 0.954594 0.960821 0.820051
Si Si6 0.449164 0.473659 0.847803
Si Si7 0.744974 0.357583 0.450850
Si Si8 0.114899 0.903429 0.353605
O O1 0.330266 0.413793 0.694601
O O2 0.265602 0.259077 0.640079
O O3 0.254679 0.513024 0.647558
O O4 0.270807 0.383550 0.896141
O O5 0.366420 0.761159 0.340963
O O6 0.429115 0.670258 0.162958
O O7 0.440288 0.880869 0.304171
O O8 0.383852 0.867895 0.087375
O O9 0.696933 0.188389 0.992808
O O10 0.650035 0.016859 0.135935
O O11 0.088333 0.883941 0.787513
O O12 0.109211 0.830516 0.509575
O O13 0.134828 0.688481 0.728055
O O14 0.932475 0.044202 0.690229
O O15 0.951227 0.039978 0.973432
O O16 0.004507 0.934591 0.777472
#
# Coordination Sequence:
#
# PCOD8249649 Si02
#       8
#     8   8   8   8   8   8   8   8
#     4  12  27  47  74 106 147 186 241 298 367 430
#     4  11  21  43  68  97 137 179 224 292 337 416
#     4  11  23  45  70  98 135 177 233 274 356 409
#     4  12  25  46  70  98 143 185 229 287 355 420
#     4  10  25  42  66 102 137 183 237 288 348 410
#     4  11  23  44  68  99 140 183 234 289 348 415
#     4  12  26  47  73 109 141 188 237 300 356 437
#     4  11  24  44  67 100 134 184 232 283 343 418
#
# _framework density 22.041036999999999
#
# number of rings (size 3 to 8) (size 9 to 14) (size 15 to 20)
#    0.000    0.750    3.750    3.000    3.500    1.500 
#    2.250    0.000    0.000    0.000    0.000    0.000 
#    0.000    0.000    0.000    0.000    0.000    0.000 
#
# Total GULP energy -793923.924524 kJ/mol
# GULP energy per Si atom -12405.061321 kJ/mol
# Density = 2.199087 g / cm^3
# Si number density = 22.041037 Si / 1000 Ang^3
#
#
#
# Elastic Constant Matrix: (Units=GPa)
#
#
# Indices 1 2 3 4 5 6 
#
# 1 112.6417 18.1590 25.0457 0.0000 0.0000 0.0000
# 2 18.1590 88.4626 32.4773 0.0000 0.0000 0.0000
# 3 25.0457 32.4773 94.4527 0.0000 0.0000 0.0000
# 4 0.0000 0.0000 0.0000 39.6176 0.0000 0.0000
# 5 0.0000 0.0000 0.0000 0.0000 35.7252 0.0000
# 6 0.0000 0.0000 0.0000 0.0000 0.0000 29.6488
#
#
#
# Elastic Compliance Matrix: (Units=1/GPa)
#
#
# Indices 1 2 3 4 5 6 
#
# 1 0.009540 -0.001178 -0.002125 0.000000 0.000000 0.000000
# 2 -0.001178 0.013083 -0.004186 0.000000 0.000000 0.000000
# 3 -0.002125 -0.004186 0.012590 0.000000 0.000000 0.000000
# 4 0.000000 0.000000 0.000000 0.025241 0.000000 0.000000
# 5 0.000000 0.000000 0.000000 0.000000 0.027991 0.000000
# 6 0.000000 0.000000 0.000000 0.000000 0.000000 0.033728
#
#
# Mechanical properties :
#
#
# Convention : Reuss Voigt Hill
#
# Bulk Modulus (GPa) = 49.41902 49.65790 49.53846
# Shear Modulus (GPa) = 34.74712 35.65667 35.20190
#
# Velocity S-wave (km/s) = 3.97479 4.02648 4.00072
# Velocity P-wave (km/s) = 6.59813 6.64796 6.62309
#
# Compressibility (1/GPa) = 0.02023512
#
# Stress axis : x y z
#
# Youngs Moduli (GPa) = 104.82127 76.43554 79.42791
#
# Poissons Ratio (x) = 0.09007 0.16875
# Poissons Ratio (y) = 0.12351 0.33249
# Poissons Ratio (z) = 0.22270 0.31996
#
# Static dielectric constant tensor:
#      x y z
#    x 3.920450 0.000000 0.000000 
#    y 0.000000 3.989960 0.000000 
#    z 0.000000 0.000000 4.085820 
# 
# 
# High freq. dielectric constant tensor:
#      x y z
#    x 1.866190 0.000000 0.000000 
#    y 0.000000 1.874310 0.000000 
#    z 0.000000 0.000000 1.877580 
# 
# From -- ./inp_files/4626.got.cif
#   From: 2010.03.12/outbox.cif.g09.slc.cpg/sg61_3_cif.got.tgz:4626.got - 2010.04.10 19:05:03.
