data_PCOD8249030
_publ_section_title
;
Structure prediction by ZEFSAII (Michael W. Deem and Ramdas Pophale) SiO2 
 PCOD8249030
Probable space group: P B C A
;
_chemical_formula_sum "Si O2"
_cell_formula_units_Z 48
_cell_length_a 9.998984
_cell_length_b 8.786696
_cell_length_c 27.274765
_cell_angle_alpha 90.000000
_cell_angle_beta 90.000000
_cell_angle_gamma 90.000000
_cell_volume 2396.307196
_symmetry_space_group_name_H-M "P B C A"
_symmetry_group_IT_number 61
_symmetry_cell_setting 'orthorhombic'
loop_
_space_group_symop_operation_xyz
x,y,z
1/2-x,-y,1/2+z
1/2+x,1/2-y,-z
-x,1/2+y,1/2-z
-x,-y,-z
1/2+x,y,1/2-z
1/2-x,1/2+y,z
x,1/2-y,1/2+z
loop_
_atom_site_type_symbol
_atom_site_label
_atom_site_fract_x
_atom_site_fract_y
_atom_site_fract_z
Si Si1 0.610184 0.430921 0.464643
Si Si2 0.604800 0.464524 0.730660
Si Si3 0.630750 0.400715 0.001189
Si Si4 0.883163 0.621304 0.711716
Si Si5 0.564731 0.527070 0.623416
Si Si6 0.195348 0.286268 0.392227
O O1 0.500000 0.500000 0.500000
O O2 0.752151 0.501010 0.477322
O O3 0.614281 0.249955 0.469100
O O4 0.570155 0.472167 0.408673
O O5 0.753511 0.531764 0.730613
O O6 0.517703 0.530895 0.774945
O O7 0.616664 0.284500 0.738024
O O8 0.526674 0.504786 0.680131
O O9 0.653810 0.361767 0.057365
O O10 0.500000 0.500000 0.000000
O O11 0.884698 0.637050 0.652858
O O12 0.666552 0.393323 0.606046
O O13 0.645950 0.685180 0.615848
#
# Coordination Sequence:
#
# PCOD8249030 Si02
#       6
#     8   8   8   8   8   8
#     4  12  23  41  63  88 126 160 206 250 294 363
#     4  10  21  41  63  93 121 162 203 257 306 367
#     4  12  25  40  61  91 125 162 204 250 303 357
#     4  10  21  39  64  89 122 154 205 251 307 363
#     4  10  22  39  64  90 123 161 208 249 305 365
#     4  10  20  38  63  88 119 159 201 245 304 363
#
# _framework density 20.030819999999999
#
# number of rings (size 3 to 8) (size 9 to 14) (size 15 to 20)
#    0.000    1.333    3.333    2.000    2.333    1.333 
#    3.000    0.000    0.000    0.000    0.000    0.000 
#    0.000    0.000    0.000    0.000    0.000    0.000 
#
# Total GULP energy -595301.102560 kJ/mol
# GULP energy per Si atom -12402.106303 kJ/mol
# Density = 1.998523 g / cm^3
# Si number density = 20.030820 Si / 1000 Ang^3
#
#
#
# Elastic Constant Matrix: (Units=GPa)
#
#
# Indices 1 2 3 4 5 6 
#
# 1 87.5723 31.1799 12.2504 0.0000 0.0000 0.0000
# 2 31.1799 112.0629 8.8127 0.0000 0.0000 0.0000
# 3 12.2504 8.8127 64.9182 0.0000 0.0000 0.0000
# 4 0.0000 0.0000 0.0000 25.0071 0.0000 0.0000
# 5 0.0000 0.0000 0.0000 0.0000 38.3736 0.0000
# 6 0.0000 0.0000 0.0000 0.0000 0.0000 37.0149
#
#
#
# Elastic Compliance Matrix: (Units=1/GPa)
#
#
# Indices 1 2 3 4 5 6 
#
# 1 0.012920 -0.003440 -0.001971 0.000000 0.000000 0.000000
# 2 -0.003440 0.009936 -0.000700 0.000000 0.000000 0.000000
# 3 -0.001971 -0.000700 0.015871 0.000000 0.000000 0.000000
# 4 0.000000 0.000000 0.000000 0.039989 0.000000 0.000000
# 5 0.000000 0.000000 0.000000 0.000000 0.026060 0.000000
# 6 0.000000 0.000000 0.000000 0.000000 0.000000 0.027016
#
#
# Mechanical properties :
#
#
# Convention : Reuss Voigt Hill
#
# Bulk Modulus (GPa) = 37.72831 41.00437 39.36634
# Shear Modulus (GPa) = 32.71259 34.23316 33.47287
#
# Velocity S-wave (km/s) = 4.04556 4.13852 4.09231
# Velocity P-wave (km/s) = 6.37951 6.58419 6.48266
#
# Compressibility (1/GPa) = 0.02650529
#
# Stress axis : x y z
#
# Youngs Moduli (GPa) = 77.40203 100.64787 63.00828
#
# Poissons Ratio (x) = 0.34620 0.12419
# Poissons Ratio (y) = 0.26624 0.04409
# Poissons Ratio (z) = 0.15256 0.07042
#
# Static dielectric constant tensor:
#      x y z
#    x 3.538350 0.000000 0.000000 
#    y 0.000000 3.897970 0.000000 
#    z 0.000000 0.000000 3.232500 
# 
# 
# High freq. dielectric constant tensor:
#      x y z
#    x 1.768510 0.000000 0.000000 
#    y 0.000000 1.797930 0.000000 
#    z 0.000000 0.000000 1.782930 
# 
# From -- ./inp_files/1847.got.cif
#   From: 2010.03.12/outbox.cif.g09.slc.cpg/sg61_1_cif.got.tgz:1847.got - 2010.04.10 19:05:03.
