data_PCOD8249958
_publ_section_title
;
Structure prediction by ZEFSAII (Michael W. Deem and Ramdas Pophale) SiO2 
 PCOD8249958
Probable space group: P N M A
;
_chemical_formula_sum "Si O2"
_cell_formula_units_Z 64
_cell_length_a 14.503217
_cell_length_b 8.786159
_cell_length_c 30.628505
_cell_angle_alpha 90.000000
_cell_angle_beta 90.000000
_cell_angle_gamma 90.000000
_cell_volume 3902.915982
_symmetry_space_group_name_H-M "P N M A"
_symmetry_group_IT_number 62
_symmetry_cell_setting 'orthorhombic'
loop_
_space_group_symop_operation_xyz
x,y,z
1/2-x,-y,1/2+z
1/2+x,1/2-y,1/2-z
-x,1/2+y,-z
-x,-y,-z
1/2+x,y,1/2-z
1/2-x,1/2+y,1/2+z
x,1/2-y,z
loop_
_atom_site_type_symbol
_atom_site_label
_atom_site_fract_x
_atom_site_fract_y
_atom_site_fract_z
Si Si1 0.658804 0.572022 0.367365
Si Si2 0.606725 0.931002 0.543545
Si Si3 0.696788 0.920298 0.629644
Si Si4 0.004859 0.921631 0.824114
Si Si5 0.477144 0.069850 0.227300
Si Si6 0.225311 0.568884 0.709377
Si Si7 0.893524 0.928814 0.952954
Si Si8 0.826066 0.931422 0.702365
O O1 0.676625 0.750000 0.367793
O O2 0.554750 0.533526 0.353589
O O3 0.729945 0.495273 0.334334
O O4 0.670432 0.507079 0.416310
O O5 0.615476 0.750000 0.539009
O O6 0.670884 0.996727 0.583074
O O7 0.500678 0.973989 0.553734
O O8 0.641498 0.011135 0.499676
O O9 0.729414 0.750000 0.618826
O O10 0.608422 0.917298 0.660183
O O11 0.776377 0.001488 0.658936
O O12 0.962363 0.750000 0.825887
O O13 0.003990 0.990758 0.775799
O O14 0.469249 0.250000 0.229744
O O15 0.380251 0.006132 0.209260
O O16 0.566359 0.019228 0.199029
O O17 0.228719 0.750000 0.707656
O O18 0.278967 0.508953 0.752669
O O19 0.878893 0.750000 0.950184
O O20 0.814674 0.750000 0.701886
#
# Coordination Sequence:
#
# PCOD8249958 Si02
#       8
#     8   8   8   8   8   8   8   8
#     4  12  23  32  44  67  97 129 163 197 239 283
#     4   9  17  29  46  70  98 124 152 189 236 286
#     4   9  15  25  44  71  99 127 156 189 231 277
#     4  10  16  28  48  69  94 127 164 197 230 270
#     4   9  16  26  46  73  95 121 162 205 231 261
#     4  10  18  30  49  69  93 125 163 200 233 271
#     4  10  19  32  49  67  91 124 160 196 236 284
#     4   9  15  24  45  73  96 121 160 198 227 269
#
# _framework density 16.397997
#
# number of rings (size 3 to 8) (size 9 to 14) (size 15 to 20)
#    0.000    2.250    3.750    1.500    0.000    0.500 
#    0.000    0.625    0.000    0.750    0.000    0.875 
#    0.000    0.000    0.000    0.000    0.000    0.000 
#
# Total GULP energy -793122.056265 kJ/mol
# GULP energy per Si atom -12392.532129 kJ/mol
# Density = 1.636067 g / cm^3
# Si number density = 16.397997 Si / 1000 Ang^3
#
#
#
# Elastic Constant Matrix: (Units=GPa)
#
#
# Indices 1 2 3 4 5 6 
#
# 1 85.5490 14.3806 41.8748 0.0000 0.0000 0.0000
# 2 14.3806 30.3210 23.0596 0.0000 0.0000 0.0000
# 3 41.8748 23.0596 113.1095 0.0000 0.0000 0.0000
# 4 0.0000 0.0000 0.0000 19.8049 0.0000 0.0000
# 5 0.0000 0.0000 0.0000 0.0000 24.7289 0.0000
# 6 0.0000 0.0000 0.0000 0.0000 0.0000 7.2538
#
#
#
# Elastic Compliance Matrix: (Units=1/GPa)
#
#
# Indices 1 2 3 4 5 6 
#
# 1 0.014553 -0.003319 -0.004711 0.000000 0.000000 0.000000
# 2 -0.003319 0.039789 -0.006883 0.000000 0.000000 0.000000
# 3 -0.004711 -0.006883 0.011988 0.000000 0.000000 0.000000
# 4 0.000000 0.000000 0.000000 0.050492 0.000000 0.000000
# 5 0.000000 0.000000 0.000000 0.000000 0.040439 0.000000
# 6 0.000000 0.000000 0.000000 0.000000 0.000000 0.137859
#
#
# Mechanical properties :
#
#
# Convention : Reuss Voigt Hill
#
# Bulk Modulus (GPa) = 27.39425 43.06772 35.23099
# Shear Modulus (GPa) = 14.83171 20.33516 17.58344
#
# Velocity S-wave (km/s) = 3.01073 3.52533 3.27814
# Velocity P-wave (km/s) = 5.36918 6.54917 5.98831
#
# Compressibility (1/GPa) = 0.03650401
#
# Stress axis : x y z
#
# Youngs Moduli (GPa) = 68.71350 25.13232 83.41450
#
# Poissons Ratio (x) = 0.08342 0.39297
# Poissons Ratio (y) = 0.22809 0.57414
# Poissons Ratio (z) = 0.32371 0.17299
#
# Static dielectric constant tensor:
#      x y z
#    x 3.099050 0.000000 0.000000 
#    y 0.000000 2.728800 0.000000 
#    z 0.000000 0.000000 3.282970 
# 
# 
# High freq. dielectric constant tensor:
#      x y z
#    x 1.606590 0.000000 0.000000 
#    y 0.000000 1.590880 0.000000 
#    z 0.000000 0.000000 1.633040 
# 
# From -- ./inp_files/32718.got.cif
#   From: 2010.03.12/outbox.cif.g09.slc.cpg/sg62_17_cif.got.tgz:32718.got - 2010.04.10 19:12:36.
