data_PCOD8249919
_publ_section_title
;
Structure prediction by ZEFSAII (Michael W. Deem and Ramdas Pophale) SiO2 
 PCOD8249919
Probable space group: P B C A
;
_chemical_formula_sum "Si O2"
_cell_formula_units_Z 40
_cell_length_a 8.820940
_cell_length_b 22.884401
_cell_length_c 7.533084
_cell_angle_alpha 90.000000
_cell_angle_beta 90.000000
_cell_angle_gamma 90.000000
_cell_volume 1520.642861
_symmetry_space_group_name_H-M "P B C A"
_symmetry_group_IT_number 61
_symmetry_cell_setting 'orthorhombic'
loop_
_space_group_symop_operation_xyz
x,y,z
1/2-x,-y,1/2+z
1/2+x,1/2-y,-z
-x,1/2+y,1/2-z
-x,-y,-z
1/2+x,y,1/2-z
1/2-x,1/2+y,z
x,1/2-y,1/2+z
loop_
_atom_site_type_symbol
_atom_site_label
_atom_site_fract_x
_atom_site_fract_y
_atom_site_fract_z
Si Si1 0.573568 0.440266 0.935641
Si Si2 0.941980 0.269900 0.802111
Si Si3 0.576237 0.941428 0.931633
Si Si4 0.547366 0.139227 0.776601
Si Si5 0.755846 0.697200 0.012002
O O1 0.498538 0.419421 0.751707
O O2 0.748232 0.452949 0.895350
O O3 0.500000 0.500000 0.000000
O O4 0.553997 0.390945 0.086166
O O5 0.989779 0.205702 0.736821
O O6 0.882381 0.314518 0.649077
O O7 0.080567 0.300088 0.897233
O O8 0.790918 0.259336 0.922420
O O9 0.560841 0.893770 0.085845
O O10 0.500000 0.000000 0.000000
O O11 0.719324 0.145306 0.865631
#
# Coordination Sequence:
#
# PCOD8249919 Si02
#       5
#     8   8   8   8   8
#     4  12  28  52  83 119 168 216 281 350 425 514
#     4  12  25  48  76 113 164 214 276 349 398 502
#     4  12  28  50  84 121 165 222 277 347 424 509
#     4  12  28  50  85 116 169 217 280 335 436 487
#     4  12  25  48  78 115 162 213 282 336 416 492
#
# _framework density 26.304666999999998
#
# number of rings (size 3 to 8) (size 9 to 14) (size 15 to 20)
#    0.000    0.000    6.000    2.400    0.000    9.600 
#    0.000    0.000    0.000    0.000    0.000    0.000 
#    0.000    0.000    0.000    0.000    0.000    0.000 
#
# Total GULP energy -495700.920717 kJ/mol
# GULP energy per Si atom -12392.523018 kJ/mol
# Density = 2.624480 g / cm^3
# Si number density = 26.304667 Si / 1000 Ang^3
#
#
#
# Elastic Constant Matrix: (Units=GPa)
#
#
# Indices 1 2 3 4 5 6 
#
# 1 164.2702 42.5789 83.7274 0.0000 0.0000 0.0000
# 2 42.5789 90.9582 49.0010 0.0000 0.0000 0.0000
# 3 83.7274 49.0010 212.3834 0.0000 0.0000 0.0000
# 4 0.0000 0.0000 0.0000 54.2993 0.0000 0.0000
# 5 0.0000 0.0000 0.0000 0.0000 50.5476 0.0000
# 6 0.0000 0.0000 0.0000 0.0000 0.0000 30.0801
#
#
#
# Elastic Compliance Matrix: (Units=1/GPa)
#
#
# Indices 1 2 3 4 5 6 
#
# 1 0.008034 -0.002346 -0.002626 0.000000 0.000000 0.000000
# 2 -0.002346 0.013240 -0.002130 0.000000 0.000000 0.000000
# 3 -0.002626 -0.002130 0.006235 0.000000 0.000000 0.000000
# 4 0.000000 0.000000 0.000000 0.018416 0.000000 0.000000
# 5 0.000000 0.000000 0.000000 0.000000 0.019783 0.000000
# 6 0.000000 0.000000 0.000000 0.000000 0.000000 0.033245
#
#
# Mechanical properties :
#
#
# Convention : Reuss Voigt Hill
#
# Bulk Modulus (GPa) = 75.15933 90.91404 83.03668
# Shear Modulus (GPa) = 42.51991 46.47236 44.49614
#
# Velocity S-wave (km/s) = 4.02486 4.20777 4.11733
# Velocity P-wave (km/s) = 7.08759 7.63178 7.36471
#
# Compressibility (1/GPa) = 0.01330507
#
# Stress axis : x y z
#
# Youngs Moduli (GPa) = 124.46943 75.53054 160.38365
#
# Poissons Ratio (x) = 0.17721 0.42116
# Poissons Ratio (y) = 0.29203 0.34157
# Poissons Ratio (z) = 0.32685 0.16086
#
# Static dielectric constant tensor:
#      x y z
#    x 5.199670 0.000000 0.000000 
#    y 0.000000 5.795780 0.000000 
#    z 0.000000 0.000000 6.020100 
# 
# 
# High freq. dielectric constant tensor:
#      x y z
#    x 2.072130 0.000000 0.000000 
#    y 0.000000 2.038720 0.000000 
#    z 0.000000 0.000000 2.089060 
# 
# From -- ./inp_files/1766.got.cif
#   From: 2010.03.12/outbox.cif.g09.slc.cpg/sg61_1_cif.got.tgz:1766.got - 2010.04.10 19:05:03.
