data_PCOD8249083
_publ_section_title
;
Structure prediction by ZEFSAII (Michael W. Deem and Ramdas Pophale) SiO2 
 PCOD8249083
Probable space group: P B C A
;
_chemical_formula_sum "Si O2"
_cell_formula_units_Z 40
_cell_length_a 10.485191
_cell_length_b 17.873721
_cell_length_c 9.698838
_cell_angle_alpha 90.000000
_cell_angle_beta 90.000000
_cell_angle_gamma 90.000000
_cell_volume 1817.653202
_symmetry_space_group_name_H-M "P B C A"
_symmetry_group_IT_number 61
_symmetry_cell_setting 'orthorhombic'
loop_
_space_group_symop_operation_xyz
x,y,z
1/2-x,-y,1/2+z
1/2+x,1/2-y,-z
-x,1/2+y,1/2-z
-x,-y,-z
1/2+x,y,1/2-z
1/2-x,1/2+y,z
x,1/2-y,1/2+z
loop_
_atom_site_type_symbol
_atom_site_label
_atom_site_fract_x
_atom_site_fract_y
_atom_site_fract_z
Si Si1 0.886556 0.397611 0.941218
Si Si2 0.492648 0.556959 0.185593
Si Si3 0.705945 0.526173 0.979444
Si Si4 0.179013 0.191211 0.211448
Si Si5 0.369651 0.668043 0.529549
O O1 0.789308 0.452739 0.018918
O O2 0.815408 0.341029 0.836374
O O3 0.983603 0.448874 0.849324
O O4 0.978257 0.349779 0.041302
O O5 0.395486 0.491604 0.141552
O O6 0.431272 0.637522 0.150716
O O7 0.630474 0.548981 0.116019
O O8 0.792179 0.594065 0.928677
O O9 0.161203 0.272372 0.146520
O O10 0.170526 0.197296 0.377489
#
# Coordination Sequence:
#
# PCOD8249083 Si02
#       5
#     8   8   8   8   8
#     4  10  21  41  66  92 130 168 217 270 327 381
#     4   9  20  41  63  89 127 171 208 268 324 377
#     4  10  20  40  66  90 123 167 219 265 323 380
#     4  10  23  41  63  92 134 172 210 264 324 387
#     4  11  23  41  63  96 129 172 213 266 325 384
#
# _framework density 22.006398999999998
#
# number of rings (size 3 to 8) (size 9 to 14) (size 15 to 20)
#    0.000    2.000    2.000    0.600    2.800    0.000 
#   10.800    0.000    0.000    0.000    0.000    0.000 
#    0.000    0.000    0.000    0.000    0.000    0.000 
#
# Total GULP energy -495939.815280 kJ/mol
# GULP energy per Si atom -12398.495382 kJ/mol
# Density = 2.195631 g / cm^3
# Si number density = 22.006399 Si / 1000 Ang^3
#
#
#
# Elastic Constant Matrix: (Units=GPa)
#
#
# Indices 1 2 3 4 5 6 
#
# 1 95.0635 24.1898 1.0620 0.0000 0.0000 0.0000
# 2 24.1898 89.6193 18.7282 0.0000 0.0000 0.0000
# 3 1.0620 18.7282 31.6048 0.0000 0.0000 0.0000
# 4 0.0000 0.0000 0.0000 33.7985 0.0000 0.0000
# 5 0.0000 0.0000 0.0000 0.0000 27.7947 0.0000
# 6 0.0000 0.0000 0.0000 0.0000 0.0000 34.8708
#
#
#
# Elastic Compliance Matrix: (Units=1/GPa)
#
#
# Indices 1 2 3 4 5 6 
#
# 1 0.011369 -0.003411 0.001639 0.000000 0.000000 0.000000
# 2 -0.003411 0.013759 -0.008039 0.000000 0.000000 0.000000
# 3 0.001639 -0.008039 0.036349 0.000000 0.000000 0.000000
# 4 0.000000 0.000000 0.000000 0.029587 0.000000 0.000000
# 5 0.000000 0.000000 0.000000 0.000000 0.035978 0.000000
# 6 0.000000 0.000000 0.000000 0.000000 0.000000 0.028677
#
#
# Mechanical properties :
#
#
# Convention : Reuss Voigt Hill
#
# Bulk Modulus (GPa) = 23.89136 33.80530 28.84833
# Shear Modulus (GPa) = 26.41415 30.77998 28.59707
#
# Velocity S-wave (km/s) = 3.46828 3.74395 3.60875
# Velocity P-wave (km/s) = 5.18833 5.83819 5.52283
#
# Compressibility (1/GPa) = 0.04185614
#
# Stress axis : x y z
#
# Youngs Moduli (GPa) = 87.95846 72.68001 27.51100
#
# Poissons Ratio (x) = 0.24793 -0.04510
# Poissons Ratio (y) = 0.30005 0.22115
# Poissons Ratio (z) = -0.14420 0.58424
#
# Static dielectric constant tensor:
#      x y z
#    x 4.440120 0.000000 0.000000 
#    y 0.000000 3.841670 0.000000 
#    z 0.000000 0.000000 3.616970 
# 
# 
# High freq. dielectric constant tensor:
#      x y z
#    x 1.889970 0.000000 0.000000 
#    y 0.000000 1.856190 0.000000 
#    z 0.000000 0.000000 1.839190 
# 
# From -- ./inp_files/2102.got.cif
#   From: 2010.03.12/outbox.cif.g09.slc.cpg/sg61_2_cif.got.tgz:2102.got - 2010.04.10 19:05:03.
