data_PCOD8249386
_publ_section_title
;
Structure prediction by ZEFSAII (Michael W. Deem and Ramdas Pophale) SiO2 
 PCOD8249386
Probable space group: P B C A
;
_chemical_formula_sum "Si O2"
_cell_formula_units_Z 48
_cell_length_a 14.009259
_cell_length_b 17.061776
_cell_length_c 9.327069
_cell_angle_alpha 90.000000
_cell_angle_beta 90.000000
_cell_angle_gamma 90.000000
_cell_volume 2229.382512
_symmetry_space_group_name_H-M "P B C A"
_symmetry_group_IT_number 61
_symmetry_cell_setting 'orthorhombic'
loop_
_space_group_symop_operation_xyz
x,y,z
1/2-x,-y,1/2+z
1/2+x,1/2-y,-z
-x,1/2+y,1/2-z
-x,-y,-z
1/2+x,y,1/2-z
1/2-x,1/2+y,z
x,1/2-y,1/2+z
loop_
_atom_site_type_symbol
_atom_site_label
_atom_site_fract_x
_atom_site_fract_y
_atom_site_fract_z
Si Si1 0.759764 0.202670 0.368425
Si Si2 0.080292 0.595757 0.242084
Si Si3 0.309280 0.158904 0.825579
Si Si4 0.053415 0.184858 0.048340
Si Si5 0.877174 0.578424 0.709106
Si Si6 0.994997 0.639135 0.953866
O O1 0.816084 0.130066 0.298288
O O2 0.797254 0.284722 0.309347
O O3 0.780475 0.209579 0.536389
O O4 0.646538 0.189308 0.348158
O O5 0.092848 0.511000 0.312924
O O6 0.032568 0.650025 0.360516
O O7 0.015377 0.590352 0.098577
O O8 0.237338 0.085421 0.807450
O O9 0.417092 0.128822 0.841780
O O10 0.021771 0.271194 0.998472
O O11 0.070648 0.132744 0.907732
O O12 0.903645 0.605855 0.870340
#
# Coordination Sequence:
#
# PCOD8249386 Si02
#       6
#     8   8   8   8   8   8
#     4  10  22  39  62  91 124 165 213 258 315 384
#     4  11  24  41  62  96 132 165 213 269 325 379
#     4  10  22  39  62  91 124 165 213 258 315 384
#     4  11  22  40  68  94 127 172 218 262 319 392
#     4  11  24  41  62  96 132 165 213 269 325 379
#     4  11  22  40  68  94 127 172 218 262 319 392
#
# _framework density 21.530625000000001
#
# number of rings (size 3 to 8) (size 9 to 14) (size 15 to 20)
#    0.000    1.333    3.333    2.000    4.667    1.333 
#    0.000    8.333    0.000    0.000    0.000    0.000 
#    0.000    0.000    0.000    0.000    0.000    0.000 
#
# Total GULP energy -595352.560237 kJ/mol
# GULP energy per Si atom -12403.178338 kJ/mol
# Density = 2.148162 g / cm^3
# Si number density = 21.530625 Si / 1000 Ang^3
#
#
#
# Elastic Constant Matrix: (Units=GPa)
#
#
# Indices 1 2 3 4 5 6 
#
# 1 81.4467 0.6083 8.1999 0.0000 0.0000 0.0000
# 2 0.6083 32.6860 -2.5745 0.0000 0.0000 0.0000
# 3 8.1999 -2.5745 43.4854 0.0000 0.0000 0.0000
# 4 0.0000 0.0000 0.0000 33.1688 0.0000 0.0000
# 5 0.0000 0.0000 0.0000 0.0000 29.9817 0.0000
# 6 0.0000 0.0000 0.0000 0.0000 0.0000 27.2372
#
#
#
# Elastic Compliance Matrix: (Units=1/GPa)
#
#
# Indices 1 2 3 4 5 6 
#
# 1 0.012521 -0.000421 -0.002386 0.000000 0.000000 0.000000
# 2 -0.000421 0.030752 0.001900 0.000000 0.000000 0.000000
# 3 -0.002386 0.001900 0.023559 0.000000 0.000000 0.000000
# 4 0.000000 0.000000 0.000000 0.030149 0.000000 0.000000
# 5 0.000000 0.000000 0.000000 0.000000 0.033354 0.000000
# 6 0.000000 0.000000 0.000000 0.000000 0.000000 0.036714
#
#
# Mechanical properties :
#
#
# Convention : Reuss Voigt Hill
#
# Bulk Modulus (GPa) = 15.38045 18.89839 17.13942
# Shear Modulus (GPa) = 26.24189 28.16984 27.20587
#
# Velocity S-wave (km/s) = 3.49494 3.62105 3.55856
# Velocity P-wave (km/s) = 4.84202 5.12632 4.98620
#
# Compressibility (1/GPa) = 0.06501760
#
# Stress axis : x y z
#
# Youngs Moduli (GPa) = 79.86369 32.51860 42.44732
#
# Poissons Ratio (x) = 0.01369 0.10128
# Poissons Ratio (y) = 0.03362 -0.08065
# Poissons Ratio (z) = 0.19056 -0.06179
#
# Static dielectric constant tensor:
#      x y z
#    x 4.221420 0.000000 0.000000 
#    y 0.000000 3.622620 0.000000 
#    z 0.000000 0.000000 3.844960 
# 
# 
# High freq. dielectric constant tensor:
#      x y z
#    x 1.855320 0.000000 0.000000 
#    y 0.000000 1.829800 0.000000 
#    z 0.000000 0.000000 1.847090 
# 
# From -- ./inp_files/2860.got.cif
#   From: 2010.03.12/outbox.cif.g09.slc.cpg/sg61_2_cif.got.tgz:2860.got - 2010.04.10 19:05:03.
