data_PCOD8249506
_publ_section_title
;
Structure prediction by ZEFSAII (Michael W. Deem and Ramdas Pophale) SiO2 
 PCOD8249506
Probable space group: P B C A
;
_chemical_formula_sum "Si O2"
_cell_formula_units_Z 56
_cell_length_a 13.802062
_cell_length_b 19.337319
_cell_length_c 8.958652
_cell_angle_alpha 90.000000
_cell_angle_beta 90.000000
_cell_angle_gamma 90.000000
_cell_volume 2391.018312
_symmetry_space_group_name_H-M "P B C A"
_symmetry_group_IT_number 61
_symmetry_cell_setting 'orthorhombic'
loop_
_space_group_symop_operation_xyz
x,y,z
1/2-x,-y,1/2+z
1/2+x,1/2-y,-z
-x,1/2+y,1/2-z
-x,-y,-z
1/2+x,y,1/2-z
1/2-x,1/2+y,z
x,1/2-y,1/2+z
loop_
_atom_site_type_symbol
_atom_site_label
_atom_site_fract_x
_atom_site_fract_y
_atom_site_fract_z
Si Si1 0.368160 0.709699 0.740375
Si Si2 0.227897 0.917991 0.219588
Si Si3 0.203153 0.362041 0.753560
Si Si4 0.501953 0.263688 0.524178
Si Si5 0.491673 0.397074 0.697371
Si Si6 0.124456 0.640491 0.465684
Si Si7 0.322290 0.040793 0.046977
O O1 0.288745 0.650571 0.753321
O O2 0.322553 0.784602 0.704111
O O3 0.422650 0.710579 0.899151
O O4 0.446219 0.694812 0.609839
O O5 0.195319 0.957283 0.369571
O O6 0.131098 0.894817 0.129238
O O7 0.290070 0.968496 0.115659
O O8 0.266419 0.358886 0.903132
O O9 0.261104 0.396889 0.619226
O O10 0.107342 0.407625 0.795166
O O11 0.466350 0.319105 0.645380
O O12 0.410113 0.219868 0.470741
O O13 0.447153 0.405303 0.863472
O O14 0.436891 0.449608 0.585230
#
# Coordination Sequence:
#
# PCOD8249506 Si02
#       7
#     8   8   8   8   8   8   8
#     4  11  24  42  73 106 139 187 243 296 363 439
#     4  12  27  46  72 107 148 194 250 297 369 435
#     4  10  22  47  73 104 145 187 240 305 367 429
#     4  11  22  42  66 111 140 179 238 295 360 428
#     4  10  23  44  69  97 145 186 236 291 361 432
#     4  11  24  42  68 103 146 178 239 294 357 428
#     4  11  26  47  71 104 148 196 241 301 366 444
#
# _framework density 23.420984000000001
#
# number of rings (size 3 to 8) (size 9 to 14) (size 15 to 20)
#    0.000    1.143    2.857    4.286    8.000    0.000 
#    2.571    5.000    0.000    0.000    0.000    0.000 
#    0.000    0.000    0.000    0.000    0.000    0.000 
#
# Total GULP energy -694491.175860 kJ/mol
# GULP energy per Si atom -12401.628140 kJ/mol
# Density = 2.336768 g / cm^3
# Si number density = 23.420984 Si / 1000 Ang^3
#
#
#
# Elastic Constant Matrix: (Units=GPa)
#
#
# Indices 1 2 3 4 5 6 
#
# 1 109.1176 11.2821 33.0031 0.0000 0.0000 0.0000
# 2 11.2821 61.7103 8.6145 0.0000 0.0000 0.0000
# 3 33.0031 8.6145 123.6669 0.0000 0.0000 0.0000
# 4 0.0000 0.0000 0.0000 37.2460 0.0000 0.0000
# 5 0.0000 0.0000 0.0000 0.0000 36.8765 0.0000
# 6 0.0000 0.0000 0.0000 0.0000 0.0000 26.1095
#
#
#
# Elastic Compliance Matrix: (Units=1/GPa)
#
#
# Indices 1 2 3 4 5 6 
#
# 1 0.010102 -0.001485 -0.002593 0.000000 0.000000 0.000000
# 2 -0.001485 0.016582 -0.000759 0.000000 0.000000 0.000000
# 3 -0.002593 -0.000759 0.008831 0.000000 0.000000 0.000000
# 4 0.000000 0.000000 0.000000 0.026849 0.000000 0.000000
# 5 0.000000 0.000000 0.000000 0.000000 0.027118 0.000000
# 6 0.000000 0.000000 0.000000 0.000000 0.000000 0.038300
#
#
# Mechanical properties :
#
#
# Convention : Reuss Voigt Hill
#
# Bulk Modulus (GPa) = 38.69579 44.47714 41.58646
# Shear Modulus (GPa) = 34.23055 36.15273 35.19164
#
# Velocity S-wave (km/s) = 3.82715 3.93314 3.88050
# Velocity P-wave (km/s) = 6.00726 6.29743 6.15405
#
# Compressibility (1/GPa) = 0.02584261
#
# Stress axis : x y z
#
# Youngs Moduli (GPa) = 98.98950 60.30572 113.23799
#
# Poissons Ratio (x) = 0.08955 0.29357
# Poissons Ratio (y) = 0.14700 0.08592
# Poissons Ratio (z) = 0.25663 0.04576
#
# Static dielectric constant tensor:
#      x y z
#    x 4.256510 0.000000 0.000000 
#    y 0.000000 3.963170 0.000000 
#    z 0.000000 0.000000 4.362320 
# 
# 
# High freq. dielectric constant tensor:
#      x y z
#    x 1.925360 0.000000 0.000000 
#    y 0.000000 1.913010 0.000000 
#    z 0.000000 0.000000 1.940250 
# 
# From -- ./inp_files/3035.got.cif
#   From: 2010.03.12/outbox.cif.g09.slc.cpg/sg61_2_cif.got.tgz:3035.got - 2010.04.10 19:05:03.
