data_PCOD8249648
_publ_section_title
;
Structure prediction by ZEFSAII (Michael W. Deem and Ramdas Pophale) SiO2 
 PCOD8249648
Probable space group: P B C A
;
_chemical_formula_sum "Si O2"
_cell_formula_units_Z 48
_cell_length_a 12.051617
_cell_length_b 21.561580
_cell_length_c 8.135621
_cell_angle_alpha 90.000000
_cell_angle_beta 90.000000
_cell_angle_gamma 90.000000
_cell_volume 2114.056608
_symmetry_space_group_name_H-M "P B C A"
_symmetry_group_IT_number 61
_symmetry_cell_setting 'orthorhombic'
loop_
_space_group_symop_operation_xyz
x,y,z
1/2-x,-y,1/2+z
1/2+x,1/2-y,-z
-x,1/2+y,1/2-z
-x,-y,-z
1/2+x,y,1/2-z
1/2-x,1/2+y,z
x,1/2-y,1/2+z
loop_
_atom_site_type_symbol
_atom_site_label
_atom_site_fract_x
_atom_site_fract_y
_atom_site_fract_z
Si Si1 0.208986 0.447743 0.765560
Si Si2 0.888813 0.520964 0.908304
Si Si3 0.541158 0.544628 0.860707
Si Si4 0.335118 0.819069 0.591240
Si Si5 0.204949 0.737593 0.819493
Si Si6 0.425653 0.178173 0.543127
O O1 0.329839 0.462985 0.688267
O O2 0.137755 0.509420 0.734690
O O3 0.162815 0.385893 0.679407
O O4 0.196776 0.443274 0.966893
O O5 0.937796 0.564065 0.760234
O O6 0.000000 0.500000 0.000000
O O7 0.591067 0.605044 0.945209
O O8 0.500000 0.500000 0.000000
O O9 0.308875 0.762413 0.714201
O O10 0.243169 0.816101 0.445992
O O11 0.451748 0.803305 0.510385
O O12 0.103532 0.709930 0.715914
O O13 0.160764 0.799598 0.906632
#
# Coordination Sequence:
#
# PCOD8249648 Si02
#       6
#     8   8   8   8   8   8
#     4  11  24  42  69 103 140 183 228 289 355 419
#     4  10  25  42  65 105 141 183 226 278 359 419
#     4  11  23  43  69 105 137 180 230 284 364 414
#     4  11  24  46  70  99 137 186 239 290 352 423
#     4  10  26  45  70 101 135 189 241 289 351 413
#     4  11  24  47  70 100 143 181 237 295 345 428
#
# _framework density 22.705162000000001
#
# number of rings (size 3 to 8) (size 9 to 14) (size 15 to 20)
#    0.000    1.333    1.667    2.000    9.333    0.000 
#    9.000    0.000    0.000    0.000    0.000    0.000 
#    0.000    0.000    0.000    0.000    0.000    0.000 
#
# Total GULP energy -594846.783220 kJ/mol
# GULP energy per Si atom -12392.641317 kJ/mol
# Density = 2.265348 g / cm^3
# Si number density = 22.705162 Si / 1000 Ang^3
#
#
#
# Elastic Constant Matrix: (Units=GPa)
#
#
# Indices 1 2 3 4 5 6 
#
# 1 98.1761 31.4378 53.8182 0.0000 0.0000 0.0000
# 2 31.4378 121.1172 53.8309 0.0000 0.0000 0.0000
# 3 53.8182 53.8309 144.3021 0.0000 0.0000 0.0000
# 4 0.0000 0.0000 0.0000 9.1907 0.0000 0.0000
# 5 0.0000 0.0000 0.0000 0.0000 44.5617 0.0000
# 6 0.0000 0.0000 0.0000 0.0000 0.0000 35.0371
#
#
#
# Elastic Compliance Matrix: (Units=1/GPa)
#
#
# Indices 1 2 3 4 5 6 
#
# 1 0.013016 -0.001464 -0.004308 0.000000 0.000000 0.000000
# 2 -0.001464 0.010062 -0.003208 0.000000 0.000000 0.000000
# 3 -0.004308 -0.003208 0.009733 0.000000 0.000000 0.000000
# 4 0.000000 0.000000 0.000000 0.108806 0.000000 0.000000
# 5 0.000000 0.000000 0.000000 0.000000 0.022441 0.000000
# 6 0.000000 0.000000 0.000000 0.000000 0.000000 0.028541
#
#
# Mechanical properties :
#
#
# Convention : Reuss Voigt Hill
#
# Bulk Modulus (GPa) = 67.33080 71.30770 69.31925
# Shear Modulus (GPa) = 23.20075 32.72511 27.96293
#
# Velocity S-wave (km/s) = 3.20007 3.80057 3.51318
# Velocity P-wave (km/s) = 6.58580 7.12273 6.85952
#
# Compressibility (1/GPa) = 0.01485204
#
# Stress axis : x y z
#
# Youngs Moduli (GPa) = 76.82680 99.38327 102.73911
#
# Poissons Ratio (x) = 0.14546 0.44265
# Poissons Ratio (y) = 0.11245 0.32956
# Poissons Ratio (z) = 0.33101 0.31879
#
# Static dielectric constant tensor:
#      x y z
#    x 4.344410 0.000000 0.000000 
#    y 0.000000 3.456980 0.000000 
#    z 0.000000 0.000000 4.748600 
# 
# 
# High freq. dielectric constant tensor:
#      x y z
#    x 1.901560 0.000000 0.000000 
#    y 0.000000 1.870550 0.000000 
#    z 0.000000 0.000000 1.921860 
# 
# From -- ./inp_files/2285.got.cif
#   From: 2010.03.12/outbox.cif.g09.slc.cpg/sg61_2_cif.got.tgz:2285.got - 2010.04.10 19:05:03.
