data_PCOD8249291
_publ_section_title
;
Structure prediction by ZEFSAII (Michael W. Deem and Ramdas Pophale) SiO2 
 PCOD8249291
Probable space group: P B C A
;
_chemical_formula_sum "Si O2"
_cell_formula_units_Z 32
_cell_length_a 13.175667
_cell_length_b 20.673324
_cell_length_c 5.229183
_cell_angle_alpha 90.000000
_cell_angle_beta 90.000000
_cell_angle_gamma 90.000000
_cell_volume 1424.350137
_symmetry_space_group_name_H-M "P B C A"
_symmetry_group_IT_number 61
_symmetry_cell_setting 'orthorhombic'
loop_
_space_group_symop_operation_xyz
x,y,z
1/2-x,-y,1/2+z
1/2+x,1/2-y,-z
-x,1/2+y,1/2-z
-x,-y,-z
1/2+x,y,1/2-z
1/2-x,1/2+y,z
x,1/2-y,1/2+z
loop_
_atom_site_type_symbol
_atom_site_label
_atom_site_fract_x
_atom_site_fract_y
_atom_site_fract_z
Si Si1 0.681991 0.791793 0.441962
Si Si2 0.967980 0.096086 0.890892
Si Si3 0.357115 0.530703 0.139245
Si Si4 0.668852 0.404298 0.361012
O O1 0.683824 0.763110 0.726392
O O2 0.579634 0.833921 0.437604
O O3 0.781159 0.834207 0.381438
O O4 0.046210 0.103641 0.652960
O O5 0.032578 0.067676 0.130804
O O6 0.875167 0.046439 0.839472
O O7 0.298759 0.554141 0.392117
O O8 0.294050 0.553631 0.886641
#
# Coordination Sequence:
#
# PCOD8249291 Si02
#       4
#     8   8   8   8
#     4  12  28  41  58  91 126 170 212 236 292 376
#     4   9  23  40  68  91 124 152 208 257 308 358
#     4   9  20  40  68  94 115 152 202 260 326 347
#     4  10  21  41  62  91 124 155 197 257 306 362
#
# _framework density 22.466384999999999
#
# number of rings (size 3 to 8) (size 9 to 14) (size 15 to 20)
#    1.500    0.500    0.000    2.250    3.500    4.000 
#    0.000    0.000    0.000    0.000    0.000    0.000 
#    0.000    0.000    0.000    0.000    0.000    0.000 
#
# Total GULP energy -396577.012623 kJ/mol
# GULP energy per Si atom -12393.031644 kJ/mol
# Density = 2.241525 g / cm^3
# Si number density = 22.466385 Si / 1000 Ang^3
#
#
#
# Elastic Constant Matrix: (Units=GPa)
#
#
# Indices 1 2 3 4 5 6 
#
# 1 48.2149 25.8826 -1.6541 0.0000 0.0000 0.0000
# 2 25.8826 114.3192 14.4841 0.0000 0.0000 0.0000
# 3 -1.6541 14.4841 118.5146 0.0000 0.0000 0.0000
# 4 0.0000 0.0000 0.0000 -185.2649 0.0000 0.0000
# 5 0.0000 0.0000 0.0000 0.0000 110.9282 0.0000
# 6 0.0000 0.0000 0.0000 0.0000 0.0000 59.7132
#
#
#
# Elastic Compliance Matrix: (Units=1/GPa)
#
#
# Indices 1 2 3 4 5 6 
#
# 1 0.023727 -0.005499 0.001003 0.000000 0.000000 0.000000
# 2 -0.005499 0.010159 -0.001318 0.000000 0.000000 0.000000
# 3 0.001003 -0.001318 0.008613 0.000000 0.000000 0.000000
# 4 0.000000 0.000000 0.000000 -0.005398 0.000000 0.000000
# 5 0.000000 0.000000 0.000000 0.000000 0.009015 0.000000
# 6 0.000000 0.000000 0.000000 0.000000 0.000000 0.016747
#
#
# Mechanical properties :
#
#
# Convention : Reuss Voigt Hill
#
# Bulk Modulus (GPa) = 32.39300 39.83042 36.11171
# Shear Modulus (GPa) = 58.97492 13.23104 36.10298
#
# Velocity S-wave (km/s) = 5.12906 2.42941 4.01306
# Velocity P-wave (km/s) = 7.03748 5.06328 6.13037
#
# Compressibility (1/GPa) = 0.03087087
#
# Stress axis : x y z
#
# Youngs Moduli (GPa) = 42.14633 98.43014 116.10483
#
# Poissons Ratio (x) = 0.54127 -0.11648
# Poissons Ratio (y) = 0.23176 0.15307
# Poissons Ratio (z) = -0.04228 0.12977
#
# Static dielectric constant tensor:
#      x y z
#    x 3.950530 0.000000 0.000000 
#    y 0.000000 3.830330 0.000000 
#    z 0.000000 0.000000 3.810460 
# 
# 
# High freq. dielectric constant tensor:
#      x y z
#    x 1.896300 0.000000 0.000000 
#    y 0.000000 1.883370 0.000000 
#    z 0.000000 0.000000 1.877400 
# 
# From -- ./inp_files/328.got.cif
#   From: 2010.03.12/outbox.cif.g09.slc.cpg/sg61_1_cif.got.tgz:328.got - 2010.04.10 19:05:03.
