data_PCOD8249081
_publ_section_title
;
Structure prediction by ZEFSAII (Michael W. Deem and Ramdas Pophale) SiO2 
 PCOD8249081
Probable space group: P B C A
;
_chemical_formula_sum "Si O2"
_cell_formula_units_Z 56
_cell_length_a 12.830551
_cell_length_b 21.522144
_cell_length_c 10.331577
_cell_angle_alpha 90.000000
_cell_angle_beta 90.000000
_cell_angle_gamma 90.000000
_cell_volume 2852.971655
_symmetry_space_group_name_H-M "P B C A"
_symmetry_group_IT_number 61
_symmetry_cell_setting 'orthorhombic'
loop_
_space_group_symop_operation_xyz
x,y,z
1/2-x,-y,1/2+z
1/2+x,1/2-y,-z
-x,1/2+y,1/2-z
-x,-y,-z
1/2+x,y,1/2-z
1/2-x,1/2+y,z
x,1/2-y,1/2+z
loop_
_atom_site_type_symbol
_atom_site_label
_atom_site_fract_x
_atom_site_fract_y
_atom_site_fract_z
Si Si1 0.616156 0.728797 0.941881
Si Si2 0.868554 0.571069 0.990743
Si Si3 0.561251 0.311971 0.644919
Si Si4 0.579275 0.599205 0.197639
Si Si5 0.281628 0.204304 0.287511
Si Si6 0.131947 0.912717 0.081824
Si Si7 0.972562 0.014284 0.686606
O O1 0.501852 0.759721 0.934096
O O2 0.689090 0.769065 0.850750
O O3 0.618957 0.659561 0.882303
O O4 0.655299 0.732545 0.089914
O O5 0.752550 0.567771 0.933529
O O6 0.957383 0.566306 0.880750
O O7 0.889597 0.638280 0.048200
O O8 0.883663 0.514586 0.093358
O O9 0.496304 0.343714 0.761404
O O10 0.660741 0.278544 0.706240
O O11 0.695798 0.628878 0.214014
O O12 0.556613 0.540011 0.284679
O O13 0.565410 0.577690 0.049497
O O14 0.083308 0.957180 0.189493
#
# Coordination Sequence:
#
# PCOD8249081 Si02
#       7
#     8   8   8   8   8   8   8
#     4  10  23  36  61  90 121 159 209 252 306 380
#     4  10  22  41  62  88 124 166 199 254 317 360
#     4  10  20  40  65  80 128 165 194 256 317 364
#     4   9  20  39  59  90 117 162 203 246 311 372
#     4  10  21  40  60  88 123 163 206 253 313 375
#     4  11  22  40  61  93 124 153 212 264 298 368
#     4  10  23  38  64  90 121 163 207 253 308 370
#
# _framework density 19.628654999999998
#
# number of rings (size 3 to 8) (size 9 to 14) (size 15 to 20)
#    0.000    2.000    2.857    0.429    4.000    4.571 
#    0.000    0.000    0.000    0.000    0.000    0.000 
#    0.000    0.000    0.000    0.000    0.000    0.000 
#
# Total GULP energy -694057.060545 kJ/mol
# GULP energy per Si atom -12393.876081 kJ/mol
# Density = 1.958398 g / cm^3
# Si number density = 19.628655 Si / 1000 Ang^3
#
#
#
# Elastic Constant Matrix: (Units=GPa)
#
#
# Indices 1 2 3 4 5 6 
#
# 1 95.3153 16.1372 20.2656 0.0000 0.0000 0.0000
# 2 16.1372 52.7524 13.8938 0.0000 0.0000 0.0000
# 3 20.2656 13.8938 73.1481 0.0000 0.0000 0.0000
# 4 0.0000 0.0000 0.0000 31.6065 0.0000 0.0000
# 5 0.0000 0.0000 0.0000 0.0000 25.3071 0.0000
# 6 0.0000 0.0000 0.0000 0.0000 0.0000 23.6128
#
#
#
# Elastic Compliance Matrix: (Units=1/GPa)
#
#
# Indices 1 2 3 4 5 6 
#
# 1 0.011536 -0.002829 -0.002659 0.000000 0.000000 0.000000
# 2 -0.002829 0.020648 -0.003138 0.000000 0.000000 0.000000
# 3 -0.002659 -0.003138 0.015004 0.000000 0.000000 0.000000
# 4 0.000000 0.000000 0.000000 0.031639 0.000000 0.000000
# 5 0.000000 0.000000 0.000000 0.000000 0.039515 0.000000
# 6 0.000000 0.000000 0.000000 0.000000 0.000000 0.042350
#
#
# Mechanical properties :
#
#
# Convention : Reuss Voigt Hill
#
# Bulk Modulus (GPa) = 33.40409 35.75653 34.58031
# Shear Modulus (GPa) = 26.60690 27.49988 27.05339
#
# Velocity S-wave (km/s) = 3.68572 3.74706 3.71652
# Velocity P-wave (km/s) = 5.93024 6.08085 6.00601
#
# Compressibility (1/GPa) = 0.02993645
#
# Stress axis : x y z
#
# Youngs Moduli (GPa) = 86.68768 48.43008 66.65077
#
# Poissons Ratio (x) = 0.13699 0.17720
# Poissons Ratio (y) = 0.24520 0.20917
# Poissons Ratio (z) = 0.23047 0.15199
#
# Static dielectric constant tensor:
#      x y z
#    x 3.675440 0.000000 0.000000 
#    y 0.000000 3.591580 0.000000 
#    z 0.000000 0.000000 3.598200 
# 
# 
# High freq. dielectric constant tensor:
#      x y z
#    x 1.766390 0.000000 0.000000 
#    y 0.000000 1.760590 0.000000 
#    z 0.000000 0.000000 1.768150 
# 
# From -- ./inp_files/5347.got.cif
#   From: 2010.03.12/outbox.cif.g09.slc.cpg/sg61_3_cif.got.tgz:5347.got - 2010.04.10 19:05:03.
