data_PCOD8249703
_publ_section_title
;
Structure prediction by ZEFSAII (Michael W. Deem and Ramdas Pophale) SiO2 
 PCOD8249703
Probable space group: P B C A
;
_chemical_formula_sum "Si O2"
_cell_formula_units_Z 48
_cell_length_a 12.796873
_cell_length_b 12.477485
_cell_length_c 14.969068
_cell_angle_alpha 90.000000
_cell_angle_beta 90.000000
_cell_angle_gamma 90.000000
_cell_volume 2390.152865
_symmetry_space_group_name_H-M "P B C A"
_symmetry_group_IT_number 61
_symmetry_cell_setting 'orthorhombic'
loop_
_space_group_symop_operation_xyz
x,y,z
1/2-x,-y,1/2+z
1/2+x,1/2-y,-z
-x,1/2+y,1/2-z
-x,-y,-z
1/2+x,y,1/2-z
1/2-x,1/2+y,z
x,1/2-y,1/2+z
loop_
_atom_site_type_symbol
_atom_site_label
_atom_site_fract_x
_atom_site_fract_y
_atom_site_fract_z
Si Si1 0.845680 0.000846 0.730180
Si Si2 0.999856 0.821181 0.008127
Si Si3 0.982320 0.324691 0.155629
Si Si4 0.361920 0.504532 0.072013
Si Si5 0.154081 0.995312 0.659105
Si Si6 0.514909 0.180722 0.176618
O O1 0.906265 0.002130 0.826202
O O2 0.883257 0.895788 0.676552
O O3 0.877695 0.107977 0.677055
O O4 0.720739 0.998162 0.747573
O O5 0.968745 0.771276 0.102866
O O6 0.097249 0.902448 0.016897
O O7 0.033283 0.727506 0.940980
O O8 0.898700 0.885135 0.973085
O O9 0.000982 0.232268 0.226896
O O10 0.082841 0.400826 0.153986
O O11 0.235104 0.503384 0.075403
O O12 0.088542 0.886917 0.654062
#
# Coordination Sequence:
#
# PCOD8249703 Si02
#       6
#     8   8   8   8   8   8
#     4   9  20  40  63  84 126 170 198 251 314 362
#     4  11  22  37  66  90 120 163 214 253 314 362
#     4  11  21  39  65  92 124 165 207 257 308 369
#     4   9  20  41  63  86 123 168 198 253 311 369
#     4   9  22  41  64  87 133 166 200 263 313 355
#     4  11  21  39  65  92 124 165 207 257 308 369
#
# _framework density 20.082398000000001
#
# number of rings (size 3 to 8) (size 9 to 14) (size 15 to 20)
#    1.000    1.000    3.333    0.000    0.000    8.000 
#    0.000   10.000    0.000    0.000    0.000    0.000 
#    0.000    0.000    0.000    0.000    0.000    0.000 
#
# Total GULP energy -595099.069152 kJ/mol
# GULP energy per Si atom -12397.897274 kJ/mol
# Density = 2.003669 g / cm^3
# Si number density = 20.082398 Si / 1000 Ang^3
#
#
#
# Elastic Constant Matrix: (Units=GPa)
#
#
# Indices 1 2 3 4 5 6 
#
# 1 95.5316 34.9930 20.0061 0.0000 0.0000 0.0000
# 2 34.9930 101.2190 16.8853 0.0000 0.0000 0.0000
# 3 20.0061 16.8853 56.8647 0.0000 0.0000 0.0000
# 4 0.0000 0.0000 0.0000 41.3050 0.0000 0.0000
# 5 0.0000 0.0000 0.0000 0.0000 26.2251 0.0000
# 6 0.0000 0.0000 0.0000 0.0000 0.0000 15.7621
#
#
#
# Elastic Compliance Matrix: (Units=1/GPa)
#
#
# Indices 1 2 3 4 5 6 
#
# 1 0.012544 -0.003788 -0.003288 0.000000 0.000000 0.000000
# 2 -0.003788 0.011538 -0.002093 0.000000 0.000000 0.000000
# 3 -0.003288 -0.002093 0.019364 0.000000 0.000000 0.000000
# 4 0.000000 0.000000 0.000000 0.024210 0.000000 0.000000
# 5 0.000000 0.000000 0.000000 0.000000 0.038131 0.000000
# 6 0.000000 0.000000 0.000000 0.000000 0.000000 0.063443
#
#
# Mechanical properties :
#
#
# Convention : Reuss Voigt Hill
#
# Bulk Modulus (GPa) = 39.83011 44.15379 41.99195
# Shear Modulus (GPa) = 25.51801 28.77384 27.14592
#
# Velocity S-wave (km/s) = 3.56851 3.78933 3.68057
# Velocity P-wave (km/s) = 6.07086 6.41712 6.24639
#
# Compressibility (1/GPa) = 0.02510663
#
# Stress axis : x y z
#
# Youngs Moduli (GPa) = 79.71972 86.66714 51.64187
#
# Poissons Ratio (x) = 0.32830 0.16982
# Poissons Ratio (y) = 0.30198 0.10811
# Poissons Ratio (z) = 0.26215 0.18144
#
# Static dielectric constant tensor:
#      x y z
#    x 3.393560 0.000000 0.000000 
#    y 0.000000 3.664100 0.000000 
#    z 0.000000 0.000000 3.537490 
# 
# 
# High freq. dielectric constant tensor:
#      x y z
#    x 1.765480 0.000000 0.000000 
#    y 0.000000 1.797980 0.000000 
#    z 0.000000 0.000000 1.775670 
# 
# From -- ./inp_files/9172.got.cif
#   From: 2010.03.12/outbox.cif.g09.slc.cpg/sg61_5_cif.got.tgz:9172.got - 2010.04.10 19:05:03.
