data_PCOD8249745
_publ_section_title
;
Structure prediction by ZEFSAII (Michael W. Deem and Ramdas Pophale) SiO2 
 PCOD8249745
Probable space group: P B C A
;
_chemical_formula_sum "Si O2"
_cell_formula_units_Z 48
_cell_length_a 12.842779
_cell_length_b 12.430316
_cell_length_c 13.971416
_cell_angle_alpha 90.000000
_cell_angle_beta 90.000000
_cell_angle_gamma 90.000000
_cell_volume 2230.394074
_symmetry_space_group_name_H-M "P B C A"
_symmetry_group_IT_number 61
_symmetry_cell_setting 'orthorhombic'
loop_
_space_group_symop_operation_xyz
x,y,z
1/2-x,-y,1/2+z
1/2+x,1/2-y,-z
-x,1/2+y,1/2-z
-x,-y,-z
1/2+x,y,1/2-z
1/2-x,1/2+y,z
x,1/2-y,1/2+z
loop_
_atom_site_type_symbol
_atom_site_label
_atom_site_fract_x
_atom_site_fract_y
_atom_site_fract_z
Si Si1 0.445277 0.634541 0.167596
Si Si2 0.381034 0.515563 0.894499
Si Si3 0.946801 0.311667 0.855377
Si Si4 0.614519 0.254685 0.018960
Si Si5 0.804335 0.133990 0.938978
Si Si6 0.227064 0.532205 0.201441
O O1 0.504835 0.524621 0.138287
O O2 0.507523 0.699576 0.248658
O O3 0.330157 0.604533 0.201524
O O4 0.441963 0.716110 0.079654
O O5 0.378558 0.642569 0.911085
O O6 0.298822 0.487967 0.811784
O O7 0.351370 0.457917 0.993496
O O8 0.896419 0.200317 0.889920
O O9 0.863288 0.407038 0.857430
O O10 0.042656 0.334887 0.928305
O O11 0.729908 0.210182 0.001707
O O12 0.739855 0.080286 0.852985
#
# Coordination Sequence:
#
# PCOD8249745 Si02
#       6
#     8   8   8   8   8   8
#     4  11  22  44  68  96 139 173 226 282 337 410
#     4  11  24  43  70  95 136 187 220 283 351 404
#     4  11  25  42  68 103 132 178 234 276 342 410
#     4  12  24  43  71  98 136 179 228 279 348 406
#     4  12  23  44  69  99 139 178 232 283 342 412
#     4  11  25  45  65 100 139 175 230 286 340 407
#
# _framework density 21.520859999999999
#
# number of rings (size 3 to 8) (size 9 to 14) (size 15 to 20)
#    0.000    0.667    5.000    2.500    2.333    3.333 
#    3.000    0.000    0.000    0.000    0.000    0.000 
#    0.000    0.000    0.000    0.000    0.000    0.000 
#
# Total GULP energy -595416.341067 kJ/mol
# GULP energy per Si atom -12404.507106 kJ/mol
# Density = 2.147188 g / cm^3
# Si number density = 21.520860 Si / 1000 Ang^3
#
#
#
# Elastic Constant Matrix: (Units=GPa)
#
#
# Indices 1 2 3 4 5 6 
#
# 1 110.3503 28.0916 46.3719 0.0000 0.0000 0.0000
# 2 28.0916 55.3209 21.6674 0.0000 0.0000 0.0000
# 3 46.3719 21.6674 104.8240 0.0000 0.0000 0.0000
# 4 0.0000 0.0000 0.0000 37.1759 0.0000 0.0000
# 5 0.0000 0.0000 0.0000 0.0000 40.9961 0.0000
# 6 0.0000 0.0000 0.0000 0.0000 0.0000 31.1591
#
#
#
# Elastic Compliance Matrix: (Units=1/GPa)
#
#
# Indices 1 2 3 4 5 6 
#
# 1 0.012034 -0.004380 -0.004418 0.000000 0.000000 0.000000
# 2 -0.004380 0.021263 -0.002457 0.000000 0.000000 0.000000
# 3 -0.004418 -0.002457 0.012002 0.000000 0.000000 0.000000
# 4 0.000000 0.000000 0.000000 0.026899 0.000000 0.000000
# 5 0.000000 0.000000 0.000000 0.000000 0.024393 0.000000
# 6 0.000000 0.000000 0.000000 0.000000 0.000000 0.032093
#
#
# Mechanical properties :
#
#
# Convention : Reuss Voigt Hill
#
# Bulk Modulus (GPa) = 43.88350 51.41744 47.65047
# Shear Modulus (GPa) = 31.48787 33.49050 32.48919
#
# Velocity S-wave (km/s) = 3.82924 3.94913 3.88965
# Velocity P-wave (km/s) = 6.32346 6.68865 6.50862
#
# Compressibility (1/GPa) = 0.02278761
#
# Stress axis : x y z
#
# Youngs Moduli (GPa) = 83.10004 47.02985 83.31801
#
# Poissons Ratio (x) = 0.20600 0.36810
# Poissons Ratio (y) = 0.36400 0.20475
# Poissons Ratio (z) = 0.36714 0.11557
#
# Static dielectric constant tensor:
#      x y z
#    x 4.132530 0.000000 0.000000 
#    y 0.000000 3.695520 0.000000 
#    z 0.000000 0.000000 4.046260 
# 
# 
# High freq. dielectric constant tensor:
#      x y z
#    x 1.863150 0.000000 0.000000 
#    y 0.000000 1.829800 0.000000 
#    z 0.000000 0.000000 1.858260 
# 
# From -- ./inp_files/7795.got.cif
#   From: 2010.03.12/outbox.cif.g09.slc.cpg/sg61_4_cif.got.tgz:7795.got - 2010.04.10 19:05:03.
