data_PCOD8249077
_publ_section_title
;
Structure prediction by ZEFSAII (Michael W. Deem and Ramdas Pophale) SiO2 
 PCOD8249077
Probable space group: P B C A
;
_chemical_formula_sum "Si O2"
_cell_formula_units_Z 56
_cell_length_a 19.428604
_cell_length_b 16.192216
_cell_length_c 8.734042
_cell_angle_alpha 90.000000
_cell_angle_beta 90.000000
_cell_angle_gamma 90.000000
_cell_volume 2747.661073
_symmetry_space_group_name_H-M "P B C A"
_symmetry_group_IT_number 61
_symmetry_cell_setting 'orthorhombic'
loop_
_space_group_symop_operation_xyz
x,y,z
1/2-x,-y,1/2+z
1/2+x,1/2-y,-z
-x,1/2+y,1/2-z
-x,-y,-z
1/2+x,y,1/2-z
1/2-x,1/2+y,z
x,1/2-y,1/2+z
loop_
_atom_site_type_symbol
_atom_site_label
_atom_site_fract_x
_atom_site_fract_y
_atom_site_fract_z
Si Si1 0.605559 0.657372 0.353574
Si Si2 0.451636 0.859492 0.795627
Si Si3 0.805898 0.662600 0.730359
Si Si4 0.387451 0.739124 0.031801
Si Si5 0.149270 0.678509 0.809165
Si Si6 0.706356 0.984496 0.870696
Si Si7 0.842028 0.999285 0.718412
O O1 0.531782 0.619730 0.309350
O O2 0.616327 0.746142 0.279455
O O3 0.609709 0.673023 0.532444
O O4 0.661075 0.589547 0.299628
O O5 0.440509 0.806996 0.642284
O O6 0.409846 0.944557 0.786538
O O7 0.428297 0.811421 0.946909
O O8 0.824951 0.721859 0.871719
O O9 0.858013 0.674200 0.590060
O O10 0.731045 0.690332 0.671781
O O11 0.811298 0.568347 0.782365
O O12 0.136678 0.590894 0.722757
O O13 0.786273 0.961322 0.836985
O O14 0.693926 0.993105 0.051527
#
# Coordination Sequence:
#
# PCOD8249077 Si02
#       7
#     8   8   8   8   8   8   8
#     4  11  24  42  62  91 127 168 206 254 319 380
#     4  11  23  42  62  92 127 167 206 255 317 382
#     4  10  20  40  62  96 117 159 212 262 312 359
#     4  10  22  37  66  88 123 162 207 259 309 378
#     4  10  23  39  64  89 122 163 208 259 311 373
#     4  10  23  40  63  92 124 161 211 264 311 368
#     4  10  23  41  64  92 123 165 211 263 313 371
#
# _framework density 20.380972
#
# number of rings (size 3 to 8) (size 9 to 14) (size 15 to 20)
#    0.000    1.714    1.429    1.714   10.000    4.571 
#    5.143    0.714    0.000    0.000    0.000    0.000 
#    0.000    0.000    0.000    0.000    0.000    0.000 
#
# Total GULP energy -694469.909510 kJ/mol
# GULP energy per Si atom -12401.248384 kJ/mol
# Density = 2.033458 g / cm^3
# Si number density = 20.380972 Si / 1000 Ang^3
#
#
#
# Elastic Constant Matrix: (Units=GPa)
#
#
# Indices 1 2 3 4 5 6 
#
# 1 109.3469 58.8194 11.2047 0.0000 0.0000 0.0000
# 2 58.8194 116.4065 27.5527 0.0000 0.0000 0.0000
# 3 11.2047 27.5527 41.7933 0.0000 0.0000 0.0000
# 4 0.0000 0.0000 0.0000 30.4164 0.0000 0.0000
# 5 0.0000 0.0000 0.0000 0.0000 25.4114 0.0000
# 6 0.0000 0.0000 0.0000 0.0000 0.0000 23.4111
#
#
#
# Elastic Compliance Matrix: (Units=1/GPa)
#
#
# Indices 1 2 3 4 5 6 
#
# 1 0.012592 -0.006592 0.000970 0.000000 0.000000 0.000000
# 2 -0.006592 0.013630 -0.007218 0.000000 0.000000 0.000000
# 3 0.000970 -0.007218 0.028426 0.000000 0.000000 0.000000
# 4 0.000000 0.000000 0.000000 0.032877 0.000000 0.000000
# 5 0.000000 0.000000 0.000000 0.000000 0.039352 0.000000
# 6 0.000000 0.000000 0.000000 0.000000 0.000000 0.042715
#
#
# Mechanical properties :
#
#
# Convention : Reuss Voigt Hill
#
# Bulk Modulus (GPa) = 34.52205 51.41113 42.96659
# Shear Modulus (GPa) = 24.39870 27.17911 25.78890
#
# Velocity S-wave (km/s) = 3.46371 3.65575 3.56102
# Velocity P-wave (km/s) = 5.74209 6.56499 6.16728
#
# Compressibility (1/GPa) = 0.02896699
#
# Stress axis : x y z
#
# Youngs Moduli (GPa) = 79.41646 73.36671 35.17896
#
# Poissons Ratio (x) = 0.48365 -0.03413
# Poissons Ratio (y) = 0.52353 0.25394
# Poissons Ratio (z) = -0.07705 0.52960
#
# Static dielectric constant tensor:
#      x y z
#    x 3.669620 0.000000 0.000000 
#    y 0.000000 3.973750 0.000000 
#    z 0.000000 0.000000 3.721540 
# 
# 
# High freq. dielectric constant tensor:
#      x y z
#    x 1.789940 0.000000 0.000000 
#    y 0.000000 1.808630 0.000000 
#    z 0.000000 0.000000 1.797170 
# 
# From -- ./inp_files/3951.got.cif
#   From: 2010.03.12/outbox.cif.g09.slc.cpg/sg61_2_cif.got.tgz:3951.got - 2010.04.10 19:05:03.
