data_PCOD8249936
_publ_section_title
;
Structure prediction by ZEFSAII (Michael W. Deem and Ramdas Pophale) SiO2 
 PCOD8249936
Probable space group: P N M A
;
_chemical_formula_sum "Si O2"
_cell_formula_units_Z 48
_cell_length_a 5.142001
_cell_length_b 28.642819
_cell_length_c 15.650229
_cell_angle_alpha 90.000000
_cell_angle_beta 90.000000
_cell_angle_gamma 90.000000
_cell_volume 2304.987699
_symmetry_space_group_name_H-M "P N M A"
_symmetry_group_IT_number 62
_symmetry_cell_setting 'orthorhombic'
loop_
_space_group_symop_operation_xyz
x,y,z
1/2-x,-y,1/2+z
1/2+x,1/2-y,1/2-z
-x,1/2+y,-z
-x,-y,-z
1/2+x,y,1/2-z
1/2-x,1/2+y,1/2+z
x,1/2-y,z
loop_
_atom_site_type_symbol
_atom_site_label
_atom_site_fract_x
_atom_site_fract_y
_atom_site_fract_z
Si Si1 0.880127 0.250000 0.375306
Si Si2 0.617860 0.750000 0.509461
Si Si3 0.027146 0.152769 0.971180
Si Si4 0.296644 0.150853 0.140398
Si Si5 0.304276 0.100467 0.383873
Si Si6 0.660764 0.097696 0.694088
Si Si7 0.393607 0.493298 0.304484
O O1 0.651187 0.250000 0.442105
O O2 0.854303 0.297754 0.318639
O O3 0.156322 0.250000 0.421346
O O4 0.621015 0.797740 0.453804
O O5 0.128255 0.134084 0.881781
O O6 0.826642 0.116111 0.016773
O O7 0.268997 0.158770 0.037001
O O8 0.532183 0.115440 0.157684
O O9 0.027355 0.127232 0.173269
O O10 0.339267 0.044727 0.378197
O O11 0.443593 0.106258 0.766016
O O12 0.639979 0.045108 0.656621
O O13 0.687282 0.486377 0.271875
#
# Coordination Sequence:
#
# PCOD8249936 Si02
#       7
#     4   4   8   8   8   8   8
#     4  10  14  30  46  77 109 136 164 210 269 319
#     4  10  18  30  54  79 107 140 172 220 265 317
#     4   9  21  34  56  82 109 136 186 221 269 311
#     4   9  18  29  51  82 104 133 172 222 262 307
#     4  10  19  32  55  82 107 133 183 224 267 309
#     4  10  23  38  56  74 109 150 180 220 273 323
#     4  10  21  39  55  77 108 147 181 215 272 331
#
# _framework density 20.824406
#
# number of rings (size 3 to 8) (size 9 to 14) (size 15 to 20)
#    1.000    1.333    1.667    1.000    2.333    0.667 
#    0.000    1.667    0.000    0.000    0.000   19.833 
#    0.000    0.000    0.000    0.000    0.000    0.000 
#
# Total GULP energy -594702.282479 kJ/mol
# GULP energy per Si atom -12389.630885 kJ/mol
# Density = 2.077701 g / cm^3
# Si number density = 20.824406 Si / 1000 Ang^3
#
#
#
# Elastic Constant Matrix: (Units=GPa)
#
#
# Indices 1 2 3 4 5 6 
#
# 1 137.8683 -3.8882 -21.1053 0.0000 0.0000 0.0000
# 2 -3.8882 103.6095 23.3830 0.0000 0.0000 0.0000
# 3 -21.1053 23.3830 33.0364 0.0000 0.0000 0.0000
# 4 0.0000 0.0000 0.0000 20.6904 0.0000 0.0000
# 5 0.0000 0.0000 0.0000 0.0000 -0.2548 0.0000
# 6 0.0000 0.0000 0.0000 0.0000 0.0000 26.5755
#
#
#
# Elastic Compliance Matrix: (Units=1/GPa)
#
#
# Indices 1 2 3 4 5 6 
#
# 1 0.008131 -0.001032 0.005925 0.000000 0.000000 0.000000
# 2 -0.001032 0.011617 -0.008882 0.000000 0.000000 0.000000
# 3 0.005925 -0.008882 0.040342 0.000000 0.000000 0.000000
# 4 0.000000 0.000000 0.000000 0.048332 0.000000 0.000000
# 5 0.000000 0.000000 0.000000 0.000000 -3.924873 0.000000
# 6 0.000000 0.000000 0.000000 0.000000 0.000000 0.037629
#
#
# Mechanical properties :
#
#
# Convention : Reuss Voigt Hill
#
# Bulk Modulus (GPa) = 19.18936 30.14370 24.66653
# Shear Modulus (GPa) = -1.33210 27.81052 13.23921
#
# Velocity S-wave (km/s) = -0.80067 3.65838 2.52415
# Velocity P-wave (km/s) = 2.89484 5.68785 4.51285
#
# Compressibility (1/GPa) = 0.05211220
#
# Stress axis : x y z
#
# Youngs Moduli (GPa) = 122.98269 86.07748 24.78829
#
# Poissons Ratio (x) = 0.08884 -0.14687
# Poissons Ratio (y) = 0.12693 0.22017
# Poissons Ratio (z) = -0.72869 0.76455
#
# Static dielectric constant tensor:
#      x y z
#    x 3.797760 0.000000 0.000000 
#    y 0.000000 4.202660 0.000000 
#    z 0.000000 0.000000 3.069460 
# 
# 
# High freq. dielectric constant tensor:
#      x y z
#    x 1.827700 0.000000 0.000000 
#    y 0.000000 1.829420 0.000000 
#    z 0.000000 0.000000 1.752460 
# 
# From -- ./inp_files/25433.got.cif
#   From: 2010.03.12/outbox.cif.g09.slc.cpg/sg62_13_cif.got.tgz:25433.got - 2010.04.10 19:12:36.
