data_PCOD8249437
_publ_section_title
;
Structure prediction by ZEFSAII (Michael W. Deem and Ramdas Pophale) SiO2 
 PCOD8249437
Probable space group: P B C A
;
_chemical_formula_sum "Si O2"
_cell_formula_units_Z 64
_cell_length_a 16.698043
_cell_length_b 14.381203
_cell_length_c 11.999598
_cell_angle_alpha 90.000000
_cell_angle_beta 90.000000
_cell_angle_gamma 90.000000
_cell_volume 2881.558818
_symmetry_space_group_name_H-M "P B C A"
_symmetry_group_IT_number 61
_symmetry_cell_setting 'orthorhombic'
loop_
_space_group_symop_operation_xyz
x,y,z
1/2-x,-y,1/2+z
1/2+x,1/2-y,-z
-x,1/2+y,1/2-z
-x,-y,-z
1/2+x,y,1/2-z
1/2-x,1/2+y,z
x,1/2-y,1/2+z
loop_
_atom_site_type_symbol
_atom_site_label
_atom_site_fract_x
_atom_site_fract_y
_atom_site_fract_z
Si Si1 0.313236 0.335813 0.607555
Si Si2 0.567189 0.431079 0.125150
Si Si3 0.130258 0.633233 0.349386
Si Si4 0.232330 0.865560 0.053098
Si Si5 0.396496 0.657675 0.647678
Si Si6 0.365282 0.866758 0.605235
Si Si7 0.394065 0.048608 0.695640
Si Si8 0.924336 0.335773 0.098400
O O1 0.346135 0.376851 0.721888
O O2 0.298075 0.226225 0.617304
O O3 0.228737 0.383005 0.578999
O O4 0.381127 0.358594 0.516912
O O5 0.580200 0.542148 0.115348
O O6 0.614363 0.387704 0.230315
O O7 0.473646 0.408276 0.140884
O O8 0.591474 0.378834 0.013208
O O9 0.212131 0.639590 0.421780
O O10 0.078846 0.726698 0.369558
O O11 0.326966 0.884141 0.067932
O O12 0.180594 0.944782 0.111368
O O13 0.383817 0.767349 0.657989
O O14 0.482531 0.633803 0.593283
O O15 0.400056 0.936343 0.700688
O O16 0.378200 0.098997 0.812533
#
# Coordination Sequence:
#
# PCOD8249437 Si02
#       8
#     8   8   8   8   8   8   8   8
#     4  10  24  40  64  99 131 177 217 270 344 389
#     4  11  25  40  68 101 130 176 229 273 331 408
#     4  11  22  41  69  97 134 178 224 274 328 407
#     4  10  22  41  67  92 131 170 222 270 325 399
#     4  10  25  42  64 101 135 171 224 284 341 388
#     4  11  24  40  68  98 133 175 228 274 328 402
#     4  11  22  43  69 100 128 175 228 268 329 401
#     4  10  23  43  70  98 139 177 215 284 339 394
#
# _framework density 22.210201000000001
#
# number of rings (size 3 to 8) (size 9 to 14) (size 15 to 20)
#    0.000    1.500    2.500    1.125    7.000    3.000 
#    0.000    5.000    0.000    0.000    0.000    0.000 
#    0.000    0.000    0.000    0.000    0.000    0.000 
#
# Total GULP energy -793594.411896 kJ/mol
# GULP energy per Si atom -12399.912686 kJ/mol
# Density = 2.215965 g / cm^3
# Si number density = 22.210201 Si / 1000 Ang^3
#
#
#
# Elastic Constant Matrix: (Units=GPa)
#
#
# Indices 1 2 3 4 5 6 
#
# 1 114.7551 17.4540 44.6025 0.0000 0.0000 0.0000
# 2 17.4540 79.9181 41.1388 0.0000 0.0000 0.0000
# 3 44.6025 41.1388 113.9514 0.0000 0.0000 0.0000
# 4 0.0000 0.0000 0.0000 31.5238 0.0000 0.0000
# 5 0.0000 0.0000 0.0000 0.0000 29.0965 0.0000
# 6 0.0000 0.0000 0.0000 0.0000 0.0000 25.3383
#
#
#
# Elastic Compliance Matrix: (Units=1/GPa)
#
#
# Indices 1 2 3 4 5 6 
#
# 1 0.010281 -0.000214 -0.003947 0.000000 0.000000 0.000000
# 2 -0.000214 0.015373 -0.005467 0.000000 0.000000 0.000000
# 3 -0.003947 -0.005467 0.012294 0.000000 0.000000 0.000000
# 4 0.000000 0.000000 0.000000 0.031722 0.000000 0.000000
# 5 0.000000 0.000000 0.000000 0.000000 0.034368 0.000000
# 6 0.000000 0.000000 0.000000 0.000000 0.000000 0.039466
#
#
# Mechanical properties :
#
#
# Convention : Reuss Voigt Hill
#
# Bulk Modulus (GPa) = 53.49256 57.22393 55.35825
# Shear Modulus (GPa) = 29.58749 30.88699 30.23724
#
# Velocity S-wave (km/s) = 3.65383 3.73321 3.69374
# Velocity P-wave (km/s) = 6.47593 6.66357 6.57042
#
# Compressibility (1/GPa) = 0.01869419
#
# Stress axis : x y z
#
# Youngs Moduli (GPa) = 97.26882 65.04731 81.33968
#
# Poissons Ratio (x) = 0.01389 0.32105
# Poissons Ratio (y) = 0.02077 0.44465
# Poissons Ratio (z) = 0.38392 0.35558
#
# Static dielectric constant tensor:
#      x y z
#    x 4.099560 0.000000 0.000000 
#    y 0.000000 4.047320 0.000000 
#    z 0.000000 0.000000 3.825670 
# 
# 
# High freq. dielectric constant tensor:
#      x y z
#    x 1.880340 0.000000 0.000000 
#    y 0.000000 1.880790 0.000000 
#    z 0.000000 0.000000 1.862700 
# 
# From -- ./inp_files/6283.got.cif
#   From: 2010.03.12/outbox.cif.g09.slc.cpg/sg61_4_cif.got.tgz:6283.got - 2010.04.10 19:05:03.
