data_PCOD8249418
_publ_section_title
;
Structure prediction by ZEFSAII (Michael W. Deem and Ramdas Pophale) SiO2 
 PCOD8249418
Probable space group: P B C A
;
_chemical_formula_sum "Si O2"
_cell_formula_units_Z 48
_cell_length_a 10.990218
_cell_length_b 8.993796
_cell_length_c 22.506506
_cell_angle_alpha 90.000000
_cell_angle_beta 90.000000
_cell_angle_gamma 90.000000
_cell_volume 2224.628098
_symmetry_space_group_name_H-M "P B C A"
_symmetry_group_IT_number 61
_symmetry_cell_setting 'orthorhombic'
loop_
_space_group_symop_operation_xyz
x,y,z
1/2-x,-y,1/2+z
1/2+x,1/2-y,-z
-x,1/2+y,1/2-z
-x,-y,-z
1/2+x,y,1/2-z
1/2-x,1/2+y,z
x,1/2-y,1/2+z
loop_
_atom_site_type_symbol
_atom_site_label
_atom_site_fract_x
_atom_site_fract_y
_atom_site_fract_z
Si Si1 0.295531 0.506308 0.167878
Si Si2 0.581683 0.799001 0.852372
Si Si3 0.187599 0.675336 0.868800
Si Si4 0.840819 0.882611 0.701089
Si Si5 0.022049 0.354981 0.577531
Si Si6 0.417077 0.669749 0.947900
O O1 0.155064 0.544874 0.151520
O O2 0.321648 0.331481 0.162211
O O3 0.327104 0.551460 0.234363
O O4 0.374036 0.602778 0.123054
O O5 0.472348 0.802206 0.804217
O O6 0.521893 0.769671 0.916832
O O7 0.171251 0.505083 0.850649
O O8 0.233155 0.764207 0.810302
O O9 0.058073 0.728841 0.891924
O O10 0.285000 0.702339 0.921158
O O11 0.939127 0.495685 0.562205
O O12 0.083070 0.290396 0.517538
#
# Coordination Sequence:
#
# PCOD8249418 Si02
#       6
#     8   8   8   8   8   8
#     4  11  25  41  66  93 134 173 218 274 330 390
#     4  10  25  43  62  99 127 170 221 270 331 389
#     4  11  22  43  66  99 126 179 215 270 336 384
#     4  11  25  41  67  93 136 171 225 264 328 404
#     4  10  22  40  68  92 128 174 211 275 331 383
#     4   9  21  44  64  95 130 163 223 272 323 401
#
# _framework density 21.576640999999999
#
# number of rings (size 3 to 8) (size 9 to 14) (size 15 to 20)
#    0.000    1.667    1.667    1.000    9.333    0.000 
#    0.000    3.333    0.000    0.000    0.000    0.000 
#    0.000    0.000    0.000    0.000    0.000    0.000 
#
# Total GULP energy -595314.701729 kJ/mol
# GULP energy per Si atom -12402.389619 kJ/mol
# Density = 2.152753 g / cm^3
# Si number density = 21.576641 Si / 1000 Ang^3
#
#
#
# Elastic Constant Matrix: (Units=GPa)
#
#
# Indices 1 2 3 4 5 6 
#
# 1 64.9210 22.2987 34.2953 0.0000 0.0000 0.0000
# 2 22.2987 68.6187 9.2476 0.0000 0.0000 0.0000
# 3 34.2953 9.2476 100.6383 0.0000 0.0000 0.0000
# 4 0.0000 0.0000 0.0000 -9.4231 0.0000 0.0000
# 5 0.0000 0.0000 0.0000 0.0000 23.3872 0.0000
# 6 0.0000 0.0000 0.0000 0.0000 0.0000 42.1441
#
#
#
# Elastic Compliance Matrix: (Units=1/GPa)
#
#
# Indices 1 2 3 4 5 6 
#
# 1 0.020910 -0.005908 -0.006583 0.000000 0.000000 0.000000
# 2 -0.005908 0.016425 0.000504 0.000000 0.000000 0.000000
# 3 -0.006583 0.000504 0.012134 0.000000 0.000000 0.000000
# 4 0.000000 0.000000 0.000000 -0.106122 0.000000 0.000000
# 5 0.000000 0.000000 0.000000 0.000000 0.042758 0.000000
# 6 0.000000 0.000000 0.000000 0.000000 0.000000 0.023728
#
#
# Mechanical properties :
#
#
# Convention : Reuss Voigt Hill
#
# Bulk Modulus (GPa) = 39.22284 40.65125 39.93704
# Shear Modulus (GPa) = 118.18795 22.44406 70.31601
#
# Velocity S-wave (km/s) = 7.40910 3.22871 5.71487
# Velocity P-wave (km/s) = 9.56090 5.72545 7.88009
#
# Compressibility (1/GPa) = 0.02549535
#
# Stress axis : x y z
#
# Youngs Moduli (GPa) = 47.82409 60.88195 82.41625
#
# Poissons Ratio (x) = 0.35968 0.54253
# Poissons Ratio (y) = 0.28254 -0.04154
# Poissons Ratio (z) = 0.31482 -0.03068
#
# Static dielectric constant tensor:
#      x y z
#    x 3.878810 0.000000 0.000000 
#    y 0.000000 3.906420 0.000000 
#    z 0.000000 0.000000 3.901370 
# 
# 
# High freq. dielectric constant tensor:
#      x y z
#    x 1.850140 0.000000 0.000000 
#    y 0.000000 1.845470 0.000000 
#    z 0.000000 0.000000 1.847250 
# 
# From -- ./inp_files/4852.got.cif
#   From: 2010.03.12/outbox.cif.g09.slc.cpg/sg61_3_cif.got.tgz:4852.got - 2010.04.10 19:05:03.
