data_PCOD8249560
_publ_section_title
;
Structure prediction by ZEFSAII (Michael W. Deem and Ramdas Pophale) SiO2 
 PCOD8249560
Probable space group: P B C A
;
_chemical_formula_sum "Si O2"
_cell_formula_units_Z 40
_cell_length_a 22.259344
_cell_length_b 7.600049
_cell_length_c 9.497136
_cell_angle_alpha 90.000000
_cell_angle_beta 90.000000
_cell_angle_gamma 90.000000
_cell_volume 1606.650490
_symmetry_space_group_name_H-M "P B C A"
_symmetry_group_IT_number 61
_symmetry_cell_setting 'orthorhombic'
loop_
_space_group_symop_operation_xyz
x,y,z
1/2-x,-y,1/2+z
1/2+x,1/2-y,-z
-x,1/2+y,1/2-z
-x,-y,-z
1/2+x,y,1/2-z
1/2-x,1/2+y,z
x,1/2-y,1/2+z
loop_
_atom_site_type_symbol
_atom_site_label
_atom_site_fract_x
_atom_site_fract_y
_atom_site_fract_z
Si Si1 0.358744 0.595909 0.658392
Si Si2 0.984350 0.459999 0.799662
Si Si3 0.178245 0.780788 0.833515
Si Si4 0.306750 0.888665 0.859043
Si Si5 0.448871 0.243602 0.942228
O O1 0.430095 0.600640 0.685038
O O2 0.333869 0.401453 0.696677
O O3 0.326234 0.746173 0.745539
O O4 0.348747 0.626761 0.494300
O O5 0.988522 0.392910 0.638348
O O6 0.043847 0.558265 0.854833
O O7 0.970991 0.286313 0.897938
O O8 0.238212 0.853137 0.909138
O O9 0.188147 0.579570 0.786305
O O10 0.121268 0.796352 0.939283
#
# Coordination Sequence:
#
# PCOD8249560 Si02
#       5
#     8   8   8   8   8
#     4  11  27  45  69 108 137 190 236 289 356 417
#     4  10  23  45  68 100 138 177 233 286 350 415
#     4  11  25  45  68 104 143 186 230 292 347 421
#     4  12  26  44  73  99 145 187 239 288 354 422
#     4  10  23  43  69  98 138 175 229 287 344 417
#
# _framework density 24.896515000000001
#
# number of rings (size 3 to 8) (size 9 to 14) (size 15 to 20)
#    0.000    1.200    4.000    0.000    5.600    2.400 
#    3.600    0.000    0.000    0.000    0.000    0.000 
#    0.000    0.000    0.000    0.000    0.000    0.000 
#
# Total GULP energy -495952.106205 kJ/mol
# GULP energy per Si atom -12398.802655 kJ/mol
# Density = 2.483985 g / cm^3
# Si number density = 24.896515 Si / 1000 Ang^3
#
#
#
# Elastic Constant Matrix: (Units=GPa)
#
#
# Indices 1 2 3 4 5 6 
#
# 1 56.7529 4.2152 -6.0241 0.0000 0.0000 0.0000
# 2 4.2152 114.7462 22.8908 0.0000 0.0000 0.0000
# 3 -6.0241 22.8908 63.7928 0.0000 0.0000 0.0000
# 4 0.0000 0.0000 0.0000 22.9095 0.0000 0.0000
# 5 0.0000 0.0000 0.0000 0.0000 24.1008 0.0000
# 6 0.0000 0.0000 0.0000 0.0000 0.0000 42.3805
#
#
#
# Elastic Compliance Matrix: (Units=1/GPa)
#
#
# Indices 1 2 3 4 5 6 
#
# 1 0.017920 -0.001073 0.002077 0.000000 0.000000 0.000000
# 2 -0.001073 0.009451 -0.003493 0.000000 0.000000 0.000000
# 3 0.002077 -0.003493 0.017125 0.000000 0.000000 0.000000
# 4 0.000000 0.000000 0.000000 0.043650 0.000000 0.000000
# 5 0.000000 0.000000 0.000000 0.000000 0.041492 0.000000
# 6 0.000000 0.000000 0.000000 0.000000 0.000000 0.023596
#
#
# Mechanical properties :
#
#
# Convention : Reuss Voigt Hill
#
# Bulk Modulus (GPa) = 25.30343 30.82842 28.06592
# Shear Modulus (GPa) = 29.17419 32.15884 30.66651
#
# Velocity S-wave (km/s) = 3.42690 3.59792 3.51345
# Velocity P-wave (km/s) = 5.08367 5.44698 5.26845
#
# Compressibility (1/GPa) = 0.03952034
#
# Stress axis : x y z
#
# Youngs Moduli (GPa) = 55.80231 105.80858 58.39363
#
# Poissons Ratio (x) = 0.11350 -0.12129
# Poissons Ratio (y) = 0.05986 0.20395
# Poissons Ratio (z) = -0.11591 0.36955
#
# Static dielectric constant tensor:
#      x y z
#    x 4.688490 0.000000 0.000000 
#    y 0.000000 4.691010 0.000000 
#    z 0.000000 0.000000 4.097470 
# 
# 
# High freq. dielectric constant tensor:
#      x y z
#    x 2.000540 0.000000 0.000000 
#    y 0.000000 1.996290 0.000000 
#    z 0.000000 0.000000 1.969970 
# 
# From -- ./inp_files/4152.got.cif
#   From: 2010.03.12/outbox.cif.g09.slc.cpg/sg61_3_cif.got.tgz:4152.got - 2010.04.10 19:05:03.
