data_PCOD8249271
_publ_section_title
;
Structure prediction by ZEFSAII (Michael W. Deem and Ramdas Pophale) SiO2 
 PCOD8249271
Probable space group: P B C A
;
_chemical_formula_sum "Si O2"
_cell_formula_units_Z 40
_cell_length_a 22.006521
_cell_length_b 5.023717
_cell_length_c 13.431348
_cell_angle_alpha 90.000000
_cell_angle_beta 90.000000
_cell_angle_gamma 90.000000
_cell_volume 1484.896415
_symmetry_space_group_name_H-M "P B C A"
_symmetry_group_IT_number 61
_symmetry_cell_setting 'orthorhombic'
loop_
_space_group_symop_operation_xyz
x,y,z
1/2-x,-y,1/2+z
1/2+x,1/2-y,-z
-x,1/2+y,1/2-z
-x,-y,-z
1/2+x,y,1/2-z
1/2-x,1/2+y,z
x,1/2-y,1/2+z
loop_
_atom_site_type_symbol
_atom_site_label
_atom_site_fract_x
_atom_site_fract_y
_atom_site_fract_z
Si Si1 0.925500 0.124219 0.613562
Si Si2 0.786757 0.347433 0.074056
Si Si3 0.547174 0.260344 0.951103
Si Si4 0.582990 0.744427 0.830107
Si Si5 0.284665 0.111603 0.161500
O O1 0.931027 0.829680 0.561833
O O2 0.855805 0.212095 0.606403
O O3 0.947871 0.133566 0.728586
O O4 0.973460 0.323414 0.553213
O O5 0.756347 0.614911 0.116769
O O6 0.787708 0.372411 0.956444
O O7 0.587816 0.498785 0.908289
O O8 0.550291 0.997662 0.879252
O O9 0.649593 0.830639 0.795166
O O10 0.237247 0.328717 0.201968
#
# Coordination Sequence:
#
# PCOD8249271 Si02
#       5
#     8   8   8   8   8
#     4  11  26  46  73 102 139 185 232 287 347 418
#     4  10  23  40  67  98 133 176 224 279 340 405
#     4  11  27  46  69 104 141 181 231 289 351 406
#     4  12  25  45  71 101 139 183 235 285 349 414
#     4  10  21  40  65  95 135 179 220 282 342 399
#
# _framework density 26.937904
#
# number of rings (size 3 to 8) (size 9 to 14) (size 15 to 20)
#    0.000    1.200    2.000    2.400    5.600    9.600 
#    0.000    0.000    0.000    0.000    0.000    0.000 
#    0.000    0.000    0.000    0.000    0.000    0.000 
#
# Total GULP energy -495825.613891 kJ/mol
# GULP energy per Si atom -12395.640347 kJ/mol
# Density = 2.687659 g / cm^3
# Si number density = 26.937904 Si / 1000 Ang^3
#
#
#
# Elastic Constant Matrix: (Units=GPa)
#
#
# Indices 1 2 3 4 5 6 
#
# 1 136.1212 11.6769 -0.8651 0.0000 0.0000 0.0000
# 2 11.6769 91.5424 28.5584 0.0000 0.0000 0.0000
# 3 -0.8651 28.5584 96.0515 0.0000 0.0000 0.0000
# 4 0.0000 0.0000 0.0000 -36.5712 0.0000 0.0000
# 5 0.0000 0.0000 0.0000 0.0000 20.0602 0.0000
# 6 0.0000 0.0000 0.0000 0.0000 0.0000 45.7813
#
#
#
# Elastic Compliance Matrix: (Units=1/GPa)
#
#
# Indices 1 2 3 4 5 6 
#
# 1 0.007441 -0.001069 0.000385 0.000000 0.000000 0.000000
# 2 -0.001069 0.012194 -0.003635 0.000000 0.000000 0.000000
# 3 0.000385 -0.003635 0.011495 0.000000 0.000000 0.000000
# 4 0.000000 0.000000 0.000000 -0.027344 0.000000 0.000000
# 5 0.000000 0.000000 0.000000 0.000000 0.049850 0.000000
# 6 0.000000 0.000000 0.000000 0.000000 0.000000 0.021843
#
#
# Mechanical properties :
#
#
# Convention : Reuss Voigt Hill
#
# Bulk Modulus (GPa) = 44.46185 44.71728 44.58956
# Shear Modulus (GPa) = 54.57590 24.81040 39.69315
#
# Velocity S-wave (km/s) = 4.50598 3.03813 3.84279
# Velocity P-wave (km/s) = 6.60401 5.37988 6.02313
#
# Compressibility (1/GPa) = 0.02249119
#
# Stress axis : x y z
#
# Youngs Moduli (GPa) = 134.39855 82.00502 86.99126
#
# Poissons Ratio (x) = 0.08768 -0.03348
# Poissons Ratio (y) = 0.14370 0.31624
# Poissons Ratio (z) = -0.05173 0.29811
#
# Static dielectric constant tensor:
#      x y z
#    x 5.035660 0.000000 0.000000 
#    y 0.000000 4.617650 0.000000 
#    z 0.000000 0.000000 5.136180 
# 
# 
# High freq. dielectric constant tensor:
#      x y z
#    x 2.087380 0.000000 0.000000 
#    y 0.000000 2.081900 0.000000 
#    z 0.000000 0.000000 2.106120 
# 
# From -- ./inp_files/8444.got.cif
#   From: 2010.03.12/outbox.cif.g09.slc.cpg/sg61_5_cif.got.tgz:8444.got - 2010.04.10 19:05:03.
