data_PCOD8249637
_publ_section_title
;
Structure prediction by ZEFSAII (Michael W. Deem and Ramdas Pophale) SiO2 
 PCOD8249637
Probable space group: P B C A
;
_chemical_formula_sum "Si O2"
_cell_formula_units_Z 56
_cell_length_a 14.263248
_cell_length_b 8.567281
_cell_length_c 20.406374
_cell_angle_alpha 90.000000
_cell_angle_beta 90.000000
_cell_angle_gamma 90.000000
_cell_volume 2493.602859
_symmetry_space_group_name_H-M "P B C A"
_symmetry_group_IT_number 61
_symmetry_cell_setting 'orthorhombic'
loop_
_space_group_symop_operation_xyz
x,y,z
1/2-x,-y,1/2+z
1/2+x,1/2-y,-z
-x,1/2+y,1/2-z
-x,-y,-z
1/2+x,y,1/2-z
1/2-x,1/2+y,z
x,1/2-y,1/2+z
loop_
_atom_site_type_symbol
_atom_site_label
_atom_site_fract_x
_atom_site_fract_y
_atom_site_fract_z
Si Si1 0.691430 0.850718 0.921804
Si Si2 0.668607 0.325283 0.809530
Si Si3 0.666076 0.183909 0.597064
Si Si4 0.719262 0.887082 0.222422
Si Si5 0.007631 0.668643 0.157872
Si Si6 0.723852 0.580355 0.012478
Si Si7 0.979747 0.332037 0.214131
O O1 0.788378 0.870325 0.880083
O O2 0.604428 0.873612 0.875395
O O3 0.676474 0.683212 0.955951
O O4 0.692132 0.983300 0.977763
O O5 0.727880 0.176485 0.786172
O O6 0.680819 0.446258 0.748917
O O7 0.559003 0.276387 0.820260
O O8 0.707296 0.104772 0.662906
O O9 0.570526 0.280296 0.605901
O O10 0.737766 0.311936 0.570181
O O11 0.651328 0.044987 0.544066
O O12 0.628773 0.784556 0.197925
O O13 0.013085 0.814649 0.207260
O O14 0.985777 0.513148 0.197623
#
# Coordination Sequence:
#
# PCOD8249637 Si02
#       7
#     8   8   8   8   8   8   8
#     4  11  24  44  67  98 134 180 227 279 334 401
#     4  12  24  41  69  99 140 175 215 281 347 405
#     4  11  24  46  70  99 134 181 231 278 334 401
#     4  12  23  41  67 100 135 173 218 277 345 403
#     4  12  25  41  67 100 140 177 225 280 339 412
#     4  10  24  46  68  91 133 185 233 276 329 393
#     4  12  24  41  62 106 140 173 216 271 356 414
#
# _framework density 22.457464999999999
#
# number of rings (size 3 to 8) (size 9 to 14) (size 15 to 20)
#    0.000    0.571    4.286    4.286    0.000    2.286 
#    0.000    5.714    0.000    0.000    0.000    0.000 
#    0.000    0.000    0.000    0.000    0.000    0.000 
#
# Total GULP energy -693998.290934 kJ/mol
# GULP energy per Si atom -12392.826624 kJ/mol
# Density = 2.240635 g / cm^3
# Si number density = 22.457465 Si / 1000 Ang^3
#
#
#
# Elastic Constant Matrix: (Units=GPa)
#
#
# Indices 1 2 3 4 5 6 
#
# 1 66.0966 -18.1698 4.1476 0.0000 0.0000 0.0000
# 2 -18.1698 74.7638 30.8652 0.0000 0.0000 0.0000
# 3 4.1476 30.8652 82.5201 0.0000 0.0000 0.0000
# 4 0.0000 0.0000 0.0000 37.5925 0.0000 0.0000
# 5 0.0000 0.0000 0.0000 0.0000 9.2911 0.0000
# 6 0.0000 0.0000 0.0000 0.0000 0.0000 20.9178
#
#
#
# Elastic Compliance Matrix: (Units=1/GPa)
#
#
# Indices 1 2 3 4 5 6 
#
# 1 0.016740 0.005222 -0.002795 0.000000 0.000000 0.000000
# 2 0.005222 0.017447 -0.006788 0.000000 0.000000 0.000000
# 3 -0.002795 -0.006788 0.014798 0.000000 0.000000 0.000000
# 4 0.000000 0.000000 0.000000 0.026601 0.000000 0.000000
# 5 0.000000 0.000000 0.000000 0.000000 0.107630 0.000000
# 6 0.000000 0.000000 0.000000 0.000000 0.000000 0.047806
#
#
# Mechanical properties :
#
#
# Convention : Reuss Voigt Hill
#
# Bulk Modulus (GPa) = 24.83636 28.56294 26.69965
# Shear Modulus (GPa) = 19.74997 27.32944 23.53970
#
# Velocity S-wave (km/s) = 2.96875 3.49225 3.24109
# Velocity P-wave (km/s) = 4.77856 5.38585 5.09127
#
# Compressibility (1/GPa) = 0.04026355
#
# Stress axis : x y z
#
# Youngs Moduli (GPa) = 59.73615 57.31640 67.57788
#
# Poissons Ratio (x) = -0.29931 0.18886
# Poissons Ratio (y) = -0.31195 0.45873
# Poissons Ratio (z) = 0.16694 0.38908
#
# Static dielectric constant tensor:
#      x y z
#    x 4.124360 0.000000 0.000000 
#    y 0.000000 4.164870 0.000000 
#    z 0.000000 0.000000 4.051910 
# 
# 
# High freq. dielectric constant tensor:
#      x y z
#    x 1.874820 0.000000 0.000000 
#    y 0.000000 1.895220 0.000000 
#    z 0.000000 0.000000 1.882590 
# 
# From -- ./inp_files/10473.got.cif
#   From: 2010.03.12/outbox.cif.g09.slc.cpg/sg61_6_cif.got.tgz:10473.got - 2010.04.10 19:05:03.
