data_PCOD8249743
_publ_section_title
;
Structure prediction by ZEFSAII (Michael W. Deem and Ramdas Pophale) SiO2 
 PCOD8249743
Probable space group: P B C A
;
_chemical_formula_sum "Si O2"
_cell_formula_units_Z 48
_cell_length_a 15.901780
_cell_length_b 16.470079
_cell_length_c 8.661734
_cell_angle_alpha 90.000000
_cell_angle_beta 90.000000
_cell_angle_gamma 90.000000
_cell_volume 2268.539082
_symmetry_space_group_name_H-M "P B C A"
_symmetry_group_IT_number 61
_symmetry_cell_setting 'orthorhombic'
loop_
_space_group_symop_operation_xyz
x,y,z
1/2-x,-y,1/2+z
1/2+x,1/2-y,-z
-x,1/2+y,1/2-z
-x,-y,-z
1/2+x,y,1/2-z
1/2-x,1/2+y,z
x,1/2-y,1/2+z
loop_
_atom_site_type_symbol
_atom_site_label
_atom_site_fract_x
_atom_site_fract_y
_atom_site_fract_z
Si Si1 0.168431 0.162441 0.004547
Si Si2 0.645003 0.802894 0.001516
Si Si3 0.986748 0.912570 0.431204
Si Si4 0.908921 0.694018 0.178901
Si Si5 0.910069 0.337813 0.685757
Si Si6 0.926945 0.519935 0.617740
O O1 0.161609 0.176758 0.190348
O O2 0.262169 0.175619 0.939003
O O3 0.106754 0.220141 0.904446
O O4 0.145002 0.068749 0.972759
O O5 0.574359 0.863367 0.069290
O O6 0.619761 0.709507 0.034282
O O7 0.651317 0.807171 0.818563
O O8 0.914757 0.870482 0.537609
O O9 0.956658 0.921712 0.256185
O O10 0.000000 0.000000 0.500000
O O11 0.995462 0.689326 0.274343
O O12 0.893740 0.433669 0.676025
O O13 0.000000 0.500000 0.500000
#
# Coordination Sequence:
#
# PCOD8249743 Si02
#       6
#     8   8   8   8   8   8
#     4  12  24  44  65 104 134 176 222 284 339 398
#     4  11  25  43  66  97 141 169 224 277 347 388
#     4  11  22  45  69  95 129 180 229 275 324 405
#     4  11  22  43  73  92 135 182 230 267 335 414
#     4  11  23  45  68  96 131 182 221 272 328 408
#     4  12  24  44  70 101 132 174 236 274 329 408
#
# _framework density 21.158991
#
# number of rings (size 3 to 8) (size 9 to 14) (size 15 to 20)
#    0.000    0.667    5.000    5.000    2.333    0.000 
#    9.000    0.000    0.000    0.000    0.000    0.000 
#    0.000    0.000    0.000    0.000    0.000    0.000 
#
# Total GULP energy -594977.732547 kJ/mol
# GULP energy per Si atom -12395.369428 kJ/mol
# Density = 2.111083 g / cm^3
# Si number density = 21.158991 Si / 1000 Ang^3
#
#
#
# Elastic Constant Matrix: (Units=GPa)
#
#
# Indices 1 2 3 4 5 6 
#
# 1 78.3634 51.7731 26.8201 0.0000 0.0000 0.0000
# 2 51.7731 143.5046 58.1356 0.0000 0.0000 0.0000
# 3 26.8201 58.1356 129.2923 0.0000 0.0000 0.0000
# 4 0.0000 0.0000 0.0000 48.7128 0.0000 0.0000
# 5 0.0000 0.0000 0.0000 0.0000 20.4707 0.0000
# 6 0.0000 0.0000 0.0000 0.0000 0.0000 22.9350
#
#
#
# Elastic Compliance Matrix: (Units=1/GPa)
#
#
# Indices 1 2 3 4 5 6 
#
# 1 0.016846 -0.005700 -0.000931 0.000000 0.000000 0.000000
# 2 -0.005700 0.010449 -0.003516 0.000000 0.000000 0.000000
# 3 -0.000931 -0.003516 0.009509 0.000000 0.000000 0.000000
# 4 0.000000 0.000000 0.000000 0.020528 0.000000 0.000000
# 5 0.000000 0.000000 0.000000 0.000000 0.048850 0.000000
# 6 0.000000 0.000000 0.000000 0.000000 0.000000 0.043601
#
#
# Mechanical properties :
#
#
# Convention : Reuss Voigt Hill
#
# Bulk Modulus (GPa) = 60.57514 69.40198 64.98856
# Shear Modulus (GPa) = 28.47669 32.71914 30.59792
#
# Velocity S-wave (km/s) = 3.67255 3.93663 3.80688
# Velocity P-wave (km/s) = 6.83186 7.31670 7.07843
#
# Compressibility (1/GPa) = 0.01650842
#
# Stress axis : x y z
#
# Youngs Moduli (GPa) = 59.36168 95.69978 105.16813
#
# Poissons Ratio (x) = 0.54552 0.09795
# Poissons Ratio (y) = 0.33838 0.36978
# Poissons Ratio (z) = 0.05529 0.33648
#
# Static dielectric constant tensor:
#      x y z
#    x 3.602680 0.000000 0.000000 
#    y 0.000000 4.684270 0.000000 
#    z 0.000000 0.000000 4.757040 
# 
# 
# High freq. dielectric constant tensor:
#      x y z
#    x 1.809760 0.000000 0.000000 
#    y 0.000000 1.839860 0.000000 
#    z 0.000000 0.000000 1.845360 
# 
# From -- ./inp_files/3460.got.cif
#   From: 2010.03.12/outbox.cif.g09.slc.cpg/sg61_2_cif.got.tgz:3460.got - 2010.04.10 19:05:03.
