data_PCOD8249499
_publ_section_title
;
Structure prediction by ZEFSAII (Michael W. Deem and Ramdas Pophale) SiO2 
 PCOD8249499
Probable space group: P B C A
;
_chemical_formula_sum "Si O2"
_cell_formula_units_Z 32
_cell_length_a 8.909072
_cell_length_b 26.627163
_cell_length_c 4.956264
_cell_angle_alpha 90.000000
_cell_angle_beta 90.000000
_cell_angle_gamma 90.000000
_cell_volume 1175.741363
_symmetry_space_group_name_H-M "P B C A"
_symmetry_group_IT_number 61
_symmetry_cell_setting 'orthorhombic'
loop_
_space_group_symop_operation_xyz
x,y,z
1/2-x,-y,1/2+z
1/2+x,1/2-y,-z
-x,1/2+y,1/2-z
-x,-y,-z
1/2+x,y,1/2-z
1/2-x,1/2+y,z
x,1/2-y,1/2+z
loop_
_atom_site_type_symbol
_atom_site_label
_atom_site_fract_x
_atom_site_fract_y
_atom_site_fract_z
Si Si1 0.725128 0.848659 0.294348
Si Si2 0.008889 0.283699 0.002067
Si Si3 0.648695 0.003630 0.207279
Si Si4 0.525774 0.417214 0.066158
O O1 0.833275 0.812495 0.464388
O O2 0.634956 0.818192 0.063948
O O3 0.601142 0.874862 0.488911
O O4 0.819198 0.892488 0.155588
O O5 0.002571 0.234560 0.193791
O O6 0.529414 0.957732 0.208544
O O7 0.780820 0.990243 0.414835
O O8 0.560597 0.054635 0.285757
#
# Coordination Sequence:
#
# PCOD8249499 Si02
#       4
#     8   8   8   8
#     4  10  22  46  70 106 138 180 236 286 338 428
#     4  11  24  47  71 100 138 180 225 288 361 411
#     4  11  24  47  70  99 146 187 236 281 342 407
#     4  10  22  45  69 106 138 186 229 288 339 403
#
# _framework density 27.216874000000001
#
# number of rings (size 3 to 8) (size 9 to 14) (size 15 to 20)
#    0.000    1.500    2.500    1.500    0.000    4.000 
#   18.000    0.000    0.000    0.000    0.000    0.000 
#    0.000    0.000    0.000    0.000    0.000    0.000 
#
# Total GULP energy -396903.430734 kJ/mol
# GULP energy per Si atom -12403.232210 kJ/mol
# Density = 2.715493 g / cm^3
# Si number density = 27.216874 Si / 1000 Ang^3
#
#
#
# Elastic Constant Matrix: (Units=GPa)
#
#
# Indices 1 2 3 4 5 6 
#
# 1 184.1642 61.3700 25.7432 0.0000 0.0000 0.0000
# 2 61.3700 132.2773 -0.7182 0.0000 0.0000 0.0000
# 3 25.7432 -0.7182 40.5560 0.0000 0.0000 0.0000
# 4 0.0000 0.0000 0.0000 15.4014 0.0000 0.0000
# 5 0.0000 0.0000 0.0000 0.0000 34.2053 0.0000
# 6 0.0000 0.0000 0.0000 0.0000 0.0000 65.3069
#
#
#
# Elastic Compliance Matrix: (Units=1/GPa)
#
#
# Indices 1 2 3 4 5 6 
#
# 1 0.007198 -0.003365 -0.004629 0.000000 0.000000 0.000000
# 2 -0.003365 0.009133 0.002298 0.000000 0.000000 0.000000
# 3 -0.004629 0.002298 0.027636 0.000000 0.000000 0.000000
# 4 0.000000 0.000000 0.000000 0.064929 0.000000 0.000000
# 5 0.000000 0.000000 0.000000 0.000000 0.029235 0.000000
# 6 0.000000 0.000000 0.000000 0.000000 0.000000 0.015312
#
#
# Mechanical properties :
#
#
# Convention : Reuss Voigt Hill
#
# Bulk Modulus (GPa) = 30.69759 58.86528 44.78144
# Shear Modulus (GPa) = 28.45843 41.02289 34.74066
#
# Velocity S-wave (km/s) = 3.23711 3.88656 3.57660
# Velocity P-wave (km/s) = 5.02744 6.46650 5.79184
#
# Compressibility (1/GPa) = 0.03257584
#
# Stress axis : x y z
#
# Youngs Moduli (GPa) = 138.92358 109.48804 36.18468
#
# Poissons Ratio (x) = 0.36840 0.16749
# Poissons Ratio (y) = 0.46744 -0.08314
# Poissons Ratio (z) = 0.64303 -0.25155
#
# Static dielectric constant tensor:
#      x y z
#    x 5.465080 0.000000 0.000000 
#    y 0.000000 5.291190 0.000000 
#    z 0.000000 0.000000 4.284920 
# 
# 
# High freq. dielectric constant tensor:
#      x y z
#    x 2.136430 0.000000 0.000000 
#    y 0.000000 2.112690 0.000000 
#    z 0.000000 0.000000 2.063070 
# 
# From -- ./inp_files/73.got.cif
#   From: 2010.03.12/outbox.cif.g09.slc.cpg/sg61_1_cif.got.tgz:73.got - 2010.04.10 19:05:03.
