data_PCOD8249259
_publ_section_title
;
Structure prediction by ZEFSAII (Michael W. Deem and Ramdas Pophale) SiO2 
 PCOD8249259
Probable space group: P B C A
;
_chemical_formula_sum "Si O2"
_cell_formula_units_Z 64
_cell_length_a 8.402162
_cell_length_b 16.526036
_cell_length_c 21.550706
_cell_angle_alpha 90.000000
_cell_angle_beta 90.000000
_cell_angle_gamma 90.000000
_cell_volume 2992.411034
_symmetry_space_group_name_H-M "P B C A"
_symmetry_group_IT_number 61
_symmetry_cell_setting 'orthorhombic'
loop_
_space_group_symop_operation_xyz
x,y,z
1/2-x,-y,1/2+z
1/2+x,1/2-y,-z
-x,1/2+y,1/2-z
-x,-y,-z
1/2+x,y,1/2-z
1/2-x,1/2+y,z
x,1/2-y,1/2+z
loop_
_atom_site_type_symbol
_atom_site_label
_atom_site_fract_x
_atom_site_fract_y
_atom_site_fract_z
Si Si1 0.985211 0.251293 0.917747
Si Si2 0.473318 0.957350 0.738784
Si Si3 0.375502 0.765860 0.046266
Si Si4 0.919758 0.164295 0.140012
Si Si5 0.216731 0.072170 0.716472
Si Si6 0.013929 0.586989 0.894460
Si Si7 0.895005 0.585141 0.123202
Si Si8 0.224184 0.317219 0.327464
O O1 0.983175 0.344595 0.896667
O O2 0.054882 0.196457 0.861911
O O3 0.808520 0.224183 0.935773
O O4 0.106470 0.237825 0.975374
O O5 0.474995 0.885152 0.689251
O O6 0.396189 0.926990 0.802839
O O7 0.397105 0.040599 0.710160
O O8 0.648877 0.989191 0.753393
O O9 0.458931 0.700320 0.090179
O O10 0.465706 0.853104 0.049782
O O11 0.787505 0.108492 0.105410
O O12 0.824803 0.234743 0.175777
O O13 0.135247 0.093187 0.651921
O O14 0.195348 0.152765 0.757621
O O15 0.046793 0.494501 0.914631
O O16 0.177240 0.613622 0.862307
#
# Coordination Sequence:
#
# PCOD8249259 Si02
#       8
#     8   8   8   8   8   8   8   8
#     4  11  25  43  67  87 123 161 212 262 314 365
#     4  11  21  37  60  92 132 165 196 251 308 372
#     4  11  25  44  64  91 119 163 211 266 308 370
#     4  10  22  38  64  88 128 164 211 249 310 370
#     4  11  21  37  61  91 134 163 197 251 310 369
#     4  10  22  39  63  92 129 163 207 252 312 368
#     4  10  21  40  62  92 125 170 200 257 310 367
#     4  10  21  40  61  89 126 167 204 254 305 366
#
# _framework density 21.387436999999998
#
# number of rings (size 3 to 8) (size 9 to 14) (size 15 to 20)
#    0.000    1.500    3.750    2.250    5.250    5.500 
#    0.000    0.000    0.000    3.750    0.000    0.000 
#    0.000    0.000    0.000    0.000    0.000    0.000 
#
# Total GULP energy -793466.400288 kJ/mol
# GULP energy per Si atom -12397.912505 kJ/mol
# Density = 2.133876 g / cm^3
# Si number density = 21.387437 Si / 1000 Ang^3
#
#
#
# Elastic Constant Matrix: (Units=GPa)
#
#
# Indices 1 2 3 4 5 6 
#
# 1 68.7737 5.6443 8.1194 0.0000 0.0000 0.0000
# 2 5.6443 87.7230 23.4152 0.0000 0.0000 0.0000
# 3 8.1194 23.4152 47.3341 0.0000 0.0000 0.0000
# 4 0.0000 0.0000 0.0000 21.6179 0.0000 0.0000
# 5 0.0000 0.0000 0.0000 0.0000 28.5744 0.0000
# 6 0.0000 0.0000 0.0000 0.0000 0.0000 39.0452
#
#
#
# Elastic Compliance Matrix: (Units=1/GPa)
#
#
# Indices 1 2 3 4 5 6 
#
# 1 0.014849 -0.000317 -0.002390 0.000000 0.000000 0.000000
# 2 -0.000317 0.013140 -0.006446 0.000000 0.000000 0.000000
# 3 -0.002390 -0.006446 0.024725 0.000000 0.000000 0.000000
# 4 0.000000 0.000000 0.000000 0.046258 0.000000 0.000000
# 5 0.000000 0.000000 0.000000 0.000000 0.034996 0.000000
# 6 0.000000 0.000000 0.000000 0.000000 0.000000 0.025611
#
#
# Mechanical properties :
#
#
# Convention : Reuss Voigt Hill
#
# Bulk Modulus (GPa) = 29.06343 30.90985 29.98664
# Shear Modulus (GPa) = 26.40535 28.95764 27.68150
#
# Velocity S-wave (km/s) = 3.51753 3.68361 3.60152
# Velocity P-wave (km/s) = 5.48779 5.70751 5.59873
#
# Compressibility (1/GPa) = 0.03440750
#
# Stress axis : x y z
#
# Youngs Moduli (GPa) = 67.34619 76.10069 40.44491
#
# Poissons Ratio (x) = 0.02416 0.09666
# Poissons Ratio (y) = 0.02138 0.26070
# Poissons Ratio (z) = 0.16096 0.49053
#
# Static dielectric constant tensor:
#      x y z
#    x 3.851560 0.000000 0.000000 
#    y 0.000000 4.009660 0.000000 
#    z 0.000000 0.000000 3.633860 
# 
# 
# High freq. dielectric constant tensor:
#      x y z
#    x 1.847940 0.000000 0.000000 
#    y 0.000000 1.845530 0.000000 
#    z 0.000000 0.000000 1.815040 
# 
# From -- ./inp_files/10923.got.cif
#   From: 2010.03.12/outbox.cif.g09.slc.cpg/sg61_6_cif.got.tgz:10923.got - 2010.04.10 19:05:03.
