data_PCOD8249779
_publ_section_title
;
Structure prediction by ZEFSAII (Michael W. Deem and Ramdas Pophale) SiO2 
 PCOD8249779
Probable space group: P B C A
;
_chemical_formula_sum "Si O2"
_cell_formula_units_Z 48
_cell_length_a 11.427046
_cell_length_b 16.547101
_cell_length_c 11.409186
_cell_angle_alpha 90.000000
_cell_angle_beta 90.000000
_cell_angle_gamma 90.000000
_cell_volume 2157.300051
_symmetry_space_group_name_H-M "P B C A"
_symmetry_group_IT_number 61
_symmetry_cell_setting 'orthorhombic'
loop_
_space_group_symop_operation_xyz
x,y,z
1/2-x,-y,1/2+z
1/2+x,1/2-y,-z
-x,1/2+y,1/2-z
-x,-y,-z
1/2+x,y,1/2-z
1/2-x,1/2+y,z
x,1/2-y,1/2+z
loop_
_atom_site_type_symbol
_atom_site_label
_atom_site_fract_x
_atom_site_fract_y
_atom_site_fract_z
Si Si1 0.981914 0.631582 0.045094
Si Si2 0.377896 0.830351 0.720079
Si Si3 0.752086 0.821955 0.190754
Si Si4 0.251318 0.401951 0.072882
Si Si5 0.263375 0.417489 0.537212
Si Si6 0.422104 0.216503 0.438814
O O1 0.095528 0.575079 0.027592
O O2 0.920020 0.616291 0.170086
O O3 0.023385 0.725109 0.037672
O O4 0.887080 0.612141 0.945394
O O5 0.351479 0.738990 0.761658
O O6 0.264890 0.870697 0.658630
O O7 0.477587 0.835496 0.621514
O O8 0.721083 0.886861 0.290753
O O9 0.636327 0.771062 0.162040
O O10 0.792432 0.869716 0.073531
O O11 0.289468 0.492676 0.040307
O O12 0.323536 0.340528 0.992866
#
# Coordination Sequence:
#
# PCOD8249779 Si02
#       6
#     8   8   8   8   8   8
#     4  11  24  43  71  97 138 187 236 281 354 430
#     4  12  22  44  72 101 139 182 241 292 344 429
#     4  11  23  44  70  98 138 187 235 283 348 430
#     4  12  25  46  70 105 145 178 234 304 353 420
#     4  11  28  44  70 109 142 187 234 295 373 410
#     4  11  23  43  71 104 129 187 244 281 348 421
#
# _framework density 22.250032999999998
#
# number of rings (size 3 to 8) (size 9 to 14) (size 15 to 20)
#    0.000    0.667    3.333    5.500    2.333    0.667 
#    0.000    0.000    0.000    0.000    0.000    0.000 
#    0.000    0.000    0.000    0.000    0.000    0.000 
#
# Total GULP energy -595394.351194 kJ/mol
# GULP energy per Si atom -12404.048983 kJ/mol
# Density = 2.219939 g / cm^3
# Si number density = 22.250033 Si / 1000 Ang^3
#
#
#
# Elastic Constant Matrix: (Units=GPa)
#
#
# Indices 1 2 3 4 5 6 
#
# 1 75.7810 26.9754 50.5010 0.0000 0.0000 0.0000
# 2 26.9754 121.4720 42.9418 0.0000 0.0000 0.0000
# 3 50.5010 42.9418 126.6618 0.0000 0.0000 0.0000
# 4 0.0000 0.0000 0.0000 31.1349 0.0000 0.0000
# 5 0.0000 0.0000 0.0000 0.0000 34.6579 0.0000
# 6 0.0000 0.0000 0.0000 0.0000 0.0000 22.6429
#
#
#
# Elastic Compliance Matrix: (Units=1/GPa)
#
#
# Indices 1 2 3 4 5 6 
#
# 1 0.018269 -0.001684 -0.006713 0.000000 0.000000 0.000000
# 2 -0.001684 0.009509 -0.002552 0.000000 0.000000 0.000000
# 3 -0.006713 -0.002552 0.011437 0.000000 0.000000 0.000000
# 4 0.000000 0.000000 0.000000 0.032118 0.000000 0.000000
# 5 0.000000 0.000000 0.000000 0.000000 0.028853 0.000000
# 6 0.000000 0.000000 0.000000 0.000000 0.000000 0.044164
#
#
# Mechanical properties :
#
#
# Convention : Reuss Voigt Hill
#
# Bulk Modulus (GPa) = 57.75032 62.75016 60.25024
# Shear Modulus (GPa) = 29.06627 31.25356 30.15991
#
# Velocity S-wave (km/s) = 3.61826 3.75194 3.68571
# Velocity P-wave (km/s) = 6.59297 6.85805 6.72682
#
# Compressibility (1/GPa) = 0.01731592
#
# Stress axis : x y z
#
# Youngs Moduli (GPa) = 54.73762 105.16852 87.43619
#
# Poissons Ratio (x) = 0.17709 0.58697
# Poissons Ratio (y) = 0.09217 0.22316
# Poissons Ratio (z) = 0.36746 0.26842
#
# Static dielectric constant tensor:
#      x y z
#    x 3.930910 0.000000 0.000000 
#    y 0.000000 3.809910 0.000000 
#    z 0.000000 0.000000 4.069030 
# 
# 
# High freq. dielectric constant tensor:
#      x y z
#    x 1.875420 0.000000 0.000000 
#    y 0.000000 1.861920 0.000000 
#    z 0.000000 0.000000 1.884240 
# 
# From -- ./inp_files/5244.got.cif
#   From: 2010.03.12/outbox.cif.g09.slc.cpg/sg61_3_cif.got.tgz:5244.got - 2010.04.10 19:05:03.
