data_PCOD8249727
_publ_section_title
;
Structure prediction by ZEFSAII (Michael W. Deem and Ramdas Pophale) SiO2 
 PCOD8249727
Probable space group: P B C A
;
_chemical_formula_sum "Si O2"
_cell_formula_units_Z 40
_cell_length_a 12.121759
_cell_length_b 9.387053
_cell_length_c 16.977444
_cell_angle_alpha 90.000000
_cell_angle_beta 90.000000
_cell_angle_gamma 90.000000
_cell_volume 1931.822508
_symmetry_space_group_name_H-M "P B C A"
_symmetry_group_IT_number 61
_symmetry_cell_setting 'orthorhombic'
loop_
_space_group_symop_operation_xyz
x,y,z
1/2-x,-y,1/2+z
1/2+x,1/2-y,-z
-x,1/2+y,1/2-z
-x,-y,-z
1/2+x,y,1/2-z
1/2-x,1/2+y,z
x,1/2-y,1/2+z
loop_
_atom_site_type_symbol
_atom_site_label
_atom_site_fract_x
_atom_site_fract_y
_atom_site_fract_z
Si Si1 0.310219 0.238720 0.372436
Si Si2 0.822160 0.541557 0.723969
Si Si3 0.251995 0.184264 0.549257
Si Si4 0.953544 0.823430 0.355974
Si Si5 0.179139 0.062524 0.138344
O O1 0.347614 0.092748 0.330868
O O2 0.215292 0.321201 0.325754
O O3 0.259486 0.204370 0.456810
O O4 0.418521 0.339916 0.379539
O O5 0.928647 0.588732 0.775531
O O6 0.722027 0.501574 0.780752
O O7 0.129181 0.123872 0.573990
O O8 0.269721 0.332109 0.596760
O O9 0.343156 0.068959 0.578166
O O10 0.931069 0.652880 0.343789
#
# Coordination Sequence:
#
# PCOD8249727 Si02
#       5
#     8   8   8   8   8
#     4  12  23  40  66  94 124 161 215 260 305 369
#     4  11  22  40  63  95 126 157 209 263 304 371
#     4   9  20  39  59  88 123 160 205 254 298 370
#     4   9  23  39  62  88 123 169 198 246 327 362
#     4   9  18  42  59  80 126 162 192 251 314 357
#
# _framework density 20.705836000000001
#
# number of rings (size 3 to 8) (size 9 to 14) (size 15 to 20)
#    1.200    0.800    2.000    1.200    2.800    0.800 
#    0.000    9.000    0.000    0.000    0.000    0.000 
#    0.000    0.000    0.000    0.000    0.000    0.000 
#
# Total GULP energy -495545.825792 kJ/mol
# GULP energy per Si atom -12388.645645 kJ/mol
# Density = 2.065871 g / cm^3
# Si number density = 20.705836 Si / 1000 Ang^3
#
#
#
# Elastic Constant Matrix: (Units=GPa)
#
#
# Indices 1 2 3 4 5 6 
#
# 1 54.0840 -6.7516 13.5212 0.0000 0.0000 0.0000
# 2 -6.7516 83.3779 25.5324 0.0000 0.0000 0.0000
# 3 13.5212 25.5324 118.2737 0.0000 0.0000 0.0000
# 4 0.0000 0.0000 0.0000 34.8439 0.0000 0.0000
# 5 0.0000 0.0000 0.0000 0.0000 15.6444 0.0000
# 6 0.0000 0.0000 0.0000 0.0000 0.0000 15.9928
#
#
#
# Elastic Compliance Matrix: (Units=1/GPa)
#
#
# Indices 1 2 3 4 5 6 
#
# 1 0.019479 0.002419 -0.002749 0.000000 0.000000 0.000000
# 2 0.002419 0.013143 -0.003114 0.000000 0.000000 0.000000
# 3 -0.002749 -0.003114 0.009441 0.000000 0.000000 0.000000
# 4 0.000000 0.000000 0.000000 0.028699 0.000000 0.000000
# 5 0.000000 0.000000 0.000000 0.000000 0.063921 0.000000
# 6 0.000000 0.000000 0.000000 0.000000 0.000000 0.062528
#
#
# Mechanical properties :
#
#
# Convention : Reuss Voigt Hill
#
# Bulk Modulus (GPa) = 28.42847 35.59330 32.01088
# Shear Modulus (GPa) = 23.16694 28.19178 25.67936
#
# Velocity S-wave (km/s) = 3.34857 3.69391 3.52547
# Velocity P-wave (km/s) = 5.35817 5.95152 5.66262
#
# Compressibility (1/GPa) = 0.03517601
#
# Stress axis : x y z
#
# Youngs Moduli (GPa) = 51.33718 76.08605 105.91602
#
# Poissons Ratio (x) = -0.18407 0.29118
# Poissons Ratio (y) = -0.12419 0.32980
# Poissons Ratio (z) = 0.14113 0.23692
#
# Static dielectric constant tensor:
#      x y z
#    x 3.223930 0.000000 0.000000 
#    y 0.000000 3.982850 0.000000 
#    z 0.000000 0.000000 3.644380 
# 
# 
# High freq. dielectric constant tensor:
#      x y z
#    x 1.766960 0.000000 0.000000 
#    y 0.000000 1.820290 0.000000 
#    z 0.000000 0.000000 1.810100 
# 
# From -- ./inp_files/7405.got.cif
#   From: 2010.03.12/outbox.cif.g09.slc.cpg/sg61_4_cif.got.tgz:7405.got - 2010.04.10 19:05:03.
