data_PCOD8249518
_publ_section_title
;
Structure prediction by ZEFSAII (Michael W. Deem and Ramdas Pophale) SiO2 
 PCOD8249518
Probable space group: P B C A
;
_chemical_formula_sum "Si O2"
_cell_formula_units_Z 56
_cell_length_a 14.559967
_cell_length_b 9.939467
_cell_length_c 18.741906
_cell_angle_alpha 90.000000
_cell_angle_beta 90.000000
_cell_angle_gamma 90.000000
_cell_volume 2712.296991
_symmetry_space_group_name_H-M "P B C A"
_symmetry_group_IT_number 61
_symmetry_cell_setting 'orthorhombic'
loop_
_space_group_symop_operation_xyz
x,y,z
1/2-x,-y,1/2+z
1/2+x,1/2-y,-z
-x,1/2+y,1/2-z
-x,-y,-z
1/2+x,y,1/2-z
1/2-x,1/2+y,z
x,1/2-y,1/2+z
loop_
_atom_site_type_symbol
_atom_site_label
_atom_site_fract_x
_atom_site_fract_y
_atom_site_fract_z
Si Si1 0.209098 0.205111 0.972550
Si Si2 0.904076 0.050646 0.356461
Si Si3 0.734751 0.926556 0.162072
Si Si4 0.764159 0.455079 0.437196
Si Si5 0.096007 0.146870 0.371150
Si Si6 0.129292 0.851101 0.196230
Si Si7 0.075887 0.111838 0.779842
O O1 0.275297 0.174377 0.904937
O O2 0.112138 0.259045 0.940580
O O3 0.259596 0.314683 0.021396
O O4 0.185826 0.069496 0.016196
O O5 0.876548 0.192872 0.321118
O O6 0.006784 0.058394 0.387716
O O7 0.837440 0.011705 0.420793
O O8 0.902601 0.926191 0.301387
O O9 0.686021 0.861801 0.230729
O O10 0.843424 0.959411 0.173912
O O11 0.688145 0.063869 0.139262
O O12 0.818870 0.434181 0.364365
O O13 0.083647 0.228816 0.296715
O O14 0.029903 0.925363 0.201976
#
# Coordination Sequence:
#
# PCOD8249518 Si02
#       7
#     8   8   8   8   8   8   8
#     4  11  25  44  67 100 139 185 229 273 355 415
#     4  11  23  41  68 102 138 176 233 287 346 406
#     4  11  22  42  70  94 139 178 225 282 346 412
#     4  12  24  45  70 100 139 183 229 291 338 413
#     4  10  23  43  66  98 138 185 226 280 347 426
#     4  11  24  42  68 101 134 175 233 291 337 404
#     4  10  23  39  66 102 130 173 229 286 338 409
#
# _framework density 20.646705999999998
#
# number of rings (size 3 to 8) (size 9 to 14) (size 15 to 20)
#    0.000    1.143    5.714    0.000    4.000    1.714 
#    0.000    7.857    0.000    0.000    0.000    0.000 
#    0.000    0.000    0.000    0.000    0.000    0.000 
#
# Total GULP energy -694074.640254 kJ/mol
# GULP energy per Si atom -12394.190005 kJ/mol
# Density = 2.059971 g / cm^3
# Si number density = 20.646706 Si / 1000 Ang^3
#
#
#
# Elastic Constant Matrix: (Units=GPa)
#
#
# Indices 1 2 3 4 5 6 
#
# 1 127.0709 33.7216 46.9964 0.0000 0.0000 0.0000
# 2 33.7216 81.9023 44.2124 0.0000 0.0000 0.0000
# 3 46.9964 44.2124 118.3058 0.0000 0.0000 0.0000
# 4 0.0000 0.0000 0.0000 40.2999 0.0000 0.0000
# 5 0.0000 0.0000 0.0000 0.0000 24.5074 0.0000
# 6 0.0000 0.0000 0.0000 0.0000 0.0000 31.5031
#
#
#
# Elastic Compliance Matrix: (Units=1/GPa)
#
#
# Indices 1 2 3 4 5 6 
#
# 1 0.009578 -0.002367 -0.002920 0.000000 0.000000 0.000000
# 2 -0.002367 0.015880 -0.004994 0.000000 0.000000 0.000000
# 3 -0.002920 -0.004994 0.011479 0.000000 0.000000 0.000000
# 4 0.000000 0.000000 0.000000 0.024814 0.000000 0.000000
# 5 0.000000 0.000000 0.000000 0.000000 0.040804 0.000000
# 6 0.000000 0.000000 0.000000 0.000000 0.000000 0.031743
#
#
# Mechanical properties :
#
#
# Convention : Reuss Voigt Hill
#
# Bulk Modulus (GPa) = 61.07218 64.12664 62.59941
# Shear Modulus (GPa) = 31.18775 32.75197 31.96986
#
# Velocity S-wave (km/s) = 3.89079 3.98717 3.93927
# Velocity P-wave (km/s) = 7.05891 7.23347 7.14672
#
# Compressibility (1/GPa) = 0.01637407
#
# Stress axis : x y z
#
# Youngs Moduli (GPa) = 104.40825 62.97094 87.11472
#
# Poissons Ratio (x) = 0.14906 0.25438
# Poissons Ratio (y) = 0.24715 0.43508
# Poissons Ratio (z) = 0.30488 0.31450
#
# Static dielectric constant tensor:
#      x y z
#    x 3.954630 0.000000 0.000000 
#    y 0.000000 3.743050 0.000000 
#    z 0.000000 0.000000 3.796380 
# 
# 
# High freq. dielectric constant tensor:
#      x y z
#    x 1.808860 0.000000 0.000000 
#    y 0.000000 1.807180 0.000000 
#    z 0.000000 0.000000 1.808040 
# 
# From -- ./inp_files/10452.got.cif
#   From: 2010.03.12/outbox.cif.g09.slc.cpg/sg61_6_cif.got.tgz:10452.got - 2010.04.10 19:05:03.
