data_PCOD8249758
_publ_section_title
;
Structure prediction by ZEFSAII (Michael W. Deem and Ramdas Pophale) SiO2 
 PCOD8249758
Probable space group: P B C A
;
_chemical_formula_sum "Si O2"
_cell_formula_units_Z 48
_cell_length_a 13.773350
_cell_length_b 8.908777
_cell_length_c 18.690686
_cell_angle_alpha 90.000000
_cell_angle_beta 90.000000
_cell_angle_gamma 90.000000
_cell_volume 2293.416397
_symmetry_space_group_name_H-M "P B C A"
_symmetry_group_IT_number 61
_symmetry_cell_setting 'orthorhombic'
loop_
_space_group_symop_operation_xyz
x,y,z
1/2-x,-y,1/2+z
1/2+x,1/2-y,-z
-x,1/2+y,1/2-z
-x,-y,-z
1/2+x,y,1/2-z
1/2-x,1/2+y,z
x,1/2-y,1/2+z
loop_
_atom_site_type_symbol
_atom_site_label
_atom_site_fract_x
_atom_site_fract_y
_atom_site_fract_z
Si Si1 0.486694 0.250766 0.909457
Si Si2 0.632994 0.765923 0.450270
Si Si3 0.665227 0.480351 0.240418
Si Si4 0.026517 0.938410 0.162271
Si Si5 0.172703 0.431914 0.092203
Si Si6 0.352873 0.168028 0.786433
O O1 0.528672 0.401074 0.874973
O O2 0.579459 0.158608 0.937638
O O3 0.428208 0.153183 0.851222
O O4 0.410315 0.290748 0.971114
O O5 0.727462 0.868644 0.439532
O O6 0.664782 0.597183 0.438267
O O7 0.546510 0.809687 0.396051
O O8 0.572577 0.404452 0.203566
O O9 0.673094 0.425400 0.321931
O O10 0.752050 0.411070 0.192986
O O11 0.662151 0.659618 0.236496
O O12 0.111803 0.932123 0.220126
#
# Coordination Sequence:
#
# PCOD8249758 Si02
#       6
#     8   8   8   8   8   8
#     4  11  27  44  67 103 138 178 225 282 340 404
#     4  12  26  44  69 101 137 180 224 275 347 409
#     4  11  23  39  68  97 130 175 225 278 329 392
#     4  11  23  43  68  97 133 174 229 279 332 396
#     4  12  23  43  69  93 135 181 223 275 341 402
#     4  11  24  41  66 101 130 173 225 276 328 395
#
# _framework density 20.929473999999999
#
# number of rings (size 3 to 8) (size 9 to 14) (size 15 to 20)
#    0.000    0.667    5.000    2.000    2.333    5.333 
#    0.000    0.000    0.000    0.000    0.000    0.000 
#    0.000    0.000    0.000    0.000    0.000    0.000 
#
# Total GULP energy -595380.774500 kJ/mol
# GULP energy per Si atom -12403.766135 kJ/mol
# Density = 2.088184 g / cm^3
# Si number density = 20.929474 Si / 1000 Ang^3
#
#
#
# Elastic Constant Matrix: (Units=GPa)
#
#
# Indices 1 2 3 4 5 6 
#
# 1 129.9026 81.9319 39.6340 0.0000 0.0000 0.0000
# 2 81.9319 106.7885 48.0869 0.0000 0.0000 0.0000
# 3 39.6340 48.0869 92.1008 0.0000 0.0000 0.0000
# 4 0.0000 0.0000 0.0000 8.8687 0.0000 0.0000
# 5 0.0000 0.0000 0.0000 0.0000 50.0703 0.0000
# 6 0.0000 0.0000 0.0000 0.0000 0.0000 46.8628
#
#
#
# Elastic Compliance Matrix: (Units=1/GPa)
#
#
# Indices 1 2 3 4 5 6 
#
# 1 0.014940 -0.011201 -0.000581 0.000000 0.000000 0.000000
# 2 -0.011201 0.020640 -0.005956 0.000000 0.000000 0.000000
# 3 -0.000581 -0.005956 0.014218 0.000000 0.000000 0.000000
# 4 0.000000 0.000000 0.000000 0.112756 0.000000 0.000000
# 5 0.000000 0.000000 0.000000 0.000000 0.019972 0.000000
# 6 0.000000 0.000000 0.000000 0.000000 0.000000 0.021339
#
#
# Mechanical properties :
#
#
# Convention : Reuss Voigt Hill
#
# Bulk Modulus (GPa) = 69.82668 74.23305 72.02987
# Shear Modulus (GPa) = 20.48221 31.76964 26.12592
#
# Velocity S-wave (km/s) = 3.13170 3.90030 3.53694
# Velocity P-wave (km/s) = 6.81997 7.47183 7.15333
#
# Compressibility (1/GPa) = 0.01432117
#
# Stress axis : x y z
#
# Youngs Moduli (GPa) = 66.93499 48.44953 70.33528
#
# Poissons Ratio (x) = 0.54267 0.04087
# Poissons Ratio (y) = 0.74972 0.41894
# Poissons Ratio (z) = 0.03890 0.28858
#
# Static dielectric constant tensor:
#      x y z
#    x 4.087620 0.000000 0.000000 
#    y 0.000000 3.725900 0.000000 
#    z 0.000000 0.000000 3.808280 
# 
# 
# High freq. dielectric constant tensor:
#      x y z
#    x 1.840060 0.000000 0.000000 
#    y 0.000000 1.823330 0.000000 
#    z 0.000000 0.000000 1.815240 
# 
# From -- ./inp_files/3422.got.cif
#   From: 2010.03.12/outbox.cif.g09.slc.cpg/sg61_2_cif.got.tgz:3422.got - 2010.04.10 19:05:03.
