data_PCOD8249819
_publ_section_title
;
Structure prediction by ZEFSAII (Michael W. Deem and Ramdas Pophale) SiO2 
 PCOD8249819
Probable space group: P B C A
;
_chemical_formula_sum "Si O2"
_cell_formula_units_Z 32
_cell_length_a 11.464194
_cell_length_b 4.665816
_cell_length_c 24.463374
_cell_angle_alpha 90.000000
_cell_angle_beta 90.000000
_cell_angle_gamma 90.000000
_cell_volume 1308.541467
_symmetry_space_group_name_H-M "P B C A"
_symmetry_group_IT_number 61
_symmetry_cell_setting 'orthorhombic'
loop_
_space_group_symop_operation_xyz
x,y,z
1/2-x,-y,1/2+z
1/2+x,1/2-y,-z
-x,1/2+y,1/2-z
-x,-y,-z
1/2+x,y,1/2-z
1/2-x,1/2+y,z
x,1/2-y,1/2+z
loop_
_atom_site_type_symbol
_atom_site_label
_atom_site_fract_x
_atom_site_fract_y
_atom_site_fract_z
Si Si1 0.168806 0.338212 0.238863
Si Si2 0.328628 0.704844 0.506432
Si Si3 0.012371 0.491337 0.909773
Si Si4 0.984745 0.016997 0.164037
O O1 0.208325 0.668908 0.233362
O O2 0.104906 0.343020 0.297496
O O3 0.081225 0.208730 0.194836
O O4 0.204487 0.539265 0.508210
O O5 0.393870 0.641939 0.450317
O O6 0.404656 0.634505 0.559122
O O7 0.959648 0.236354 0.872360
O O8 0.075986 0.743881 0.874773
#
# Coordination Sequence:
#
# PCOD8249819 Si02
#       4
#     8   8   8   8
#     4  12  26  44  68  98 134 178 228 280 336 400
#     4  11  24  43  66  98 134 171 222 276 332 405
#     4  11  25  42  67  98 133 176 221 277 340 400
#     4  12  25  45  67  98 137 175 227 282 336 404
#
# _framework density 24.454706000000002
#
# number of rings (size 3 to 8) (size 9 to 14) (size 15 to 20)
#    0.000    0.500    0.000    9.000    0.000   16.000 
#    0.000    0.000    0.000    0.000    0.000    0.000 
#    0.000    0.000    0.000    0.000    0.000    0.000 
#
# Total GULP energy -396667.210390 kJ/mol
# GULP energy per Si atom -12395.850325 kJ/mol
# Density = 2.439905 g / cm^3
# Si number density = 24.454706 Si / 1000 Ang^3
#
#
#
# Elastic Constant Matrix: (Units=GPa)
#
#
# Indices 1 2 3 4 5 6 
#
# 1 59.5444 9.2920 15.4212 0.0000 0.0000 0.0000
# 2 9.2920 110.9919 49.3042 0.0000 0.0000 0.0000
# 3 15.4212 49.3042 118.3415 0.0000 0.0000 0.0000
# 4 0.0000 0.0000 0.0000 48.1530 0.0000 0.0000
# 5 0.0000 0.0000 0.0000 0.0000 0.7066 0.0000
# 6 0.0000 0.0000 0.0000 0.0000 0.0000 55.6181
#
#
#
# Elastic Compliance Matrix: (Units=1/GPa)
#
#
# Indices 1 2 3 4 5 6 
#
# 1 0.017408 -0.000552 -0.002039 0.000000 0.000000 0.000000
# 2 -0.000552 0.011073 -0.004542 0.000000 0.000000 0.000000
# 3 -0.002039 -0.004542 0.010608 0.000000 0.000000 0.000000
# 4 0.000000 0.000000 0.000000 0.020767 0.000000 0.000000
# 5 0.000000 0.000000 0.000000 0.000000 1.415306 0.000000
# 6 0.000000 0.000000 0.000000 0.000000 0.000000 0.017980
#
#
# Mechanical properties :
#
#
# Convention : Reuss Voigt Hill
#
# Bulk Modulus (GPa) = 40.28104 48.54588 44.41346
# Shear Modulus (GPa) = 3.29885 35.21954 19.25919
#
# Velocity S-wave (km/s) = 1.16271 3.79911 2.80937
# Velocity P-wave (km/s) = 4.27902 6.25610 5.35951
#
# Compressibility (1/GPa) = 0.02482557
#
# Stress axis : x y z
#
# Youngs Moduli (GPa) = 57.44400 90.30757 94.26949
#
# Poissons Ratio (x) = 0.04983 0.19218
# Poissons Ratio (y) = 0.03170 0.42813
# Poissons Ratio (z) = 0.11710 0.41013
#
# Static dielectric constant tensor:
#      x y z
#    x 3.974250 0.000000 0.000000 
#    y 0.000000 4.801340 0.000000 
#    z 0.000000 0.000000 4.646390 
# 
# 
# High freq. dielectric constant tensor:
#      x y z
#    x 1.947100 0.000000 0.000000 
#    y 0.000000 2.003520 0.000000 
#    z 0.000000 0.000000 1.986700 
# 
# From -- ./inp_files/10241.got.cif
#   From: 2010.03.12/outbox.cif.g09.slc.cpg/sg61_6_cif.got.tgz:10241.got - 2010.04.10 19:05:03.
