data_PCOD8249841
_publ_section_title
;
Structure prediction by ZEFSAII (Michael W. Deem and Ramdas Pophale) SiO2 
 PCOD8249841
Probable space group: P B C A
;
_chemical_formula_sum "Si O2"
_cell_formula_units_Z 56
_cell_length_a 13.668663
_cell_length_b 14.620408
_cell_length_c 12.332333
_cell_angle_alpha 90.000000
_cell_angle_beta 90.000000
_cell_angle_gamma 90.000000
_cell_volume 2464.511060
_symmetry_space_group_name_H-M "P B C A"
_symmetry_group_IT_number 61
_symmetry_cell_setting 'orthorhombic'
loop_
_space_group_symop_operation_xyz
x,y,z
1/2-x,-y,1/2+z
1/2+x,1/2-y,-z
-x,1/2+y,1/2-z
-x,-y,-z
1/2+x,y,1/2-z
1/2-x,1/2+y,z
x,1/2-y,1/2+z
loop_
_atom_site_type_symbol
_atom_site_label
_atom_site_fract_x
_atom_site_fract_y
_atom_site_fract_z
Si Si1 0.307875 0.416459 0.510492
Si Si2 0.252287 0.363888 0.847086
Si Si3 0.915647 0.337617 0.806693
Si Si4 0.423774 0.983259 0.858325
Si Si5 0.519824 0.865389 0.305859
Si Si6 0.793241 0.087325 0.916176
Si Si7 0.297704 0.838352 0.304765
O O1 0.339406 0.335663 0.592127
O O2 0.401782 0.482969 0.482195
O O3 0.225805 0.479062 0.567704
O O4 0.274140 0.374179 0.397258
O O5 0.359774 0.382605 0.795912
O O6 0.181772 0.447905 0.812527
O O7 0.207851 0.270823 0.799355
O O8 0.259710 0.357202 0.977336
O O9 0.949434 0.237223 0.773293
O O10 0.005231 0.397849 0.847196
O O11 0.464106 0.070844 0.796837
O O12 0.589644 0.900081 0.402784
O O13 0.406590 0.869363 0.338362
O O14 0.733982 0.124075 0.812214
#
# Coordination Sequence:
#
# PCOD8249841 Si02
#       7
#     8   8   8   8   8   8   8
#     4  11  25  45  77  99 150 192 234 305 364 431
#     4  11  25  48  72 105 146 192 237 303 362 431
#     4  12  24  46  74 106 143 193 240 295 366 433
#     4  11  24  45  74 109 140 186 246 290 367 433
#     4  12  25  45  73 107 143 185 248 296 357 438
#     4  11  25  48  72 105 144 188 242 297 361 432
#     4  12  25  49  70 107 147 187 240 300 366 425
#
# _framework density 22.722559
#
# number of rings (size 3 to 8) (size 9 to 14) (size 15 to 20)
#    0.000    0.571    4.286    3.000    6.000    1.714 
#    5.143    0.000    0.000    0.000    0.000    0.000 
#    0.000    0.000    0.000    0.000    0.000    0.000 
#
# Total GULP energy -694295.234852 kJ/mol
# GULP energy per Si atom -12398.129194 kJ/mol
# Density = 2.267084 g / cm^3
# Si number density = 22.722559 Si / 1000 Ang^3
#
#
#
# Elastic Constant Matrix: (Units=GPa)
#
#
# Indices 1 2 3 4 5 6 
#
# 1 98.9340 -10.9302 15.5351 0.0000 0.0000 0.0000
# 2 -10.9302 63.3299 8.5172 0.0000 0.0000 0.0000
# 3 15.5351 8.5172 96.6507 0.0000 0.0000 0.0000
# 4 0.0000 0.0000 0.0000 33.1940 0.0000 0.0000
# 5 0.0000 0.0000 0.0000 0.0000 21.8555 0.0000
# 6 0.0000 0.0000 0.0000 0.0000 0.0000 27.0522
#
#
#
# Elastic Compliance Matrix: (Units=1/GPa)
#
#
# Indices 1 2 3 4 5 6 
#
# 1 0.010636 0.002090 -0.001894 0.000000 0.000000 0.000000
# 2 0.002090 0.016391 -0.001780 0.000000 0.000000 0.000000
# 3 -0.001894 -0.001780 0.010808 0.000000 0.000000 0.000000
# 4 0.000000 0.000000 0.000000 0.030126 0.000000 0.000000
# 5 0.000000 0.000000 0.000000 0.000000 0.045755 0.000000
# 6 0.000000 0.000000 0.000000 0.000000 0.000000 0.036966
#
#
# Mechanical properties :
#
#
# Convention : Reuss Voigt Hill
#
# Bulk Modulus (GPa) = 28.84599 31.68431 30.26515
# Shear Modulus (GPa) = 30.22898 32.80651 31.51775
#
# Velocity S-wave (km/s) = 3.65135 3.80384 3.72838
# Velocity P-wave (km/s) = 5.52259 5.76771 5.64648
#
# Compressibility (1/GPa) = 0.03466687
#
# Stress axis : x y z
#
# Youngs Moduli (GPa) = 94.01970 61.01072 92.52551
#
# Poissons Ratio (x) = -0.12754 0.17522
# Poissons Ratio (y) = -0.19654 0.16473
# Poissons Ratio (z) = 0.17805 0.10862
#
# Static dielectric constant tensor:
#      x y z
#    x 4.416630 0.000000 0.000000 
#    y 0.000000 4.211310 0.000000 
#    z 0.000000 0.000000 3.991700 
# 
# 
# High freq. dielectric constant tensor:
#      x y z
#    x 1.903450 0.000000 0.000000 
#    y 0.000000 1.908170 0.000000 
#    z 0.000000 0.000000 1.891120 
# 
# From -- ./inp_files/5825.got.cif
#   From: 2010.03.12/outbox.cif.g09.slc.cpg/sg61_3_cif.got.tgz:5825.got - 2010.04.10 19:05:03.
