data_PCOD8249522
_publ_section_title
;
Structure prediction by ZEFSAII (Michael W. Deem and Ramdas Pophale) SiO2 
 PCOD8249522
Probable space group: P B C A
;
_chemical_formula_sum "Si O2"
_cell_formula_units_Z 32
_cell_length_a 13.097155
_cell_length_b 21.262699
_cell_length_c 4.951524
_cell_angle_alpha 90.000000
_cell_angle_beta 90.000000
_cell_angle_gamma 90.000000
_cell_volume 1378.904684
_symmetry_space_group_name_H-M "P B C A"
_symmetry_group_IT_number 61
_symmetry_cell_setting 'orthorhombic'
loop_
_space_group_symop_operation_xyz
x,y,z
1/2-x,-y,1/2+z
1/2+x,1/2-y,-z
-x,1/2+y,1/2-z
-x,-y,-z
1/2+x,y,1/2-z
1/2-x,1/2+y,z
x,1/2-y,1/2+z
loop_
_atom_site_type_symbol
_atom_site_label
_atom_site_fract_x
_atom_site_fract_y
_atom_site_fract_z
Si Si1 0.066030 0.548474 0.261688
Si Si2 0.407078 0.911882 0.138390
Si Si3 0.325277 0.397386 0.259172
Si Si4 0.534446 0.707694 0.683623
O O1 0.062254 0.473183 0.317906
O O2 0.092568 0.581980 0.537509
O O3 0.153181 0.563030 0.032343
O O4 0.955969 0.574820 0.158459
O O5 0.285631 0.906492 0.134813
O O6 0.450738 0.846108 0.247085
O O7 0.352131 0.323689 0.307910
O O8 0.519850 0.734858 0.385497
#
# Coordination Sequence:
#
# PCOD8249522 Si02
#       4
#     8   8   8   8
#     4  10  23  40  64 101 129 156 214 269 320 395
#     4  10  23  41  68  93 128 172 207 264 333 376
#     4  11  23  41  65  93 129 167 209 267 326 380
#     4  11  25  42  59  88 124 163 216 258 295 372
#
# _framework density 23.206823
#
# number of rings (size 3 to 8) (size 9 to 14) (size 15 to 20)
#    0.000    1.500    0.000    4.500    0.000   19.000 
#    0.000    0.000    0.000    0.000    0.000    0.000 
#    0.000    0.000    0.000    0.000    0.000    0.000 
#
# Total GULP energy -396647.317697 kJ/mol
# GULP energy per Si atom -12395.228678 kJ/mol
# Density = 2.315400 g / cm^3
# Si number density = 23.206823 Si / 1000 Ang^3
#
#
#
# Elastic Constant Matrix: (Units=GPa)
#
#
# Indices 1 2 3 4 5 6 
#
# 1 136.2850 40.6218 -4.9306 0.0000 0.0000 0.0000
# 2 40.6218 144.2590 28.3217 0.0000 0.0000 0.0000
# 3 -4.9306 28.3217 67.2734 0.0000 0.0000 0.0000
# 4 0.0000 0.0000 0.0000 46.3218 0.0000 0.0000
# 5 0.0000 0.0000 0.0000 0.0000 18.7203 0.0000
# 6 0.0000 0.0000 0.0000 0.0000 0.0000 33.5427
#
#
#
# Elastic Compliance Matrix: (Units=1/GPa)
#
#
# Indices 1 2 3 4 5 6 
#
# 1 0.008187 -0.002641 0.001712 0.000000 0.000000 0.000000
# 2 -0.002641 0.008409 -0.003734 0.000000 0.000000 0.000000
# 3 0.001712 -0.003734 0.016562 0.000000 0.000000 0.000000
# 4 0.000000 0.000000 0.000000 0.021588 0.000000 0.000000
# 5 0.000000 0.000000 0.000000 0.000000 0.053418 0.000000
# 6 0.000000 0.000000 0.000000 0.000000 0.000000 0.029813
#
#
# Mechanical properties :
#
#
# Convention : Reuss Voigt Hill
#
# Bulk Modulus (GPa) = 41.96108 52.87145 47.41627
# Shear Modulus (GPa) = 32.20685 38.63726 35.42205
#
# Velocity S-wave (km/s) = 3.72938 4.08476 3.91111
# Velocity P-wave (km/s) = 6.05516 6.71410 6.39313
#
# Compressibility (1/GPa) = 0.02383161
#
# Stress axis : x y z
#
# Youngs Moduli (GPa) = 122.14742 118.92313 60.37899
#
# Poissons Ratio (x) = 0.31413 -0.10337
# Poissons Ratio (y) = 0.32265 0.22543
# Poissons Ratio (z) = -0.20912 0.44402
#
# Static dielectric constant tensor:
#      x y z
#    x 4.082200 0.000000 0.000000 
#    y 0.000000 4.345070 0.000000 
#    z 0.000000 0.000000 4.071440 
# 
# 
# High freq. dielectric constant tensor:
#      x y z
#    x 1.907000 0.000000 0.000000 
#    y 0.000000 1.929730 0.000000 
#    z 0.000000 0.000000 1.925160 
# 
# From -- ./inp_files/171.got.cif
#   From: 2010.03.12/outbox.cif.g09.slc.cpg/sg61_1_cif.got.tgz:171.got - 2010.04.10 19:05:03.
