data_PCOD8249440
_publ_section_title
;
Structure prediction by ZEFSAII (Michael W. Deem and Ramdas Pophale) SiO2 
 PCOD8249440
Probable space group: P B C A
;
_chemical_formula_sum "Si O2"
_cell_formula_units_Z 64
_cell_length_a 19.860431
_cell_length_b 14.937860
_cell_length_c 9.960086
_cell_angle_alpha 90.000000
_cell_angle_beta 90.000000
_cell_angle_gamma 90.000000
_cell_volume 2954.881998
_symmetry_space_group_name_H-M "P B C A"
_symmetry_group_IT_number 61
_symmetry_cell_setting 'orthorhombic'
loop_
_space_group_symop_operation_xyz
x,y,z
1/2-x,-y,1/2+z
1/2+x,1/2-y,-z
-x,1/2+y,1/2-z
-x,-y,-z
1/2+x,y,1/2-z
1/2-x,1/2+y,z
x,1/2-y,1/2+z
loop_
_atom_site_type_symbol
_atom_site_label
_atom_site_fract_x
_atom_site_fract_y
_atom_site_fract_z
Si Si1 0.486565 0.158722 0.312365
Si Si2 0.627551 0.388034 0.927111
Si Si3 0.779201 0.576890 0.184653
Si Si4 0.722778 0.249323 0.011642
Si Si5 0.439161 0.206376 0.042190
Si Si6 0.363550 0.456393 0.878605
Si Si7 0.329001 0.403403 0.416071
Si Si8 0.668090 0.662512 0.869032
O O1 0.555372 0.113758 0.357928
O O2 0.496254 0.186354 0.155009
O O3 0.468321 0.239590 0.414667
O O4 0.429965 0.081361 0.307827
O O5 0.681426 0.430594 0.824658
O O6 0.650216 0.287978 0.969791
O O7 0.622958 0.444601 0.064747
O O8 0.785993 0.678334 0.131526
O O9 0.701506 0.549306 0.220157
O O10 0.806259 0.507311 0.068933
O O11 0.770813 0.332312 0.051888
O O12 0.756466 0.202948 0.881058
O O13 0.386058 0.258826 0.134224
O O14 0.399468 0.117682 0.990696
O O15 0.344440 0.393034 0.999256
O O16 0.342452 0.398570 0.257873
#
# Coordination Sequence:
#
# PCOD8249440 Si02
#       8
#     8   8   8   8   8   8   8   8
#     4  11  25  42  69  96 141 185 237 276 353 419
#     4  12  24  42  67  94 143 177 226 289 360 410
#     4  11  24  40  68 103 138 174 234 297 349 412
#     4  10  23  37  61 100 134 171 223 288 350 409
#     4  10  22  41  68  97 130 187 232 282 331 430
#     4  10  22  42  65  96 129 183 227 277 343 423
#     4  11  19  39  70  95 134 178 233 283 353 407
#     4   9  18  37  63  92 126 170 226 277 326 410
#
# _framework density 21.659071000000001
#
# number of rings (size 3 to 8) (size 9 to 14) (size 15 to 20)
#    0.000    1.500    3.750    1.875    5.250    0.000 
#    0.000    0.625    5.500    0.000    0.000    0.000 
#    0.000    0.000    0.000    0.000    0.000    0.000 
#
# Total GULP energy -793196.706297 kJ/mol
# GULP energy per Si atom -12393.698536 kJ/mol
# Density = 2.160977 g / cm^3
# Si number density = 21.659071 Si / 1000 Ang^3
#
#
#
# Elastic Constant Matrix: (Units=GPa)
#
#
# Indices 1 2 3 4 5 6 
#
# 1 81.6135 8.3274 15.8619 0.0000 0.0000 0.0000
# 2 8.3274 82.0157 13.2950 0.0000 0.0000 0.0000
# 3 15.8619 13.2950 76.5203 0.0000 0.0000 0.0000
# 4 0.0000 0.0000 0.0000 19.5482 0.0000 0.0000
# 5 0.0000 0.0000 0.0000 0.0000 28.7920 0.0000
# 6 0.0000 0.0000 0.0000 0.0000 0.0000 26.4462
#
#
#
# Elastic Compliance Matrix: (Units=1/GPa)
#
#
# Indices 1 2 3 4 5 6 
#
# 1 0.012831 -0.000897 -0.002504 0.000000 0.000000 0.000000
# 2 -0.000897 0.012609 -0.002005 0.000000 0.000000 0.000000
# 3 -0.002504 -0.002005 0.013936 0.000000 0.000000 0.000000
# 4 0.000000 0.000000 0.000000 0.051156 0.000000 0.000000
# 5 0.000000 0.000000 0.000000 0.000000 0.034732 0.000000
# 6 0.000000 0.000000 0.000000 0.000000 0.000000 0.037813
#
#
# Mechanical properties :
#
#
# Convention : Reuss Voigt Hill
#
# Bulk Modulus (GPa) = 35.00857 35.01312 35.01084
# Shear Modulus (GPa) = 27.26156 28.46829 27.86492
#
# Velocity S-wave (km/s) = 3.55162 3.62937 3.59071
# Velocity P-wave (km/s) = 5.74606 5.81066 5.77845
#
# Compressibility (1/GPa) = 0.02856444
#
# Stress axis : x y z
#
# Youngs Moduli (GPa) = 77.93603 79.30939 71.75767
#
# Poissons Ratio (x) = 0.07113 0.17968
# Poissons Ratio (y) = 0.06990 0.14386
# Poissons Ratio (z) = 0.19515 0.15900
#
# Static dielectric constant tensor:
#      x y z
#    x 4.057870 0.000000 0.000000 
#    y 0.000000 4.132870 0.000000 
#    z 0.000000 0.000000 3.822950 
# 
# 
# High freq. dielectric constant tensor:
#      x y z
#    x 1.834530 0.000000 0.000000 
#    y 0.000000 1.849540 0.000000 
#    z 0.000000 0.000000 1.846670 
# 
# From -- ./inp_files/6310.got.cif
#   From: 2010.03.12/outbox.cif.g09.slc.cpg/sg61_4_cif.got.tgz:6310.got - 2010.04.10 19:05:03.
