data_PCOD8249298
_publ_section_title
;
Structure prediction by ZEFSAII (Michael W. Deem and Ramdas Pophale) SiO2 
 PCOD8249298
Probable space group: P B C A
;
_chemical_formula_sum "Si O2"
_cell_formula_units_Z 64
_cell_length_a 10.816931
_cell_length_b 15.967659
_cell_length_c 18.423927
_cell_angle_alpha 90.000000
_cell_angle_beta 90.000000
_cell_angle_gamma 90.000000
_cell_volume 3182.200305
_symmetry_space_group_name_H-M "P B C A"
_symmetry_group_IT_number 61
_symmetry_cell_setting 'orthorhombic'
loop_
_space_group_symop_operation_xyz
x,y,z
1/2-x,-y,1/2+z
1/2+x,1/2-y,-z
-x,1/2+y,1/2-z
-x,-y,-z
1/2+x,y,1/2-z
1/2-x,1/2+y,z
x,1/2-y,1/2+z
loop_
_atom_site_type_symbol
_atom_site_label
_atom_site_fract_x
_atom_site_fract_y
_atom_site_fract_z
Si Si1 0.360254 0.892138 0.334242
Si Si2 0.469552 0.719537 0.946047
Si Si3 0.435397 0.979784 0.668027
Si Si4 0.382370 0.018197 0.826184
Si Si5 0.465191 0.185713 0.392032
Si Si6 0.802665 0.874287 0.568411
Si Si7 0.062978 0.340185 0.183814
Si Si8 0.791020 0.374063 0.408425
O O1 0.372949 0.846687 0.411904
O O2 0.218254 0.908580 0.317589
O O3 0.421124 0.835691 0.270799
O O4 0.427913 0.981606 0.336087
O O5 0.418798 0.811233 0.926075
O O6 0.604176 0.697862 0.913702
O O7 0.475881 0.712214 0.031939
O O8 0.445449 0.888665 0.633620
O O9 0.389719 0.967792 0.750665
O O10 0.342244 0.038634 0.622944
O O11 0.508087 0.069563 0.840710
O O12 0.349513 0.958066 0.892622
O O13 0.320633 0.162041 0.393956
O O14 0.474806 0.263363 0.337293
O O15 0.770124 0.895668 0.485552
O O16 0.194467 0.331841 0.145404
#
# Coordination Sequence:
#
# PCOD8249298 Si02
#       8
#     8   8   8   8   8   8   8   8
#     4  10  21  41  65  90 128 167 211 257 324 373
#     4  10  23  40  64  93 124 165 212 259 314 378
#     4  10  22  41  64  95 122 169 214 259 316 384
#     4  11  23  40  66  93 131 163 214 266 311 386
#     4  11  23  42  67  91 129 165 218 265 314 379
#     4  11  23  42  65  96 126 166 221 258 314 386
#     4  11  23  43  62  93 130 167 203 268 325 373
#     4  10  22  43  64  89 133 165 208 262 321 378
#
# _framework density 20.111871000000001
#
# number of rings (size 3 to 8) (size 9 to 14) (size 15 to 20)
#    0.000    1.500    3.750    0.750    3.500    2.000 
#    2.250    0.000    0.000    0.000    0.000    0.000 
#    0.000    0.000    0.000    0.000    0.000    0.000 
#
# Total GULP energy -793630.178196 kJ/mol
# GULP energy per Si atom -12400.471534 kJ/mol
# Density = 2.006610 g / cm^3
# Si number density = 20.111871 Si / 1000 Ang^3
#
#
#
# Elastic Constant Matrix: (Units=GPa)
#
#
# Indices 1 2 3 4 5 6 
#
# 1 76.6845 32.5781 26.1507 0.0000 0.0000 0.0000
# 2 32.5781 98.6606 44.4809 0.0000 0.0000 0.0000
# 3 26.1507 44.4809 70.2751 0.0000 0.0000 0.0000
# 4 0.0000 0.0000 0.0000 33.8940 0.0000 0.0000
# 5 0.0000 0.0000 0.0000 0.0000 27.5099 0.0000
# 6 0.0000 0.0000 0.0000 0.0000 0.0000 28.8771
#
#
#
# Elastic Compliance Matrix: (Units=1/GPa)
#
#
# Indices 1 2 3 4 5 6 
#
# 1 0.015795 -0.003590 -0.003605 0.000000 0.000000 0.000000
# 2 -0.003590 0.014999 -0.008158 0.000000 0.000000 0.000000
# 3 -0.003605 -0.008158 0.020735 0.000000 0.000000 0.000000
# 4 0.000000 0.000000 0.000000 0.029504 0.000000 0.000000
# 5 0.000000 0.000000 0.000000 0.000000 0.036350 0.000000
# 6 0.000000 0.000000 0.000000 0.000000 0.000000 0.034630
#
#
# Mechanical properties :
#
#
# Convention : Reuss Voigt Hill
#
# Bulk Modulus (GPa) = 48.02449 50.22662 49.12556
# Shear Modulus (GPa) = 26.36292 27.55024 26.95658
#
# Velocity S-wave (km/s) = 3.62444 3.70516 3.66503
# Velocity P-wave (km/s) = 6.43786 6.58272 6.51069
#
# Compressibility (1/GPa) = 0.02082271
#
# Stress axis : x y z
#
# Youngs Moduli (GPa) = 63.31070 66.67034 48.22791
#
# Poissons Ratio (x) = 0.23936 0.17387
# Poissons Ratio (y) = 0.22730 0.39343
# Poissons Ratio (z) = 0.22825 0.54388
#
# Static dielectric constant tensor:
#      x y z
#    x 3.698160 0.000000 0.000000 
#    y 0.000000 3.435480 0.000000 
#    z 0.000000 0.000000 3.753990 
# 
# 
# High freq. dielectric constant tensor:
#      x y z
#    x 1.791090 0.000000 0.000000 
#    y 0.000000 1.773000 0.000000 
#    z 0.000000 0.000000 1.793790 
# 
# From -- ./inp_files/9283.got.cif
#   From: 2010.03.12/outbox.cif.g09.slc.cpg/sg61_5_cif.got.tgz:9283.got - 2010.04.10 19:05:03.
