data_PCOD8249192
_publ_section_title
;
Structure prediction by ZEFSAII (Michael W. Deem and Ramdas Pophale) SiO2 
 PCOD8249192
Probable space group: P B C A
;
_chemical_formula_sum "Si O2"
_cell_formula_units_Z 64
_cell_length_a 10.353702
_cell_length_b 9.090098
_cell_length_c 31.346477
_cell_angle_alpha 90.000000
_cell_angle_beta 90.000000
_cell_angle_gamma 90.000000
_cell_volume 2950.210228
_symmetry_space_group_name_H-M "P B C A"
_symmetry_group_IT_number 61
_symmetry_cell_setting 'orthorhombic'
loop_
_space_group_symop_operation_xyz
x,y,z
1/2-x,-y,1/2+z
1/2+x,1/2-y,-z
-x,1/2+y,1/2-z
-x,-y,-z
1/2+x,y,1/2-z
1/2-x,1/2+y,z
x,1/2-y,1/2+z
loop_
_atom_site_type_symbol
_atom_site_label
_atom_site_fract_x
_atom_site_fract_y
_atom_site_fract_z
Si Si1 0.580669 0.806482 0.469129
Si Si2 0.421132 0.288277 0.321565
Si Si3 0.837043 0.641187 0.474909
Si Si4 0.663388 0.690753 0.312055
Si Si5 0.644726 0.381352 0.267527
Si Si6 0.802645 0.514334 0.676913
Si Si7 0.377736 0.832641 0.620585
Si Si8 0.513170 0.643138 0.874243
O O1 0.688577 0.688889 0.485841
O O2 0.447749 0.787258 0.495469
O O3 0.533734 0.780412 0.420201
O O4 0.646879 0.965445 0.476092
O O5 0.520953 0.283675 0.281659
O O6 0.348431 0.444554 0.323940
O O7 0.498190 0.261317 0.365131
O O8 0.313343 0.160831 0.317778
O O9 0.858856 0.707815 0.428288
O O10 0.647089 0.525057 0.297201
O O11 0.721692 0.789862 0.273531
O O12 0.756605 0.716964 0.352292
O O13 0.531901 0.749470 0.333388
O O14 0.627124 0.417300 0.218312
O O15 0.869086 0.576711 0.633542
O O16 0.390502 0.005742 0.628950
#
# Coordination Sequence:
#
# PCOD8249192 Si02
#       8
#     8   8   8   8   8   8   8   8
#     4  10  22  40  65  95 130 165 211 255 323 369
#     4  10  25  41  58  87 118 166 199 258 313 374
#     4  10  21  39  66  96 131 165 206 266 306 388
#     4  11  20  38  62  90 112 160 207 256 299 365
#     4  11  25  37  63  87 120 156 211 257 312 363
#     4  11  25  41  58  84 128 157 209 259 316 371
#     4   9  19  40  62  89 121 156 210 253 305 365
#     4  10  21  38  62  86 121 165 202 256 306 370
#
# _framework density 21.693369000000001
#
# number of rings (size 3 to 8) (size 9 to 14) (size 15 to 20)
#    0.000    1.750    2.500    0.750    5.250    1.500 
#    0.000    0.000    0.000    0.000    0.000    0.000 
#    0.000    0.000    0.000    0.000    0.000    0.000 
#
# Total GULP energy -793283.490027 kJ/mol
# GULP energy per Si atom -12395.054532 kJ/mol
# Density = 2.164399 g / cm^3
# Si number density = 21.693369 Si / 1000 Ang^3
#
#
#
# Elastic Constant Matrix: (Units=GPa)
#
#
# Indices 1 2 3 4 5 6 
#
# 1 73.2775 19.1842 25.2066 0.0000 0.0000 0.0000
# 2 19.1842 63.3026 13.0179 0.0000 0.0000 0.0000
# 3 25.2066 13.0179 69.6393 0.0000 0.0000 0.0000
# 4 0.0000 0.0000 0.0000 20.8683 0.0000 0.0000
# 5 0.0000 0.0000 0.0000 0.0000 28.6793 0.0000
# 6 0.0000 0.0000 0.0000 0.0000 0.0000 40.1849
#
#
#
# Elastic Compliance Matrix: (Units=1/GPa)
#
#
# Indices 1 2 3 4 5 6 
#
# 1 0.016471 -0.003916 -0.005230 0.000000 0.000000 0.000000
# 2 -0.003916 0.017360 -0.001828 0.000000 0.000000 0.000000
# 3 -0.005230 -0.001828 0.016594 0.000000 0.000000 0.000000
# 4 0.000000 0.000000 0.000000 0.047920 0.000000 0.000000
# 5 0.000000 0.000000 0.000000 0.000000 0.034868 0.000000
# 6 0.000000 0.000000 0.000000 0.000000 0.000000 0.024885
#
#
# Mechanical properties :
#
#
# Convention : Reuss Voigt Hill
#
# Bulk Modulus (GPa) = 35.11483 35.67075 35.39279
# Shear Modulus (GPa) = 26.37995 27.86721 27.12358
#
# Velocity S-wave (km/s) = 3.49096 3.58801 3.53982
# Velocity P-wave (km/s) = 5.69834 5.80034 5.74957
#
# Compressibility (1/GPa) = 0.02847800
#
# Stress axis : x y z
#
# Youngs Moduli (GPa) = 60.71279 57.60433 60.26157
#
# Poissons Ratio (x) = 0.22559 0.31515
# Poissons Ratio (y) = 0.23776 0.11014
# Poissons Ratio (z) = 0.31751 0.10528
#
# Static dielectric constant tensor:
#      x y z
#    x 3.857090 0.000000 0.000000 
#    y 0.000000 3.826190 0.000000 
#    z 0.000000 0.000000 3.880060 
# 
# 
# High freq. dielectric constant tensor:
#      x y z
#    x 1.851580 0.000000 0.000000 
#    y 0.000000 1.843920 0.000000 
#    z 0.000000 0.000000 1.843340 
# 
# From -- ./inp_files/11797.got.cif
#   From: 2010.03.12/outbox.cif.g09.slc.cpg/sg61_6_cif.got.tgz:11797.got - 2010.04.10 19:05:03.
