data_PCOD8249742
_publ_section_title
;
Structure prediction by ZEFSAII (Michael W. Deem and Ramdas Pophale) SiO2 
 PCOD8249742
Probable space group: P B C A
;
_chemical_formula_sum "Si O2"
_cell_formula_units_Z 64
_cell_length_a 10.770686
_cell_length_b 15.852864
_cell_length_c 17.142392
_cell_angle_alpha 90.000000
_cell_angle_beta 90.000000
_cell_angle_gamma 90.000000
_cell_volume 2926.998642
_symmetry_space_group_name_H-M "P B C A"
_symmetry_group_IT_number 61
_symmetry_cell_setting 'orthorhombic'
loop_
_space_group_symop_operation_xyz
x,y,z
1/2-x,-y,1/2+z
1/2+x,1/2-y,-z
-x,1/2+y,1/2-z
-x,-y,-z
1/2+x,y,1/2-z
1/2-x,1/2+y,z
x,1/2-y,1/2+z
loop_
_atom_site_type_symbol
_atom_site_label
_atom_site_fract_x
_atom_site_fract_y
_atom_site_fract_z
Si Si1 0.272813 0.438437 0.972499
Si Si2 0.466048 0.299394 0.963406
Si Si3 0.907029 0.519927 0.661682
Si Si4 0.947904 0.837667 0.581274
Si Si5 0.635531 0.202609 0.698981
Si Si6 0.903592 0.251678 0.204504
Si Si7 0.146017 0.432657 0.595750
Si Si8 0.371217 0.412721 0.698746
O O1 0.374386 0.369649 0.998251
O O2 0.298243 0.472158 0.885198
O O3 0.139088 0.394372 0.973323
O O4 0.273397 0.515977 0.032717
O O5 0.407381 0.253326 0.888586
O O6 0.595711 0.345404 0.941302
O O7 0.478313 0.228318 0.028506
O O8 0.890632 0.619368 0.648332
O O9 0.897126 0.499533 0.754372
O O10 0.036735 0.492625 0.624893
O O11 0.870117 0.785506 0.645123
O O12 0.041855 0.901671 0.623545
O O13 0.529430 0.203534 0.765659
O O14 0.777551 0.199349 0.731952
O O15 0.899092 0.158054 0.237758
O O16 0.229414 0.408970 0.670148
#
# Coordination Sequence:
#
# PCOD8249742 Si02
#       8
#     8   8   8   8   8   8   8   8
#     4  11  23  43  70  96 138 181 227 279 351 418
#     4  11  22  43  69  95 132 182 224 284 344 423
#     4  11  24  43  70  94 139 184 226 278 349 422
#     4  11  25  41  68 100 138 173 233 287 355 411
#     4  11  24  42  67 103 133 179 231 289 342 419
#     4  11  23  44  70  99 137 181 233 284 354 414
#     4  11  24  42  69  99 134 180 237 275 351 421
#     4  11  25  42  69 100 137 183 225 294 346 418
#
# _framework density 21.865402
#
# number of rings (size 3 to 8) (size 9 to 14) (size 15 to 20)
#    0.000    1.000    3.750    3.750    7.000    2.500 
#    0.000    0.000    0.000    0.000    0.000    0.000 
#    0.000    0.000    0.000    0.000    0.000    0.000 
#
# Total GULP energy -793815.279087 kJ/mol
# GULP energy per Si atom -12403.363736 kJ/mol
# Density = 2.181563 g / cm^3
# Si number density = 21.865402 Si / 1000 Ang^3
#
#
#
# Elastic Constant Matrix: (Units=GPa)
#
#
# Indices 1 2 3 4 5 6 
#
# 1 87.4802 22.0418 21.4375 0.0000 0.0000 0.0000
# 2 22.0418 64.6657 9.4466 0.0000 0.0000 0.0000
# 3 21.4375 9.4466 76.9837 0.0000 0.0000 0.0000
# 4 0.0000 0.0000 0.0000 36.9197 0.0000 0.0000
# 5 0.0000 0.0000 0.0000 0.0000 31.3576 0.0000
# 6 0.0000 0.0000 0.0000 0.0000 0.0000 24.3166
#
#
#
# Elastic Compliance Matrix: (Units=1/GPa)
#
#
# Indices 1 2 3 4 5 6 
#
# 1 0.013231 -0.004044 -0.003188 0.000000 0.000000 0.000000
# 2 -0.004044 0.016983 -0.000958 0.000000 0.000000 0.000000
# 3 -0.003188 -0.000958 0.013995 0.000000 0.000000 0.000000
# 4 0.000000 0.000000 0.000000 0.027086 0.000000 0.000000
# 5 0.000000 0.000000 0.000000 0.000000 0.031890 0.000000
# 6 0.000000 0.000000 0.000000 0.000000 0.000000 0.041124
#
#
# Mechanical properties :
#
#
# Convention : Reuss Voigt Hill
#
# Bulk Modulus (GPa) = 35.93422 37.22014 36.57718
# Shear Modulus (GPa) = 29.41763 30.26569 29.84166
#
# Velocity S-wave (km/s) = 3.67194 3.72450 3.69831
# Velocity P-wave (km/s) = 5.86920 5.96282 5.91619
#
# Compressibility (1/GPa) = 0.02782863
#
# Stress axis : x y z
#
# Youngs Moduli (GPa) = 75.57741 58.88386 71.45349
#
# Poissons Ratio (x) = 0.23814 0.22781
# Poissons Ratio (y) = 0.30566 0.06843
# Poissons Ratio (z) = 0.24096 0.05639
#
# Static dielectric constant tensor:
#      x y z
#    x 3.954200 0.000000 0.000000 
#    y 0.000000 3.877280 0.000000 
#    z 0.000000 0.000000 3.831820 
# 
# 
# High freq. dielectric constant tensor:
#      x y z
#    x 1.860660 0.000000 0.000000 
#    y 0.000000 1.855140 0.000000 
#    z 0.000000 0.000000 1.854430 
# 
# From -- ./inp_files/9299.got.cif
#   From: 2010.03.12/outbox.cif.g09.slc.cpg/sg61_5_cif.got.tgz:9299.got - 2010.04.10 19:05:03.
