data_PCOD8249916
_publ_section_title
;
Structure prediction by ZEFSAII (Michael W. Deem and Ramdas Pophale) SiO2 
 PCOD8249916
Probable space group: P B C A
;
_chemical_formula_sum "Si O2"
_cell_formula_units_Z 32
_cell_length_a 16.580688
_cell_length_b 9.595120
_cell_length_c 8.608114
_cell_angle_alpha 90.000000
_cell_angle_beta 90.000000
_cell_angle_gamma 90.000000
_cell_volume 1369.496629
_symmetry_space_group_name_H-M "P B C A"
_symmetry_group_IT_number 61
_symmetry_cell_setting 'orthorhombic'
loop_
_space_group_symop_operation_xyz
x,y,z
1/2-x,-y,1/2+z
1/2+x,1/2-y,-z
-x,1/2+y,1/2-z
-x,-y,-z
1/2+x,y,1/2-z
1/2-x,1/2+y,z
x,1/2-y,1/2+z
loop_
_atom_site_type_symbol
_atom_site_label
_atom_site_fract_x
_atom_site_fract_y
_atom_site_fract_z
Si Si1 0.188058 0.831378 0.983244
Si Si2 0.782458 0.055844 0.674079
Si Si3 0.006333 0.650728 0.430879
Si Si4 0.053515 0.396887 0.902215
O O1 0.231280 0.685610 0.942282
O O2 0.094279 0.792006 0.974927
O O3 0.208014 0.950465 0.854745
O O4 0.216678 0.886586 0.150741
O O5 0.861640 0.965173 0.637915
O O6 0.000000 0.500000 0.500000
O O7 0.937554 0.753256 0.500478
O O8 0.996564 0.645124 0.248374
O O9 0.000000 0.500000 0.000000
#
# Coordination Sequence:
#
# PCOD8249916 Si02
#       4
#     8   8   8   8
#     4  12  27  50  73 112 150 196 242 309 364 447
#     4  12  28  48  75 107 152 192 248 299 376 437
#     4  12  25  47  76 108 149 188 248 299 363 435
#     4  12  26  47  76 108 143 198 242 306 363 432
#
# _framework density 23.366249
#
# number of rings (size 3 to 8) (size 9 to 14) (size 15 to 20)
#    0.000    0.000    5.000    4.500    7.000    2.000 
#    0.000    0.000    0.000    0.000    0.000    0.000 
#    0.000    0.000    0.000    0.000    0.000    0.000 
#
# Total GULP energy -396878.331479 kJ/mol
# GULP energy per Si atom -12402.447859 kJ/mol
# Density = 2.331307 g / cm^3
# Si number density = 23.366249 Si / 1000 Ang^3
#
#
#
# Elastic Constant Matrix: (Units=GPa)
#
#
# Indices 1 2 3 4 5 6 
#
# 1 51.6690 21.8641 21.1999 0.0000 0.0000 0.0000
# 2 21.8641 173.9340 54.7771 0.0000 0.0000 0.0000
# 3 21.1999 54.7771 156.9245 0.0000 0.0000 0.0000
# 4 0.0000 0.0000 0.0000 45.2640 0.0000 0.0000
# 5 0.0000 0.0000 0.0000 0.0000 35.0492 0.0000
# 6 0.0000 0.0000 0.0000 0.0000 0.0000 36.6358
#
#
#
# Elastic Compliance Matrix: (Units=1/GPa)
#
#
# Indices 1 2 3 4 5 6 
#
# 1 0.021073 -0.001969 -0.002160 0.000000 0.000000 0.000000
# 2 -0.001969 0.006643 -0.002053 0.000000 0.000000 0.000000
# 3 -0.002160 -0.002053 0.007381 0.000000 0.000000 0.000000
# 4 0.000000 0.000000 0.000000 0.022093 0.000000 0.000000
# 5 0.000000 0.000000 0.000000 0.000000 0.028531 0.000000
# 6 0.000000 0.000000 0.000000 0.000000 0.000000 0.027296
#
#
# Mechanical properties :
#
#
# Convention : Reuss Voigt Hill
#
# Bulk Modulus (GPa) = 43.98606 64.24553 54.11580
# Shear Modulus (GPa) = 37.60581 42.36890 39.98735
#
# Velocity S-wave (km/s) = 4.01609 4.26285 4.14131
# Velocity P-wave (km/s) = 6.35380 7.19610 6.78803
#
# Compressibility (1/GPa) = 0.02273448
#
# Stress axis : x y z
#
# Youngs Moduli (GPa) = 47.45361 150.52658 135.48517
#
# Poissons Ratio (x) = 0.29636 0.29260
# Poissons Ratio (y) = 0.09343 0.27815
# Poissons Ratio (z) = 0.10248 0.30903
#
# Static dielectric constant tensor:
#      x y z
#    x 3.971550 0.000000 0.000000 
#    y 0.000000 4.598790 0.000000 
#    z 0.000000 0.000000 4.315030 
# 
# 
# High freq. dielectric constant tensor:
#      x y z
#    x 1.913060 0.000000 0.000000 
#    y 0.000000 1.955820 0.000000 
#    z 0.000000 0.000000 1.936530 
# 
# From -- ./inp_files/1645.got.cif
#   From: 2010.03.12/outbox.cif.g09.slc.cpg/sg61_1_cif.got.tgz:1645.got - 2010.04.10 19:05:03.
