data_PCOD8249875
_publ_section_title
;
Structure prediction by ZEFSAII (Michael W. Deem and Ramdas Pophale) SiO2 
 PCOD8249875
Probable space group: P B C A
;
_chemical_formula_sum "Si O2"
_cell_formula_units_Z 48
_cell_length_a 9.047717
_cell_length_b 13.426589
_cell_length_c 18.632719
_cell_angle_alpha 90.000000
_cell_angle_beta 90.000000
_cell_angle_gamma 90.000000
_cell_volume 2263.502286
_symmetry_space_group_name_H-M "P B C A"
_symmetry_group_IT_number 61
_symmetry_cell_setting 'orthorhombic'
loop_
_space_group_symop_operation_xyz
x,y,z
1/2-x,-y,1/2+z
1/2+x,1/2-y,-z
-x,1/2+y,1/2-z
-x,-y,-z
1/2+x,y,1/2-z
1/2-x,1/2+y,z
x,1/2-y,1/2+z
loop_
_atom_site_type_symbol
_atom_site_label
_atom_site_fract_x
_atom_site_fract_y
_atom_site_fract_z
Si Si1 0.131765 0.423659 0.918266
Si Si2 0.452273 0.718860 0.173954
Si Si3 0.322123 0.539051 0.823733
Si Si4 0.285739 0.741630 0.318344
Si Si5 0.348452 0.505476 0.180419
Si Si6 0.611146 0.410188 0.414713
O O1 0.287544 0.471548 0.893494
O O2 0.111996 0.321731 0.872980
O O3 0.002397 0.500817 0.897810
O O4 0.137206 0.397162 0.001185
O O5 0.370391 0.757949 0.244107
O O6 0.623303 0.692799 0.191215
O O7 0.371310 0.617061 0.149713
O O8 0.443061 0.803014 0.112951
O O9 0.261721 0.646983 0.846728
O O10 0.235174 0.491295 0.756301
O O11 0.494379 0.546053 0.805736
O O12 0.264749 0.439038 0.122192
#
# Coordination Sequence:
#
# PCOD8249875 Si02
#       6
#     8   8   8   8   8   8
#     4  11  25  48  67  96 143 182 220 286 354 404
#     4  12  24  43  69 104 131 176 236 281 342 416
#     4  12  23  43  70 101 134 178 230 282 339 410
#     4  12  25  42  72 102 132 179 230 285 339 413
#     4  12  24  42  71 101 134 177 229 282 337 408
#     4  11  27  46  68 100 142 183 224 287 354 409
#
# _framework density 21.206074999999998
#
# number of rings (size 3 to 8) (size 9 to 14) (size 15 to 20)
#    0.000    0.333    6.667    2.000    2.333    2.000 
#    3.000    0.000    0.000    0.000    0.000    0.000 
#    0.000    0.000    0.000    0.000    0.000    0.000 
#
# Total GULP energy -595339.749335 kJ/mol
# GULP energy per Si atom -12402.911444 kJ/mol
# Density = 2.115781 g / cm^3
# Si number density = 21.206075 Si / 1000 Ang^3
#
#
#
# Elastic Constant Matrix: (Units=GPa)
#
#
# Indices 1 2 3 4 5 6 
#
# 1 123.7864 15.9699 34.3857 0.0000 0.0000 0.0000
# 2 15.9699 104.7533 27.3652 0.0000 0.0000 0.0000
# 3 34.3857 27.3652 94.3833 0.0000 0.0000 0.0000
# 4 0.0000 0.0000 0.0000 37.4506 0.0000 0.0000
# 5 0.0000 0.0000 0.0000 0.0000 26.9226 0.0000
# 6 0.0000 0.0000 0.0000 0.0000 0.0000 36.6466
#
#
#
# Elastic Compliance Matrix: (Units=1/GPa)
#
#
# Indices 1 2 3 4 5 6 
#
# 1 0.009018 -0.000559 -0.003123 0.000000 0.000000 0.000000
# 2 -0.000559 0.010363 -0.002801 0.000000 0.000000 0.000000
# 3 -0.003123 -0.002801 0.012545 0.000000 0.000000 0.000000
# 4 0.000000 0.000000 0.000000 0.026702 0.000000 0.000000
# 5 0.000000 0.000000 0.000000 0.000000 0.037143 0.000000
# 6 0.000000 0.000000 0.000000 0.000000 0.000000 0.027288
#
#
# Mechanical properties :
#
#
# Convention : Reuss Voigt Hill
#
# Bulk Modulus (GPa) = 52.74338 53.15159 52.94749
# Shear Modulus (GPa) = 35.12563 36.55077 35.83820
#
# Velocity S-wave (km/s) = 4.07430 4.15613 4.11542
# Velocity P-wave (km/s) = 6.85996 6.93902 6.89960
#
# Compressibility (1/GPa) = 0.01895973
#
# Stress axis : x y z
#
# Youngs Moduli (GPa) = 110.88717 96.49553 79.71201
#
# Poissons Ratio (x) = 0.05393 0.24898
# Poissons Ratio (y) = 0.06197 0.22328
# Poissons Ratio (z) = 0.34635 0.27029
#
# Static dielectric constant tensor:
#      x y z
#    x 3.900330 0.000000 0.000000 
#    y 0.000000 4.067780 0.000000 
#    z 0.000000 0.000000 3.619170 
# 
# 
# High freq. dielectric constant tensor:
#      x y z
#    x 1.837140 0.000000 0.000000 
#    y 0.000000 1.856470 0.000000 
#    z 0.000000 0.000000 1.811450 
# 
# From -- ./inp_files/8893.got.cif
#   From: 2010.03.12/outbox.cif.g09.slc.cpg/sg61_5_cif.got.tgz:8893.got - 2010.04.10 19:05:03.
