data_PCOD8249956
_publ_section_title
;
Structure prediction by ZEFSAII (Michael W. Deem and Ramdas Pophale) SiO2 
 PCOD8249956
Probable space group: P N M A
;
_chemical_formula_sum "Si O2"
_cell_formula_units_Z 64
_cell_length_a 17.707246
_cell_length_b 22.086766
_cell_length_c 8.989614
_cell_angle_alpha 90.000000
_cell_angle_beta 90.000000
_cell_angle_gamma 90.000000
_cell_volume 3515.800269
_symmetry_space_group_name_H-M "P N M A"
_symmetry_group_IT_number 62
_symmetry_cell_setting 'orthorhombic'
loop_
_space_group_symop_operation_xyz
x,y,z
1/2-x,-y,1/2+z
1/2+x,1/2-y,1/2-z
-x,1/2+y,-z
-x,-y,-z
1/2+x,y,1/2-z
1/2-x,1/2+y,1/2+z
x,1/2-y,z
loop_
_atom_site_type_symbol
_atom_site_label
_atom_site_fract_x
_atom_site_fract_y
_atom_site_fract_z
Si Si1 0.383969 0.091327 0.081998
Si Si2 0.770354 0.092041 0.160850
Si Si3 0.513646 0.681394 0.748041
Si Si4 0.022464 0.501864 0.740625
Si Si5 0.637525 0.998508 0.502936
Si Si6 0.388488 0.592246 0.714130
Si Si7 0.406277 0.409440 0.751194
Si Si8 0.370305 0.181376 0.515393
O O1 0.308208 0.101612 0.177270
O O2 0.446022 0.142275 0.123810
O O3 0.418965 0.024126 0.114322
O O4 0.363341 0.096047 0.908690
O O5 0.791000 0.024595 0.099034
O O6 0.680646 0.097864 0.171079
O O7 0.799735 0.142962 0.046427
O O8 0.506321 0.750000 0.805342
O O9 0.429958 0.656970 0.706485
O O10 0.561234 0.676714 0.598434
O O11 0.061474 0.510946 0.901335
O O12 0.949018 0.543789 0.729439
O O13 0.993295 0.432596 0.719133
O O14 0.634530 0.957484 0.355382
O O15 0.643848 0.068249 0.446796
O O16 0.402238 0.344330 0.671487
O O17 0.343110 0.250000 0.539811
#
# Coordination Sequence:
#
# PCOD8249956 Si02
#       8
#     8   8   8   8   8   8   8   8
#     4   9  18  30  46  71  99 123 152 197 249 293
#     4   9  19  32  46  69  99 128 157 193 240 293
#     4   9  18  33  50  69  93 122 160 202 241 286
#     4   9  17  31  48  70  99 128 157 196 248 297
#     4   9  18  32  48  68 100 130 158 196 240 293
#     4  10  17  28  51  74  92 124 165 200 236 282
#     4  10  16  27  50  73  91 121 163 201 234 285
#     4   9  18  33  51  68  92 130 169 201 239 289
#
# _framework density 18.203538000000002
#
# number of rings (size 3 to 8) (size 9 to 14) (size 15 to 20)
#    0.000    2.750    0.000    4.875    0.000    3.000 
#    0.000    1.250    0.000   12.000    0.000    3.500 
#    0.000    0.000    0.000    0.000    0.000    0.000 
#
# Total GULP energy -793002.400032 kJ/mol
# GULP energy per Si atom -12390.662500 kJ/mol
# Density = 1.816211 g / cm^3
# Si number density = 18.203538 Si / 1000 Ang^3
#
#
#
# Elastic Constant Matrix: (Units=GPa)
#
#
# Indices 1 2 3 4 5 6 
#
# 1 81.9251 27.0090 16.1338 0.0000 0.0000 0.0000
# 2 27.0090 62.0378 27.3849 0.0000 0.0000 0.0000
# 3 16.1338 27.3849 105.3455 0.0000 0.0000 0.0000
# 4 0.0000 0.0000 0.0000 20.4044 0.0000 0.0000
# 5 0.0000 0.0000 0.0000 0.0000 10.7823 0.0000
# 6 0.0000 0.0000 0.0000 0.0000 0.0000 14.8821
#
#
#
# Elastic Compliance Matrix: (Units=1/GPa)
#
#
# Indices 1 2 3 4 5 6 
#
# 1 0.014291 -0.005937 -0.000645 0.000000 0.000000 0.000000
# 2 -0.005937 0.020675 -0.004465 0.000000 0.000000 0.000000
# 3 -0.000645 -0.004465 0.010752 0.000000 0.000000 0.000000
# 4 0.000000 0.000000 0.000000 0.049009 0.000000 0.000000
# 5 0.000000 0.000000 0.000000 0.000000 0.092745 0.000000
# 6 0.000000 0.000000 0.000000 0.000000 0.000000 0.067195
#
#
# Mechanical properties :
#
#
# Convention : Reuss Voigt Hill
#
# Bulk Modulus (GPa) = 42.33174 43.37375 42.85274
# Shear Modulus (GPa) = 17.56635 21.13248 19.34942
#
# Velocity S-wave (km/s) = 3.10981 3.41089 3.26383
# Velocity P-wave (km/s) = 6.01662 6.27623 6.14780
#
# Compressibility (1/GPa) = 0.02362294
#
# Stress axis : x y z
#
# Youngs Moduli (GPa) = 69.97615 48.36777 93.00437
#
# Poissons Ratio (x) = 0.28715 0.06002
# Poissons Ratio (y) = 0.41543 0.41529
# Poissons Ratio (z) = 0.04516 0.21598
#
# Static dielectric constant tensor:
#      x y z
#    x 3.191560 0.000000 0.000000 
#    y 0.000000 3.626670 0.000000 
#    z 0.000000 0.000000 3.318130 
# 
# 
# High freq. dielectric constant tensor:
#      x y z
#    x 1.686370 0.000000 0.000000 
#    y 0.000000 1.685680 0.000000 
#    z 0.000000 0.000000 1.698220 
# 
# From -- ./inp_files/8152.got.cif
#   From: 2010.03.12/outbox.cif.g09.slc.cpg/sg62_5_cif.got.tgz:8152.got - 2010.04.10 19:12:36.
