data_PCOD8249269
_publ_section_title
;
Structure prediction by ZEFSAII (Michael W. Deem and Ramdas Pophale) SiO2 
 PCOD8249269
Probable space group: P B C A
;
_chemical_formula_sum "Si O2"
_cell_formula_units_Z 64
_cell_length_a 12.731268
_cell_length_b 27.548570
_cell_length_c 7.925745
_cell_angle_alpha 90.000000
_cell_angle_beta 90.000000
_cell_angle_gamma 90.000000
_cell_volume 2779.782497
_symmetry_space_group_name_H-M "P B C A"
_symmetry_group_IT_number 61
_symmetry_cell_setting 'orthorhombic'
loop_
_space_group_symop_operation_xyz
x,y,z
1/2-x,-y,1/2+z
1/2+x,1/2-y,-z
-x,1/2+y,1/2-z
-x,-y,-z
1/2+x,y,1/2-z
1/2-x,1/2+y,z
x,1/2-y,1/2+z
loop_
_atom_site_type_symbol
_atom_site_label
_atom_site_fract_x
_atom_site_fract_y
_atom_site_fract_z
Si Si1 0.533737 0.809244 0.746076
Si Si2 0.048749 0.025087 0.238580
Si Si3 0.242876 0.080035 0.135790
Si Si4 0.037382 0.847054 0.212048
Si Si5 0.544691 0.933075 0.059983
Si Si6 0.604686 0.904454 0.599121
Si Si7 0.149030 0.318702 0.522316
Si Si8 0.861364 0.272195 0.069858
O O1 0.549262 0.867088 0.732657
O O2 0.414899 0.797666 0.683841
O O3 0.617079 0.783971 0.615350
O O4 0.553644 0.790044 0.932592
O O5 0.157253 0.037520 0.143847
O O6 0.040942 0.051490 0.421270
O O7 0.957015 0.044235 0.112783
O O8 0.039616 0.967806 0.274104
O O9 0.278117 0.088728 0.330496
O O10 0.338816 0.062770 0.019181
O O11 0.197245 0.129096 0.059087
O O12 0.930203 0.825682 0.134697
O O13 0.014850 0.879096 0.378421
O O14 0.113143 0.802383 0.260018
O O15 0.102263 0.881852 0.085703
O O16 0.240993 0.280164 0.484360
#
# Coordination Sequence:
#
# PCOD8249269 Si02
#       8
#     8   8   8   8   8   8   8   8
#     4  11  23  43  69  97 133 178 229 280 339 412
#     4  10  21  42  66  91 136 178 223 277 343 407
#     4  11  20  43  67  93 137 177 227 275 339 419
#     4  11  23  42  64  98 137 170 229 280 335 411
#     4  10  23  41  64 101 133 177 226 287 338 404
#     4  10  21  40  64  95 128 176 217 278 341 389
#     4  11  24  45  69  98 132 187 222 279 364 395
#     4  12  25  46  67  99 143 170 232 295 327 422
#
# _framework density 23.023382999999999
#
# number of rings (size 3 to 8) (size 9 to 14) (size 15 to 20)
#    0.000    1.250    5.000    2.250    0.000    4.500 
#    6.750    0.000    0.000    0.000    0.000    0.000 
#    0.000    0.000    0.000    0.000    0.000    0.000 
#
# Total GULP energy -793505.513933 kJ/mol
# GULP energy per Si atom -12398.523655 kJ/mol
# Density = 2.297098 g / cm^3
# Si number density = 23.023383 Si / 1000 Ang^3
#
#
#
# Elastic Constant Matrix: (Units=GPa)
#
#
# Indices 1 2 3 4 5 6 
#
# 1 115.0381 16.4081 17.6372 0.0000 0.0000 0.0000
# 2 16.4081 54.2039 -17.4784 0.0000 0.0000 0.0000
# 3 17.6372 -17.4784 57.6531 0.0000 0.0000 0.0000
# 4 0.0000 0.0000 0.0000 39.7267 0.0000 0.0000
# 5 0.0000 0.0000 0.0000 0.0000 37.7004 0.0000
# 6 0.0000 0.0000 0.0000 0.0000 0.0000 30.6286
#
#
#
# Elastic Compliance Matrix: (Units=1/GPa)
#
#
# Indices 1 2 3 4 5 6 
#
# 1 0.010004 -0.004450 -0.004409 0.000000 0.000000 0.000000
# 2 -0.004450 0.022427 0.008161 0.000000 0.000000 0.000000
# 3 -0.004409 0.008161 0.021168 0.000000 0.000000 0.000000
# 4 0.000000 0.000000 0.000000 0.025172 0.000000 0.000000
# 5 0.000000 0.000000 0.000000 0.000000 0.026525 0.000000
# 6 0.000000 0.000000 0.000000 0.000000 0.000000 0.032649
#
#
# Mechanical properties :
#
#
# Convention : Reuss Voigt Hill
#
# Bulk Modulus (GPa) = 19.15662 28.89209 24.02435
# Shear Modulus (GPa) = 31.89934 35.63302 33.76618
#
# Velocity S-wave (km/s) = 3.72629 3.93834 3.83378
# Velocity P-wave (km/s) = 5.18192 5.76688 5.48221
#
# Compressibility (1/GPa) = 0.05220127
#
# Stress axis : x y z
#
# Youngs Moduli (GPa) = 99.96491 44.58840 47.24106
#
# Poissons Ratio (x) = 0.19842 0.20830
# Poissons Ratio (y) = 0.44484 -0.38551
# Poissons Ratio (z) = 0.44078 -0.36387
#
# Static dielectric constant tensor:
#      x y z
#    x 4.149980 0.000000 0.000000 
#    y 0.000000 4.181990 0.000000 
#    z 0.000000 0.000000 4.208530 
# 
# 
# High freq. dielectric constant tensor:
#      x y z
#    x 1.890010 0.000000 0.000000 
#    y 0.000000 1.916470 0.000000 
#    z 0.000000 0.000000 1.914370 
# 
# From -- ./inp_files/2433.got.cif
#   From: 2010.03.12/outbox.cif.g09.slc.cpg/sg61_2_cif.got.tgz:2433.got - 2010.04.10 19:05:03.
