data_PCOD8249825
_publ_section_title
;
Structure prediction by ZEFSAII (Michael W. Deem and Ramdas Pophale) SiO2 
 PCOD8249825
Probable space group: P B C A
;
_chemical_formula_sum "Si O2"
_cell_formula_units_Z 64
_cell_length_a 25.893028
_cell_length_b 9.440354
_cell_length_c 12.208775
_cell_angle_alpha 90.000000
_cell_angle_beta 90.000000
_cell_angle_gamma 90.000000
_cell_volume 2984.305031
_symmetry_space_group_name_H-M "P B C A"
_symmetry_group_IT_number 61
_symmetry_cell_setting 'orthorhombic'
loop_
_space_group_symop_operation_xyz
x,y,z
1/2-x,-y,1/2+z
1/2+x,1/2-y,-z
-x,1/2+y,1/2-z
-x,-y,-z
1/2+x,y,1/2-z
1/2-x,1/2+y,z
x,1/2-y,1/2+z
loop_
_atom_site_type_symbol
_atom_site_label
_atom_site_fract_x
_atom_site_fract_y
_atom_site_fract_z
Si Si1 0.318793 0.165348 0.970299
Si Si2 0.947806 0.647642 0.216995
Si Si3 0.369897 0.861939 0.590683
Si Si4 0.904917 0.563731 0.986317
Si Si5 0.864752 0.459702 0.603076
Si Si6 0.546225 0.471552 0.259434
Si Si7 0.732421 0.395299 0.191582
Si Si8 0.743333 0.360200 0.840606
O O1 0.340727 0.305556 0.913451
O O2 0.281695 0.080960 0.886691
O O3 0.285223 0.208194 0.076911
O O4 0.365957 0.065963 0.002174
O O5 0.898471 0.620907 0.293866
O O6 0.961305 0.813765 0.211872
O O7 0.995752 0.562768 0.268052
O O8 0.936455 0.587393 0.097204
O O9 0.373887 0.703970 0.544747
O O10 0.309706 0.895586 0.599895
O O11 0.392606 0.978980 0.506099
O O12 0.945290 0.528691 0.890033
O O13 0.905567 0.451389 0.701365
O O14 0.820821 0.575643 0.629414
O O15 0.733530 0.493216 0.298283
O O16 0.732680 0.235431 0.234532
#
# Coordination Sequence:
#
# PCOD8249825 Si02
#       8
#     8   8   8   8   8   8   8   8
#     4  12  27  41  70 103 139 188 231 285 351 417
#     4  11  25  48  74 104 134 191 234 295 362 408
#     4  11  24  43  72  97 141 184 230 284 349 422
#     4  11  25  47  72 102 137 182 235 289 353 417
#     4  12  25  47  65 107 141 183 238 290 349 421
#     4  11  26  48  75 104 142 181 236 296 354 418
#     4  12  25  42  66  99 142 181 233 281 344 417
#     4  12  24  42  67 100 141 184 230 283 345 417
#
# _framework density 21.445530000000002
#
# number of rings (size 3 to 8) (size 9 to 14) (size 15 to 20)
#    0.000    0.500    3.750    4.875    5.250    1.500 
#    0.000    0.000    0.000    0.000    0.000    0.000 
#    0.000    0.000    0.000    0.000    0.000    0.000 
#
# Total GULP energy -794015.321875 kJ/mol
# GULP energy per Si atom -12406.489404 kJ/mol
# Density = 2.139672 g / cm^3
# Si number density = 21.445530 Si / 1000 Ang^3
#
#
#
# Elastic Constant Matrix: (Units=GPa)
#
#
# Indices 1 2 3 4 5 6 
#
# 1 95.7176 47.0290 22.9061 0.0000 0.0000 0.0000
# 2 47.0290 75.4049 36.0425 0.0000 0.0000 0.0000
# 3 22.9061 36.0425 72.0816 0.0000 0.0000 0.0000
# 4 0.0000 0.0000 0.0000 37.4584 0.0000 0.0000
# 5 0.0000 0.0000 0.0000 0.0000 27.7982 0.0000
# 6 0.0000 0.0000 0.0000 0.0000 0.0000 33.9212
#
#
#
# Elastic Compliance Matrix: (Units=1/GPa)
#
#
# Indices 1 2 3 4 5 6 
#
# 1 0.015064 -0.009339 -0.000117 0.000000 0.000000 0.000000
# 2 -0.009339 0.023217 -0.008641 0.000000 0.000000 0.000000
# 3 -0.000117 -0.008641 0.018231 0.000000 0.000000 0.000000
# 4 0.000000 0.000000 0.000000 0.026696 0.000000 0.000000
# 5 0.000000 0.000000 0.000000 0.000000 0.035974 0.000000
# 6 0.000000 0.000000 0.000000 0.000000 0.000000 0.029480
#
#
# Mechanical properties :
#
#
# Convention : Reuss Voigt Hill
#
# Bulk Modulus (GPa) = 49.22008 50.57326 49.89667
# Shear Modulus (GPa) = 26.09198 28.98400 27.53799
#
# Velocity S-wave (km/s) = 3.49185 3.68029 3.58731
# Velocity P-wave (km/s) = 6.26565 6.45699 6.36204
#
# Compressibility (1/GPa) = 0.02031691
#
# Stress axis : x y z
#
# Youngs Moduli (GPa) = 66.38292 43.07209 54.85100
#
# Poissons Ratio (x) = 0.40226 0.00643
# Poissons Ratio (y) = 0.61997 0.47398
# Poissons Ratio (z) = 0.00778 0.37219
#
# Static dielectric constant tensor:
#      x y z
#    x 3.749800 0.000000 0.000000 
#    y 0.000000 3.754170 0.000000 
#    z 0.000000 0.000000 4.081750 
# 
# 
# High freq. dielectric constant tensor:
#      x y z
#    x 1.838490 0.000000 0.000000 
#    y 0.000000 1.843310 0.000000 
#    z 0.000000 0.000000 1.859160 
# 
# From -- ./inp_files/6767.got.cif
#   From: 2010.03.12/outbox.cif.g09.slc.cpg/sg61_4_cif.got.tgz:6767.got - 2010.04.10 19:05:03.
