data_PCOD8249066
_publ_section_title
;
Structure prediction by ZEFSAII (Michael W. Deem and Ramdas Pophale) SiO2 
 PCOD8249066
Probable space group: P B C A
;
_chemical_formula_sum "Si O2"
_cell_formula_units_Z 56
_cell_length_a 14.321944
_cell_length_b 8.516808
_cell_length_c 18.191840
_cell_angle_alpha 90.000000
_cell_angle_beta 90.000000
_cell_angle_gamma 90.000000
_cell_volume 2218.990565
_symmetry_space_group_name_H-M "P B C A"
_symmetry_group_IT_number 61
_symmetry_cell_setting 'orthorhombic'
loop_
_space_group_symop_operation_xyz
x,y,z
1/2-x,-y,1/2+z
1/2+x,1/2-y,-z
-x,1/2+y,1/2-z
-x,-y,-z
1/2+x,y,1/2-z
1/2-x,1/2+y,z
x,1/2-y,1/2+z
loop_
_atom_site_type_symbol
_atom_site_label
_atom_site_fract_x
_atom_site_fract_y
_atom_site_fract_z
Si Si1 0.582852 0.761318 0.656002
Si Si2 0.719429 0.402405 0.326056
Si Si3 0.112429 0.706965 0.185993
Si Si4 0.704216 0.210232 0.673482
Si Si5 0.948831 0.578530 0.101108
Si Si6 0.166017 0.524602 0.446999
Si Si7 0.664265 0.298224 0.481259
O O1 0.547897 0.804421 0.739105
O O2 0.691406 0.770091 0.676687
O O3 0.538687 0.599114 0.628532
O O4 0.573639 0.886050 0.587703
O O5 0.832582 0.373218 0.324840
O O6 0.700072 0.587641 0.322736
O O7 0.668532 0.330681 0.254779
O O8 0.666327 0.326104 0.395053
O O9 0.042275 0.676911 0.118296
O O10 0.638083 0.343108 0.641859
O O11 0.712214 0.057394 0.622959
O O12 0.920960 0.595262 0.014543
O O13 0.142718 0.387106 0.505606
O O14 0.236156 0.652497 0.482520
#
# Coordination Sequence:
#
# PCOD8249066 Si02
#       7
#     8   8   8   8   8   8   8
#     4  11  20  39  68 103 131 175 223 292 342 408
#     4  11  25  45  65 100 145 191 224 285 365 418
#     4  11  27  42  71 102 137 183 233 297 347 412
#     4  10  20  39  67  99 132 176 232 279 346 411
#     4  11  24  42  71 103 135 175 242 293 339 414
#     4  11  18  36  66  99 123 184 232 270 327 428
#     4  11  22  39  68  98 141 182 234 282 346 419
#
# _framework density 25.236699999999999
#
# number of rings (size 3 to 8) (size 9 to 14) (size 15 to 20)
#    0.000    1.143    5.714    0.857    8.000    0.571 
#    0.000    2.857    0.000    5.143    0.000    0.000 
#    0.000    0.000    0.000    0.000    0.000    0.000 
#
# Total GULP energy -693784.337188 kJ/mol
# GULP energy per Si atom -12389.006021 kJ/mol
# Density = 2.517926 g / cm^3
# Si number density = 25.236700 Si / 1000 Ang^3
#
#
#
# Elastic Constant Matrix: (Units=GPa)
#
#
# Indices 1 2 3 4 5 6 
#
# 1 36.4766 6.8679 -9.0129 0.0000 0.0000 0.0000
# 2 6.8679 77.2348 6.8091 0.0000 0.0000 0.0000
# 3 -9.0129 6.8091 123.7129 0.0000 0.0000 0.0000
# 4 0.0000 0.0000 0.0000 18.6234 0.0000 0.0000
# 5 0.0000 0.0000 0.0000 0.0000 16.9988 0.0000
# 6 0.0000 0.0000 0.0000 0.0000 0.0000 31.6363
#
#
#
# Elastic Compliance Matrix: (Units=1/GPa)
#
#
# Indices 1 2 3 4 5 6 
#
# 1 0.028478 -0.002729 0.002225 0.000000 0.000000 0.000000
# 2 -0.002729 0.013272 -0.000929 0.000000 0.000000 0.000000
# 3 0.002225 -0.000929 0.008296 0.000000 0.000000 0.000000
# 4 0.000000 0.000000 0.000000 0.053696 0.000000 0.000000
# 5 0.000000 0.000000 0.000000 0.000000 0.058828 0.000000
# 6 0.000000 0.000000 0.000000 0.000000 0.000000 0.031609
#
#
# Mechanical properties :
#
#
# Convention : Reuss Voigt Hill
#
# Bulk Modulus (GPa) = 21.19494 27.41697 24.30595
# Shear Modulus (GPa) = 23.49929 28.96906 26.23417
#
# Velocity S-wave (km/s) = 3.05479 3.39173 3.22766
# Velocity P-wave (km/s) = 4.56717 5.12113 4.85206
#
# Compressibility (1/GPa) = 0.04718108
#
# Stress axis : x y z
#
# Youngs Moduli (GPa) = 35.11448 75.34610 120.53322
#
# Poissons Ratio (x) = 0.20558 -0.26818
# Poissons Ratio (y) = 0.09581 0.11201
# Poissons Ratio (z) = -0.07813 0.07002
#
# Static dielectric constant tensor:
#      x y z
#    x 4.114950 0.000000 0.000000 
#    y 0.000000 4.700720 0.000000 
#    z 0.000000 0.000000 5.349050 
# 
# 
# High freq. dielectric constant tensor:
#      x y z
#    x 1.967460 0.000000 0.000000 
#    y 0.000000 2.005860 0.000000 
#    z 0.000000 0.000000 2.025200 
# 
# From -- ./inp_files/10454.got.cif
#   From: 2010.03.12/outbox.cif.g09.slc.cpg/sg61_6_cif.got.tgz:10454.got - 2010.04.10 19:05:03.
