data_PCOD8249925
_publ_section_title
;
Structure prediction by ZEFSAII (Michael W. Deem and Ramdas Pophale) SiO2 
 PCOD8249925
Probable space group: P B C A
;
_chemical_formula_sum "Si O2"
_cell_formula_units_Z 32
_cell_length_a 10.166200
_cell_length_b 8.341259
_cell_length_c 15.873600
_cell_angle_alpha 90.000000
_cell_angle_beta 90.000000
_cell_angle_gamma 90.000000
_cell_volume 1346.063934
_symmetry_space_group_name_H-M "P B C A"
_symmetry_group_IT_number 61
_symmetry_cell_setting 'orthorhombic'
loop_
_space_group_symop_operation_xyz
x,y,z
1/2-x,-y,1/2+z
1/2+x,1/2-y,-z
-x,1/2+y,1/2-z
-x,-y,-z
1/2+x,y,1/2-z
1/2-x,1/2+y,z
x,1/2-y,1/2+z
loop_
_atom_site_type_symbol
_atom_site_label
_atom_site_fract_x
_atom_site_fract_y
_atom_site_fract_z
Si Si1 0.622038 0.883348 0.513949
Si Si2 0.600226 0.800356 0.698232
Si Si3 0.842421 0.620931 0.776906
Si Si4 0.132816 0.949548 0.544438
O O1 0.612687 0.774983 0.598256
O O2 0.632897 0.743989 0.442259
O O3 0.500000 0.000000 0.500000
O O4 0.749353 0.995407 0.516230
O O5 0.702925 0.696652 0.752351
O O6 0.452505 0.758588 0.726893
O O7 0.620791 0.989100 0.708216
O O8 0.841868 0.532528 0.866407
O O9 0.000000 0.000000 0.500000
#
# Coordination Sequence:
#
# PCOD8249925 Si02
#       4
#     8   8   8   8
#     4  12  28  49  79 111 151 200 255 318 381 461
#     4  12  28  49  76 111 151 199 253 313 388 458
#     4  12  28  48  76 108 152 198 248 317 380 463
#     4  12  26  49  75 111 150 198 254 313 384 456
#
# _framework density 23.773015000000001
#
# number of rings (size 3 to 8) (size 9 to 14) (size 15 to 20)
#    0.000    0.000    2.500    6.000   14.000    0.000 
#    0.000    0.000    0.000    0.000    0.000    0.000 
#    0.000    0.000    0.000    0.000    0.000    0.000 
#
# Total GULP energy -396910.722267 kJ/mol
# GULP energy per Si atom -12403.460071 kJ/mol
# Density = 2.371891 g / cm^3
# Si number density = 23.773015 Si / 1000 Ang^3
#
#
#
# Elastic Constant Matrix: (Units=GPa)
#
#
# Indices 1 2 3 4 5 6 
#
# 1 159.3526 54.2848 49.7957 0.0000 0.0000 0.0000
# 2 54.2848 129.1898 19.0211 0.0000 0.0000 0.0000
# 3 49.7957 19.0211 100.5619 0.0000 0.0000 0.0000
# 4 0.0000 0.0000 0.0000 46.7855 0.0000 0.0000
# 5 0.0000 0.0000 0.0000 0.0000 34.4073 0.0000
# 6 0.0000 0.0000 0.0000 0.0000 0.0000 54.9002
#
#
#
# Elastic Compliance Matrix: (Units=1/GPa)
#
#
# Indices 1 2 3 4 5 6 
#
# 1 0.008427 -0.003010 -0.003603 0.000000 0.000000 0.000000
# 2 -0.003010 0.009038 -0.000219 0.000000 0.000000 0.000000
# 3 -0.003603 -0.000219 0.011770 0.000000 0.000000 0.000000
# 4 0.000000 0.000000 0.000000 0.021374 0.000000 0.000000
# 5 0.000000 0.000000 0.000000 0.000000 0.029064 0.000000
# 6 0.000000 0.000000 0.000000 0.000000 0.000000 0.018215
#
#
# Mechanical properties :
#
#
# Convention : Reuss Voigt Hill
#
# Bulk Modulus (GPa) = 64.22900 70.58972 67.40936
# Shear Modulus (GPa) = 42.82947 44.95210 43.89079
#
# Velocity S-wave (km/s) = 4.24913 4.35315 4.30146
# Velocity P-wave (km/s) = 7.15191 7.41783 7.28608
#
# Compressibility (1/GPa) = 0.01556929
#
# Stress axis : x y z
#
# Youngs Moduli (GPa) = 118.66728 110.64738 84.96316
#
# Poissons Ratio (x) = 0.33309 0.30615
# Poissons Ratio (y) = 0.35724 0.01859
# Poissons Ratio (z) = 0.42760 0.02421
#
# Static dielectric constant tensor:
#      x y z
#    x 4.272520 0.000000 0.000000 
#    y 0.000000 4.619340 0.000000 
#    z 0.000000 0.000000 4.329080 
# 
# 
# High freq. dielectric constant tensor:
#      x y z
#    x 1.954540 0.000000 0.000000 
#    y 0.000000 1.961180 0.000000 
#    z 0.000000 0.000000 1.948240 
# 
# From -- ./inp_files/7307.got.cif
#   From: 2010.03.12/outbox.cif.g09.slc.cpg/sg61_4_cif.got.tgz:7307.got - 2010.04.10 19:05:03.
