data_PCOD8249436
_publ_section_title
;
Structure prediction by ZEFSAII (Michael W. Deem and Ramdas Pophale) SiO2 
 PCOD8249436
Probable space group: P B C A
;
_chemical_formula_sum "Si O2"
_cell_formula_units_Z 40
_cell_length_a 17.072964
_cell_length_b 12.484382
_cell_length_c 8.643969
_cell_angle_alpha 90.000000
_cell_angle_beta 90.000000
_cell_angle_gamma 90.000000
_cell_volume 1842.422269
_symmetry_space_group_name_H-M "P B C A"
_symmetry_group_IT_number 61
_symmetry_cell_setting 'orthorhombic'
loop_
_space_group_symop_operation_xyz
x,y,z
1/2-x,-y,1/2+z
1/2+x,1/2-y,-z
-x,1/2+y,1/2-z
-x,-y,-z
1/2+x,y,1/2-z
1/2-x,1/2+y,z
x,1/2-y,1/2+z
loop_
_atom_site_type_symbol
_atom_site_label
_atom_site_fract_x
_atom_site_fract_y
_atom_site_fract_z
Si Si1 0.171126 0.588352 0.943613
Si Si2 0.770483 0.070385 0.903981
Si Si3 0.109319 0.372291 0.999127
Si Si4 0.018533 0.261664 0.265960
Si Si5 0.591403 0.686153 0.026272
O O1 0.205846 0.590548 0.771453
O O2 0.135445 0.700237 0.994253
O O3 0.241642 0.551765 0.061000
O O4 0.102154 0.498479 0.955647
O O5 0.699383 0.151489 0.950460
O O6 0.843965 0.093246 0.017517
O O7 0.051222 0.343151 0.138478
O O8 0.088159 0.303658 0.847177
O O9 0.970218 0.331783 0.388054
O O10 0.956409 0.179845 0.186185
#
# Coordination Sequence:
#
# PCOD8249436 Si02
#       5
#     8   8   8   8   8
#     4  10  24  43  69  97 131 177 230 278 324 403
#     4  10  24  42  69  97 128 181 226 279 325 400
#     4   9  24  43  66  96 137 173 225 269 338 397
#     4  10  22  41  66  98 131 183 204 280 334 393
#     4  11  22  42  70  95 137 172 230 269 343 392
#
# _framework density 21.710550000000001
#
# number of rings (size 3 to 8) (size 9 to 14) (size 15 to 20)
#    1.200    0.800    2.000    0.000    5.600    4.800 
#    3.600    1.000    0.000    0.000    0.000    0.000 
#    0.000    0.000    0.000    0.000    0.000    0.000 
#
# Total GULP energy -495663.016455 kJ/mol
# GULP energy per Si atom -12391.575411 kJ/mol
# Density = 2.166114 g / cm^3
# Si number density = 21.710550 Si / 1000 Ang^3
#
#
#
# Elastic Constant Matrix: (Units=GPa)
#
#
# Indices 1 2 3 4 5 6 
#
# 1 84.5700 22.9419 27.9906 0.0000 0.0000 0.0000
# 2 22.9419 55.7553 9.3410 0.0000 0.0000 0.0000
# 3 27.9906 9.3410 83.0861 0.0000 0.0000 0.0000
# 4 0.0000 0.0000 0.0000 24.7815 0.0000 0.0000
# 5 0.0000 0.0000 0.0000 0.0000 35.8412 0.0000
# 6 0.0000 0.0000 0.0000 0.0000 0.0000 24.8218
#
#
#
# Elastic Compliance Matrix: (Units=1/GPa)
#
#
# Indices 1 2 3 4 5 6 
#
# 1 0.014711 -0.005323 -0.004357 0.000000 0.000000 0.000000
# 2 -0.005323 0.020206 -0.000478 0.000000 0.000000 0.000000
# 3 -0.004357 -0.000478 0.013557 0.000000 0.000000 0.000000
# 4 0.000000 0.000000 0.000000 0.040353 0.000000 0.000000
# 5 0.000000 0.000000 0.000000 0.000000 0.027901 0.000000
# 6 0.000000 0.000000 0.000000 0.000000 0.000000 0.040287
#
#
# Mechanical properties :
#
#
# Convention : Reuss Voigt Hill
#
# Bulk Modulus (GPa) = 35.51588 38.21760 36.86674
# Shear Modulus (GPa) = 26.77832 27.96474 27.37153
#
# Velocity S-wave (km/s) = 3.51582 3.59286 3.55455
# Velocity P-wave (km/s) = 5.73373 5.90364 5.81931
#
# Compressibility (1/GPa) = 0.02815642
#
# Stress axis : x y z
#
# Youngs Moduli (GPa) = 67.97748 49.49027 73.76020
#
# Poissons Ratio (x) = 0.26344 0.32140
# Poissons Ratio (y) = 0.36185 0.03529
# Poissons Ratio (z) = 0.29621 0.02368
#
# Static dielectric constant tensor:
#      x y z
#    x 4.154750 0.000000 0.000000 
#    y 0.000000 3.535070 0.000000 
#    z 0.000000 0.000000 3.938490 
# 
# 
# High freq. dielectric constant tensor:
#      x y z
#    x 1.865310 0.000000 0.000000 
#    y 0.000000 1.815040 0.000000 
#    z 0.000000 0.000000 1.862670 
# 
# From -- ./inp_files/2688.got.cif
#   From: 2010.03.12/outbox.cif.g09.slc.cpg/sg61_2_cif.got.tgz:2688.got - 2010.04.10 19:05:03.
