data_PCOD8249015
_publ_section_title
;
Structure prediction by ZEFSAII (Michael W. Deem and Ramdas Pophale) SiO2 
 PCOD8249015
Probable space group: P B C A
;
_chemical_formula_sum "Si O2"
_cell_formula_units_Z 48
_cell_length_a 16.085219
_cell_length_b 17.611572
_cell_length_c 8.865389
_cell_angle_alpha 90.000000
_cell_angle_beta 90.000000
_cell_angle_gamma 90.000000
_cell_volume 2511.440522
_symmetry_space_group_name_H-M "P B C A"
_symmetry_group_IT_number 61
_symmetry_cell_setting 'orthorhombic'
loop_
_space_group_symop_operation_xyz
x,y,z
1/2-x,-y,1/2+z
1/2+x,1/2-y,-z
-x,1/2+y,1/2-z
-x,-y,-z
1/2+x,y,1/2-z
1/2-x,1/2+y,z
x,1/2-y,1/2+z
loop_
_atom_site_type_symbol
_atom_site_label
_atom_site_fract_x
_atom_site_fract_y
_atom_site_fract_z
Si Si1 0.808602 0.291210 0.307998
Si Si2 0.434708 0.691195 0.374678
Si Si3 0.575430 0.587489 0.905873
Si Si4 0.077056 0.412832 0.615018
Si Si5 0.525006 0.696311 0.673438
Si Si6 0.701747 0.203593 0.529440
O O1 0.841057 0.360504 0.416104
O O2 0.886813 0.261801 0.206377
O O3 0.773335 0.221919 0.407109
O O4 0.739842 0.321184 0.189907
O O5 0.423122 0.610641 0.291440
O O6 0.509583 0.686637 0.495434
O O7 0.452513 0.752479 0.243995
O O8 0.350183 0.717904 0.455134
O O9 0.602107 0.500455 0.895432
O O10 0.525206 0.613407 0.754416
O O11 0.515107 0.602375 0.048300
O O12 0.145527 0.366002 0.523605
#
# Coordination Sequence:
#
# PCOD8249015 Si02
#       6
#     8   8   8   8   8   8
#     4  10  23  38  58  92 121 158 192 254 305 350
#     4  12  20  36  66  89 113 158 214 243 287 359
#     4   9  23  43  60  86 128 158 200 247 310 356
#     4  11  22  41  65  90 117 166 202 251 302 361
#     4  10  20  38  60  88 119 156 204 247 287 362
#     4  12  20  38  63  89 121 152 207 247 300 362
#
# _framework density 19.112535999999999
#
# number of rings (size 3 to 8) (size 9 to 14) (size 15 to 20)
#    1.000    0.333    5.000    1.000    2.333    0.667 
#    3.000    0.000    3.667    0.000    0.000    0.000 
#    0.000    0.000    0.000    0.000    0.000    0.000 
#
# Total GULP energy -594922.277288 kJ/mol
# GULP energy per Si atom -12394.214110 kJ/mol
# Density = 1.906904 g / cm^3
# Si number density = 19.112536 Si / 1000 Ang^3
#
#
#
# Elastic Constant Matrix: (Units=GPa)
#
#
# Indices 1 2 3 4 5 6 
#
# 1 81.8008 33.9709 21.5743 0.0000 0.0000 0.0000
# 2 33.9709 77.8367 22.6481 0.0000 0.0000 0.0000
# 3 21.5743 22.6481 77.2465 0.0000 0.0000 0.0000
# 4 0.0000 0.0000 0.0000 26.1320 0.0000 0.0000
# 5 0.0000 0.0000 0.0000 0.0000 39.8637 0.0000
# 6 0.0000 0.0000 0.0000 0.0000 0.0000 24.1830
#
#
#
# Elastic Compliance Matrix: (Units=1/GPa)
#
#
# Indices 1 2 3 4 5 6 
#
# 1 0.015375 -0.005970 -0.002544 0.000000 0.000000 0.000000
# 2 -0.005970 0.016364 -0.003130 0.000000 0.000000 0.000000
# 3 -0.002544 -0.003130 0.014574 0.000000 0.000000 0.000000
# 4 0.000000 0.000000 0.000000 0.038267 0.000000 0.000000
# 5 0.000000 0.000000 0.000000 0.000000 0.025085 0.000000
# 6 0.000000 0.000000 0.000000 0.000000 0.000000 0.041351
#
#
# Mechanical properties :
#
#
# Convention : Reuss Voigt Hill
#
# Bulk Modulus (GPa) = 43.43239 43.69675 43.56457
# Shear Modulus (GPa) = 27.47558 28.61512 28.04535
#
# Velocity S-wave (km/s) = 3.79564 3.87355 3.83480
# Velocity P-wave (km/s) = 6.47944 6.55121 6.51542
#
# Compressibility (1/GPa) = 0.02302429
#
# Stress axis : x y z
#
# Youngs Moduli (GPa) = 65.04064 61.11047 68.61621
#
# Poissons Ratio (x) = 0.36483 0.17454
# Poissons Ratio (y) = 0.38830 0.21479
# Poissons Ratio (z) = 0.16545 0.19130
#
# Static dielectric constant tensor:
#      x y z
#    x 3.498960 0.000000 0.000000 
#    y 0.000000 3.208070 0.000000 
#    z 0.000000 0.000000 3.593920 
# 
# 
# High freq. dielectric constant tensor:
#      x y z
#    x 1.744620 0.000000 0.000000 
#    y 0.000000 1.710120 0.000000 
#    z 0.000000 0.000000 1.749490 
# 
# From -- ./inp_files/2816.got.cif
#   From: 2010.03.12/outbox.cif.g09.slc.cpg/sg61_2_cif.got.tgz:2816.got - 2010.04.10 19:05:03.
