data_PCOD8249525
_publ_section_title
;
Structure prediction by ZEFSAII (Michael W. Deem and Ramdas Pophale) SiO2 
 PCOD8249525
Probable space group: P B C A
;
_chemical_formula_sum "Si O2"
_cell_formula_units_Z 64
_cell_length_a 30.850468
_cell_length_b 5.307146
_cell_length_c 16.760239
_cell_angle_alpha 90.000000
_cell_angle_beta 90.000000
_cell_angle_gamma 90.000000
_cell_volume 2744.119369
_symmetry_space_group_name_H-M "P B C A"
_symmetry_group_IT_number 61
_symmetry_cell_setting 'orthorhombic'
loop_
_space_group_symop_operation_xyz
x,y,z
1/2-x,-y,1/2+z
1/2+x,1/2-y,-z
-x,1/2+y,1/2-z
-x,-y,-z
1/2+x,y,1/2-z
1/2-x,1/2+y,z
x,1/2-y,1/2+z
loop_
_atom_site_type_symbol
_atom_site_label
_atom_site_fract_x
_atom_site_fract_y
_atom_site_fract_z
Si Si1 0.455171 0.362369 0.731679
Si Si2 0.727879 0.106437 0.582605
Si Si3 0.369252 0.786407 0.406159
Si Si4 0.912944 0.285871 0.030661
Si Si5 0.998178 0.213201 0.616860
Si Si6 0.772231 0.567708 0.770935
Si Si7 0.631491 0.330820 0.274973
Si Si8 0.420749 0.501392 0.122256
O O1 0.472897 0.395630 0.820629
O O2 0.489803 0.469566 0.668706
O O3 0.407735 0.477764 0.723641
O O4 0.446317 0.077079 0.703297
O O5 0.755388 0.340828 0.546351
O O6 0.678028 0.150182 0.559578
O O7 0.734693 0.084031 0.676814
O O8 0.386589 0.540712 0.452358
O O9 0.366869 0.706103 0.313254
O O10 0.397357 0.040223 0.419623
O O11 0.963799 0.345348 0.047238
O O12 0.907933 0.225607 0.936650
O O13 0.042840 0.322813 0.578726
O O14 0.747345 0.326193 0.807705
O O15 0.822829 0.536318 0.793023
O O16 0.623065 0.134383 0.347261
#
# Coordination Sequence:
#
# PCOD8249525 Si02
#       8
#     8   8   8   8   8   8   8   8
#     4  11  22  39  65  93 125 166 224 269 323 376
#     4   9  17  34  61  92 125 154 204 266 320 373
#     4  11  24  41  66  98 126 170 214 266 323 386
#     4  12  27  42  63  94 136 170 217 264 326 384
#     4  11  23  40  63  91 124 169 223 271 316 379
#     4   9  19  34  60  98 127 156 202 267 324 375
#     4  10  23  40  68  94 128 170 218 267 322 379
#     4  11  26  42  62  92 129 180 211 272 321 385
#
# _framework density 23.322599
#
# number of rings (size 3 to 8) (size 9 to 14) (size 15 to 20)
#    0.000    1.500    2.500    1.875    8.750    2.500 
#    0.000    0.000    0.000    4.500    0.000    0.000 
#    0.000    0.000    0.000    0.000    0.000    0.000 
#
# Total GULP energy -793120.784638 kJ/mol
# GULP energy per Si atom -12392.512260 kJ/mol
# Density = 2.326952 g / cm^3
# Si number density = 23.322599 Si / 1000 Ang^3
#
#
#
# Elastic Constant Matrix: (Units=GPa)
#
#
# Indices 1 2 3 4 5 6 
#
# 1 123.3274 33.1600 10.7456 0.0000 0.0000 0.0000
# 2 33.1600 98.8202 -11.6964 0.0000 0.0000 0.0000
# 3 10.7456 -11.6964 34.8156 0.0000 0.0000 0.0000
# 4 0.0000 0.0000 0.0000 20.1262 0.0000 0.0000
# 5 0.0000 0.0000 0.0000 0.0000 18.2487 0.0000
# 6 0.0000 0.0000 0.0000 0.0000 0.0000 31.1526
#
#
#
# Elastic Compliance Matrix: (Units=1/GPa)
#
#
# Indices 1 2 3 4 5 6 
#
# 1 0.009455 -0.003664 -0.004149 0.000000 0.000000 0.000000
# 2 -0.003664 0.011958 0.005148 0.000000 0.000000 0.000000
# 3 -0.004149 0.005148 0.031733 0.000000 0.000000 0.000000
# 4 0.000000 0.000000 0.000000 0.049686 0.000000 0.000000
# 5 0.000000 0.000000 0.000000 0.000000 0.054798 0.000000
# 6 0.000000 0.000000 0.000000 0.000000 0.000000 0.032100
#
#
# Mechanical properties :
#
#
# Convention : Reuss Voigt Hill
#
# Bulk Modulus (GPa) = 20.91323 35.70905 28.31114
# Shear Modulus (GPa) = 23.69674 28.88912 26.29293
#
# Velocity S-wave (km/s) = 3.19100 3.52330 3.36126
# Velocity P-wave (km/s) = 4.75006 5.64763 5.21818
#
# Compressibility (1/GPa) = 0.04781663
#
# Stress axis : x y z
#
# Youngs Moduli (GPa) = 105.76260 83.62483 31.51305
#
# Poissons Ratio (x) = 0.30639 0.13075
# Poissons Ratio (y) = 0.38750 -0.16224
# Poissons Ratio (z) = 0.43882 -0.43052
#
# Static dielectric constant tensor:
#      x y z
#    x 4.286090 0.000000 0.000000 
#    y 0.000000 4.297520 0.000000 
#    z 0.000000 0.000000 3.885910 
# 
# 
# High freq. dielectric constant tensor:
#      x y z
#    x 1.932820 0.000000 0.000000 
#    y 0.000000 1.922980 0.000000 
#    z 0.000000 0.000000 1.888390 
# 
# From -- ./inp_files/9913.got.cif
#   From: 2010.03.12/outbox.cif.g09.slc.cpg/sg61_5_cif.got.tgz:9913.got - 2010.04.10 19:05:03.
