data_PCOD8249362
_publ_section_title
;
Structure prediction by ZEFSAII (Michael W. Deem and Ramdas Pophale) SiO2 
 PCOD8249362
Probable space group: P B C A
;
_chemical_formula_sum "Si O2"
_cell_formula_units_Z 48
_cell_length_a 4.940325
_cell_length_b 17.987683
_cell_length_c 23.256136
_cell_angle_alpha 90.000000
_cell_angle_beta 90.000000
_cell_angle_gamma 90.000000
_cell_volume 2066.656526
_symmetry_space_group_name_H-M "P B C A"
_symmetry_group_IT_number 61
_symmetry_cell_setting 'orthorhombic'
loop_
_space_group_symop_operation_xyz
x,y,z
1/2-x,-y,1/2+z
1/2+x,1/2-y,-z
-x,1/2+y,1/2-z
-x,-y,-z
1/2+x,y,1/2-z
1/2-x,1/2+y,z
x,1/2-y,1/2+z
loop_
_atom_site_type_symbol
_atom_site_label
_atom_site_fract_x
_atom_site_fract_y
_atom_site_fract_z
Si Si1 0.514642 0.556539 0.084977
Si Si2 0.280183 0.401160 0.096140
Si Si3 0.532839 0.798310 0.642425
Si Si4 0.073415 0.167892 0.713267
Si Si5 0.486833 0.394362 0.515654
Si Si6 0.963747 0.248672 0.423392
O O1 0.456641 0.474304 0.108232
O O2 0.495488 0.612101 0.140627
O O3 0.813002 0.561902 0.058686
O O4 0.312168 0.579836 0.033393
O O5 0.137929 0.376180 0.155022
O O6 0.483480 0.338070 0.068681
O O7 0.044679 0.417656 0.049729
O O8 0.433585 0.757579 0.700937
O O9 0.842206 0.774660 0.629641
O O10 0.348547 0.766537 0.591173
O O11 0.280086 0.145582 0.763314
O O12 0.532425 0.304123 0.521883
#
# Coordination Sequence:
#
# PCOD8249362 Si02
#       6
#     8   8   8   8   8   8
#     4  10  22  39  61  93 127 159 196 243 309 381
#     4  11  23  39  64  92 125 162 205 259 303 352
#     4   9  19  40  60  81 115 154 194 243 300 360
#     4  11  24  41  60  84 113 155 209 259 300 345
#     4  10  22  38  59  92 132 165 194 233 306 387
#     4   9  20  35  58  88 118 155 196 237 291 363
#
# _framework density 23.225921
#
# number of rings (size 3 to 8) (size 9 to 14) (size 15 to 20)
#    0.000    2.000    0.000    3.000    0.000   14.667 
#    0.000    1.667    0.000    0.000    0.000    0.000 
#    0.000    0.000    0.000    0.000    0.000    0.000 
#
# Total GULP energy -594869.447075 kJ/mol
# GULP energy per Si atom -12393.113481 kJ/mol
# Density = 2.317306 g / cm^3
# Si number density = 23.225921 Si / 1000 Ang^3
#
#
#
# Elastic Constant Matrix: (Units=GPa)
#
#
# Indices 1 2 3 4 5 6 
#
# 1 57.2701 7.5163 -5.8874 0.0000 0.0000 0.0000
# 2 7.5163 145.3607 8.8135 0.0000 0.0000 0.0000
# 3 -5.8874 8.8135 64.7899 0.0000 0.0000 0.0000
# 4 0.0000 0.0000 0.0000 21.8249 0.0000 0.0000
# 5 0.0000 0.0000 0.0000 0.0000 3.6735 0.0000
# 6 0.0000 0.0000 0.0000 0.0000 0.0000 28.9904
#
#
#
# Elastic Compliance Matrix: (Units=1/GPa)
#
#
# Indices 1 2 3 4 5 6 
#
# 1 0.017776 -0.001026 0.001755 0.000000 0.000000 0.000000
# 2 -0.001026 0.006996 -0.001045 0.000000 0.000000 0.000000
# 3 0.001755 -0.001045 0.015736 0.000000 0.000000 0.000000
# 4 0.000000 0.000000 0.000000 0.045819 0.000000 0.000000
# 5 0.000000 0.000000 0.000000 0.000000 0.272221 0.000000
# 6 0.000000 0.000000 0.000000 0.000000 0.000000 0.034494
#
#
# Mechanical properties :
#
#
# Convention : Reuss Voigt Hill
#
# Bulk Modulus (GPa) = 25.07723 32.03395 28.55559
# Shear Modulus (GPa) = 12.28605 28.02964 20.15785
#
# Velocity S-wave (km/s) = 2.30245 3.47771 2.94922
# Velocity P-wave (km/s) = 4.22953 5.47250 4.89066
#
# Compressibility (1/GPa) = 0.03987681
#
# Stress axis : x y z
#
# Youngs Moduli (GPa) = 56.25531 142.94256 63.54813
#
# Poissons Ratio (x) = 0.14660 -0.11151
# Poissons Ratio (y) = 0.05769 0.06640
# Poissons Ratio (z) = -0.09872 0.14935
#
# Static dielectric constant tensor:
#      x y z
#    x 4.225790 0.000000 0.000000 
#    y 0.000000 4.613710 0.000000 
#    z 0.000000 0.000000 3.772480 
# 
# 
# High freq. dielectric constant tensor:
#      x y z
#    x 1.933320 0.000000 0.000000 
#    y 0.000000 1.923910 0.000000 
#    z 0.000000 0.000000 1.871850 
# 
# From -- ./inp_files/11251.got.cif
#   From: 2010.03.12/outbox.cif.g09.slc.cpg/sg61_6_cif.got.tgz:11251.got - 2010.04.10 19:05:03.
