data_PCOD8249195
_publ_section_title
;
Structure prediction by ZEFSAII (Michael W. Deem and Ramdas Pophale) SiO2 
 PCOD8249195
Probable space group: P B C A
;
_chemical_formula_sum "Si O2"
_cell_formula_units_Z 48
_cell_length_a 24.486823
_cell_length_b 12.777432
_cell_length_c 7.523517
_cell_angle_alpha 90.000000
_cell_angle_beta 90.000000
_cell_angle_gamma 90.000000
_cell_volume 2353.948337
_symmetry_space_group_name_H-M "P B C A"
_symmetry_group_IT_number 61
_symmetry_cell_setting 'orthorhombic'
loop_
_space_group_symop_operation_xyz
x,y,z
1/2-x,-y,1/2+z
1/2+x,1/2-y,-z
-x,1/2+y,1/2-z
-x,-y,-z
1/2+x,y,1/2-z
1/2-x,1/2+y,z
x,1/2-y,1/2+z
loop_
_atom_site_type_symbol
_atom_site_label
_atom_site_fract_x
_atom_site_fract_y
_atom_site_fract_z
Si Si1 0.561521 0.484290 0.806943
Si Si2 0.582745 0.654039 0.536934
Si Si3 0.769615 0.740715 0.952819
Si Si4 0.947665 0.380373 0.641289
Si Si5 0.200811 0.631435 0.796250
Si Si6 0.174552 0.100628 0.301616
O O1 0.548640 0.572854 0.658665
O O2 0.510622 0.407712 0.825835
O O3 0.610638 0.413078 0.735184
O O4 0.577160 0.537221 0.997840
O O5 0.584125 0.616946 0.330284
O O6 0.554453 0.766679 0.550344
O O7 0.643651 0.660785 0.614295
O O8 0.711019 0.689516 0.892042
O O9 0.802128 0.806392 0.812089
O O10 0.753168 0.826539 0.098120
O O11 0.811175 0.645758 0.003397
O O12 0.206219 0.507565 0.770876
#
# Coordination Sequence:
#
# PCOD8249195 Si02
#       6
#     8   8   8   8   8   8
#     4  10  24  42  60  93 128 170 215 267 324 390
#     4  11  21  40  65  94 124 167 216 266 327 384
#     4  10  21  39  61  88 126 163 204 262 322 378
#     4  11  22  40  64  93 128 165 217 271 320 383
#     4  10  21  38  62  92 120 163 211 261 316 380
#     4  10  22  41  59  89 125 163 211 256 320 388
#
# _framework density 20.391272000000001
#
# number of rings (size 3 to 8) (size 9 to 14) (size 15 to 20)
#    0.000    1.667    1.667    2.500    2.333    1.333 
#   15.000    0.000    0.000    0.000    0.000    0.000 
#    0.000    0.000    0.000    0.000    0.000    0.000 
#
# Total GULP energy -594785.442595 kJ/mol
# GULP energy per Si atom -12391.363387 kJ/mol
# Density = 2.034486 g / cm^3
# Si number density = 20.391272 Si / 1000 Ang^3
#
#
#
# Elastic Constant Matrix: (Units=GPa)
#
#
# Indices 1 2 3 4 5 6 
#
# 1 97.6880 55.0895 36.5742 0.0000 0.0000 0.0000
# 2 55.0895 117.1953 41.5087 0.0000 0.0000 0.0000
# 3 36.5742 41.5087 109.2770 0.0000 0.0000 0.0000
# 4 0.0000 0.0000 0.0000 22.2722 0.0000 0.0000
# 5 0.0000 0.0000 0.0000 0.0000 45.9104 0.0000
# 6 0.0000 0.0000 0.0000 0.0000 0.0000 35.5697
#
#
#
# Elastic Compliance Matrix: (Units=1/GPa)
#
#
# Indices 1 2 3 4 5 6 
#
# 1 0.014553 -0.005911 -0.002626 0.000000 0.000000 0.000000
# 2 -0.005911 0.012260 -0.002679 0.000000 0.000000 0.000000
# 3 -0.002626 -0.002679 0.011047 0.000000 0.000000 0.000000
# 4 0.000000 0.000000 0.000000 0.044899 0.000000 0.000000
# 5 0.000000 0.000000 0.000000 0.000000 0.021782 0.000000
# 6 0.000000 0.000000 0.000000 0.000000 0.000000 0.028114
#
#
# Mechanical properties :
#
#
# Convention : Reuss Voigt Hill
#
# Bulk Modulus (GPa) = 64.80814 65.61166 65.20990
# Shear Modulus (GPa) = 31.20547 33.48298 32.34422
#
# Velocity S-wave (km/s) = 3.91619 4.05659 3.98701
# Velocity P-wave (km/s) = 7.23188 7.36121 7.29683
#
# Compressibility (1/GPa) = 0.01543016
#
# Stress axis : x y z
#
# Youngs Moduli (GPa) = 68.71411 81.56590 90.52016
#
# Poissons Ratio (x) = 0.48213 0.23766
# Poissons Ratio (y) = 0.40617 0.24247
# Poissons Ratio (z) = 0.18041 0.21848
#
# Static dielectric constant tensor:
#      x y z
#    x 3.385780 0.000000 0.000000 
#    y 0.000000 3.964260 0.000000 
#    z 0.000000 0.000000 4.308190 
# 
# 
# High freq. dielectric constant tensor:
#      x y z
#    x 1.779500 0.000000 0.000000 
#    y 0.000000 1.808620 0.000000 
#    z 0.000000 0.000000 1.809870 
# 
# From -- ./inp_files/4228.got.cif
#   From: 2010.03.12/outbox.cif.g09.slc.cpg/sg61_3_cif.got.tgz:4228.got - 2010.04.10 19:05:03.
