data_PCOD8249493
_publ_section_title
;
Structure prediction by ZEFSAII (Michael W. Deem and Ramdas Pophale) SiO2 
 PCOD8249493
Probable space group: P B C A
;
_chemical_formula_sum "Si O2"
_cell_formula_units_Z 64
_cell_length_a 14.500182
_cell_length_b 18.296693
_cell_length_c 11.525338
_cell_angle_alpha 90.000000
_cell_angle_beta 90.000000
_cell_angle_gamma 90.000000
_cell_volume 3057.734160
_symmetry_space_group_name_H-M "P B C A"
_symmetry_group_IT_number 61
_symmetry_cell_setting 'orthorhombic'
loop_
_space_group_symop_operation_xyz
x,y,z
1/2-x,-y,1/2+z
1/2+x,1/2-y,-z
-x,1/2+y,1/2-z
-x,-y,-z
1/2+x,y,1/2-z
1/2-x,1/2+y,z
x,1/2-y,1/2+z
loop_
_atom_site_type_symbol
_atom_site_label
_atom_site_fract_x
_atom_site_fract_y
_atom_site_fract_z
Si Si1 0.439797 0.690947 0.975897
Si Si2 0.485890 0.867024 0.236366
Si Si3 0.905100 0.278291 0.073121
Si Si4 0.837768 0.877341 0.828724
Si Si5 0.788372 0.698354 0.100255
Si Si6 0.320054 0.421031 0.500657
Si Si7 0.663068 0.537990 0.746774
Si Si8 0.179791 0.077691 0.582678
O O1 0.441155 0.640870 0.862674
O O2 0.359029 0.749714 0.965547
O O3 0.539070 0.728887 0.983639
O O4 0.426583 0.644434 0.094414
O O5 0.536568 0.792738 0.191610
O O6 0.559733 0.931562 0.244619
O O7 0.402064 0.883072 0.149760
O O8 0.810014 0.238310 0.101956
O O9 0.897250 0.358464 0.013199
O O10 0.815802 0.814650 0.734380
O O11 0.852495 0.952144 0.761012
O O12 0.757458 0.883908 0.922517
O O13 0.790074 0.621395 0.032526
O O14 0.283259 0.443153 0.372645
O O15 0.357947 0.495772 0.557179
O O16 0.724730 0.573174 0.846936
#
# Coordination Sequence:
#
# PCOD8249493 Si02
#       8
#     8   8   8   8   8   8   8   8
#     4  12  25  44  65 101 137 177 228 280 348 408
#     4  11  25  42  67  99 132 181 222 286 345 408
#     4  11  25  42  68 101 135 179 225 284 341 412
#     4  11  24  44  68 100 137 180 226 285 338 412
#     4  12  25  43  70  99 138 181 225 282 343 413
#     4  10  22  44  69  99 130 180 227 278 337 405
#     4  10  23  44  69  98 134 176 229 280 344 404
#     4  11  23  44  69  98 135 178 231 280 343 406
#
# _framework density 20.930530999999998
#
# number of rings (size 3 to 8) (size 9 to 14) (size 15 to 20)
#    0.000    1.000    3.750    2.250    3.500    3.500 
#    4.500    0.000    0.000    0.000    0.000    0.000 
#    0.000    0.000    0.000    0.000    0.000    0.000 
#
# Total GULP energy -793526.372707 kJ/mol
# GULP energy per Si atom -12398.849574 kJ/mol
# Density = 2.088289 g / cm^3
# Si number density = 20.930531 Si / 1000 Ang^3
#
#
#
# Elastic Constant Matrix: (Units=GPa)
#
#
# Indices 1 2 3 4 5 6 
#
# 1 83.4343 45.0654 28.0897 0.0000 0.0000 0.0000
# 2 45.0654 69.2997 41.9116 0.0000 0.0000 0.0000
# 3 28.0897 41.9116 120.4610 0.0000 0.0000 0.0000
# 4 0.0000 0.0000 0.0000 37.1154 0.0000 0.0000
# 5 0.0000 0.0000 0.0000 0.0000 31.1407 0.0000
# 6 0.0000 0.0000 0.0000 0.0000 0.0000 29.7594
#
#
#
# Elastic Compliance Matrix: (Units=1/GPa)
#
#
# Indices 1 2 3 4 5 6 
#
# 1 0.018477 -0.011917 -0.000162 0.000000 0.000000 0.000000
# 2 -0.011917 0.025962 -0.006254 0.000000 0.000000 0.000000
# 3 -0.000162 -0.006254 0.010515 0.000000 0.000000 0.000000
# 4 0.000000 0.000000 0.000000 0.026943 0.000000 0.000000
# 5 0.000000 0.000000 0.000000 0.000000 0.032112 0.000000
# 6 0.000000 0.000000 0.000000 0.000000 0.000000 0.033603
#
#
# Mechanical properties :
#
#
# Convention : Reuss Voigt Hill
#
# Bulk Modulus (GPa) = 54.68290 55.92538 55.30414
# Shear Modulus (GPa) = 26.26386 30.14501 28.20443
#
# Velocity S-wave (km/s) = 3.54617 3.79917 3.67485
# Velocity P-wave (km/s) = 6.55361 6.78398 6.66979
#
# Compressibility (1/GPa) = 0.01828725
#
# Stress axis : x y z
#
# Youngs Moduli (GPa) = 54.12115 38.51737 95.10052
#
# Poissons Ratio (x) = 0.45903 0.01542
# Poissons Ratio (y) = 0.64499 0.59476
# Poissons Ratio (z) = 0.00878 0.24089
#
# Static dielectric constant tensor:
#      x y z
#    x 3.659630 0.000000 0.000000 
#    y 0.000000 3.929270 0.000000 
#    z 0.000000 0.000000 3.952000 
# 
# 
# High freq. dielectric constant tensor:
#      x y z
#    x 1.811820 0.000000 0.000000 
#    y 0.000000 1.828110 0.000000 
#    z 0.000000 0.000000 1.832490 
# 
# From -- ./inp_files/6004.got.cif
#   From: 2010.03.12/outbox.cif.g09.slc.cpg/sg61_4_cif.got.tgz:6004.got - 2010.04.10 19:05:03.
