data_PCOD8249165
_publ_section_title
;
Structure prediction by ZEFSAII (Michael W. Deem and Ramdas Pophale) SiO2 
 PCOD8249165
Probable space group: P B C A
;
_chemical_formula_sum "Si O2"
_cell_formula_units_Z 48
_cell_length_a 14.229482
_cell_length_b 11.595065
_cell_length_c 14.375023
_cell_angle_alpha 90.000000
_cell_angle_beta 90.000000
_cell_angle_gamma 90.000000
_cell_volume 2371.760470
_symmetry_space_group_name_H-M "P B C A"
_symmetry_group_IT_number 61
_symmetry_cell_setting 'orthorhombic'
loop_
_space_group_symop_operation_xyz
x,y,z
1/2-x,-y,1/2+z
1/2+x,1/2-y,-z
-x,1/2+y,1/2-z
-x,-y,-z
1/2+x,y,1/2-z
1/2-x,1/2+y,z
x,1/2-y,1/2+z
loop_
_atom_site_type_symbol
_atom_site_label
_atom_site_fract_x
_atom_site_fract_y
_atom_site_fract_z
Si Si1 0.197515 0.414541 0.753471
Si Si2 0.463928 0.726706 0.320892
Si Si3 0.622297 0.685720 0.181224
Si Si4 0.454844 0.314124 0.001684
Si Si5 0.335146 0.561299 0.848732
Si Si6 0.870902 0.951976 0.945771
O O1 0.095226 0.388647 0.797517
O O2 0.269893 0.309798 0.781419
O O3 0.235942 0.536592 0.795571
O O4 0.194911 0.424248 0.642064
O O5 0.550795 0.745033 0.251770
O O6 0.506513 0.719640 0.425177
O O7 0.391838 0.831944 0.307284
O O8 0.596838 0.549618 0.166967
O O9 0.612829 0.742917 0.077378
O O10 0.403581 0.414816 0.060237
O O11 0.541076 0.366244 0.942713
O O12 0.313799 0.573251 0.958957
#
# Coordination Sequence:
#
# PCOD8249165 Si02
#       6
#     8   8   8   8   8   8
#     4  10  21  37  59  94 121 151 214 255 288 376
#     4  11  20  37  62  87 119 166 197 249 311 360
#     4   9  20  41  56  90 121 152 206 250 299 372
#     4   9  18  35  63  83 111 167 197 236 315 363
#     4   8  21  39  57  90 118 156 208 241 312 358
#     4   9  16  37  65  76 116 166 191 247 304 366
#
# _framework density 20.238129000000001
#
# number of rings (size 3 to 8) (size 9 to 14) (size 15 to 20)
#    1.000    1.667    1.667    1.000    0.000    1.333 
#    9.000    0.000    0.000    2.000    0.000    0.000 
#    0.000    0.000    0.000    0.000    0.000    0.000 
#
# Total GULP energy -594635.665366 kJ/mol
# GULP energy per Si atom -12388.243028 kJ/mol
# Density = 2.019207 g / cm^3
# Si number density = 20.238129 Si / 1000 Ang^3
#
#
#
# Elastic Constant Matrix: (Units=GPa)
#
#
# Indices 1 2 3 4 5 6 
#
# 1 82.8106 6.3569 62.0097 0.0000 0.0000 0.0000
# 2 6.3569 13.8284 19.6767 0.0000 0.0000 0.0000
# 3 62.0097 19.6767 159.0995 0.0000 0.0000 0.0000
# 4 0.0000 0.0000 0.0000 23.8878 0.0000 0.0000
# 5 0.0000 0.0000 0.0000 0.0000 49.2567 0.0000
# 6 0.0000 0.0000 0.0000 0.0000 0.0000 21.5071
#
#
#
# Elastic Compliance Matrix: (Units=1/GPa)
#
#
# Indices 1 2 3 4 5 6 
#
# 1 0.017097 0.001969 -0.006907 0.000000 0.000000 0.000000
# 2 0.001969 0.087985 -0.011649 0.000000 0.000000 0.000000
# 3 -0.006907 -0.011649 0.010418 0.000000 0.000000 0.000000
# 4 0.000000 0.000000 0.000000 0.041862 0.000000 0.000000
# 5 0.000000 0.000000 0.000000 0.000000 0.020302 0.000000
# 6 0.000000 0.000000 0.000000 0.000000 0.000000 0.046496
#
#
# Mechanical properties :
#
#
# Convention : Reuss Voigt Hill
#
# Bulk Modulus (GPa) = 12.14687 47.98056 30.06372
# Shear Modulus (GPa) = 17.55760 30.11000 23.83380
#
# Velocity S-wave (km/s) = 2.94862 3.86137 3.43544
# Velocity P-wave (km/s) = 4.19612 6.60603 5.53386
#
# Compressibility (1/GPa) = 0.08232572
#
# Stress axis : x y z
#
# Youngs Moduli (GPa) = 58.49100 11.36552 95.98701
#
# Poissons Ratio (x) = -0.02238 0.66298
# Poissons Ratio (y) = -0.11515 1.11815
# Poissons Ratio (z) = 0.40400 0.13240
#
# Static dielectric constant tensor:
#      x y z
#    x 3.580730 0.000000 0.000000 
#    y 0.000000 3.240780 0.000000 
#    z 0.000000 0.000000 3.666120 
# 
# 
# High freq. dielectric constant tensor:
#      x y z
#    x 1.781590 0.000000 0.000000 
#    y 0.000000 1.747120 0.000000 
#    z 0.000000 0.000000 1.797460 
# 
# From -- ./inp_files/8142.got.cif
#   From: 2010.03.12/outbox.cif.g09.slc.cpg/sg61_5_cif.got.tgz:8142.got - 2010.04.10 19:05:03.
