data_PCOD8249382
_publ_section_title
;
Structure prediction by ZEFSAII (Michael W. Deem and Ramdas Pophale) SiO2 
 PCOD8249382
Probable space group: P B C A
;
_chemical_formula_sum "Si O2"
_cell_formula_units_Z 56
_cell_length_a 13.091657
_cell_length_b 13.205021
_cell_length_c 17.572182
_cell_angle_alpha 90.000000
_cell_angle_beta 90.000000
_cell_angle_gamma 90.000000
_cell_volume 3037.801605
_symmetry_space_group_name_H-M "P B C A"
_symmetry_group_IT_number 61
_symmetry_cell_setting 'orthorhombic'
loop_
_space_group_symop_operation_xyz
x,y,z
1/2-x,-y,1/2+z
1/2+x,1/2-y,-z
-x,1/2+y,1/2-z
-x,-y,-z
1/2+x,y,1/2-z
1/2-x,1/2+y,z
x,1/2-y,1/2+z
loop_
_atom_site_type_symbol
_atom_site_label
_atom_site_fract_x
_atom_site_fract_y
_atom_site_fract_z
Si Si1 0.090514 0.141605 0.989334
Si Si2 0.244650 0.090965 0.267569
Si Si3 0.622324 0.276808 0.843566
Si Si4 0.895229 0.250316 0.205980
Si Si5 0.237097 0.207116 0.411096
Si Si6 0.784614 0.392423 0.311913
Si Si7 0.362486 0.081088 0.525860
O O1 0.116764 0.187095 0.070628
O O2 0.130333 0.025931 0.981618
O O3 0.145591 0.214465 0.928206
O O4 0.969387 0.141581 0.975413
O O5 0.165928 0.132338 0.205700
O O6 0.357417 0.141665 0.260204
O O7 0.199507 0.119336 0.351627
O O8 0.257186 0.973112 0.249617
O O9 0.512472 0.247531 0.812690
O O10 0.691200 0.178161 0.835184
O O11 0.828063 0.271376 0.129496
O O12 0.875611 0.333552 0.270346
O O13 0.278019 0.152357 0.486801
O O14 0.830383 0.442389 0.387806
#
# Coordination Sequence:
#
# PCOD8249382 Si02
#       7
#     8   8   8   8   8   8   8
#     4  11  22  39  63  90 121 159 207 246 312 369
#     4   9  22  39  57  88 117 158 195 246 295 362
#     4  11  20  40  61  85 120 158 198 252 299 363
#     4   9  23  38  58  88 119 156 197 250 297 359
#     4  10  22  39  61  86 126 154 199 255 301 354
#     4  11  22  38  63  90 121 160 202 248 307 360
#     4  11  23  37  65  92 118 164 201 253 304 374
#
# _framework density 18.434381999999999
#
# number of rings (size 3 to 8) (size 9 to 14) (size 15 to 20)
#    0.857    0.857    4.286    0.000    4.000    1.143 
#    2.571    0.000    3.143    2.571    0.000    0.000 
#    0.000    0.000    0.000    0.000    0.000    0.000 
#
# Total GULP energy -694047.255764 kJ/mol
# GULP energy per Si atom -12393.700996 kJ/mol
# Density = 1.839242 g / cm^3
# Si number density = 18.434382 Si / 1000 Ang^3
#
#
#
# Elastic Constant Matrix: (Units=GPa)
#
#
# Indices 1 2 3 4 5 6 
#
# 1 83.7592 33.1733 31.7490 0.0000 0.0000 0.0000
# 2 33.1733 87.9521 26.8646 0.0000 0.0000 0.0000
# 3 31.7490 26.8646 84.1525 0.0000 0.0000 0.0000
# 4 0.0000 0.0000 0.0000 39.9838 0.0000 0.0000
# 5 0.0000 0.0000 0.0000 0.0000 34.0169 0.0000
# 6 0.0000 0.0000 0.0000 0.0000 0.0000 16.3972
#
#
#
# Elastic Compliance Matrix: (Units=1/GPa)
#
#
# Indices 1 2 3 4 5 6 
#
# 1 0.015362 -0.004459 -0.004372 0.000000 0.000000 0.000000
# 2 -0.004459 0.013892 -0.002753 0.000000 0.000000 0.000000
# 3 -0.004372 -0.002753 0.014412 0.000000 0.000000 0.000000
# 4 0.000000 0.000000 0.000000 0.025010 0.000000 0.000000
# 5 0.000000 0.000000 0.000000 0.000000 0.029397 0.000000
# 6 0.000000 0.000000 0.000000 0.000000 0.000000 0.060986
#
#
# Mechanical properties :
#
#
# Convention : Reuss Voigt Hill
#
# Bulk Modulus (GPa) = 48.78446 48.82639 48.80543
# Shear Modulus (GPa) = 26.44661 29.01804 27.73232
#
# Velocity S-wave (km/s) = 3.79177 3.97183 3.88284
# Velocity P-wave (km/s) = 6.75953 6.89768 6.82896
#
# Compressibility (1/GPa) = 0.02049833
#
# Stress axis : x y z
#
# Youngs Moduli (GPa) = 65.09456 71.98199 69.38844
#
# Poissons Ratio (x) = 0.32095 0.30340
# Poissons Ratio (y) = 0.29024 0.19101
# Poissons Ratio (z) = 0.28462 0.19815
#
# Static dielectric constant tensor:
#      x y z
#    x 3.188200 0.000000 0.000000 
#    y 0.000000 3.283880 0.000000 
#    z 0.000000 0.000000 3.494590 
# 
# 
# High freq. dielectric constant tensor:
#      x y z
#    x 1.703450 0.000000 0.000000 
#    y 0.000000 1.709940 0.000000 
#    z 0.000000 0.000000 1.724900 
# 
# From -- ./inp_files/10302.got.cif
#   From: 2010.03.12/outbox.cif.g09.slc.cpg/sg61_6_cif.got.tgz:10302.got - 2010.04.10 19:05:03.
