data_PCOD8249478
_publ_section_title
;
Structure prediction by ZEFSAII (Michael W. Deem and Ramdas Pophale) SiO2 
 PCOD8249478
Probable space group: P B C A
;
_chemical_formula_sum "Si O2"
_cell_formula_units_Z 40
_cell_length_a 8.307559
_cell_length_b 9.189911
_cell_length_c 21.307547
_cell_angle_alpha 90.000000
_cell_angle_beta 90.000000
_cell_angle_gamma 90.000000
_cell_volume 1626.740184
_symmetry_space_group_name_H-M "P B C A"
_symmetry_group_IT_number 61
_symmetry_cell_setting 'orthorhombic'
loop_
_space_group_symop_operation_xyz
x,y,z
1/2-x,-y,1/2+z
1/2+x,1/2-y,-z
-x,1/2+y,1/2-z
-x,-y,-z
1/2+x,y,1/2-z
1/2-x,1/2+y,z
x,1/2-y,1/2+z
loop_
_atom_site_type_symbol
_atom_site_label
_atom_site_fract_x
_atom_site_fract_y
_atom_site_fract_z
Si Si1 0.061236 0.110475 0.448579
Si Si2 0.301740 0.520716 0.263640
Si Si3 0.365441 0.109283 0.522089
Si Si4 0.958113 0.285214 0.698068
Si Si5 0.365684 0.936696 0.134908
O O1 0.249033 0.145324 0.462471
O O2 0.953606 0.251743 0.451931
O O3 0.025073 0.036192 0.380842
O O4 0.000000 0.000000 0.500000
O O5 0.431035 0.648505 0.252731
O O6 0.379385 0.368201 0.281511
O O7 0.177741 0.591203 0.315571
O O8 0.205921 0.493775 0.199342
O O9 0.500000 0.000000 0.500000
O O10 0.263800 0.044674 0.579927
O O11 0.071708 0.233282 0.639781
#
# Coordination Sequence:
#
# PCOD8249478 Si02
#       5
#     8   8   8   8   8
#     4  10  22  43  70 107 139 183 241 301 366 447
#     4  12  24  46  70 103 149 196 248 310 361 447
#     4  11  24  48  74 105 146 186 242 312 369 454
#     4  12  24  46  70 104 148 194 252 305 365 447
#     4  11  24  45  75 105 145 195 244 298 382 438
#
# _framework density 24.589053
#
# number of rings (size 3 to 8) (size 9 to 14) (size 15 to 20)
#    0.000    0.800    4.000    3.600    0.000    1.600 
#   18.000    0.000    0.000    0.000    0.000    0.000 
#    0.000    0.000    0.000    0.000    0.000    0.000 
#
# Total GULP energy -495538.932862 kJ/mol
# GULP energy per Si atom -12388.473322 kJ/mol
# Density = 2.453309 g / cm^3
# Si number density = 24.589053 Si / 1000 Ang^3
#
#
#
# Elastic Constant Matrix: (Units=GPa)
#
#
# Indices 1 2 3 4 5 6 
#
# 1 132.8728 36.8286 16.4925 0.0000 0.0000 0.0000
# 2 36.8286 113.6719 12.1546 0.0000 0.0000 0.0000
# 3 16.4925 12.1546 45.7560 0.0000 0.0000 0.0000
# 4 0.0000 0.0000 0.0000 34.0179 0.0000 0.0000
# 5 0.0000 0.0000 0.0000 0.0000 31.7769 0.0000
# 6 0.0000 0.0000 0.0000 0.0000 0.0000 69.1881
#
#
#
# Elastic Compliance Matrix: (Units=1/GPa)
#
#
# Indices 1 2 3 4 5 6 
#
# 1 0.008518 -0.002503 -0.002406 0.000000 0.000000 0.000000
# 2 -0.002503 0.009790 -0.001698 0.000000 0.000000 0.000000
# 3 -0.002406 -0.001698 0.023173 0.000000 0.000000 0.000000
# 4 0.000000 0.000000 0.000000 0.029396 0.000000 0.000000
# 5 0.000000 0.000000 0.000000 0.000000 0.031469 0.000000
# 6 0.000000 0.000000 0.000000 0.000000 0.000000 0.014453
#
#
# Mechanical properties :
#
#
# Convention : Reuss Voigt Hill
#
# Bulk Modulus (GPa) = 35.37578 47.02803 41.20191
# Shear Modulus (GPa) = 35.85869 42.11824 38.98847
#
# Velocity S-wave (km/s) = 3.82294 4.14319 3.98628
# Velocity P-wave (km/s) = 5.82276 6.48500 6.16278
#
# Compressibility (1/GPa) = 0.02826793
#
# Stress axis : x y z
#
# Youngs Moduli (GPa) = 117.39520 102.14838 43.15308
#
# Poissons Ratio (x) = 0.25564 0.10381
# Poissons Ratio (y) = 0.29379 0.07329
# Poissons Ratio (z) = 0.28240 0.17350
#
# Static dielectric constant tensor:
#      x y z
#    x 5.341610 0.000000 0.000000 
#    y 0.000000 4.470880 0.000000 
#    z 0.000000 0.000000 5.315120 
# 
# 
# High freq. dielectric constant tensor:
#      x y z
#    x 2.007940 0.000000 0.000000 
#    y 0.000000 1.988290 0.000000 
#    z 0.000000 0.000000 1.959400 
# 
# From -- ./inp_files/1755.got.cif
#   From: 2010.03.12/outbox.cif.g09.slc.cpg/sg61_1_cif.got.tgz:1755.got - 2010.04.10 19:05:03.
