data_PCOD8249549
_publ_section_title
;
Structure prediction by ZEFSAII (Michael W. Deem and Ramdas Pophale) SiO2 
 PCOD8249549
Probable space group: P B C A
;
_chemical_formula_sum "Si O2"
_cell_formula_units_Z 56
_cell_length_a 9.347910
_cell_length_b 14.134559
_cell_length_c 21.074730
_cell_angle_alpha 90.000000
_cell_angle_beta 90.000000
_cell_angle_gamma 90.000000
_cell_volume 2784.574263
_symmetry_space_group_name_H-M "P B C A"
_symmetry_group_IT_number 61
_symmetry_cell_setting 'orthorhombic'
loop_
_space_group_symop_operation_xyz
x,y,z
1/2-x,-y,1/2+z
1/2+x,1/2-y,-z
-x,1/2+y,1/2-z
-x,-y,-z
1/2+x,y,1/2-z
1/2-x,1/2+y,z
x,1/2-y,1/2+z
loop_
_atom_site_type_symbol
_atom_site_label
_atom_site_fract_x
_atom_site_fract_y
_atom_site_fract_z
Si Si1 0.250853 0.632933 0.361090
Si Si2 0.039306 0.007346 0.806771
Si Si3 0.348367 0.684090 0.015222
Si Si4 0.243217 0.352610 0.376453
Si Si5 0.288605 0.984325 0.602027
Si Si6 0.668667 0.859486 0.498922
Si Si7 0.512334 0.510504 0.661568
O O1 0.127622 0.589458 0.316675
O O2 0.254193 0.745035 0.351905
O O3 0.218913 0.601115 0.433155
O O4 0.403440 0.588842 0.341994
O O5 0.879624 0.995683 0.833834
O O6 0.033852 0.030701 0.733084
O O7 0.114773 0.095118 0.841113
O O8 0.278960 0.641992 0.951624
O O9 0.285537 0.787690 0.029272
O O10 0.307534 0.621106 0.075612
O O11 0.518364 0.694344 0.007387
O O12 0.393584 0.401491 0.361628
O O13 0.124238 0.004983 0.616216
O O14 0.350231 0.053490 0.548278
#
# Coordination Sequence:
#
# PCOD8249549 Si02
#       7
#     8   8   8   8   8   8   8
#     4  10  23  43  65  89 129 163 201 264 317 357
#     4  11  22  45  63  89 130 166 214 253 300 369
#     4  11  24  41  66  96 126 161 205 258 317 376
#     4  10  23  43  65  89 129 163 201 264 317 357
#     4  12  23  38  68  93 125 164 209 253 315 368
#     4  11  24  41  66  96 126 161 205 258 317 376
#     4  11  26  40  63  96 121 170 214 251 299 373
#
# _framework density 20.110795
#
# number of rings (size 3 to 8) (size 9 to 14) (size 15 to 20)
#    0.000    1.143    2.857    3.857    8.000    2.286 
#    0.000    2.857    0.000    0.000    0.000    0.000 
#    0.000    0.000    0.000    0.000    0.000    0.000 
#
# Total GULP energy -694760.744786 kJ/mol
# GULP energy per Si atom -12406.441871 kJ/mol
# Density = 2.006502 g / cm^3
# Si number density = 20.110795 Si / 1000 Ang^3
#
#
#
# Elastic Constant Matrix: (Units=GPa)
#
#
# Indices 1 2 3 4 5 6 
#
# 1 116.2445 24.8747 9.8389 0.0000 0.0000 0.0000
# 2 24.8747 72.5550 -0.4059 0.0000 0.0000 0.0000
# 3 9.8389 -0.4059 65.0629 0.0000 0.0000 0.0000
# 4 0.0000 0.0000 0.0000 20.0718 0.0000 0.0000
# 5 0.0000 0.0000 0.0000 0.0000 35.0520 0.0000
# 6 0.0000 0.0000 0.0000 0.0000 0.0000 31.0350
#
#
#
# Elastic Compliance Matrix: (Units=1/GPa)
#
#
# Indices 1 2 3 4 5 6 
#
# 1 0.009417 -0.003237 -0.001444 0.000000 0.000000 0.000000
# 2 -0.003237 0.014896 0.000582 0.000000 0.000000 0.000000
# 3 -0.001444 0.000582 0.015592 0.000000 0.000000 0.000000
# 4 0.000000 0.000000 0.000000 0.049821 0.000000 0.000000
# 5 0.000000 0.000000 0.000000 0.000000 0.028529 0.000000
# 6 0.000000 0.000000 0.000000 0.000000 0.000000 0.032222
#
#
# Mechanical properties :
#
#
# Convention : Reuss Voigt Hill
#
# Bulk Modulus (GPa) = 31.53834 35.83090 33.68462
# Shear Modulus (GPa) = 29.54330 31.86873 30.70602
#
# Velocity S-wave (km/s) = 3.83695 3.98510 3.91172
# Velocity P-wave (km/s) = 5.94524 6.24741 6.09819
#
# Compressibility (1/GPa) = 0.03170744
#
# Stress axis : x y z
#
# Youngs Moduli (GPa) = 106.18613 67.13400 64.13637
#
# Poissons Ratio (x) = 0.21730 0.09263
# Poissons Ratio (y) = 0.34370 -0.03735
# Poissons Ratio (z) = 0.15337 -0.03910
#
# Static dielectric constant tensor:
#      x y z
#    x 3.779320 0.000000 0.000000 
#    y 0.000000 3.613030 0.000000 
#    z 0.000000 0.000000 3.575190 
# 
# 
# High freq. dielectric constant tensor:
#      x y z
#    x 1.799090 0.000000 0.000000 
#    y 0.000000 1.786360 0.000000 
#    z 0.000000 0.000000 1.783480 
# 
# From -- ./inp_files/10132.got.cif
#   From: 2010.03.12/outbox.cif.g09.slc.cpg/sg61_6_cif.got.tgz:10132.got - 2010.04.10 19:05:03.
