data_PCOD8249661
_publ_section_title
;
Structure prediction by ZEFSAII (Michael W. Deem and Ramdas Pophale) SiO2 
 PCOD8249661
Probable space group: P B C A
;
_chemical_formula_sum "Si O2"
_cell_formula_units_Z 40
_cell_length_a 23.575672
_cell_length_b 7.685412
_cell_length_c 8.551563
_cell_angle_alpha 90.000000
_cell_angle_beta 90.000000
_cell_angle_gamma 90.000000
_cell_volume 1549.447032
_symmetry_space_group_name_H-M "P B C A"
_symmetry_group_IT_number 61
_symmetry_cell_setting 'orthorhombic'
loop_
_space_group_symop_operation_xyz
x,y,z
1/2-x,-y,1/2+z
1/2+x,1/2-y,-z
-x,1/2+y,1/2-z
-x,-y,-z
1/2+x,y,1/2-z
1/2-x,1/2+y,z
x,1/2-y,1/2+z
loop_
_atom_site_type_symbol
_atom_site_label
_atom_site_fract_x
_atom_site_fract_y
_atom_site_fract_z
Si Si1 0.081871 0.083141 0.010845
Si Si2 0.429818 0.186279 0.017189
Si Si3 0.700525 0.995273 0.587703
Si Si4 0.805819 0.346989 0.935773
Si Si5 0.026456 0.370155 0.200112
O O1 0.031091 0.124077 0.887235
O O2 0.143491 0.112132 0.928686
O O3 0.072639 0.226790 0.144205
O O4 0.076089 0.886269 0.074806
O O5 0.462553 0.068152 0.143318
O O6 0.367550 0.099585 0.996807
O O7 0.462671 0.180434 0.851539
O O8 0.697704 0.860928 0.443398
O O9 0.757986 0.098866 0.560250
O O10 0.702541 0.910661 0.759446
#
# Coordination Sequence:
#
# PCOD8249661 Si02
#       5
#     8   8   8   8   8
#     4  11  26  46  70 109 142 187 244 293 364 426
#     4  10  25  46  70 104 147 190 236 298 360 430
#     4  11  25  45  70 100 140 189 236 302 357 433
#     4  11  24  46  69 102 142 185 241 295 363 425
#     4  11  25  45  76 104 144 191 238 297 362 433
#
# _framework density 25.815660000000001
#
# number of rings (size 3 to 8) (size 9 to 14) (size 15 to 20)
#    0.000    1.200    2.000    1.800    8.400    3.200 
#    3.600    0.000    0.000    0.000    0.000    0.000 
#    0.000    0.000    0.000    0.000    0.000    0.000 
#
# Total GULP energy -495836.253723 kJ/mol
# GULP energy per Si atom -12395.906343 kJ/mol
# Density = 2.575690 g / cm^3
# Si number density = 25.815660 Si / 1000 Ang^3
#
#
#
# Elastic Constant Matrix: (Units=GPa)
#
#
# Indices 1 2 3 4 5 6 
#
# 1 133.9002 17.5782 44.0032 0.0000 0.0000 0.0000
# 2 17.5782 110.5940 40.9513 0.0000 0.0000 0.0000
# 3 44.0032 40.9513 104.6103 0.0000 0.0000 0.0000
# 4 0.0000 0.0000 0.0000 36.6757 0.0000 0.0000
# 5 0.0000 0.0000 0.0000 0.0000 24.3065 0.0000
# 6 0.0000 0.0000 0.0000 0.0000 0.0000 33.7268
#
#
#
# Elastic Compliance Matrix: (Units=1/GPa)
#
#
# Indices 1 2 3 4 5 6 
#
# 1 0.008666 -0.000032 -0.003633 0.000000 0.000000 0.000000
# 2 -0.000032 0.010575 -0.004126 0.000000 0.000000 0.000000
# 3 -0.003633 -0.004126 0.012703 0.000000 0.000000 0.000000
# 4 0.000000 0.000000 0.000000 0.027266 0.000000 0.000000
# 5 0.000000 0.000000 0.000000 0.000000 0.041141 0.000000
# 6 0.000000 0.000000 0.000000 0.000000 0.000000 0.029650
#
#
# Mechanical properties :
#
#
# Convention : Reuss Voigt Hill
#
# Bulk Modulus (GPa) = 61.11893 61.57443 61.34668
# Shear Modulus (GPa) = 33.10434 35.37993 34.24214
#
# Velocity S-wave (km/s) = 3.58486 3.70602 3.64594
# Velocity P-wave (km/s) = 6.39230 6.49739 6.44506
#
# Compressibility (1/GPa) = 0.01636154
#
# Stress axis : x y z
#
# Youngs Moduli (GPa) = 115.38945 94.56186 78.72389
#
# Poissons Ratio (x) = 0.00305 0.28598
# Poissons Ratio (y) = 0.00373 0.32483
# Poissons Ratio (z) = 0.41918 0.39018
#
# Static dielectric constant tensor:
#      x y z
#    x 5.292160 0.000000 0.000000 
#    y 0.000000 4.758650 0.000000 
#    z 0.000000 0.000000 4.194300 
# 
# 
# High freq. dielectric constant tensor:
#      x y z
#    x 2.054030 0.000000 0.000000 
#    y 0.000000 2.034980 0.000000 
#    z 0.000000 0.000000 2.022670 
# 
# From -- ./inp_files/4147.got.cif
#   From: 2010.03.12/outbox.cif.g09.slc.cpg/sg61_3_cif.got.tgz:4147.got - 2010.04.10 19:05:03.
