data_PCOD8249791
_publ_section_title
;
Structure prediction by ZEFSAII (Michael W. Deem and Ramdas Pophale) SiO2 
 PCOD8249791
Probable space group: P B C A
;
_chemical_formula_sum "Si O2"
_cell_formula_units_Z 48
_cell_length_a 17.443891
_cell_length_b 12.984014
_cell_length_c 9.635907
_cell_angle_alpha 90.000000
_cell_angle_beta 90.000000
_cell_angle_gamma 90.000000
_cell_volume 2182.453198
_symmetry_space_group_name_H-M "P B C A"
_symmetry_group_IT_number 61
_symmetry_cell_setting 'orthorhombic'
loop_
_space_group_symop_operation_xyz
x,y,z
1/2-x,-y,1/2+z
1/2+x,1/2-y,-z
-x,1/2+y,1/2-z
-x,-y,-z
1/2+x,y,1/2-z
1/2-x,1/2+y,z
x,1/2-y,1/2+z
loop_
_atom_site_type_symbol
_atom_site_label
_atom_site_fract_x
_atom_site_fract_y
_atom_site_fract_z
Si Si1 0.731578 0.625783 0.803142
Si Si2 0.825851 0.818212 0.864715
Si Si3 0.476726 0.757151 0.005154
Si Si4 0.941925 0.345251 0.259960
Si Si5 0.232716 0.974775 0.472497
Si Si6 0.586285 0.448149 0.638162
O O1 0.794717 0.714154 0.797280
O O2 0.649252 0.672297 0.762775
O O3 0.757643 0.540681 0.688432
O O4 0.725880 0.572275 0.954782
O O5 0.755378 0.871395 0.945137
O O6 0.857543 0.890287 0.744107
O O7 0.892706 0.789780 0.972767
O O8 0.522564 0.677736 0.909532
O O9 0.472136 0.870223 0.934882
O O10 0.521145 0.766409 0.150177
O O11 0.961278 0.463966 0.219957
O O12 0.140783 0.995492 0.476486
#
# Coordination Sequence:
#
# PCOD8249791 Si02
#       6
#     8   8   8   8   8   8
#     4  11  26  45  73 108 142 184 243 301 357 422
#     4  12  24  46  76 103 141 190 243 289 359 425
#     4  12  25  48  73 102 146 193 229 295 361 433
#     4  11  27  46  69 107 146 184 237 294 361 427
#     4  11  23  45  73 104 139 181 244 302 343 421
#     4  11  24  48  68 106 141 186 244 286 360 423
#
# _framework density 21.993599
#
# number of rings (size 3 to 8) (size 9 to 14) (size 15 to 20)
#    0.000    0.667    6.667    1.500    4.667    0.667 
#    0.000    0.000    0.000    0.000    0.000    0.000 
#    0.000    0.000    0.000    0.000    0.000    0.000 
#
# Total GULP energy -595239.199956 kJ/mol
# GULP energy per Si atom -12400.816666 kJ/mol
# Density = 2.194354 g / cm^3
# Si number density = 21.993599 Si / 1000 Ang^3
#
#
#
# Elastic Constant Matrix: (Units=GPa)
#
#
# Indices 1 2 3 4 5 6 
#
# 1 71.0483 33.5118 38.2939 0.0000 0.0000 0.0000
# 2 33.5118 93.0401 36.8434 0.0000 0.0000 0.0000
# 3 38.2939 36.8434 96.0603 0.0000 0.0000 0.0000
# 4 0.0000 0.0000 0.0000 40.9313 0.0000 0.0000
# 5 0.0000 0.0000 0.0000 0.0000 41.2517 0.0000
# 6 0.0000 0.0000 0.0000 0.0000 0.0000 40.2559
#
#
#
# Elastic Compliance Matrix: (Units=1/GPa)
#
#
# Indices 1 2 3 4 5 6 
#
# 1 0.019496 -0.004651 -0.005988 0.000000 0.000000 0.000000
# 2 -0.004651 0.013782 -0.003432 0.000000 0.000000 0.000000
# 3 -0.005988 -0.003432 0.014114 0.000000 0.000000 0.000000
# 4 0.000000 0.000000 0.000000 0.024431 0.000000 0.000000
# 5 0.000000 0.000000 0.000000 0.000000 0.024241 0.000000
# 6 0.000000 0.000000 0.000000 0.000000 0.000000 0.024841
#
#
# Mechanical properties :
#
#
# Convention : Reuss Voigt Hill
#
# Bulk Modulus (GPa) = 51.94878 53.04966 52.49922
# Shear Modulus (GPa) = 32.16156 34.58774 33.37465
#
# Velocity S-wave (km/s) = 3.82817 3.96994 3.89970
# Velocity P-wave (km/s) = 6.57351 6.72211 6.64823
#
# Compressibility (1/GPa) = 0.01924973
#
# Stress axis : x y z
#
# Youngs Moduli (GPa) = 51.29189 72.55659 70.85341
#
# Poissons Ratio (x) = 0.33746 0.42429
# Poissons Ratio (y) = 0.23856 0.24317
# Poissons Ratio (z) = 0.30715 0.24902
#
# Static dielectric constant tensor:
#      x y z
#    x 3.834630 0.000000 0.000000 
#    y 0.000000 4.079150 0.000000 
#    z 0.000000 0.000000 4.129850 
# 
# 
# High freq. dielectric constant tensor:
#      x y z
#    x 1.853090 0.000000 0.000000 
#    y 0.000000 1.869860 0.000000 
#    z 0.000000 0.000000 1.871780 
# 
# From -- ./inp_files/3453.got.cif
#   From: 2010.03.12/outbox.cif.g09.slc.cpg/sg61_2_cif.got.tgz:3453.got - 2010.04.10 19:05:03.
