data_PCOD8249129
_publ_section_title
;
Structure prediction by ZEFSAII (Michael W. Deem and Ramdas Pophale) SiO2 
 PCOD8249129
Probable space group: P B C A
;
_chemical_formula_sum "Si O2"
_cell_formula_units_Z 64
_cell_length_a 4.954510
_cell_length_b 25.319319
_cell_length_c 26.430732
_cell_angle_alpha 90.000000
_cell_angle_beta 90.000000
_cell_angle_gamma 90.000000
_cell_volume 3315.598397
_symmetry_space_group_name_H-M "P B C A"
_symmetry_group_IT_number 61
_symmetry_cell_setting 'orthorhombic'
loop_
_space_group_symop_operation_xyz
x,y,z
1/2-x,-y,1/2+z
1/2+x,1/2-y,-z
-x,1/2+y,1/2-z
-x,-y,-z
1/2+x,y,1/2-z
1/2-x,1/2+y,z
x,1/2-y,1/2+z
loop_
_atom_site_type_symbol
_atom_site_label
_atom_site_fract_x
_atom_site_fract_y
_atom_site_fract_z
Si Si1 0.071397 0.752210 0.893797
Si Si2 0.546932 0.030472 0.928253
Si Si3 0.567509 0.690380 0.928128
Si Si4 0.214247 0.766110 0.282638
Si Si5 0.455235 0.578750 0.882461
Si Si6 0.521603 0.651571 0.037959
Si Si7 0.501242 0.581100 0.466556
Si Si8 0.281385 0.110571 0.780972
O O1 0.342195 0.735508 0.923061
O O2 0.139572 0.762935 0.834889
O O3 0.842407 0.707593 0.900199
O O4 0.960310 0.806054 0.918406
O O5 0.235967 0.043424 0.917621
O O6 0.745339 0.053859 0.885291
O O7 0.585770 0.967437 0.930603
O O8 0.620226 0.058401 0.981132
O O9 0.457557 0.638813 0.900331
O O10 0.625334 0.680498 0.987117
O O11 0.505343 0.749570 0.261335
O O12 0.227828 0.827990 0.295234
O O13 0.330050 0.575530 0.826656
O O14 0.757365 0.613543 0.058688
O O15 0.253880 0.619146 0.024925
O O16 0.589931 0.097151 0.767160
#
# Coordination Sequence:
#
# PCOD8249129 Si02
#       8
#     8   8   8   8   8   8   8   8
#     4  12  24  37  56  83 116 159 189 225 281 340
#     4  11  22  37  59  83 111 148 190 234 284 333
#     4  12  22  36  54  85 121 156 189 216 268 355
#     4  10  21  36  55  79 110 146 190 236 276 322
#     4  12  21  36  59  83 115 154 187 222 290 343
#     4  12  23  39  56  82 119 157 191 233 274 329
#     4  11  22  39  57  83 112 145 194 241 274 322
#     4  10  21  34  53  82 115 148 184 230 277 339
#
# _framework density 19.302700000000002
#
# number of rings (size 3 to 8) (size 9 to 14) (size 15 to 20)
#    0.000    0.750    3.750    5.250    3.500    2.000 
#    0.000    0.000    0.000    0.000    0.000   17.500 
#    0.000    0.000    0.000    0.000    0.000    0.000 
#
# Total GULP energy -793893.570864 kJ/mol
# GULP energy per Si atom -12404.587045 kJ/mol
# Density = 1.925877 g / cm^3
# Si number density = 19.302700 Si / 1000 Ang^3
#
#
#
# Elastic Constant Matrix: (Units=GPa)
#
#
# Indices 1 2 3 4 5 6 
#
# 1 97.9904 21.7710 12.3623 0.0000 0.0000 0.0000
# 2 21.7710 69.1480 38.2740 0.0000 0.0000 0.0000
# 3 12.3623 38.2740 83.4030 0.0000 0.0000 0.0000
# 4 0.0000 0.0000 0.0000 15.8253 0.0000 0.0000
# 5 0.0000 0.0000 0.0000 0.0000 25.6114 0.0000
# 6 0.0000 0.0000 0.0000 0.0000 0.0000 28.0343
#
#
#
# Elastic Compliance Matrix: (Units=1/GPa)
#
#
# Indices 1 2 3 4 5 6 
#
# 1 0.010973 -0.003424 -0.000055 0.000000 0.000000 0.000000
# 2 -0.003424 0.020455 -0.008879 0.000000 0.000000 0.000000
# 3 -0.000055 -0.008879 0.016073 0.000000 0.000000 0.000000
# 4 0.000000 0.000000 0.000000 0.063190 0.000000 0.000000
# 5 0.000000 0.000000 0.000000 0.000000 0.039045 0.000000
# 6 0.000000 0.000000 0.000000 0.000000 0.000000 0.035671
#
#
# Mechanical properties :
#
#
# Convention : Reuss Voigt Hill
#
# Bulk Modulus (GPa) = 43.89181 43.92845 43.91013
# Shear Modulus (GPa) = 22.96557 25.76980 24.36769
#
# Velocity S-wave (km/s) = 3.45303 3.65778 3.55688
# Velocity P-wave (km/s) = 6.21980 6.37544 6.29810
#
# Compressibility (1/GPa) = 0.02278330
#
# Stress axis : x y z
#
# Youngs Moduli (GPa) = 91.13427 48.88892 62.21692
#
# Poissons Ratio (x) = 0.16741 0.00342
# Poissons Ratio (y) = 0.31207 0.55243
# Poissons Ratio (z) = 0.00501 0.43409
#
# Static dielectric constant tensor:
#      x y z
#    x 3.655110 0.000000 0.000000 
#    y 0.000000 3.321140 0.000000 
#    z 0.000000 0.000000 3.353040 
# 
# 
# High freq. dielectric constant tensor:
#      x y z
#    x 1.773890 0.000000 0.000000 
#    y 0.000000 1.718880 0.000000 
#    z 0.000000 0.000000 1.735110 
# 
# From -- ./inp_files/11302.got.cif
#   From: 2010.03.12/outbox.cif.g09.slc.cpg/sg61_6_cif.got.tgz:11302.got - 2010.04.10 19:05:03.
