data_PCOD8249117
_publ_section_title
;
Structure prediction by ZEFSAII (Michael W. Deem and Ramdas Pophale) SiO2 
 PCOD8249117
Probable space group: P B C A
;
_chemical_formula_sum "Si O2"
_cell_formula_units_Z 40
_cell_length_a 12.625895
_cell_length_b 7.655079
_cell_length_c 17.768246
_cell_angle_alpha 90.000000
_cell_angle_beta 90.000000
_cell_angle_gamma 90.000000
_cell_volume 1717.340487
_symmetry_space_group_name_H-M "P B C A"
_symmetry_group_IT_number 61
_symmetry_cell_setting 'orthorhombic'
loop_
_space_group_symop_operation_xyz
x,y,z
1/2-x,-y,1/2+z
1/2+x,1/2-y,-z
-x,1/2+y,1/2-z
-x,-y,-z
1/2+x,y,1/2-z
1/2-x,1/2+y,z
x,1/2-y,1/2+z
loop_
_atom_site_type_symbol
_atom_site_label
_atom_site_fract_x
_atom_site_fract_y
_atom_site_fract_z
Si Si1 0.917935 0.723392 0.644397
Si Si2 0.610149 0.565579 0.034187
Si Si3 0.852667 0.096841 0.873907
Si Si4 0.364678 0.718320 0.683824
Si Si5 0.037046 0.933370 0.419558
O O1 0.853922 0.579689 0.594837
O O2 0.890908 0.685524 0.729858
O O3 0.044607 0.719513 0.630603
O O4 0.885932 0.919459 0.617759
O O5 0.602143 0.753270 0.074555
O O6 0.500000 0.500000 0.000000
O O7 0.687145 0.576133 0.961188
O O8 0.759344 0.182280 0.826510
O O9 0.890469 0.915246 0.838709
O O10 0.434599 0.590172 0.633274
O O11 0.000000 0.000000 0.500000
#
# Coordination Sequence:
#
# PCOD8249117 Si02
#       5
#     8   8   8   8   8
#     4  11  23  45  71 100 141 178 230 291 348 405
#     4  10  20  43  69  97 130 175 233 278 333 415
#     4  11  23  44  68  98 137 184 230 279 340 414
#     4  12  25  42  69 103 142 181 231 286 352 407
#     4  12  21  40  75  97 131 187 228 273 351 413
#
# _framework density 23.291827999999999
#
# number of rings (size 3 to 8) (size 9 to 14) (size 15 to 20)
#    0.000    0.800    8.000    2.400    0.000    0.000 
#    3.600    6.000    0.000    0.000    0.000    0.000 
#    0.000    0.000    0.000    0.000    0.000    0.000 
#
# Total GULP energy -496075.069033 kJ/mol
# GULP energy per Si atom -12401.876726 kJ/mol
# Density = 2.323881 g / cm^3
# Si number density = 23.291828 Si / 1000 Ang^3
#
#
#
# Elastic Constant Matrix: (Units=GPa)
#
#
# Indices 1 2 3 4 5 6 
#
# 1 31.4681 12.3798 29.5332 0.0000 0.0000 0.0000
# 2 12.3798 150.0752 41.7296 0.0000 0.0000 0.0000
# 3 29.5332 41.7296 183.5614 0.0000 0.0000 0.0000
# 4 0.0000 0.0000 0.0000 39.1139 0.0000 0.0000
# 5 0.0000 0.0000 0.0000 0.0000 18.4969 0.0000
# 6 0.0000 0.0000 0.0000 0.0000 0.0000 13.8350
#
#
#
# Elastic Compliance Matrix: (Units=1/GPa)
#
#
# Indices 1 2 3 4 5 6 
#
# 1 0.037753 -0.001521 -0.005728 0.000000 0.000000 0.000000
# 2 -0.001521 0.007174 -0.001386 0.000000 0.000000 0.000000
# 3 -0.005728 -0.001386 0.006684 0.000000 0.000000 0.000000
# 4 0.000000 0.000000 0.000000 0.025566 0.000000 0.000000
# 5 0.000000 0.000000 0.000000 0.000000 0.054063 0.000000
# 6 0.000000 0.000000 0.000000 0.000000 0.000000 0.072281
#
#
# Mechanical properties :
#
#
# Convention : Reuss Voigt Hill
#
# Bulk Modulus (GPa) = 29.12063 59.15444 44.13753
# Shear Modulus (GPa) = 21.52948 33.05331 27.29139
#
# Velocity S-wave (km/s) = 3.04359 3.77117 3.42675
# Velocity P-wave (km/s) = 4.98807 6.66442 5.88623
#
# Compressibility (1/GPa) = 0.03433992
#
# Stress axis : x y z
#
# Youngs Moduli (GPa) = 26.48813 139.38710 149.60012
#
# Poissons Ratio (x) = 0.21208 0.85693
# Poissons Ratio (y) = 0.04030 0.20737
# Poissons Ratio (z) = 0.15173 0.19321
#
# Static dielectric constant tensor:
#      x y z
#    x 3.764130 0.000000 0.000000 
#    y 0.000000 4.602370 0.000000 
#    z 0.000000 0.000000 4.750430 
# 
# 
# High freq. dielectric constant tensor:
#      x y z
#    x 1.880560 0.000000 0.000000 
#    y 0.000000 1.943160 0.000000 
#    z 0.000000 0.000000 1.936030 
# 
# From -- ./inp_files/9401.got.cif
#   From: 2010.03.12/outbox.cif.g09.slc.cpg/sg61_5_cif.got.tgz:9401.got - 2010.04.10 19:05:03.
