data_PCOD8249498
_publ_section_title
;
Structure prediction by ZEFSAII (Michael W. Deem and Ramdas Pophale) SiO2 
 PCOD8249498
Probable space group: P B C A
;
_chemical_formula_sum "Si O2"
_cell_formula_units_Z 56
_cell_length_a 11.890489
_cell_length_b 13.871091
_cell_length_c 14.878316
_cell_angle_alpha 90.000000
_cell_angle_beta 90.000000
_cell_angle_gamma 90.000000
_cell_volume 2453.940989
_symmetry_space_group_name_H-M "P B C A"
_symmetry_group_IT_number 61
_symmetry_cell_setting 'orthorhombic'
loop_
_space_group_symop_operation_xyz
x,y,z
1/2-x,-y,1/2+z
1/2+x,1/2-y,-z
-x,1/2+y,1/2-z
-x,-y,-z
1/2+x,y,1/2-z
1/2-x,1/2+y,z
x,1/2-y,1/2+z
loop_
_atom_site_type_symbol
_atom_site_label
_atom_site_fract_x
_atom_site_fract_y
_atom_site_fract_z
Si Si1 0.782153 0.931391 0.856308
Si Si2 0.638215 0.130043 0.540947
Si Si3 0.377212 0.164928 0.924936
Si Si4 0.049658 0.486978 0.127896
Si Si5 0.503619 0.699669 0.405167
Si Si6 0.123196 0.812176 0.768505
Si Si7 0.490191 0.500920 0.823437
O O1 0.734126 0.857797 0.780531
O O2 0.873673 0.003607 0.813692
O O3 0.678909 0.991796 0.901178
O O4 0.858608 0.878892 0.932878
O O5 0.763517 0.102997 0.573125
O O6 0.606934 0.240641 0.566457
O O7 0.550496 0.057642 0.587957
O O8 0.489092 0.098258 0.925054
O O9 0.351915 0.231194 0.840293
O O10 0.398161 0.219689 0.019695
O O11 0.978824 0.585629 0.111170
O O12 0.054772 0.452199 0.231380
O O13 0.549422 0.738529 0.309717
O O14 0.055836 0.892056 0.824884
#
# Coordination Sequence:
#
# PCOD8249498 Si02
#       7
#     8   8   8   8   8   8   8
#     4  10  22  45  67  98 143 176 228 295 346 410
#     4  12  24  41  71 105 133 181 234 279 355 424
#     4  12  24  43  71 100 133 187 232 274 357 420
#     4  10  24  45  67  99 138 180 228 284 344 415
#     4  10  23  46  62  99 141 175 230 290 338 410
#     4  10  24  45  68  98 141 179 226 291 341 411
#     4  10  23  43  69  99 135 179 229 281 348 419
#
# _framework density 22.820433999999999
#
# number of rings (size 3 to 8) (size 9 to 14) (size 15 to 20)
#    0.000    1.714    2.857    2.571    8.000    0.000 
#    5.143    0.000    0.000    0.000    0.000    0.000 
#    0.000    0.000    0.000    0.000    0.000    0.000 
#
# Total GULP energy -693738.129405 kJ/mol
# GULP energy per Si atom -12388.180882 kJ/mol
# Density = 2.276849 g / cm^3
# Si number density = 22.820434 Si / 1000 Ang^3
#
#
#
# Elastic Constant Matrix: (Units=GPa)
#
#
# Indices 1 2 3 4 5 6 
#
# 1 118.0888 48.1931 31.2262 0.0000 0.0000 0.0000
# 2 48.1931 60.7251 45.8146 0.0000 0.0000 0.0000
# 3 31.2262 45.8146 108.3688 0.0000 0.0000 0.0000
# 4 0.0000 0.0000 0.0000 25.3291 0.0000 0.0000
# 5 0.0000 0.0000 0.0000 0.0000 39.9590 0.0000
# 6 0.0000 0.0000 0.0000 0.0000 0.0000 41.2894
#
#
#
# Elastic Compliance Matrix: (Units=1/GPa)
#
#
# Indices 1 2 3 4 5 6 
#
# 1 0.012581 -0.010645 0.000875 0.000000 0.000000 0.000000
# 2 -0.010645 0.033187 -0.010963 0.000000 0.000000 0.000000
# 3 0.000875 -0.010963 0.013610 0.000000 0.000000 0.000000
# 4 0.000000 0.000000 0.000000 0.039480 0.000000 0.000000
# 5 0.000000 0.000000 0.000000 0.000000 0.025026 0.000000
# 6 0.000000 0.000000 0.000000 0.000000 0.000000 0.024219
#
#
# Mechanical properties :
#
#
# Convention : Reuss Voigt Hill
#
# Bulk Modulus (GPa) = 55.82621 59.73896 57.78258
# Shear Modulus (GPa) = 25.57022 32.11210 28.84116
#
# Velocity S-wave (km/s) = 3.35101 3.75529 3.55890
# Velocity P-wave (km/s) = 6.28401 6.71101 6.50101
#
# Compressibility (1/GPa) = 0.01791273
#
# Stress axis : x y z
#
# Youngs Moduli (GPa) = 79.48430 30.13241 73.47352
#
# Poissons Ratio (x) = 0.32076 -0.06430
# Poissons Ratio (y) = 0.84610 0.80549
# Poissons Ratio (z) = -0.06956 0.33034
#
# Static dielectric constant tensor:
#      x y z
#    x 4.113430 0.000000 0.000000 
#    y 0.000000 3.747350 0.000000 
#    z 0.000000 0.000000 4.322430 
# 
# 
# High freq. dielectric constant tensor:
#      x y z
#    x 1.894930 0.000000 0.000000 
#    y 0.000000 1.867510 0.000000 
#    z 0.000000 0.000000 1.924800 
# 
# From -- ./inp_files/7515.got.cif
#   From: 2010.03.12/outbox.cif.g09.slc.cpg/sg61_4_cif.got.tgz:7515.got - 2010.04.10 19:05:03.
