data_PCOD8249142
_publ_section_title
;
Structure prediction by ZEFSAII (Michael W. Deem and Ramdas Pophale) SiO2 
 PCOD8249142
Probable space group: P B C A
;
_chemical_formula_sum "Si O2"
_cell_formula_units_Z 64
_cell_length_a 20.963125
_cell_length_b 17.181006
_cell_length_c 9.867713
_cell_angle_alpha 90.000000
_cell_angle_beta 90.000000
_cell_angle_gamma 90.000000
_cell_volume 3554.030276
_symmetry_space_group_name_H-M "P B C A"
_symmetry_group_IT_number 61
_symmetry_cell_setting 'orthorhombic'
loop_
_space_group_symop_operation_xyz
x,y,z
1/2-x,-y,1/2+z
1/2+x,1/2-y,-z
-x,1/2+y,1/2-z
-x,-y,-z
1/2+x,y,1/2-z
1/2-x,1/2+y,z
x,1/2-y,1/2+z
loop_
_atom_site_type_symbol
_atom_site_label
_atom_site_fract_x
_atom_site_fract_y
_atom_site_fract_z
Si Si1 0.737623 0.386328 0.007917
Si Si2 0.403665 0.825300 0.790622
Si Si3 0.165709 0.942115 0.290530
Si Si4 0.533197 0.487318 0.641671
Si Si5 0.948642 0.519764 0.609792
Si Si6 0.326577 0.054439 0.487620
Si Si7 0.269354 0.892609 0.789383
Si Si8 0.393945 0.817079 0.473160
O O1 0.796873 0.380744 0.112716
O O2 0.682640 0.324362 0.047192
O O3 0.707583 0.471748 0.002130
O O4 0.761563 0.368406 0.855020
O O5 0.447490 0.898212 0.830849
O O6 0.329796 0.839993 0.824575
O O7 0.412205 0.806573 0.631355
O O8 0.423155 0.753456 0.885908
O O9 0.160243 0.910011 0.136940
O O10 0.095269 0.957727 0.348132
O O11 0.207897 0.018830 0.285232
O O12 0.500000 0.500000 0.500000
O O13 0.478533 0.513836 0.743304
O O14 0.891957 0.457286 0.594367
O O15 0.925512 0.606620 0.586944
O O16 0.000000 0.500000 0.500000
O O17 0.283666 0.116795 0.406198
#
# Coordination Sequence:
#
# PCOD8249142 Si02
#       8
#     8   8   8   8   8   8   8   8
#     4   8  16  30  47  74 104 130 166 217 272 319
#     4  10  21  38  55  82 113 143 186 235 287 342
#     4   9  16  30  48  76 106 130 169 223 267 313
#     4  11  23  35  54  85 115 148 195 243 273 333
#     4  11  19  37  56  79 113 151 189 231 282 331
#     4   9  16  28  51  76 100 134 172 216 270 320
#     4   8  16  30  49  73 103 131 167 217 269 322
#     4  10  21  36  58  80 110 149 184 232 290 344
#
# _framework density 18.007726000000002
#
# number of rings (size 3 to 8) (size 9 to 14) (size 15 to 20)
#    0.000    2.500    2.500    1.500    3.500    1.000 
#    4.500    0.000    0.000    3.000    0.000    0.000 
#    0.000    0.000    0.000    0.000    0.000    0.000 
#
# Total GULP energy -793257.892392 kJ/mol
# GULP energy per Si atom -12394.654569 kJ/mol
# Density = 1.796674 g / cm^3
# Si number density = 18.007726 Si / 1000 Ang^3
#
#
#
# Elastic Constant Matrix: (Units=GPa)
#
#
# Indices 1 2 3 4 5 6 
#
# 1 97.8377 26.2571 74.7073 0.0000 0.0000 0.0000
# 2 26.2571 54.9283 47.3663 0.0000 0.0000 0.0000
# 3 74.7073 47.3663 164.4773 0.0000 0.0000 0.0000
# 4 0.0000 0.0000 0.0000 25.0701 0.0000 0.0000
# 5 0.0000 0.0000 0.0000 0.0000 41.7902 0.0000
# 6 0.0000 0.0000 0.0000 0.0000 0.0000 16.8349
#
#
#
# Elastic Compliance Matrix: (Units=1/GPa)
#
#
# Indices 1 2 3 4 5 6 
#
# 1 0.015783 -0.001813 -0.006647 0.000000 0.000000 0.000000
# 2 -0.001813 0.024429 -0.006211 0.000000 0.000000 0.000000
# 3 -0.006647 -0.006211 0.010888 0.000000 0.000000 0.000000
# 4 0.000000 0.000000 0.000000 0.039888 0.000000 0.000000
# 5 0.000000 0.000000 0.000000 0.000000 0.023929 0.000000
# 6 0.000000 0.000000 0.000000 0.000000 0.000000 0.059401
#
#
# Mechanical properties :
#
#
# Convention : Reuss Voigt Hill
#
# Bulk Modulus (GPa) = 45.96264 68.21163 57.08714
# Shear Modulus (GPa) = 23.70666 27.99987 25.85327
#
# Velocity S-wave (km/s) = 3.63226 3.94748 3.79314
# Velocity P-wave (km/s) = 6.57041 7.66408 7.13822
#
# Compressibility (1/GPa) = 0.02175680
#
# Stress axis : x y z
#
# Youngs Moduli (GPa) = 63.36006 40.93576 91.84758
#
# Poissons Ratio (x) = 0.07422 0.61047
# Poissons Ratio (y) = 0.11487 0.57051
# Poissons Ratio (z) = 0.42113 0.25427
#
# Static dielectric constant tensor:
#      x y z
#    x 3.311270 0.000000 0.000000 
#    y 0.000000 2.949630 0.000000 
#    z 0.000000 0.000000 3.576760 
# 
# 
# High freq. dielectric constant tensor:
#      x y z
#    x 1.691480 0.000000 0.000000 
#    y 0.000000 1.654190 0.000000 
#    z 0.000000 0.000000 1.712990 
# 
# From -- ./inp_files/4086.got.cif
#   From: 2010.03.12/outbox.cif.g09.slc.cpg/sg61_3_cif.got.tgz:4086.got - 2010.04.10 19:05:03.
