data_PCOD8249354
_publ_section_title
;
Structure prediction by ZEFSAII (Michael W. Deem and Ramdas Pophale) SiO2 
 PCOD8249354
Probable space group: P B C A
;
_chemical_formula_sum "Si O2"
_cell_formula_units_Z 64
_cell_length_a 9.728465
_cell_length_b 20.425559
_cell_length_c 17.213513
_cell_angle_alpha 90.000000
_cell_angle_beta 90.000000
_cell_angle_gamma 90.000000
_cell_volume 3420.485736
_symmetry_space_group_name_H-M "P B C A"
_symmetry_group_IT_number 61
_symmetry_cell_setting 'orthorhombic'
loop_
_space_group_symop_operation_xyz
x,y,z
1/2-x,-y,1/2+z
1/2+x,1/2-y,-z
-x,1/2+y,1/2-z
-x,-y,-z
1/2+x,y,1/2-z
1/2-x,1/2+y,z
x,1/2-y,1/2+z
loop_
_atom_site_type_symbol
_atom_site_label
_atom_site_fract_x
_atom_site_fract_y
_atom_site_fract_z
Si Si1 0.864076 0.059404 0.741953
Si Si2 0.114518 0.228866 0.079093
Si Si3 0.327199 0.721855 0.409109
Si Si4 0.603292 0.882452 0.570877
Si Si5 0.603562 0.751266 0.846390
Si Si6 0.401090 0.509434 0.828869
Si Si7 0.610573 0.799742 0.175965
Si Si8 0.914014 0.392976 0.399284
O O1 0.754833 0.014832 0.698392
O O2 0.899104 0.123197 0.691313
O O3 0.813020 0.082228 0.829108
O O4 0.000362 0.014789 0.752780
O O5 0.035187 0.160850 0.066124
O O6 0.024010 0.279939 0.127961
O O7 0.257037 0.214654 0.123933
O O8 0.149653 0.264057 0.999085
O O9 0.230524 0.659041 0.397344
O O10 0.470755 0.704427 0.366505
O O11 0.250866 0.784187 0.370253
O O12 0.640252 0.910439 0.485166
O O13 0.574279 0.941010 0.629356
O O14 0.613381 0.741645 0.754948
O O15 0.571076 0.684836 0.893602
O O16 0.439259 0.570208 0.886188
#
# Coordination Sequence:
#
# PCOD8249354 Si02
#       8
#     8   8   8   8   8   8   8   8
#     4   9  22  37  64  90 115 158 211 263 287 371
#     4  11  22  37  61  94 126 161 200 253 317 373
#     4  11  21  38  58  90 127 159 198 251 316 371
#     4  11  22  41  60  89 130 165 194 258 316 376
#     4  11  19  37  61  92 120 156 211 255 300 365
#     4  10  22  41  61  88 119 161 211 248 311 358
#     4  10  22  36  61  90 119 157 207 258 304 354
#     4   9  19  36  68  85 118 156 211 252 296 364
#
# _framework density 18.710792000000001
#
# number of rings (size 3 to 8) (size 9 to 14) (size 15 to 20)
#    0.750    1.000    2.500    2.625    3.500    0.000 
#    9.000    0.000    0.000    1.500    0.000    0.000 
#    0.000    0.000    0.000    0.000    0.000    0.000 
#
# Total GULP energy -793301.967473 kJ/mol
# GULP energy per Si atom -12395.343242 kJ/mol
# Density = 1.866821 g / cm^3
# Si number density = 18.710792 Si / 1000 Ang^3
#
#
#
# Elastic Constant Matrix: (Units=GPa)
#
#
# Indices 1 2 3 4 5 6 
#
# 1 112.1538 26.3756 38.2575 0.0000 0.0000 0.0000
# 2 26.3756 74.9352 32.3971 0.0000 0.0000 0.0000
# 3 38.2575 32.3971 99.1243 0.0000 0.0000 0.0000
# 4 0.0000 0.0000 0.0000 28.6072 0.0000 0.0000
# 5 0.0000 0.0000 0.0000 0.0000 36.2505 0.0000
# 6 0.0000 0.0000 0.0000 0.0000 0.0000 21.1192
#
#
#
# Elastic Compliance Matrix: (Units=1/GPa)
#
#
# Indices 1 2 3 4 5 6 
#
# 1 0.010593 -0.002284 -0.003342 0.000000 0.000000 0.000000
# 2 -0.002284 0.016033 -0.004359 0.000000 0.000000 0.000000
# 3 -0.003342 -0.004359 0.012803 0.000000 0.000000 0.000000
# 4 0.000000 0.000000 0.000000 0.034956 0.000000 0.000000
# 5 0.000000 0.000000 0.000000 0.000000 0.027586 0.000000
# 6 0.000000 0.000000 0.000000 0.000000 0.000000 0.047350
#
#
# Mechanical properties :
#
#
# Convention : Reuss Voigt Hill
#
# Bulk Modulus (GPa) = 51.38714 53.36374 52.37544
# Shear Modulus (GPa) = 28.44501 29.80759 29.12630
#
# Velocity S-wave (km/s) = 3.90326 3.99566 3.94973
# Velocity P-wave (km/s) = 6.91646 7.06182 6.98952
#
# Compressibility (1/GPa) = 0.01946012
#
# Stress axis : x y z
#
# Youngs Moduli (GPa) = 94.39771 62.37085 78.10743
#
# Poissons Ratio (x) = 0.14244 0.26105
# Poissons Ratio (y) = 0.21558 0.34045
# Poissons Ratio (z) = 0.31550 0.27186
#
# Static dielectric constant tensor:
#      x y z
#    x 3.487690 0.000000 0.000000 
#    y 0.000000 3.125440 0.000000 
#    z 0.000000 0.000000 3.534850 
# 
# 
# High freq. dielectric constant tensor:
#      x y z
#    x 1.722940 0.000000 0.000000 
#    y 0.000000 1.698810 0.000000 
#    z 0.000000 0.000000 1.736090 
# 
# From -- ./inp_files/9037.got.cif
#   From: 2010.03.12/outbox.cif.g09.slc.cpg/sg61_5_cif.got.tgz:9037.got - 2010.04.10 19:05:03.
