data_PCOD8249002
_publ_section_title
;
Structure prediction by ZEFSAII (Michael W. Deem and Ramdas Pophale) SiO2 
 PCOD8249002
Probable space group: P B C A
;
_chemical_formula_sum "Si O2"
_cell_formula_units_Z 64
_cell_length_a 22.968642
_cell_length_b 8.852880
_cell_length_c 14.052276
_cell_angle_alpha 90.000000
_cell_angle_beta 90.000000
_cell_angle_gamma 90.000000
_cell_volume 2857.370570
_symmetry_space_group_name_H-M "P B C A"
_symmetry_group_IT_number 61
_symmetry_cell_setting 'orthorhombic'
loop_
_space_group_symop_operation_xyz
x,y,z
1/2-x,-y,1/2+z
1/2+x,1/2-y,-z
-x,1/2+y,1/2-z
-x,-y,-z
1/2+x,y,1/2-z
1/2-x,1/2+y,z
x,1/2-y,1/2+z
loop_
_atom_site_type_symbol
_atom_site_label
_atom_site_fract_x
_atom_site_fract_y
_atom_site_fract_z
Si Si1 0.627607 0.858641 0.021431
Si Si2 0.871945 0.259459 0.817650
Si Si3 0.884737 0.685099 0.956751
Si Si4 0.526742 0.942357 0.342301
Si Si5 0.677274 0.377587 0.102677
Si Si6 0.586250 0.077320 0.760928
Si Si7 0.286443 0.203357 0.346574
Si Si8 0.007654 0.782922 0.959512
O O1 0.643370 0.760371 0.928746
O O2 0.639535 0.032829 0.000943
O O3 0.675359 0.823579 0.098645
O O4 0.563825 0.819918 0.065364
O O5 0.909601 0.104592 0.798744
O O6 0.912815 0.403430 0.794695
O O7 0.811272 0.282207 0.760891
O O8 0.884383 0.683713 0.841451
O O9 0.952173 0.683683 0.988098
O O10 0.845730 0.824474 0.997878
O O11 0.480556 0.882572 0.263891
O O12 0.524446 0.871706 0.446487
O O13 0.512769 0.117791 0.366982
O O14 0.619460 0.394404 0.163565
O O15 0.708687 0.539797 0.103290
O O16 0.719409 0.253119 0.149708
#
# Coordination Sequence:
#
# PCOD8249002 Si02
#       8
#     8   8   8   8   8   8   8   8
#     4  10  22  41  64  94 135 169 215 267 329 395
#     4   9  22  40  61  94 128 170 216 266 330 389
#     4  11  23  40  63  99 132 175 216 275 325 394
#     4  10  20  37  63  96 133 169 217 265 326 394
#     4  11  24  46  65  94 126 173 230 276 338 397
#     4  10  22  40  62  92 137 169 215 274 324 399
#     4  11  24  45  70  89 129 175 221 283 334 400
#     4  10  20  37  64  95 134 175 212 266 324 395
#
# _framework density 22.398215
#
# number of rings (size 3 to 8) (size 9 to 14) (size 15 to 20)
#    0.000    1.750    1.250    2.625    7.000    1.000 
#    4.500    2.500    0.000    0.000    0.000    0.000 
#    0.000    0.000    0.000    0.000    0.000    0.000 
#
# Total GULP energy -792967.749614 kJ/mol
# GULP energy per Si atom -12390.121088 kJ/mol
# Density = 2.234724 g / cm^3
# Si number density = 22.398215 Si / 1000 Ang^3
#
#
#
# Elastic Constant Matrix: (Units=GPa)
#
#
# Indices 1 2 3 4 5 6 
#
# 1 42.5703 1.1844 4.5828 0.0000 0.0000 0.0000
# 2 1.1844 61.6638 16.7186 0.0000 0.0000 0.0000
# 3 4.5828 16.7186 51.1681 0.0000 0.0000 0.0000
# 4 0.0000 0.0000 0.0000 24.2917 0.0000 0.0000
# 5 0.0000 0.0000 0.0000 0.0000 28.3713 0.0000
# 6 0.0000 0.0000 0.0000 0.0000 0.0000 33.1154
#
#
#
# Elastic Compliance Matrix: (Units=1/GPa)
#
#
# Indices 1 2 3 4 5 6 
#
# 1 0.023720 0.000132 -0.002168 0.000000 0.000000 0.000000
# 2 0.000132 0.017794 -0.005826 0.000000 0.000000 0.000000
# 3 -0.002168 -0.005826 0.021641 0.000000 0.000000 0.000000
# 4 0.000000 0.000000 0.000000 0.041166 0.000000 0.000000
# 5 0.000000 0.000000 0.000000 0.000000 0.035247 0.000000
# 6 0.000000 0.000000 0.000000 0.000000 0.000000 0.030197
#
#
# Mechanical properties :
#
#
# Convention : Reuss Voigt Hill
#
# Bulk Modulus (GPa) = 21.08256 22.26376 21.67316
# Shear Modulus (GPa) = 24.83861 26.01676 25.42769
#
# Velocity S-wave (km/s) = 3.33371 3.41186 3.37301
# Velocity P-wave (km/s) = 4.92455 5.04803 4.98667
#
# Compressibility (1/GPa) = 0.04743257
#
# Stress axis : x y z
#
# Youngs Moduli (GPa) = 42.15811 56.19887 46.20839
#
# Poissons Ratio (x) = -0.00742 0.10016
# Poissons Ratio (y) = -0.00557 0.26920
# Poissons Ratio (z) = 0.09138 0.32740
#
# Static dielectric constant tensor:
#      x y z
#    x 3.950530 0.000000 0.000000 
#    y 0.000000 4.155180 0.000000 
#    z 0.000000 0.000000 4.110420 
# 
# 
# High freq. dielectric constant tensor:
#      x y z
#    x 1.869820 0.000000 0.000000 
#    y 0.000000 1.875820 0.000000 
#    z 0.000000 0.000000 1.880560 
# 
# From -- ./inp_files/3185.got.cif
#   From: 2010.03.12/outbox.cif.g09.slc.cpg/sg61_2_cif.got.tgz:3185.got - 2010.04.10 19:05:03.
