data_PCOD8249573
_publ_section_title
;
Structure prediction by ZEFSAII (Michael W. Deem and Ramdas Pophale) SiO2 
 PCOD8249573
Probable space group: P B C A
;
_chemical_formula_sum "Si O2"
_cell_formula_units_Z 40
_cell_length_a 7.921160
_cell_length_b 20.349615
_cell_length_c 9.326049
_cell_angle_alpha 90.000000
_cell_angle_beta 90.000000
_cell_angle_gamma 90.000000
_cell_volume 1503.289679
_symmetry_space_group_name_H-M "P B C A"
_symmetry_group_IT_number 61
_symmetry_cell_setting 'orthorhombic'
loop_
_space_group_symop_operation_xyz
x,y,z
1/2-x,-y,1/2+z
1/2+x,1/2-y,-z
-x,1/2+y,1/2-z
-x,-y,-z
1/2+x,y,1/2-z
1/2-x,1/2+y,z
x,1/2-y,1/2+z
loop_
_atom_site_type_symbol
_atom_site_label
_atom_site_fract_x
_atom_site_fract_y
_atom_site_fract_z
Si Si1 0.747140 0.885451 0.090624
Si Si2 0.498167 0.297275 0.549221
Si Si3 0.619992 0.476347 0.624206
Si Si4 0.965778 0.434907 0.584738
Si Si5 0.304849 0.761253 0.216701
O O1 0.720023 0.955931 0.168170
O O2 0.775032 0.832079 0.212407
O O3 0.583926 0.868864 0.986663
O O4 0.915347 0.880457 0.989855
O O5 0.359815 0.252776 0.625854
O O6 0.541199 0.265051 0.396069
O O7 0.654534 0.294925 0.662528
O O8 0.500000 0.500000 0.500000
O O9 0.762757 0.422473 0.575798
O O10 0.514356 0.443833 0.749901
O O11 0.000000 0.500000 0.500000
#
# Coordination Sequence:
#
# PCOD8249573 Si02
#       5
#     8   8   8   8   8
#     4  11  26  46  78 109 150 211 243 326 400 445
#     4  12  25  48  74 110 153 196 264 315 382 478
#     4  11  25  49  73 111 150 196 260 321 373 475
#     4  10  23  44  72 106 147 188 256 307 376 461
#     4  12  25  49  74 113 156 199 260 321 384 474
#
# _framework density 26.608311
#
# number of rings (size 3 to 8) (size 9 to 14) (size 15 to 20)
#    0.000    0.800    4.000    2.400    5.600    3.200 
#    3.600    0.000    0.000    0.000    0.000    0.000 
#    0.000    0.000    0.000    0.000    0.000    0.000 
#
# Total GULP energy -495716.767827 kJ/mol
# GULP energy per Si atom -12392.919196 kJ/mol
# Density = 2.654775 g / cm^3
# Si number density = 26.608311 Si / 1000 Ang^3
#
#
#
# Elastic Constant Matrix: (Units=GPa)
#
#
# Indices 1 2 3 4 5 6 
#
# 1 95.1788 -21.5796 17.6289 0.0000 0.0000 0.0000
# 2 -21.5796 53.0465 -1.1041 0.0000 0.0000 0.0000
# 3 17.6289 -1.1041 111.4718 0.0000 0.0000 0.0000
# 4 0.0000 0.0000 0.0000 45.2577 0.0000 0.0000
# 5 0.0000 0.0000 0.0000 0.0000 56.4664 0.0000
# 6 0.0000 0.0000 0.0000 0.0000 0.0000 35.6035
#
#
#
# Elastic Compliance Matrix: (Units=1/GPa)
#
#
# Indices 1 2 3 4 5 6 
#
# 1 0.011940 0.004819 -0.001841 0.000000 0.000000 0.000000
# 2 0.004819 0.020800 -0.000556 0.000000 0.000000 0.000000
# 3 -0.001841 -0.000556 0.009256 0.000000 0.000000 0.000000
# 4 0.000000 0.000000 0.000000 0.022096 0.000000 0.000000
# 5 0.000000 0.000000 0.000000 0.000000 0.017710 0.000000
# 6 0.000000 0.000000 0.000000 0.000000 0.000000 0.028087
#
#
# Mechanical properties :
#
#
# Convention : Reuss Voigt Hill
#
# Bulk Modulus (GPa) = 21.34867 27.73195 24.54031
# Shear Modulus (GPa) = 41.43936 45.11565 43.27750
#
# Velocity S-wave (km/s) = 3.95065 4.12217 4.03732
# Velocity P-wave (km/s) = 5.37131 5.75337 5.56562
#
# Compressibility (1/GPa) = 0.04684132
#
# Stress axis : x y z
#
# Youngs Moduli (GPa) = 83.75185 48.07649 108.03276
#
# Poissons Ratio (x) = -0.23168 0.19884
# Poissons Ratio (y) = -0.40360 0.06008
# Poissons Ratio (z) = 0.15415 0.02673
#
# Static dielectric constant tensor:
#      x y z
#    x 5.225460 0.000000 0.000000 
#    y 0.000000 4.830060 0.000000 
#    z 0.000000 0.000000 5.270310 
# 
# 
# High freq. dielectric constant tensor:
#      x y z
#    x 2.090310 0.000000 0.000000 
#    y 0.000000 2.052970 0.000000 
#    z 0.000000 0.000000 2.078370 
# 
# From -- ./inp_files/1803.got.cif
#   From: 2010.03.12/outbox.cif.g09.slc.cpg/sg61_1_cif.got.tgz:1803.got - 2010.04.10 19:05:03.
