data_PCOD8249666
_publ_section_title
;
Structure prediction by ZEFSAII (Michael W. Deem and Ramdas Pophale) SiO2 
 PCOD8249666
Probable space group: P B C A
;
_chemical_formula_sum "Si O2"
_cell_formula_units_Z 40
_cell_length_a 10.129229
_cell_length_b 19.176503
_cell_length_c 9.161700
_cell_angle_alpha 90.000000
_cell_angle_beta 90.000000
_cell_angle_gamma 90.000000
_cell_volume 1779.597837
_symmetry_space_group_name_H-M "P B C A"
_symmetry_group_IT_number 61
_symmetry_cell_setting 'orthorhombic'
loop_
_space_group_symop_operation_xyz
x,y,z
1/2-x,-y,1/2+z
1/2+x,1/2-y,-z
-x,1/2+y,1/2-z
-x,-y,-z
1/2+x,y,1/2-z
1/2-x,1/2+y,z
x,1/2-y,1/2+z
loop_
_atom_site_type_symbol
_atom_site_label
_atom_site_fract_x
_atom_site_fract_y
_atom_site_fract_z
Si Si1 0.907128 0.133911 0.448840
Si Si2 0.167579 0.050996 0.938278
Si Si3 0.360619 0.288939 0.107645
Si Si4 0.072458 0.594832 0.382274
Si Si5 0.409452 0.846161 0.202972
O O1 0.812561 0.080254 0.532944
O O2 0.842167 0.210243 0.446061
O O3 0.936902 0.107404 0.288444
O O4 0.042897 0.136815 0.539579
O O5 0.106270 0.081549 0.789307
O O6 0.173884 0.967561 0.921402
O O7 0.075009 0.072880 0.072889
O O8 0.486613 0.296145 0.213984
O O9 0.230276 0.307553 0.198310
O O10 0.377244 0.336589 0.964685
#
# Coordination Sequence:
#
# PCOD8249666 Si02
#       5
#     8   8   8   8   8
#     4  12  26  42  76  99 137 188 240 282 360 417
#     4  10  25  48  66 104 145 182 237 290 349 423
#     4  11  26  45  71 107 143 181 236 296 351 415
#     4  10  26  45  71 103 144 183 233 292 351 423
#     4  11  25  46  71 100 144 186 229 297 347 421
#
# _framework density 22.476987000000001
#
# number of rings (size 3 to 8) (size 9 to 14) (size 15 to 20)
#    0.000    1.200    2.000    1.200   14.000    2.400 
#    0.000    0.000    0.000    0.000    0.000    0.000 
#    0.000    0.000    0.000    0.000    0.000    0.000 
#
# Total GULP energy -496294.523944 kJ/mol
# GULP energy per Si atom -12407.363099 kJ/mol
# Density = 2.242583 g / cm^3
# Si number density = 22.476987 Si / 1000 Ang^3
#
#
#
# Elastic Constant Matrix: (Units=GPa)
#
#
# Indices 1 2 3 4 5 6 
#
# 1 73.8065 -0.3753 30.3403 0.0000 0.0000 0.0000
# 2 -0.3753 99.7185 41.0784 0.0000 0.0000 0.0000
# 3 30.3403 41.0784 146.4731 0.0000 0.0000 0.0000
# 4 0.0000 0.0000 0.0000 26.1294 0.0000 0.0000
# 5 0.0000 0.0000 0.0000 0.0000 24.4652 0.0000
# 6 0.0000 0.0000 0.0000 0.0000 0.0000 21.9204
#
#
#
# Elastic Compliance Matrix: (Units=1/GPa)
#
#
# Indices 1 2 3 4 5 6 
#
# 1 0.015009 0.001512 -0.003533 0.000000 0.000000 0.000000
# 2 0.001512 0.011490 -0.003536 0.000000 0.000000 0.000000
# 3 -0.003533 -0.003536 0.008551 0.000000 0.000000 0.000000
# 4 0.000000 0.000000 0.000000 0.038271 0.000000 0.000000
# 5 0.000000 0.000000 0.000000 0.000000 0.040874 0.000000
# 6 0.000000 0.000000 0.000000 0.000000 0.000000 0.045620
#
#
# Mechanical properties :
#
#
# Convention : Reuss Voigt Hill
#
# Bulk Modulus (GPa) = 41.77728 51.34277 46.56002
# Shear Modulus (GPa) = 27.94741 31.09996 29.52369
#
# Velocity S-wave (km/s) = 3.52998 3.72376 3.62817
# Velocity P-wave (km/s) = 5.93645 6.43277 6.18958
#
# Compressibility (1/GPa) = 0.02393646
#
# Stress axis : x y z
#
# Youngs Moduli (GPa) = 66.62697 87.02908 116.95115
#
# Poissons Ratio (x) = -0.13158 0.41318
# Poissons Ratio (y) = -0.10073 0.41350
# Poissons Ratio (z) = 0.23539 0.30770
#
# Static dielectric constant tensor:
#      x y z
#    x 3.929950 0.000000 0.000000 
#    y 0.000000 4.106790 0.000000 
#    z 0.000000 0.000000 4.149290 
# 
# 
# High freq. dielectric constant tensor:
#      x y z
#    x 1.881310 0.000000 0.000000 
#    y 0.000000 1.889860 0.000000 
#    z 0.000000 0.000000 1.898990 
# 
# From -- ./inp_files/2152.got.cif
#   From: 2010.03.12/outbox.cif.g09.slc.cpg/sg61_2_cif.got.tgz:2152.got - 2010.04.10 19:05:03.
