data_PCOD8249033
_publ_section_title
;
Structure prediction by ZEFSAII (Michael W. Deem and Ramdas Pophale) SiO2 
 PCOD8249033
Probable space group: P B C A
;
_chemical_formula_sum "Si O2"
_cell_formula_units_Z 56
_cell_length_a 14.421118
_cell_length_b 5.375037
_cell_length_c 27.715594
_cell_angle_alpha 90.000000
_cell_angle_beta 90.000000
_cell_angle_gamma 90.000000
_cell_volume 2148.347740
_symmetry_space_group_name_H-M "P B C A"
_symmetry_group_IT_number 61
_symmetry_cell_setting 'orthorhombic'
loop_
_space_group_symop_operation_xyz
x,y,z
1/2-x,-y,1/2+z
1/2+x,1/2-y,-z
-x,1/2+y,1/2-z
-x,-y,-z
1/2+x,y,1/2-z
1/2-x,1/2+y,z
x,1/2-y,1/2+z
loop_
_atom_site_type_symbol
_atom_site_label
_atom_site_fract_x
_atom_site_fract_y
_atom_site_fract_z
Si Si1 0.541878 0.024094 0.142765
Si Si2 0.722960 0.343415 0.680588
Si Si3 0.052411 0.579847 0.593371
Si Si4 0.644298 0.652835 0.089196
Si Si5 0.300721 0.353094 0.018456
Si Si6 0.471186 0.779987 0.724356
Si Si7 0.809391 0.858210 0.837772
O O1 0.612322 0.196007 0.174354
O O2 0.600794 0.927427 0.096893
O O3 0.517761 0.774297 0.172575
O O4 0.449447 0.175474 0.128468
O O5 0.764117 0.106660 0.709257
O O6 0.781233 0.414900 0.631125
O O7 0.096552 0.644978 0.541578
O O8 0.113083 0.366345 0.619423
O O9 0.943045 0.533567 0.586250
O O10 0.697780 0.645942 0.039096
O O11 0.248150 0.600704 0.037052
O O12 0.521727 0.018531 0.746851
O O13 0.362651 0.844772 0.714163
O O14 0.751451 0.111643 0.843444
#
# Coordination Sequence:
#
# PCOD8249033 Si02
#       7
#     8   8   8   8   8   8   8
#     4  11  24  44  76 108 150 200 256 311 389 466
#     4  10  20  38  63  99 139 186 235 297 372 435
#     4  12  25  45  76 110 146 207 268 306 375 461
#     4  11  24  44  72 106 150 199 254 319 383 450
#     4  12  29  47  69 107 158 199 255 327 380 441
#     4  12  27  50  80 115 155 194 248 319 386 459
#     4  12  26  50  78 109 153 202 250 305 376 450
#
# _framework density 26.066541000000001
#
# number of rings (size 3 to 8) (size 9 to 14) (size 15 to 20)
#    0.000    0.571    2.857    5.571    4.000    0.571 
#    0.000    8.571    0.000    0.000    0.000    0.000 
#    0.000    0.000    0.000    0.000    0.000    0.000 
#
# Total GULP energy -693970.076391 kJ/mol
# GULP energy per Si atom -12392.322793 kJ/mol
# Density = 2.600721 g / cm^3
# Si number density = 26.066541 Si / 1000 Ang^3
#
#
#
# Elastic Constant Matrix: (Units=GPa)
#
#
# Indices 1 2 3 4 5 6 
#
# 1 113.3759 49.2718 8.5682 0.0000 0.0000 0.0000
# 2 49.2718 184.5059 29.4928 0.0000 0.0000 0.0000
# 3 8.5682 29.4928 24.8843 0.0000 0.0000 0.0000
# 4 0.0000 0.0000 0.0000 29.6597 0.0000 0.0000
# 5 0.0000 0.0000 0.0000 0.0000 47.2243 0.0000
# 6 0.0000 0.0000 0.0000 0.0000 0.0000 54.9472
#
#
#
# Elastic Compliance Matrix: (Units=1/GPa)
#
#
# Indices 1 2 3 4 5 6 
#
# 1 0.009981 -0.002611 -0.000343 0.000000 0.000000 0.000000
# 2 -0.002611 0.007369 -0.007835 0.000000 0.000000 0.000000
# 3 -0.000343 -0.007835 0.049590 0.000000 0.000000 0.000000
# 4 0.000000 0.000000 0.000000 0.033716 0.000000 0.000000
# 5 0.000000 0.000000 0.000000 0.000000 0.021176 0.000000
# 6 0.000000 0.000000 0.000000 0.000000 0.000000 0.018199
#
#
# Mechanical properties :
#
#
# Convention : Reuss Voigt Hill
#
# Bulk Modulus (GPa) = 22.04415 55.27019 38.65717
# Shear Modulus (GPa) = 28.29186 42.06179 35.17682
#
# Velocity S-wave (km/s) = 3.29807 4.02136 3.67754
# Velocity P-wave (km/s) = 4.79356 6.54304 5.73540
#
# Compressibility (1/GPa) = 0.04536350
#
# Stress axis : x y z
#
# Youngs Moduli (GPa) = 100.19424 135.69455 20.16520
#
# Poissons Ratio (x) = 0.35424 0.00691
# Poissons Ratio (y) = 0.26156 0.15800
# Poissons Ratio (z) = 0.03432 1.06323
#
# Static dielectric constant tensor:
#      x y z
#    x 4.899630 0.000000 0.000000 
#    y 0.000000 5.046720 0.000000 
#    z 0.000000 0.000000 4.480960 
# 
# 
# High freq. dielectric constant tensor:
#      x y z
#    x 2.057880 0.000000 0.000000 
#    y 0.000000 2.063690 0.000000 
#    z 0.000000 0.000000 2.019570 
# 
# From -- ./inp_files/11818.got.cif
#   From: 2010.03.12/outbox.cif.g09.slc.cpg/sg61_6_cif.got.tgz:11818.got - 2010.04.10 19:05:03.
