data_PCOD8249068
_publ_section_title
;
Structure prediction by ZEFSAII (Michael W. Deem and Ramdas Pophale) SiO2 
 PCOD8249068
Probable space group: P B C A
;
_chemical_formula_sum "Si O2"
_cell_formula_units_Z 64
_cell_length_a 14.386510
_cell_length_b 9.034003
_cell_length_c 21.956483
_cell_angle_alpha 90.000000
_cell_angle_beta 90.000000
_cell_angle_gamma 90.000000
_cell_volume 2853.635231
_symmetry_space_group_name_H-M "P B C A"
_symmetry_group_IT_number 61
_symmetry_cell_setting 'orthorhombic'
loop_
_space_group_symop_operation_xyz
x,y,z
1/2-x,-y,1/2+z
1/2+x,1/2-y,-z
-x,1/2+y,1/2-z
-x,-y,-z
1/2+x,y,1/2-z
1/2-x,1/2+y,z
x,1/2-y,1/2+z
loop_
_atom_site_type_symbol
_atom_site_label
_atom_site_fract_x
_atom_site_fract_y
_atom_site_fract_z
Si Si1 0.615608 0.376745 0.537395
Si Si2 0.513335 0.588928 0.818833
Si Si3 0.679411 0.267974 0.913863
Si Si4 0.573347 0.701695 0.517075
Si Si5 0.332360 0.774291 0.829632
Si Si6 0.851977 0.401902 0.210304
Si Si7 0.650526 0.606892 0.920102
Si Si8 0.504864 0.774080 0.642078
O O1 0.665131 0.319223 0.476887
O O2 0.627186 0.555245 0.540946
O O3 0.505761 0.342705 0.532117
O O4 0.661300 0.300500 0.597380
O O5 0.424047 0.689659 0.805237
O O6 0.602468 0.626469 0.776555
O O7 0.551085 0.612548 0.886999
O O8 0.478669 0.417872 0.815342
O O9 0.686762 0.440970 0.928156
O O10 0.773290 0.204300 0.883674
O O11 0.603913 0.233227 0.861253
O O12 0.643826 0.814976 0.485694
O O13 0.532486 0.800686 0.571776
O O14 0.238892 0.691029 0.808542
O O15 0.326883 0.927543 0.794351
O O16 0.936750 0.364876 0.165173
#
# Coordination Sequence:
#
# PCOD8249068 Si02
#       8
#     8   8   8   8   8   8   8   8
#     4  10  21  39  65 102 135 176 216 277 340 411
#     4  11  26  46  71  95 136 178 230 282 338 407
#     4  10  24  37  66 100 142 178 221 275 338 415
#     4  10  20  39  68  98 138 173 221 277 347 408
#     4  12  26  46  70 101 131 177 230 282 343 411
#     4  12  27  46  70 100 131 182 228 287 339 402
#     4  11  23  40  63 102 135 184 224 276 341 406
#     4  10  23  45  66 100 135 178 228 282 345 399
#
# _framework density 22.427533
#
# number of rings (size 3 to 8) (size 9 to 14) (size 15 to 20)
#    0.000    1.250    2.500    2.250    3.500    6.500 
#    0.000    0.000    0.000    0.000    0.000    0.000 
#    0.000    0.000    0.000    0.000    0.000    0.000 
#
# Total GULP energy -793296.014282 kJ/mol
# GULP energy per Si atom -12395.250223 kJ/mol
# Density = 2.237649 g / cm^3
# Si number density = 22.427533 Si / 1000 Ang^3
#
#
#
# Elastic Constant Matrix: (Units=GPa)
#
#
# Indices 1 2 3 4 5 6 
#
# 1 96.6738 59.3426 17.1529 0.0000 0.0000 0.0000
# 2 59.3426 118.0518 30.7729 0.0000 0.0000 0.0000
# 3 17.1529 30.7729 65.3318 0.0000 0.0000 0.0000
# 4 0.0000 0.0000 0.0000 31.0894 0.0000 0.0000
# 5 0.0000 0.0000 0.0000 0.0000 32.5895 0.0000
# 6 0.0000 0.0000 0.0000 0.0000 0.0000 38.5391
#
#
#
# Elastic Compliance Matrix: (Units=1/GPa)
#
#
# Indices 1 2 3 4 5 6 
#
# 1 0.014971 -0.007411 -0.000440 0.000000 0.000000 0.000000
# 2 -0.007411 0.013325 -0.004331 0.000000 0.000000 0.000000
# 3 -0.000440 -0.004331 0.017462 0.000000 0.000000 0.000000
# 4 0.000000 0.000000 0.000000 0.032165 0.000000 0.000000
# 5 0.000000 0.000000 0.000000 0.000000 0.030685 0.000000
# 6 0.000000 0.000000 0.000000 0.000000 0.000000 0.025948
#
#
# Mechanical properties :
#
#
# Convention : Reuss Voigt Hill
#
# Bulk Modulus (GPa) = 46.74009 54.95491 50.84750
# Shear Modulus (GPa) = 30.11115 31.96288 31.03701
#
# Velocity S-wave (km/s) = 3.66812 3.77923 3.72409
# Velocity P-wave (km/s) = 6.23104 6.60302 6.41973
#
# Compressibility (1/GPa) = 0.02139491
#
# Stress axis : x y z
#
# Youngs Moduli (GPa) = 66.79384 75.04560 57.26769
#
# Poissons Ratio (x) = 0.55618 0.02519
# Poissons Ratio (y) = 0.49502 0.24801
# Poissons Ratio (z) = 0.02938 0.32500
#
# Static dielectric constant tensor:
#      x y z
#    x 4.192380 0.000000 0.000000 
#    y 0.000000 4.061100 0.000000 
#    z 0.000000 0.000000 3.889510 
# 
# 
# High freq. dielectric constant tensor:
#      x y z
#    x 1.891140 0.000000 0.000000 
#    y 0.000000 1.888700 0.000000 
#    z 0.000000 0.000000 1.870660 
# 
# From -- ./inp_files/11081.got.cif
#   From: 2010.03.12/outbox.cif.g09.slc.cpg/sg61_6_cif.got.tgz:11081.got - 2010.04.10 19:05:03.
