data_PCOD8249352
_publ_section_title
;
Structure prediction by ZEFSAII (Michael W. Deem and Ramdas Pophale) SiO2 
 PCOD8249352
Probable space group: P B C A
;
_chemical_formula_sum "Si O2"
_cell_formula_units_Z 40
_cell_length_a 8.554247
_cell_length_b 14.784478
_cell_length_c 14.127618
_cell_angle_alpha 90.000000
_cell_angle_beta 90.000000
_cell_angle_gamma 90.000000
_cell_volume 1786.720930
_symmetry_space_group_name_H-M "P B C A"
_symmetry_group_IT_number 61
_symmetry_cell_setting 'orthorhombic'
loop_
_space_group_symop_operation_xyz
x,y,z
1/2-x,-y,1/2+z
1/2+x,1/2-y,-z
-x,1/2+y,1/2-z
-x,-y,-z
1/2+x,y,1/2-z
1/2-x,1/2+y,z
x,1/2-y,1/2+z
loop_
_atom_site_type_symbol
_atom_site_label
_atom_site_fract_x
_atom_site_fract_y
_atom_site_fract_z
Si Si1 0.277986 0.257408 0.193170
Si Si2 0.195582 0.824686 0.897016
Si Si3 0.012900 0.387307 0.243187
Si Si4 0.746434 0.028178 0.622154
Si Si5 0.351175 0.676930 0.017989
O O1 0.319321 0.203069 0.287947
O O2 0.409016 0.334938 0.177812
O O3 0.267289 0.187580 0.106749
O O4 0.114576 0.310219 0.193728
O O5 0.029940 0.821808 0.949259
O O6 0.268259 0.924359 0.904694
O O7 0.320846 0.757889 0.944332
O O8 0.909058 0.432574 0.161401
O O9 0.114134 0.462962 0.296557
O O10 0.693036 0.081664 0.528928
#
# Coordination Sequence:
#
# PCOD8249352 Si02
#       5
#     8   8   8   8   8
#     4  11  22  44  72 100 140 193 231 295 366 415
#     4  12  27  46  72 105 145 193 235 298 361 424
#     4  10  21  45  71  97 144 183 238 291 351 425
#     4  11  25  46  71 108 140 188 242 294 355 430
#     4  12  24  47  72 105 146 188 244 295 352 431
#
# _framework density 22.387378999999999
#
# number of rings (size 3 to 8) (size 9 to 14) (size 15 to 20)
#    0.000    0.800    6.000    1.800    2.800    0.000 
#    3.600    2.000    0.000    0.000    0.000    0.000 
#    0.000    0.000    0.000    0.000    0.000    0.000 
#
# Total GULP energy -496084.091351 kJ/mol
# GULP energy per Si atom -12402.102284 kJ/mol
# Density = 2.233642 g / cm^3
# Si number density = 22.387379 Si / 1000 Ang^3
#
#
#
# Elastic Constant Matrix: (Units=GPa)
#
#
# Indices 1 2 3 4 5 6 
#
# 1 64.7597 16.6018 2.7380 0.0000 0.0000 0.0000
# 2 16.6018 131.2920 28.3460 0.0000 0.0000 0.0000
# 3 2.7380 28.3460 97.1298 0.0000 0.0000 0.0000
# 4 0.0000 0.0000 0.0000 16.2390 0.0000 0.0000
# 5 0.0000 0.0000 0.0000 0.0000 30.0367 0.0000
# 6 0.0000 0.0000 0.0000 0.0000 0.0000 21.5798
#
#
#
# Elastic Compliance Matrix: (Units=1/GPa)
#
#
# Indices 1 2 3 4 5 6 
#
# 1 0.015961 -0.002050 0.000148 0.000000 0.000000 0.000000
# 2 -0.002050 0.008392 -0.002391 0.000000 0.000000 0.000000
# 3 0.000148 -0.002391 0.010989 0.000000 0.000000 0.000000
# 4 0.000000 0.000000 0.000000 0.061580 0.000000 0.000000
# 5 0.000000 0.000000 0.000000 0.000000 0.033293 0.000000
# 6 0.000000 0.000000 0.000000 0.000000 0.000000 0.046340
#
#
# Mechanical properties :
#
#
# Convention : Reuss Voigt Hill
#
# Bulk Modulus (GPa) = 37.37489 43.17260 40.27374
# Shear Modulus (GPa) = 25.76525 29.93748 27.85137
#
# Velocity S-wave (km/s) = 3.39615 3.66081 3.53096
# Velocity P-wave (km/s) = 5.66651 6.09876 5.88660
#
# Compressibility (1/GPa) = 0.02675593
#
# Stress axis : x y z
#
# Youngs Moduli (GPa) = 62.65258 119.15883 90.99848
#
# Poissons Ratio (x) = 0.24431 -0.01351
# Poissons Ratio (y) = 0.12846 0.21761
# Poissons Ratio (z) = -0.00930 0.28495
#
# Static dielectric constant tensor:
#      x y z
#    x 4.201270 0.000000 0.000000 
#    y 0.000000 4.005700 0.000000 
#    z 0.000000 0.000000 4.085210 
# 
# 
# High freq. dielectric constant tensor:
#      x y z
#    x 1.894090 0.000000 0.000000 
#    y 0.000000 1.876590 0.000000 
#    z 0.000000 0.000000 1.885390 
# 
# From -- ./inp_files/2700.got.cif
#   From: 2010.03.12/outbox.cif.g09.slc.cpg/sg61_2_cif.got.tgz:2700.got - 2010.04.10 19:05:03.
