data_PCOD8249426
_publ_section_title
;
Structure prediction by ZEFSAII (Michael W. Deem and Ramdas Pophale) SiO2 
 PCOD8249426
Probable space group: P B C A
;
_chemical_formula_sum "Si O2"
_cell_formula_units_Z 48
_cell_length_a 16.807539
_cell_length_b 15.245786
_cell_length_c 8.878407
_cell_angle_alpha 90.000000
_cell_angle_beta 90.000000
_cell_angle_gamma 90.000000
_cell_volume 2275.039791
_symmetry_space_group_name_H-M "P B C A"
_symmetry_group_IT_number 61
_symmetry_cell_setting 'orthorhombic'
loop_
_space_group_symop_operation_xyz
x,y,z
1/2-x,-y,1/2+z
1/2+x,1/2-y,-z
-x,1/2+y,1/2-z
-x,-y,-z
1/2+x,y,1/2-z
1/2-x,1/2+y,z
x,1/2-y,1/2+z
loop_
_atom_site_type_symbol
_atom_site_label
_atom_site_fract_x
_atom_site_fract_y
_atom_site_fract_z
Si Si1 0.909709 0.972748 0.173074
Si Si2 0.349078 0.817111 0.128541
Si Si3 0.168799 0.817018 0.101443
Si Si4 0.083650 0.165582 0.312482
Si Si5 0.904812 0.333287 0.717555
Si Si6 0.593518 0.512883 0.834850
O O1 0.862619 0.897309 0.258166
O O2 0.003313 0.953578 0.175799
O O3 0.889147 0.064660 0.255704
O O4 0.883152 0.975462 0.999149
O O5 0.261125 0.822238 0.057421
O O6 0.356331 0.728033 0.222792
O O7 0.411435 0.818755 0.991241
O O8 0.154866 0.727082 0.189820
O O9 0.147368 0.902233 0.204043
O O10 0.110633 0.817892 0.958565
O O11 0.995783 0.189674 0.255004
O O12 0.108441 0.064697 0.283942
#
# Coordination Sequence:
#
# PCOD8249426 Si02
#       6
#     8   8   8   8   8   8
#     4   9  20  40  62  87 117 154 199 245 293 356
#     4  12  24  37  59  91 124 155 198 251 307 357
#     4  11  23  38  59  89 123 157 194 249 308 357
#     4  11  23  40  63  88 118 161 206 248 292 359
#     4  10  22  41  63  85 117 160 204 243 290 355
#     4   9  20  39  62  85 117 157 197 243 296 352
#
# _framework density 21.09853
#
# number of rings (size 3 to 8) (size 9 to 14) (size 15 to 20)
#    0.000    1.667    0.000    5.000    0.000    8.000 
#    0.000    0.000    0.000    0.000    0.000    0.000 
#    0.000    0.000    0.000    0.000    0.000    0.000 
#
# Total GULP energy -595348.866660 kJ/mol
# GULP energy per Si atom -12403.101389 kJ/mol
# Density = 2.105051 g / cm^3
# Si number density = 21.098530 Si / 1000 Ang^3
#
#
#
# Elastic Constant Matrix: (Units=GPa)
#
#
# Indices 1 2 3 4 5 6 
#
# 1 86.3979 39.8216 26.8670 0.0000 0.0000 0.0000
# 2 39.8216 76.0227 16.5843 0.0000 0.0000 0.0000
# 3 26.8670 16.5843 70.2735 0.0000 0.0000 0.0000
# 4 0.0000 0.0000 0.0000 32.2315 0.0000 0.0000
# 5 0.0000 0.0000 0.0000 0.0000 24.8529 0.0000
# 6 0.0000 0.0000 0.0000 0.0000 0.0000 27.2942
#
#
#
# Elastic Compliance Matrix: (Units=1/GPa)
#
#
# Indices 1 2 3 4 5 6 
#
# 1 0.016507 -0.007664 -0.004502 0.000000 0.000000 0.000000
# 2 -0.007664 0.017427 -0.001182 0.000000 0.000000 0.000000
# 3 -0.004502 -0.001182 0.016230 0.000000 0.000000 0.000000
# 4 0.000000 0.000000 0.000000 0.031026 0.000000 0.000000
# 5 0.000000 0.000000 0.000000 0.000000 0.040237 0.000000
# 6 0.000000 0.000000 0.000000 0.000000 0.000000 0.036638
#
#
# Mechanical properties :
#
#
# Convention : Reuss Voigt Hill
#
# Bulk Modulus (GPa) = 42.61464 44.35999 43.48732
# Shear Modulus (GPa) = 25.96269 26.83714 26.39991
#
# Velocity S-wave (km/s) = 3.51172 3.57037 3.54116
# Velocity P-wave (km/s) = 6.05679 6.16989 6.11360
#
# Compressibility (1/GPa) = 0.02346611
#
# Stress axis : x y z
#
# Youngs Moduli (GPa) = 60.58036 57.38353 61.61271
#
# Poissons Ratio (x) = 0.43981 0.27739
# Poissons Ratio (y) = 0.46431 0.07285
# Poissons Ratio (z) = 0.27274 0.06785
#
# Static dielectric constant tensor:
#      x y z
#    x 3.638090 0.000000 0.000000 
#    y 0.000000 4.035620 0.000000 
#    z 0.000000 0.000000 3.622670 
# 
# 
# High freq. dielectric constant tensor:
#      x y z
#    x 1.816250 0.000000 0.000000 
#    y 0.000000 1.842960 0.000000 
#    z 0.000000 0.000000 1.815640 
# 
# From -- ./inp_files/3437.got.cif
#   From: 2010.03.12/outbox.cif.g09.slc.cpg/sg61_2_cif.got.tgz:3437.got - 2010.04.10 19:05:03.
