data_PCOD8249923
_publ_section_title
;
Structure prediction by ZEFSAII (Michael W. Deem and Ramdas Pophale) SiO2 
 PCOD8249923
Probable space group: P B C A
;
_chemical_formula_sum "Si O2"
_cell_formula_units_Z 48
_cell_length_a 9.225727
_cell_length_b 17.079656
_cell_length_c 13.644399
_cell_angle_alpha 90.000000
_cell_angle_beta 90.000000
_cell_angle_gamma 90.000000
_cell_volume 2149.978562
_symmetry_space_group_name_H-M "P B C A"
_symmetry_group_IT_number 61
_symmetry_cell_setting 'orthorhombic'
loop_
_space_group_symop_operation_xyz
x,y,z
1/2-x,-y,1/2+z
1/2+x,1/2-y,-z
-x,1/2+y,1/2-z
-x,-y,-z
1/2+x,y,1/2-z
1/2-x,1/2+y,z
x,1/2-y,1/2+z
loop_
_atom_site_type_symbol
_atom_site_label
_atom_site_fract_x
_atom_site_fract_y
_atom_site_fract_z
Si Si1 0.913117 0.309262 0.424967
Si Si2 0.255001 0.796998 0.444213
Si Si3 0.713844 0.782028 0.746925
Si Si4 0.097407 0.935661 0.551281
Si Si5 0.020068 0.109833 0.242223
Si Si6 0.601372 0.513442 0.906156
O O1 0.800023 0.284525 0.509349
O O2 0.884464 0.249519 0.336101
O O3 0.877458 0.395312 0.386228
O O4 0.075906 0.308934 0.469745
O O5 0.249711 0.788912 0.326323
O O6 0.147401 0.866373 0.477811
O O7 0.619519 0.849124 0.693887
O O8 0.853572 0.828619 0.784898
O O9 0.241729 0.976737 0.586476
O O10 0.003499 0.901452 0.641188
O O11 0.000000 0.000000 0.500000
O O12 0.032106 0.025839 0.190187
O O13 0.500000 0.500000 0.000000
#
# Coordination Sequence:
#
# PCOD8249923 Si02
#       6
#     8   8   8   8   8   8
#     4  12  28  46  75 113 144 199 251 314 375 462
#     4  12  26  49  73 107 152 190 256 307 381 452
#     4  12  26  46  77 107 147 198 247 309 379 448
#     4  12  29  48  75 111 149 202 252 310 382 456
#     4  12  26  51  73 110 153 197 248 311 385 455
#     4  12  27  47  77 106 153 197 251 311 380 452
#
# _framework density 22.325803000000001
#
# number of rings (size 3 to 8) (size 9 to 14) (size 15 to 20)
#    0.000    0.000    6.667    1.000   11.667    1.333 
#    0.000    0.000    0.000    0.000    0.000    0.000 
#    0.000    0.000    0.000    0.000    0.000    0.000 
#
# Total GULP energy -595079.948149 kJ/mol
# GULP energy per Si atom -12397.498920 kJ/mol
# Density = 2.227499 g / cm^3
# Si number density = 22.325803 Si / 1000 Ang^3
#
#
#
# Elastic Constant Matrix: (Units=GPa)
#
#
# Indices 1 2 3 4 5 6 
#
# 1 68.0456 5.7809 31.4774 0.0000 0.0000 0.0000
# 2 5.7809 101.3664 52.1115 0.0000 0.0000 0.0000
# 3 31.4774 52.1115 83.8181 0.0000 0.0000 0.0000
# 4 0.0000 0.0000 0.0000 46.8810 0.0000 0.0000
# 5 0.0000 0.0000 0.0000 0.0000 35.3390 0.0000
# 6 0.0000 0.0000 0.0000 0.0000 0.0000 44.6214
#
#
#
# Elastic Compliance Matrix: (Units=1/GPa)
#
#
# Indices 1 2 3 4 5 6 
#
# 1 0.018703 0.003739 -0.009349 0.000000 0.000000 0.000000
# 2 0.003739 0.015247 -0.010884 0.000000 0.000000 0.000000
# 3 -0.009349 -0.010884 0.022208 0.000000 0.000000 0.000000
# 4 0.000000 0.000000 0.000000 0.021331 0.000000 0.000000
# 5 0.000000 0.000000 0.000000 0.000000 0.028297 0.000000
# 6 0.000000 0.000000 0.000000 0.000000 0.000000 0.022411
#
#
# Mechanical properties :
#
#
# Convention : Reuss Voigt Hill
#
# Bulk Modulus (GPa) = 43.15520 47.99662 45.57591
# Shear Modulus (GPa) = 29.60207 36.29231 32.94719
#
# Velocity S-wave (km/s) = 3.64526 4.03622 3.84571
# Velocity P-wave (km/s) = 6.09007 6.57772 6.33858
#
# Compressibility (1/GPa) = 0.02317218
#
# Stress axis : x y z
#
# Youngs Moduli (GPa) = 53.46753 65.58579 45.02861
#
# Poissons Ratio (x) = -0.24525 0.42096
# Poissons Ratio (y) = -0.19994 0.49008
# Poissons Ratio (z) = 0.49985 0.71382
#
# Static dielectric constant tensor:
#      x y z
#    x 4.015410 0.000000 0.000000 
#    y 0.000000 3.166960 0.000000 
#    z 0.000000 0.000000 3.923400 
# 
# 
# High freq. dielectric constant tensor:
#      x y z
#    x 1.895020 0.000000 0.000000 
#    y 0.000000 1.891930 0.000000 
#    z 0.000000 0.000000 1.875650 
# 
# From -- ./inp_files/7055.got.cif
#   From: 2010.03.12/outbox.cif.g09.slc.cpg/sg61_4_cif.got.tgz:7055.got - 2010.04.10 19:05:03.
