data_PCOD8249226
_publ_section_title
;
Structure prediction by ZEFSAII (Michael W. Deem and Ramdas Pophale) SiO2 
 PCOD8249226
Probable space group: P B C A
;
_chemical_formula_sum "Si O2"
_cell_formula_units_Z 64
_cell_length_a 9.187059
_cell_length_b 15.900390
_cell_length_c 20.781094
_cell_angle_alpha 90.000000
_cell_angle_beta 90.000000
_cell_angle_gamma 90.000000
_cell_volume 3035.656931
_symmetry_space_group_name_H-M "P B C A"
_symmetry_group_IT_number 61
_symmetry_cell_setting 'orthorhombic'
loop_
_space_group_symop_operation_xyz
x,y,z
1/2-x,-y,1/2+z
1/2+x,1/2-y,-z
-x,1/2+y,1/2-z
-x,-y,-z
1/2+x,y,1/2-z
1/2-x,1/2+y,z
x,1/2-y,1/2+z
loop_
_atom_site_type_symbol
_atom_site_label
_atom_site_fract_x
_atom_site_fract_y
_atom_site_fract_z
Si Si1 0.436973 0.859758 0.641352
Si Si2 0.232513 0.998902 0.689312
Si Si3 0.728717 0.923747 0.675606
Si Si4 0.514708 0.859291 0.994070
Si Si5 0.141188 0.826555 0.185304
Si Si6 0.532629 0.507219 0.601681
Si Si7 0.873738 0.732781 0.233591
Si Si8 0.232518 0.242667 0.554069
O O1 0.591159 0.904747 0.629709
O O2 0.460873 0.805341 0.705952
O O3 0.393560 0.804670 0.580000
O O4 0.307190 0.925670 0.648841
O O5 0.348025 0.074077 0.698189
O O6 0.175291 0.960692 0.756233
O O7 0.094308 0.033400 0.650703
O O8 0.827665 0.840981 0.684919
O O9 0.819372 0.996158 0.640823
O O10 0.354241 0.819434 0.005975
O O11 0.560263 0.915303 0.054782
O O12 0.506166 0.919297 0.932433
O O13 0.640359 0.790015 0.984637
O O14 0.233169 0.780044 0.239974
O O15 0.194646 0.806326 0.113442
O O16 0.974798 0.797269 0.193965
#
# Coordination Sequence:
#
# PCOD8249226 Si02
#       8
#     8   8   8   8   8   8   8   8
#     4  10  22  40  61  95 131 170 218 268 332 394
#     4  11  22  41  65  96 141 172 211 269 342 403
#     4  11  23  39  67  97 135 176 213 267 339 407
#     4  11  25  47  71  93 131 182 229 282 333 401
#     4  11  23  39  64 100 134 172 218 273 331 404
#     4  11  24  46  69  98 132 180 224 273 342 409
#     4  10  21  39  62  95 136 173 213 265 333 399
#     4  11  24  45  68  92 129 176 231 285 330 392
#
# _framework density 21.082749
#
# number of rings (size 3 to 8) (size 9 to 14) (size 15 to 20)
#    0.000    1.250    3.750    2.250    7.000    0.000 
#    2.250    0.625    0.000    0.000    0.000    0.000 
#    0.000    0.000    0.000    0.000    0.000    0.000 
#
# Total GULP energy -793882.160115 kJ/mol
# GULP energy per Si atom -12404.408752 kJ/mol
# Density = 2.103476 g / cm^3
# Si number density = 21.082749 Si / 1000 Ang^3
#
#
#
# Elastic Constant Matrix: (Units=GPa)
#
#
# Indices 1 2 3 4 5 6 
#
# 1 73.7982 -1.9627 25.1686 0.0000 0.0000 0.0000
# 2 -1.9627 67.3969 11.3249 0.0000 0.0000 0.0000
# 3 25.1686 11.3249 48.2804 0.0000 0.0000 0.0000
# 4 0.0000 0.0000 0.0000 26.4021 0.0000 0.0000
# 5 0.0000 0.0000 0.0000 0.0000 26.2142 0.0000
# 6 0.0000 0.0000 0.0000 0.0000 0.0000 31.5020
#
#
#
# Elastic Compliance Matrix: (Units=1/GPa)
#
#
# Indices 1 2 3 4 5 6 
#
# 1 0.016744 0.002035 -0.009206 0.000000 0.000000 0.000000
# 2 0.002035 0.015694 -0.004742 0.000000 0.000000 0.000000
# 3 -0.009206 -0.004742 0.026624 0.000000 0.000000 0.000000
# 4 0.000000 0.000000 0.000000 0.037876 0.000000 0.000000
# 5 0.000000 0.000000 0.000000 0.000000 0.038147 0.000000
# 6 0.000000 0.000000 0.000000 0.000000 0.000000 0.031744
#
#
# Mechanical properties :
#
#
# Convention : Reuss Voigt Hill
#
# Bulk Modulus (GPa) = 28.38092 28.72636 28.55364
# Shear Modulus (GPa) = 24.70355 27.15330 25.92843
#
# Velocity S-wave (km/s) = 3.42679 3.59268 3.51071
# Velocity P-wave (km/s) = 5.39889 5.55562 5.47782
#
# Compressibility (1/GPa) = 0.03523494
#
# Stress axis : x y z
#
# Youngs Moduli (GPa) = 59.72198 63.72065 37.56053
#
# Poissons Ratio (x) = -0.12964 0.34578
# Poissons Ratio (y) = -0.12151 0.17810
# Poissons Ratio (z) = 0.54980 0.30215
#
# Static dielectric constant tensor:
#      x y z
#    x 3.646380 0.000000 0.000000 
#    y 0.000000 3.861470 0.000000 
#    z 0.000000 0.000000 3.636700 
# 
# 
# High freq. dielectric constant tensor:
#      x y z
#    x 1.827800 0.000000 0.000000 
#    y 0.000000 1.831410 0.000000 
#    z 0.000000 0.000000 1.813880 
# 
# From -- ./inp_files/10167.got.cif
#   From: 2010.03.12/outbox.cif.g09.slc.cpg/sg61_6_cif.got.tgz:10167.got - 2010.04.10 19:05:03.
