data_PCOD8249808
_publ_section_title
;
Structure prediction by ZEFSAII (Michael W. Deem and Ramdas Pophale) SiO2 
 PCOD8249808
Probable space group: P B C A
;
_chemical_formula_sum "Si O2"
_cell_formula_units_Z 56
_cell_length_a 8.886786
_cell_length_b 13.380948
_cell_length_c 19.471990
_cell_angle_alpha 90.000000
_cell_angle_beta 90.000000
_cell_angle_gamma 90.000000
_cell_volume 2315.484846
_symmetry_space_group_name_H-M "P B C A"
_symmetry_group_IT_number 61
_symmetry_cell_setting 'orthorhombic'
loop_
_space_group_symop_operation_xyz
x,y,z
1/2-x,-y,1/2+z
1/2+x,1/2-y,-z
-x,1/2+y,1/2-z
-x,-y,-z
1/2+x,y,1/2-z
1/2-x,1/2+y,z
x,1/2-y,1/2+z
loop_
_atom_site_type_symbol
_atom_site_label
_atom_site_fract_x
_atom_site_fract_y
_atom_site_fract_z
Si Si1 0.760455 0.964063 0.378465
Si Si2 0.736836 0.310451 0.564168
Si Si3 0.024795 0.182045 0.554342
Si Si4 0.572605 0.077083 0.655850
Si Si5 0.352749 0.726480 0.290854
Si Si6 0.265884 0.036114 0.971462
Si Si7 0.114651 0.905173 0.743191
O O1 0.878669 0.871064 0.385050
O O2 0.605652 0.918256 0.352125
O O3 0.715972 0.021273 0.449546
O O4 0.828533 0.043862 0.326185
O O5 0.650026 0.270048 0.496509
O O6 0.637580 0.276533 0.627101
O O7 0.729712 0.428896 0.563150
O O8 0.909463 0.270829 0.573844
O O9 0.926761 0.091085 0.523119
O O10 0.605886 0.157077 0.717913
O O11 0.656085 0.097013 0.581571
O O12 0.629268 0.973482 0.689123
O O13 0.445702 0.632486 0.262709
O O14 0.193047 0.701984 0.257526
#
# Coordination Sequence:
#
# PCOD8249808 Si02
#       7
#     8   8   8   8   8   8   8
#     4  11  26  48  77 105 151 204 247 310 388 454
#     4  11  24  45  75 112 151 191 243 313 379 453
#     4  11  25  44  75 112 151 194 248 310 380 460
#     4  12  27  48  76 108 153 200 254 319 375 463
#     4  12  27  48  76 107 147 197 258 313 378 452
#     4  11  23  49  74 110 150 196 250 314 379 451
#     4  12  27  52  75 108 154 202 256 315 385 458
#
# _framework density 24.184999999999999
#
# number of rings (size 3 to 8) (size 9 to 14) (size 15 to 20)
#    0.000    0.571    4.286    3.857    6.000    2.286 
#    2.571    0.000    0.000    0.000    0.000    0.000 
#    0.000    0.000    0.000    0.000    0.000    0.000 
#
# Total GULP energy -693753.362414 kJ/mol
# GULP energy per Si atom -12388.452900 kJ/mol
# Density = 2.412995 g / cm^3
# Si number density = 24.185000 Si / 1000 Ang^3
#
#
#
# Elastic Constant Matrix: (Units=GPa)
#
#
# Indices 1 2 3 4 5 6 
#
# 1 97.3292 17.7800 -2.7917 0.0000 0.0000 0.0000
# 2 17.7800 73.1392 6.7942 0.0000 0.0000 0.0000
# 3 -2.7917 6.7942 52.8477 0.0000 0.0000 0.0000
# 4 0.0000 0.0000 0.0000 26.4096 0.0000 0.0000
# 5 0.0000 0.0000 0.0000 0.0000 16.4509 0.0000
# 6 0.0000 0.0000 0.0000 0.0000 0.0000 51.6414
#
#
#
# Elastic Compliance Matrix: (Units=1/GPa)
#
#
# Indices 1 2 3 4 5 6 
#
# 1 0.010796 -0.002710 0.000919 0.000000 0.000000 0.000000
# 2 -0.002710 0.014518 -0.002010 0.000000 0.000000 0.000000
# 3 0.000919 -0.002010 0.019229 0.000000 0.000000 0.000000
# 4 0.000000 0.000000 0.000000 0.037865 0.000000 0.000000
# 5 0.000000 0.000000 0.000000 0.000000 0.060787 0.000000
# 6 0.000000 0.000000 0.000000 0.000000 0.000000 0.019364
#
#
# Mechanical properties :
#
#
# Convention : Reuss Voigt Hill
#
# Bulk Modulus (GPa) = 27.06980 29.65344 28.36162
# Shear Modulus (GPa) = 27.40107 32.33595 29.86851
#
# Velocity S-wave (km/s) = 3.36963 3.66050 3.51807
# Velocity P-wave (km/s) = 5.13384 5.49121 5.31553
#
# Compressibility (1/GPa) = 0.03694153
#
# Stress axis : x y z
#
# Youngs Moduli (GPa) = 92.62879 68.88010 52.00433
#
# Poissons Ratio (x) = 0.18665 -0.04777
# Poissons Ratio (y) = 0.25100 0.10451
# Poissons Ratio (z) = -0.08510 0.13842
#
# Static dielectric constant tensor:
#      x y z
#    x 4.441170 0.000000 0.000000 
#    y 0.000000 4.453990 0.000000 
#    z 0.000000 0.000000 4.393670 
# 
# 
# High freq. dielectric constant tensor:
#      x y z
#    x 1.962150 0.000000 0.000000 
#    y 0.000000 1.975910 0.000000 
#    z 0.000000 0.000000 1.956640 
# 
# From -- ./inp_files/10120.got.cif
#   From: 2010.03.12/outbox.cif.g09.slc.cpg/sg61_6_cif.got.tgz:10120.got - 2010.04.10 19:05:03.
