data_PCOD8249180
_publ_section_title
;
Structure prediction by ZEFSAII (Michael W. Deem and Ramdas Pophale) SiO2 
 PCOD8249180
Probable space group: P B C A
;
_chemical_formula_sum "Si O2"
_cell_formula_units_Z 64
_cell_length_a 8.929489
_cell_length_b 10.800721
_cell_length_c 31.746467
_cell_angle_alpha 90.000000
_cell_angle_beta 90.000000
_cell_angle_gamma 90.000000
_cell_volume 3061.785450
_symmetry_space_group_name_H-M "P B C A"
_symmetry_group_IT_number 61
_symmetry_cell_setting 'orthorhombic'
loop_
_space_group_symop_operation_xyz
x,y,z
1/2-x,-y,1/2+z
1/2+x,1/2-y,-z
-x,1/2+y,1/2-z
-x,-y,-z
1/2+x,y,1/2-z
1/2-x,1/2+y,z
x,1/2-y,1/2+z
loop_
_atom_site_type_symbol
_atom_site_label
_atom_site_fract_x
_atom_site_fract_y
_atom_site_fract_z
Si Si1 0.038221 0.964386 0.393699
Si Si2 0.307514 0.064861 0.436263
Si Si3 0.016378 0.549405 0.803271
Si Si4 0.775498 0.662682 0.747673
Si Si5 0.540741 0.770353 0.805804
Si Si6 0.388124 0.216421 0.101021
Si Si7 0.626980 0.203106 0.533332
Si Si8 0.062503 0.269021 0.562989
O O1 0.197491 0.035281 0.397405
O O2 0.909352 0.067943 0.398367
O O3 0.033726 0.889568 0.349373
O O4 0.022327 0.860859 0.429443
O O5 0.246857 0.185618 0.461869
O O6 0.468982 0.111887 0.419231
O O7 0.312405 0.938322 0.463593
O O8 0.157031 0.573312 0.773853
O O9 0.859810 0.588706 0.783798
O O10 0.014536 0.406618 0.812793
O O11 0.678895 0.767312 0.772403
O O12 0.893698 0.703927 0.712648
O O13 0.586488 0.721576 0.852448
O O14 0.497142 0.282893 0.068036
O O15 0.219533 0.239065 0.086558
O O16 0.564795 0.214993 0.486786
#
# Coordination Sequence:
#
# PCOD8249180 Si02
#       8
#     8   8   8   8   8   8   8   8
#     4  10  24  41  62  91 130 166 218 268 326 392
#     4  11  24  44  65  94 126 175 219 269 323 391
#     4  10  21  39  61  92 123 163 208 259 321 386
#     4  10  21  37  66  88 124 163 207 257 323 389
#     4  10  21  41  60  94 128 161 210 261 322 387
#     4  10  25  40  63  96 132 167 214 277 326 388
#     4  11  25  43  68  96 134 174 227 267 330 382
#     4  12  24  42  67  93 129 173 224 271 325 381
#
# _framework density 20.902836000000001
#
# number of rings (size 3 to 8) (size 9 to 14) (size 15 to 20)
#    0.000    1.500    1.250    2.625    5.250    2.000 
#    0.000    1.250    0.000    0.000    0.000    0.000 
#    0.000    0.000    0.000    0.000    0.000    0.000 
#
# Total GULP energy -793157.835695 kJ/mol
# GULP energy per Si atom -12393.091183 kJ/mol
# Density = 2.085526 g / cm^3
# Si number density = 20.902836 Si / 1000 Ang^3
#
#
#
# Elastic Constant Matrix: (Units=GPa)
#
#
# Indices 1 2 3 4 5 6 
#
# 1 127.3866 39.4417 61.0675 0.0000 0.0000 0.0000
# 2 39.4417 103.5093 32.0456 0.0000 0.0000 0.0000
# 3 61.0675 32.0456 120.4064 0.0000 0.0000 0.0000
# 4 0.0000 0.0000 0.0000 26.7844 0.0000 0.0000
# 5 0.0000 0.0000 0.0000 0.0000 31.0600 0.0000
# 6 0.0000 0.0000 0.0000 0.0000 0.0000 30.4649
#
#
#
# Elastic Compliance Matrix: (Units=1/GPa)
#
#
# Indices 1 2 3 4 5 6 
#
# 1 0.011019 -0.002690 -0.004873 0.000000 0.000000 0.000000
# 2 -0.002690 0.011185 -0.001612 0.000000 0.000000 0.000000
# 3 -0.004873 -0.001612 0.011206 0.000000 0.000000 0.000000
# 4 0.000000 0.000000 0.000000 0.037335 0.000000 0.000000
# 5 0.000000 0.000000 0.000000 0.000000 0.032196 0.000000
# 6 0.000000 0.000000 0.000000 0.000000 0.000000 0.032825
#
#
# Mechanical properties :
#
#
# Convention : Reuss Voigt Hill
#
# Bulk Modulus (GPa) = 66.40423 68.49021 67.44722
# Shear Modulus (GPa) = 31.41973 32.24502 31.83238
#
# Velocity S-wave (km/s) = 3.88123 3.93187 3.90663
# Velocity P-wave (km/s) = 7.20571 7.31095 7.25852
#
# Compressibility (1/GPa) = 0.01505928
#
# Stress axis : x y z
#
# Youngs Moduli (GPa) = 90.75301 89.40329 89.24086
#
# Poissons Ratio (x) = 0.24051 0.43483
# Poissons Ratio (y) = 0.24414 0.14390
# Poissons Ratio (z) = 0.44220 0.14416
#
# Static dielectric constant tensor:
#      x y z
#    x 3.955840 0.000000 0.000000 
#    y 0.000000 3.747990 0.000000 
#    z 0.000000 0.000000 4.074790 
# 
# 
# High freq. dielectric constant tensor:
#      x y z
#    x 1.832150 0.000000 0.000000 
#    y 0.000000 1.813670 0.000000 
#    z 0.000000 0.000000 1.821870 
# 
# From -- ./inp_files/11717.got.cif
#   From: 2010.03.12/outbox.cif.g09.slc.cpg/sg61_6_cif.got.tgz:11717.got - 2010.04.10 19:05:03.
