data_PCOD8249468
_publ_section_title
;
Structure prediction by ZEFSAII (Michael W. Deem and Ramdas Pophale) SiO2 
 PCOD8249468
Probable space group: P B C A
;
_chemical_formula_sum "Si O2"
_cell_formula_units_Z 56
_cell_length_a 12.611187
_cell_length_b 31.057376
_cell_length_c 5.516131
_cell_angle_alpha 90.000000
_cell_angle_beta 90.000000
_cell_angle_gamma 90.000000
_cell_volume 2160.505105
_symmetry_space_group_name_H-M "P B C A"
_symmetry_group_IT_number 61
_symmetry_cell_setting 'orthorhombic'
loop_
_space_group_symop_operation_xyz
x,y,z
1/2-x,-y,1/2+z
1/2+x,1/2-y,-z
-x,1/2+y,1/2-z
-x,-y,-z
1/2+x,y,1/2-z
1/2-x,1/2+y,z
x,1/2-y,1/2+z
loop_
_atom_site_type_symbol
_atom_site_label
_atom_site_fract_x
_atom_site_fract_y
_atom_site_fract_z
Si Si1 0.631440 0.908939 0.056946
Si Si2 0.689961 0.991060 0.305972
Si Si3 0.717093 0.271215 0.635848
Si Si4 0.733204 0.129647 0.172185
Si Si5 0.442794 0.929352 0.755647
Si Si6 0.959751 0.137297 0.937027
Si Si7 0.968466 0.231206 0.090405
O O1 0.657246 0.941349 0.278495
O O2 0.556423 0.869221 0.148590
O O3 0.736935 0.888465 0.941693
O O4 0.558289 0.935860 0.872758
O O5 0.752466 0.995071 0.556513
O O6 0.590834 0.023377 0.329798
O O7 0.669456 0.251876 0.381216
O O8 0.689768 0.321571 0.667647
O O9 0.842726 0.262333 0.616259
O O10 0.644550 0.095723 0.075141
O O11 0.840460 0.128032 0.023649
O O12 0.455382 0.897304 0.527446
O O13 0.000911 0.183576 0.011652
O O14 0.014924 0.239865 0.363625
#
# Coordination Sequence:
#
# PCOD8249468 Si02
#       7
#     8   8   8   8   8   8   8
#     4  11  25  43  72 101 138 184 231 290 348 423
#     4  12  27  49  76 105 141 184 231 284 358 418
#     4   9  19  35  61  96 128 177 229 282 338 405
#     4  10  22  43  66  96 139 181 231 286 348 419
#     4  11  25  45  68 104 137 184 230 292 347 421
#     4  10  24  40  68 102 137 182 237 280 353 411
#     4   9  19  35  63  94 136 179 225 281 338 407
#
# _framework density 25.919864
#
# number of rings (size 3 to 8) (size 9 to 14) (size 15 to 20)
#    0.000    1.714    1.429    1.286   16.000    1.714 
#    0.000    1.429    0.000    0.000    0.000    0.000 
#    0.000    0.000    0.000    0.000    0.000    0.000 
#
# Total GULP energy -693885.317142 kJ/mol
# GULP energy per Si atom -12390.809235 kJ/mol
# Density = 2.586087 g / cm^3
# Si number density = 25.919864 Si / 1000 Ang^3
#
#
#
# Elastic Constant Matrix: (Units=GPa)
#
#
# Indices 1 2 3 4 5 6 
#
# 1 48.1364 6.1140 18.4727 0.0000 0.0000 0.0000
# 2 6.1140 137.4703 29.5268 0.0000 0.0000 0.0000
# 3 18.4727 29.5268 108.3183 0.0000 0.0000 0.0000
# 4 0.0000 0.0000 0.0000 42.8193 0.0000 0.0000
# 5 0.0000 0.0000 0.0000 0.0000 32.8511 0.0000
# 6 0.0000 0.0000 0.0000 0.0000 0.0000 33.5064
#
#
#
# Elastic Compliance Matrix: (Units=1/GPa)
#
#
# Indices 1 2 3 4 5 6 
#
# 1 0.022234 -0.000185 -0.003741 0.000000 0.000000 0.000000
# 2 -0.000185 0.007728 -0.002075 0.000000 0.000000 0.000000
# 3 -0.003741 -0.002075 0.010436 0.000000 0.000000 0.000000
# 4 0.000000 0.000000 0.000000 0.023354 0.000000 0.000000
# 5 0.000000 0.000000 0.000000 0.000000 0.030440 0.000000
# 6 0.000000 0.000000 0.000000 0.000000 0.000000 0.029845
#
#
# Mechanical properties :
#
#
# Convention : Reuss Voigt Hill
#
# Bulk Modulus (GPa) = 35.21821 44.68355 39.95088
# Shear Modulus (GPa) = 34.36312 37.82279 36.09295
#
# Velocity S-wave (km/s) = 3.64503 3.82412 3.73565
# Velocity P-wave (km/s) = 5.59748 6.06424 5.83553
#
# Compressibility (1/GPa) = 0.02839440
#
# Stress axis : x y z
#
# Youngs Moduli (GPa) = 44.97702 129.39561 95.82467
#
# Poissons Ratio (x) = 0.02397 0.35850
# Poissons Ratio (y) = 0.00833 0.19884
# Poissons Ratio (z) = 0.16827 0.26850
#
# Static dielectric constant tensor:
#      x y z
#    x 4.732150 0.000000 0.000000 
#    y 0.000000 4.741270 0.000000 
#    z 0.000000 0.000000 4.877780 
# 
# 
# High freq. dielectric constant tensor:
#      x y z
#    x 2.058380 0.000000 0.000000 
#    y 0.000000 2.038820 0.000000 
#    z 0.000000 0.000000 2.035710 
# 
# From -- ./inp_files/605.got.cif
#   From: 2010.03.12/outbox.cif.g09.slc.cpg/sg61_1_cif.got.tgz:605.got - 2010.04.10 19:05:03.
