data_PCOD8249028
_publ_section_title
;
Structure prediction by ZEFSAII (Michael W. Deem and Ramdas Pophale) SiO2 
 PCOD8249028
Probable space group: P B C A
;
_chemical_formula_sum "Si O2"
_cell_formula_units_Z 56
_cell_length_a 14.795363
_cell_length_b 20.119555
_cell_length_c 8.725996
_cell_angle_alpha 90.000000
_cell_angle_beta 90.000000
_cell_angle_gamma 90.000000
_cell_volume 2597.520629
_symmetry_space_group_name_H-M "P B C A"
_symmetry_group_IT_number 61
_symmetry_cell_setting 'orthorhombic'
loop_
_space_group_symop_operation_xyz
x,y,z
1/2-x,-y,1/2+z
1/2+x,1/2-y,-z
-x,1/2+y,1/2-z
-x,-y,-z
1/2+x,y,1/2-z
1/2-x,1/2+y,z
x,1/2-y,1/2+z
loop_
_atom_site_type_symbol
_atom_site_label
_atom_site_fract_x
_atom_site_fract_y
_atom_site_fract_z
Si Si1 0.937958 0.166704 0.569661
Si Si2 0.406851 0.661153 0.125600
Si Si3 0.436052 0.979881 0.768451
Si Si4 0.415704 0.564259 0.602232
Si Si5 0.494895 0.732731 0.847272
Si Si6 0.229844 0.908610 0.560153
Si Si7 0.254461 0.976443 0.260034
O O1 0.856872 0.118323 0.529892
O O2 0.036499 0.132848 0.559783
O O3 0.936416 0.224882 0.447434
O O4 0.932998 0.193944 0.741895
O O5 0.451048 0.591340 0.184705
O O6 0.427404 0.720783 0.245414
O O7 0.299052 0.649782 0.108733
O O8 0.441150 0.681169 0.955769
O O9 0.527298 0.023460 0.766729
O O10 0.350220 0.020943 0.700830
O O11 0.405970 0.975906 0.945737
O O12 0.314918 0.577760 0.666922
O O13 0.272364 0.960749 0.438118
O O14 0.203535 0.950645 0.712510
#
# Coordination Sequence:
#
# PCOD8249028 Si02
#       7
#     8   8   8   8   8   8   8
#     4  11  22  43  65  93 124 175 215 261 323 384
#     4  10  22  41  64  91 126 165 212 270 308 379
#     4  10  20  38  62  96 127 165 210 255 326 387
#     4  11  19  37  68  88 132 171 194 267 334 375
#     4  10  23  42  66  89 124 168 225 259 313 381
#     4  11  23  40  62  91 135 161 215 264 321 394
#     4  11  21  38  60  98 127 164 209 261 321 397
#
# _framework density 21.559021000000001
#
# number of rings (size 3 to 8) (size 9 to 14) (size 15 to 20)
#    0.000    1.429    4.286    1.714    0.000    1.143 
#    2.571    2.143    0.000    0.000    0.000    0.000 
#    0.000    0.000    0.000    0.000    0.000    0.000 
#
# Total GULP energy -693749.937239 kJ/mol
# GULP energy per Si atom -12388.391736 kJ/mol
# Density = 2.150995 g / cm^3
# Si number density = 21.559021 Si / 1000 Ang^3
#
#
#
# Elastic Constant Matrix: (Units=GPa)
#
#
# Indices 1 2 3 4 5 6 
#
# 1 81.6770 39.3662 53.7673 0.0000 0.0000 0.0000
# 2 39.3662 67.2502 33.8180 0.0000 0.0000 0.0000
# 3 53.7673 33.8180 96.4408 0.0000 0.0000 0.0000
# 4 0.0000 0.0000 0.0000 45.3394 0.0000 0.0000
# 5 0.0000 0.0000 0.0000 0.0000 25.6277 0.0000
# 6 0.0000 0.0000 0.0000 0.0000 0.0000 33.6718
#
#
#
# Elastic Compliance Matrix: (Units=1/GPa)
#
#
# Indices 1 2 3 4 5 6 
#
# 1 0.022673 -0.008396 -0.009696 0.000000 0.000000 0.000000
# 2 -0.008396 0.021162 -0.002740 0.000000 0.000000 0.000000
# 3 -0.009696 -0.002740 0.016736 0.000000 0.000000 0.000000
# 4 0.000000 0.000000 0.000000 0.022056 0.000000 0.000000
# 5 0.000000 0.000000 0.000000 0.000000 0.039020 0.000000
# 6 0.000000 0.000000 0.000000 0.000000 0.000000 0.029698
#
#
# Mechanical properties :
#
#
# Convention : Reuss Voigt Hill
#
# Bulk Modulus (GPa) = 52.89194 55.47455 54.18325
# Shear Modulus (GPa) = 25.08618 28.82223 26.95421
#
# Velocity S-wave (km/s) = 3.41487 3.66033 3.53973
# Velocity P-wave (km/s) = 6.33524 6.60692 6.47250
#
# Compressibility (1/GPa) = 0.01890647
#
# Stress axis : x y z
#
# Youngs Moduli (GPa) = 44.10503 47.25343 59.75239
#
# Poissons Ratio (x) = 0.39675 0.57939
# Poissons Ratio (y) = 0.37031 0.16371
# Poissons Ratio (z) = 0.42766 0.12947
#
# Static dielectric constant tensor:
#      x y z
#    x 3.822420 0.000000 0.000000 
#    y 0.000000 3.927460 0.000000 
#    z 0.000000 0.000000 4.133280 
# 
# 
# High freq. dielectric constant tensor:
#      x y z
#    x 1.832910 0.000000 0.000000 
#    y 0.000000 1.837670 0.000000 
#    z 0.000000 0.000000 1.852510 
# 
# From -- ./inp_files/3067.got.cif
#   From: 2010.03.12/outbox.cif.g09.slc.cpg/sg61_2_cif.got.tgz:3067.got - 2010.04.10 19:05:03.
