data_PCOD8249580
_publ_section_title
;
Structure prediction by ZEFSAII (Michael W. Deem and Ramdas Pophale) SiO2 
 PCOD8249580
Probable space group: P B C A
;
_chemical_formula_sum "Si O2"
_cell_formula_units_Z 64
_cell_length_a 17.358446
_cell_length_b 12.077070
_cell_length_c 13.808897
_cell_angle_alpha 90.000000
_cell_angle_beta 90.000000
_cell_angle_gamma 90.000000
_cell_volume 2894.885670
_symmetry_space_group_name_H-M "P B C A"
_symmetry_group_IT_number 61
_symmetry_cell_setting 'orthorhombic'
loop_
_space_group_symop_operation_xyz
x,y,z
1/2-x,-y,1/2+z
1/2+x,1/2-y,-z
-x,1/2+y,1/2-z
-x,-y,-z
1/2+x,y,1/2-z
1/2-x,1/2+y,z
x,1/2-y,1/2+z
loop_
_atom_site_type_symbol
_atom_site_label
_atom_site_fract_x
_atom_site_fract_y
_atom_site_fract_z
Si Si1 0.510507 0.343958 0.290735
Si Si2 0.552359 0.732238 0.908729
Si Si3 0.500096 0.358073 0.900133
Si Si4 0.342569 0.119707 0.814705
Si Si5 0.827585 0.133054 0.174474
Si Si6 0.235503 0.006102 0.477066
Si Si7 0.622845 0.969341 0.858768
Si Si8 0.634700 0.974299 0.384993
O O1 0.493448 0.325798 0.178453
O O2 0.542308 0.225446 0.326060
O O3 0.431520 0.373482 0.348214
O O4 0.566929 0.443730 0.309306
O O5 0.575601 0.859957 0.892636
O O6 0.628121 0.654001 0.920850
O O7 0.498713 0.713688 0.001317
O O8 0.413325 0.388864 0.867881
O O9 0.551633 0.468275 0.901116
O O10 0.315912 0.242793 0.786059
O O11 0.336228 0.030972 0.726643
O O12 0.290021 0.090805 0.905869
O O13 0.763159 0.106531 0.092576
O O14 0.817467 0.060274 0.272311
O O15 0.304522 0.963688 0.545989
O O16 0.164656 0.030453 0.550700
#
# Coordination Sequence:
#
# PCOD8249580 Si02
#       8
#     8   8   8   8   8   8   8   8
#     4  10  24  43  72 105 134 176 235 299 351 409
#     4  11  22  41  77 100 136 186 227 300 357 418
#     4  11  22  43  73 107 134 179 236 299 345 420
#     4  10  23  45  67  98 136 186 225 284 362 416
#     4  11  22  45  71  95 141 185 231 284 358 420
#     4  12  27  39  68 102 137 192 225 284 348 438
#     4  12  24  46  73 103 144 181 241 292 363 419
#     4  11  23  44  70 101 139 180 241 279 355 414
#
# _framework density 22.107955
#
# number of rings (size 3 to 8) (size 9 to 14) (size 15 to 20)
#    0.000    1.000    5.000    4.125    1.750    3.000 
#    0.000    1.250    0.000    0.000    0.000    0.000 
#    0.000    0.000    0.000    0.000    0.000    0.000 
#
# Total GULP energy -792887.646207 kJ/mol
# GULP energy per Si atom -12388.869472 kJ/mol
# Density = 2.205764 g / cm^3
# Si number density = 22.107955 Si / 1000 Ang^3
#
#
#
# Elastic Constant Matrix: (Units=GPa)
#
#
# Indices 1 2 3 4 5 6 
#
# 1 61.5523 39.6441 54.4087 0.0000 0.0000 0.0000
# 2 39.6441 67.6058 44.0526 0.0000 0.0000 0.0000
# 3 54.4087 44.0526 125.9269 0.0000 0.0000 0.0000
# 4 0.0000 0.0000 0.0000 38.2404 0.0000 0.0000
# 5 0.0000 0.0000 0.0000 0.0000 38.0942 0.0000
# 6 0.0000 0.0000 0.0000 0.0000 0.0000 21.0520
#
#
#
# Elastic Compliance Matrix: (Units=1/GPa)
#
#
# Indices 1 2 3 4 5 6 
#
# 1 0.033439 -0.013204 -0.009828 0.000000 0.000000 0.000000
# 2 -0.013204 0.024373 -0.002821 0.000000 0.000000 0.000000
# 3 -0.009828 -0.002821 0.013175 0.000000 0.000000 0.000000
# 4 0.000000 0.000000 0.000000 0.026150 0.000000 0.000000
# 5 0.000000 0.000000 0.000000 0.000000 0.026251 0.000000
# 6 0.000000 0.000000 0.000000 0.000000 0.000000 0.047501
#
#
# Mechanical properties :
#
#
# Convention : Reuss Voigt Hill
#
# Bulk Modulus (GPa) = 51.87156 59.03287 55.45221
# Shear Modulus (GPa) = 21.83193 27.27596 24.55394
#
# Velocity S-wave (km/s) = 3.14588 3.51631 3.33624
# Velocity P-wave (km/s) = 6.05881 6.57616 6.32278
#
# Compressibility (1/GPa) = 0.01927839
#
# Stress axis : x y z
#
# Youngs Moduli (GPa) = 29.90562 41.02918 75.90344
#
# Poissons Ratio (x) = 0.54175 0.74602
# Poissons Ratio (y) = 0.39488 0.21415
# Poissons Ratio (z) = 0.29393 0.11575
#
# Static dielectric constant tensor:
#      x y z
#    x 3.797220 0.000000 0.000000 
#    y 0.000000 4.126190 0.000000 
#    z 0.000000 0.000000 4.472310 
# 
# 
# High freq. dielectric constant tensor:
#      x y z
#    x 1.839220 0.000000 0.000000 
#    y 0.000000 1.860510 0.000000 
#    z 0.000000 0.000000 1.897030 
# 
# From -- ./inp_files/8200.got.cif
#   From: 2010.03.12/outbox.cif.g09.slc.cpg/sg61_5_cif.got.tgz:8200.got - 2010.04.10 19:05:03.
