data_PCOD8249738
_publ_section_title
;
Structure prediction by ZEFSAII (Michael W. Deem and Ramdas Pophale) SiO2 
 PCOD8249738
Probable space group: P B C A
;
_chemical_formula_sum "Si O2"
_cell_formula_units_Z 48
_cell_length_a 13.947677
_cell_length_b 8.977608
_cell_length_c 16.434120
_cell_angle_alpha 90.000000
_cell_angle_beta 90.000000
_cell_angle_gamma 90.000000
_cell_volume 2057.827533
_symmetry_space_group_name_H-M "P B C A"
_symmetry_group_IT_number 61
_symmetry_cell_setting 'orthorhombic'
loop_
_space_group_symop_operation_xyz
x,y,z
1/2-x,-y,1/2+z
1/2+x,1/2-y,-z
-x,1/2+y,1/2-z
-x,-y,-z
1/2+x,y,1/2-z
1/2-x,1/2+y,z
x,1/2-y,1/2+z
loop_
_atom_site_type_symbol
_atom_site_label
_atom_site_fract_x
_atom_site_fract_y
_atom_site_fract_z
Si Si1 0.832774 0.445552 0.190977
Si Si2 0.218742 0.667934 0.211630
Si Si3 0.976632 0.638782 0.634407
Si Si4 0.218795 0.395296 0.457414
Si Si5 0.819912 0.164988 0.941389
Si Si6 0.516596 0.923034 0.772138
O O1 0.808139 0.275947 0.213216
O O2 0.806105 0.559804 0.265050
O O3 0.773471 0.490844 0.111464
O O4 0.946720 0.464447 0.177981
O O5 0.242204 0.773153 0.134546
O O6 0.125064 0.565047 0.194092
O O7 0.883401 0.657098 0.578150
O O8 0.975776 0.756166 0.710051
O O9 0.066887 0.673252 0.576486
O O10 0.983299 0.474979 0.676617
O O11 0.206071 0.494339 0.538702
O O12 0.289298 0.259663 0.479674
#
# Coordination Sequence:
#
# PCOD8249738 Si02
#       6
#     8   8   8   8   8   8
#     4  12  23  43  73 101 135 182 239 289 343 418
#     4  11  24  43  67 101 133 183 234 289 340 421
#     4  11  24  46  71 100 142 186 237 297 354 426
#     4  12  25  46  69 104 143 187 228 294 365 420
#     4  11  25  45  66 103 144 184 230 287 365 423
#     4  11  22  43  68 105 130 179 244 294 346 403
#
# _framework density 23.325568000000001
#
# number of rings (size 3 to 8) (size 9 to 14) (size 15 to 20)
#    0.000    0.667    5.000    4.500    0.000    0.000 
#    0.000    9.167    0.000    0.000    0.000    0.000 
#    0.000    0.000    0.000    0.000    0.000    0.000 
#
# Total GULP energy -594944.968283 kJ/mol
# GULP energy per Si atom -12394.686839 kJ/mol
# Density = 2.327248 g / cm^3
# Si number density = 23.325568 Si / 1000 Ang^3
#
#
#
# Elastic Constant Matrix: (Units=GPa)
#
#
# Indices 1 2 3 4 5 6 
#
# 1 111.8553 40.7376 42.2142 0.0000 0.0000 0.0000
# 2 40.7376 90.6225 30.9012 0.0000 0.0000 0.0000
# 3 42.2142 30.9012 89.0868 0.0000 0.0000 0.0000
# 4 0.0000 0.0000 0.0000 49.4354 0.0000 0.0000
# 5 0.0000 0.0000 0.0000 0.0000 36.7806 0.0000
# 6 0.0000 0.0000 0.0000 0.0000 0.0000 32.2112
#
#
#
# Elastic Compliance Matrix: (Units=1/GPa)
#
#
# Indices 1 2 3 4 5 6 
#
# 1 0.012000 -0.003919 -0.004327 0.000000 0.000000 0.000000
# 2 -0.003919 0.013795 -0.002928 0.000000 0.000000 0.000000
# 3 -0.004327 -0.002928 0.014291 0.000000 0.000000 0.000000
# 4 0.000000 0.000000 0.000000 0.020228 0.000000 0.000000
# 5 0.000000 0.000000 0.000000 0.000000 0.027188 0.000000
# 6 0.000000 0.000000 0.000000 0.000000 0.000000 0.031045
#
#
# Mechanical properties :
#
#
# Convention : Reuss Voigt Hill
#
# Bulk Modulus (GPa) = 56.37540 57.69674 57.03607
# Shear Modulus (GPa) = 34.05782 35.53287 34.79535
#
# Velocity S-wave (km/s) = 3.82528 3.90724 3.86648
# Velocity P-wave (km/s) = 6.61300 6.71896 6.66619
#
# Compressibility (1/GPa) = 0.01773823
#
# Stress axis : x y z
#
# Youngs Moduli (GPa) = 83.32987 72.49044 69.97403
#
# Poissons Ratio (x) = 0.28410 0.30278
# Poissons Ratio (y) = 0.32658 0.20488
# Poissons Ratio (z) = 0.36058 0.21225
#
# Static dielectric constant tensor:
#      x y z
#    x 4.221060 0.000000 0.000000 
#    y 0.000000 4.281950 0.000000 
#    z 0.000000 0.000000 4.037290 
# 
# 
# High freq. dielectric constant tensor:
#      x y z
#    x 1.927120 0.000000 0.000000 
#    y 0.000000 1.924530 0.000000 
#    z 0.000000 0.000000 1.905120 
# 
# From -- ./inp_files/3465.got.cif
#   From: 2010.03.12/outbox.cif.g09.slc.cpg/sg61_2_cif.got.tgz:3465.got - 2010.04.10 19:05:03.
