data_PCOD8249372
_publ_section_title
;
Structure prediction by ZEFSAII (Michael W. Deem and Ramdas Pophale) SiO2 
 PCOD8249372
Probable space group: P B C A
;
_chemical_formula_sum "Si O2"
_cell_formula_units_Z 40
_cell_length_a 19.478729
_cell_length_b 10.189216
_cell_length_c 8.843508
_cell_angle_alpha 90.000000
_cell_angle_beta 90.000000
_cell_angle_gamma 90.000000
_cell_volume 1755.197362
_symmetry_space_group_name_H-M "P B C A"
_symmetry_group_IT_number 61
_symmetry_cell_setting 'orthorhombic'
loop_
_space_group_symop_operation_xyz
x,y,z
1/2-x,-y,1/2+z
1/2+x,1/2-y,-z
-x,1/2+y,1/2-z
-x,-y,-z
1/2+x,y,1/2-z
1/2-x,1/2+y,z
x,1/2-y,1/2+z
loop_
_atom_site_type_symbol
_atom_site_label
_atom_site_fract_x
_atom_site_fract_y
_atom_site_fract_z
Si Si1 0.973755 0.244584 0.820254
Si Si2 0.931335 0.432356 0.557550
Si Si3 0.452778 0.887606 0.058597
Si Si4 0.294668 0.590368 0.929152
Si Si5 0.704535 0.129405 0.914553
O O1 0.940767 0.363712 0.723078
O O2 0.014535 0.142141 0.719618
O O3 0.914490 0.177029 0.925876
O O4 0.036238 0.275981 0.934448
O O5 0.872349 0.539646 0.565665
O O6 0.000000 0.500000 0.500000
O O7 0.373292 0.920843 0.071133
O O8 0.500000 0.000000 0.000000
O O9 0.271711 0.625401 0.759287
O O10 0.247576 0.472448 0.987353
O O11 0.286466 0.721038 0.029600
#
# Coordination Sequence:
#
# PCOD8249372 Si02
#       5
#     8   8   8   8   8
#     4  10  22  38  65 101 134 170 226 286 340 404
#     4  11  23  42  68 100 137 181 231 289 351 417
#     4  11  22  40  67  97 132 173 221 274 334 403
#     4  12  28  48  72 100 140 185 235 290 353 423
#     4  12  27  48  70 102 139 185 235 289 351 421
#
# _framework density 22.789460999999999
#
# number of rings (size 3 to 8) (size 9 to 14) (size 15 to 20)
#    0.000    0.800    0.000    8.400    0.000   11.200 
#    0.000    0.000    0.000    0.000    0.000    0.000 
#    0.000    0.000    0.000    0.000    0.000    0.000 
#
# Total GULP energy -495794.278450 kJ/mol
# GULP energy per Si atom -12394.856961 kJ/mol
# Density = 2.273759 g / cm^3
# Si number density = 22.789461 Si / 1000 Ang^3
#
#
#
# Elastic Constant Matrix: (Units=GPa)
#
#
# Indices 1 2 3 4 5 6 
#
# 1 80.7212 41.7039 30.4899 0.0000 0.0000 0.0000
# 2 41.7039 114.4745 46.6138 0.0000 0.0000 0.0000
# 3 30.4899 46.6138 180.6019 0.0000 0.0000 0.0000
# 4 0.0000 0.0000 0.0000 20.5049 0.0000 0.0000
# 5 0.0000 0.0000 0.0000 0.0000 24.5797 0.0000
# 6 0.0000 0.0000 0.0000 0.0000 0.0000 42.6236
#
#
#
# Elastic Compliance Matrix: (Units=1/GPa)
#
#
# Indices 1 2 3 4 5 6 
#
# 1 0.015528 -0.005129 -0.001298 0.000000 0.000000 0.000000
# 2 -0.005129 0.011455 -0.002091 0.000000 0.000000 0.000000
# 3 -0.001298 -0.002091 0.006296 0.000000 0.000000 0.000000
# 4 0.000000 0.000000 0.000000 0.048769 0.000000 0.000000
# 5 0.000000 0.000000 0.000000 0.000000 0.040684 0.000000
# 6 0.000000 0.000000 0.000000 0.000000 0.000000 0.023461
#
#
# Mechanical properties :
#
#
# Convention : Reuss Voigt Hill
#
# Bulk Modulus (GPa) = 61.55792 68.15697 64.85744
# Shear Modulus (GPa) = 29.64848 34.67430 32.16139
#
# Velocity S-wave (km/s) = 3.61081 3.90488 3.76072
# Velocity P-wave (km/s) = 6.66740 7.09246 6.88321
#
# Compressibility (1/GPa) = 0.01624486
#
# Stress axis : x y z
#
# Youngs Moduli (GPa) = 64.39912 87.29568 158.83629
#
# Poissons Ratio (x) = 0.44770 0.20614
# Poissons Ratio (y) = 0.33027 0.33210
# Poissons Ratio (z) = 0.08358 0.18252
#
# Static dielectric constant tensor:
#      x y z
#    x 3.808530 0.000000 0.000000 
#    y 0.000000 4.001970 0.000000 
#    z 0.000000 0.000000 4.511010 
# 
# 
# High freq. dielectric constant tensor:
#      x y z
#    x 1.878590 0.000000 0.000000 
#    y 0.000000 1.925180 0.000000 
#    z 0.000000 0.000000 1.932600 
# 
# From -- ./inp_files/3273.got.cif
#   From: 2010.03.12/outbox.cif.g09.slc.cpg/sg61_2_cif.got.tgz:3273.got - 2010.04.10 19:05:03.
