data_PCOD8249071
_publ_section_title
;
Structure prediction by ZEFSAII (Michael W. Deem and Ramdas Pophale) SiO2 
 PCOD8249071
Probable space group: P B C A
;
_chemical_formula_sum "Si O2"
_cell_formula_units_Z 64
_cell_length_a 18.432269
_cell_length_b 9.903917
_cell_length_c 17.610755
_cell_angle_alpha 90.000000
_cell_angle_beta 90.000000
_cell_angle_gamma 90.000000
_cell_volume 3214.872600
_symmetry_space_group_name_H-M "P B C A"
_symmetry_group_IT_number 61
_symmetry_cell_setting 'orthorhombic'
loop_
_space_group_symop_operation_xyz
x,y,z
1/2-x,-y,1/2+z
1/2+x,1/2-y,-z
-x,1/2+y,1/2-z
-x,-y,-z
1/2+x,y,1/2-z
1/2-x,1/2+y,z
x,1/2-y,1/2+z
loop_
_atom_site_type_symbol
_atom_site_label
_atom_site_fract_x
_atom_site_fract_y
_atom_site_fract_z
Si Si1 0.684125 0.783628 0.033764
Si Si2 0.784308 0.498375 0.465888
Si Si3 0.441370 0.900947 0.534036
Si Si4 0.186457 0.760813 0.287020
Si Si5 0.972599 0.150120 0.711609
Si Si6 0.566184 0.392211 0.788232
Si Si7 0.226194 0.471198 0.713555
Si Si8 0.977670 0.358410 0.034059
O O1 0.694316 0.751811 0.122450
O O2 0.600914 0.804140 0.007888
O O3 0.718258 0.660080 0.986076
O O4 0.724170 0.922644 0.013647
O O5 0.861088 0.560304 0.492674
O O6 0.767387 0.514773 0.376966
O O7 0.446191 0.912368 0.623591
O O8 0.461136 0.748994 0.508149
O O9 0.500000 0.000000 0.500000
O O10 0.103167 0.782360 0.263471
O O11 0.210893 0.622392 0.247282
O O12 0.234277 0.883132 0.253008
O O13 0.975356 0.123041 0.623199
O O14 0.037662 0.246786 0.739006
O O15 0.983530 0.006660 0.750726
O O16 0.649487 0.404545 0.763359
O O17 0.000000 0.500000 0.000000
#
# Coordination Sequence:
#
# PCOD8249071 Si02
#       8
#     8   8   8   8   8   8   8   8
#     4  11  23  40  62  90 125 159 206 256 306 367
#     4  11  23  39  62  91 123 159 204 255 303 367
#     4  10  20  40  60  83 119 160 196 244 307 357
#     4  10  21  40  61  82 121 158 196 244 300 358
#     4   9  20  39  58  86 116 151 194 246 292 356
#     4   9  20  37  57  83 117 146 194 243 286 353
#     4  10  21  40  59  84 120 155 196 245 297 357
#     4  10  22  40  61  88 121 158 202 253 304 366
#
# _framework density 19.907477
#
# number of rings (size 3 to 8) (size 9 to 14) (size 15 to 20)
#    0.000    2.000    1.250    1.500    1.750    2.000 
#    9.000    0.000    0.000    0.000    0.000    0.000 
#    0.000    0.000    0.000    0.000    0.000    0.000 
#
# Total GULP energy -793728.353840 kJ/mol
# GULP energy per Si atom -12402.005529 kJ/mol
# Density = 1.986217 g / cm^3
# Si number density = 19.907477 Si / 1000 Ang^3
#
#
#
# Elastic Constant Matrix: (Units=GPa)
#
#
# Indices 1 2 3 4 5 6 
#
# 1 47.6352 15.4826 18.9677 0.0000 0.0000 0.0000
# 2 15.4826 97.9578 21.1717 0.0000 0.0000 0.0000
# 3 18.9677 21.1717 44.4089 0.0000 0.0000 0.0000
# 4 0.0000 0.0000 0.0000 41.7762 0.0000 0.0000
# 5 0.0000 0.0000 0.0000 0.0000 23.2607 0.0000
# 6 0.0000 0.0000 0.0000 0.0000 0.0000 38.5375
#
#
#
# Elastic Compliance Matrix: (Units=1/GPa)
#
#
# Indices 1 2 3 4 5 6 
#
# 1 0.025600 -0.001876 -0.010040 0.000000 0.000000 0.000000
# 2 -0.001876 0.011519 -0.004690 0.000000 0.000000 0.000000
# 3 -0.010040 -0.004690 0.029042 0.000000 0.000000 0.000000
# 4 0.000000 0.000000 0.000000 0.023937 0.000000 0.000000
# 5 0.000000 0.000000 0.000000 0.000000 0.042991 0.000000
# 6 0.000000 0.000000 0.000000 0.000000 0.000000 0.025949
#
#
# Mechanical properties :
#
#
# Convention : Reuss Voigt Hill
#
# Bulk Modulus (GPa) = 30.35003 33.47174 31.91088
# Shear Modulus (GPa) = 24.60226 29.67354 27.13790
#
# Velocity S-wave (km/s) = 3.51925 3.86498 3.69616
# Velocity P-wave (km/s) = 5.63845 6.06363 5.85490
#
# Compressibility (1/GPa) = 0.03294890
#
# Stress axis : x y z
#
# Youngs Moduli (GPa) = 39.06180 86.81530 34.43276
#
# Poissons Ratio (x) = 0.16290 0.34570
# Poissons Ratio (y) = 0.07329 0.16149
# Poissons Ratio (z) = 0.39217 0.40717
#
# Static dielectric constant tensor:
#      x y z
#    x 3.806290 0.000000 0.000000 
#    y 0.000000 3.673540 0.000000 
#    z 0.000000 0.000000 3.512170 
# 
# 
# High freq. dielectric constant tensor:
#      x y z
#    x 1.774810 0.000000 0.000000 
#    y 0.000000 1.788320 0.000000 
#    z 0.000000 0.000000 1.773490 
# 
# From -- ./inp_files/3696.got.cif
#   From: 2010.03.12/outbox.cif.g09.slc.cpg/sg61_2_cif.got.tgz:3696.got - 2010.04.10 19:05:03.
