data_PCOD8249348
_publ_section_title
;
Structure prediction by ZEFSAII (Michael W. Deem and Ramdas Pophale) SiO2 
 PCOD8249348
Probable space group: P B C A
;
_chemical_formula_sum "Si O2"
_cell_formula_units_Z 64
_cell_length_a 14.163201
_cell_length_b 12.254224
_cell_length_c 16.612216
_cell_angle_alpha 90.000000
_cell_angle_beta 90.000000
_cell_angle_gamma 90.000000
_cell_volume 2883.200222
_symmetry_space_group_name_H-M "P B C A"
_symmetry_group_IT_number 61
_symmetry_cell_setting 'orthorhombic'
loop_
_space_group_symop_operation_xyz
x,y,z
1/2-x,-y,1/2+z
1/2+x,1/2-y,-z
-x,1/2+y,1/2-z
-x,-y,-z
1/2+x,y,1/2-z
1/2-x,1/2+y,z
x,1/2-y,1/2+z
loop_
_atom_site_type_symbol
_atom_site_label
_atom_site_fract_x
_atom_site_fract_y
_atom_site_fract_z
Si Si1 0.358975 0.272109 0.387316
Si Si2 0.818661 0.805038 0.373062
Si Si3 0.249501 0.392265 0.971758
Si Si4 0.714325 0.648049 0.258839
Si Si5 0.573204 0.021667 0.784056
Si Si6 0.036066 0.331109 0.543089
Si Si7 0.425008 0.527517 0.903218
Si Si8 0.365634 0.516901 0.340407
O O1 0.275950 0.232255 0.446949
O O2 0.355279 0.188002 0.312314
O O3 0.457066 0.260813 0.436795
O O4 0.337226 0.391148 0.353474
O O5 0.764949 0.890628 0.431961
O O6 0.746858 0.752769 0.309375
O O7 0.904702 0.865788 0.328920
O O8 0.862995 0.708710 0.425987
O O9 0.331340 0.476439 0.944955
O O10 0.151268 0.424335 0.926781
O O11 0.649248 0.568681 0.312275
O O12 0.801294 0.576199 0.225943
O O13 0.587548 0.051504 0.690460
O O14 0.471957 0.975421 0.809327
O O15 0.046387 0.359125 0.447828
O O16 0.011500 0.443542 0.588220
#
# Coordination Sequence:
#
# PCOD8249348 Si02
#       8
#     8   8   8   8   8   8   8   8
#     4  10  21  48  65 100 137 181 230 287 348 412
#     4  12  27  42  67 105 139 180 238 283 353 427
#     4  10  25  45  69  99 141 191 225 291 359 422
#     4  11  25  43  68 102 139 185 235 290 349 419
#     4  12  24  46  72 109 136 181 241 295 357 413
#     4  10  21  44  68  97 134 179 234 279 340 427
#     4  10  22  46  72  95 140 184 230 285 349 425
#     4  11  23  44  78  95 144 184 225 301 353 407
#
# _framework density 22.197557
#
# number of rings (size 3 to 8) (size 9 to 14) (size 15 to 20)
#    0.000    1.250    5.000    1.500    3.500    1.500 
#   13.500    0.000    0.000    0.000    0.000    0.000 
#    0.000    0.000    0.000    0.000    0.000    0.000 
#
# Total GULP energy -793362.029616 kJ/mol
# GULP energy per Si atom -12396.281713 kJ/mol
# Density = 2.214703 g / cm^3
# Si number density = 22.197557 Si / 1000 Ang^3
#
#
#
# Elastic Constant Matrix: (Units=GPa)
#
#
# Indices 1 2 3 4 5 6 
#
# 1 121.9707 45.6946 58.5338 0.0000 0.0000 0.0000
# 2 45.6946 78.6537 48.0757 0.0000 0.0000 0.0000
# 3 58.5338 48.0757 121.5485 0.0000 0.0000 0.0000
# 4 0.0000 0.0000 0.0000 40.7922 0.0000 0.0000
# 5 0.0000 0.0000 0.0000 0.0000 27.6668 0.0000
# 6 0.0000 0.0000 0.0000 0.0000 0.0000 28.5222
#
#
#
# Elastic Compliance Matrix: (Units=1/GPa)
#
#
# Indices 1 2 3 4 5 6 
#
# 1 0.011729 -0.004433 -0.003895 0.000000 0.000000 0.000000
# 2 -0.004433 0.018443 -0.005160 0.000000 0.000000 0.000000
# 3 -0.003895 -0.005160 0.012144 0.000000 0.000000 0.000000
# 4 0.000000 0.000000 0.000000 0.024514 0.000000 0.000000
# 5 0.000000 0.000000 0.000000 0.000000 0.036144 0.000000
# 6 0.000000 0.000000 0.000000 0.000000 0.000000 0.035060
#
#
# Mechanical properties :
#
#
# Convention : Reuss Voigt Hill
#
# Bulk Modulus (GPa) = 65.18951 69.64235 67.41593
# Shear Modulus (GPa) = 29.39030 30.72081 30.05556
#
# Velocity S-wave (km/s) = 3.64267 3.72421 3.68367
# Velocity P-wave (km/s) = 6.86467 7.06647 6.96630
#
# Compressibility (1/GPa) = 0.01533989
#
# Stress axis : x y z
#
# Youngs Moduli (GPa) = 85.26162 54.21969 82.34798
#
# Poissons Ratio (x) = 0.24037 0.32071
# Poissons Ratio (y) = 0.37799 0.42491
# Poissons Ratio (z) = 0.33206 0.27977
#
# Static dielectric constant tensor:
#      x y z
#    x 3.903760 0.000000 0.000000 
#    y 0.000000 3.928500 0.000000 
#    z 0.000000 0.000000 4.050860 
# 
# 
# High freq. dielectric constant tensor:
#      x y z
#    x 1.871800 0.000000 0.000000 
#    y 0.000000 1.870950 0.000000 
#    z 0.000000 0.000000 1.869710 
# 
# From -- ./inp_files/9526.got.cif
#   From: 2010.03.12/outbox.cif.g09.slc.cpg/sg61_5_cif.got.tgz:9526.got - 2010.04.10 19:05:03.
