data_PCOD8249399
_publ_section_title
;
Structure prediction by ZEFSAII (Michael W. Deem and Ramdas Pophale) SiO2 
 PCOD8249399
Probable space group: P B C A
;
_chemical_formula_sum "Si O2"
_cell_formula_units_Z 40
_cell_length_a 13.879497
_cell_length_b 10.322896
_cell_length_c 12.445183
_cell_angle_alpha 90.000000
_cell_angle_beta 90.000000
_cell_angle_gamma 90.000000
_cell_volume 1783.103557
_symmetry_space_group_name_H-M "P B C A"
_symmetry_group_IT_number 61
_symmetry_cell_setting 'orthorhombic'
loop_
_space_group_symop_operation_xyz
x,y,z
1/2-x,-y,1/2+z
1/2+x,1/2-y,-z
-x,1/2+y,1/2-z
-x,-y,-z
1/2+x,y,1/2-z
1/2-x,1/2+y,z
x,1/2-y,1/2+z
loop_
_atom_site_type_symbol
_atom_site_label
_atom_site_fract_x
_atom_site_fract_y
_atom_site_fract_z
Si Si1 0.525179 0.686589 0.088281
Si Si2 0.323446 0.801161 0.130558
Si Si3 0.257638 0.547225 0.020649
Si Si4 0.188033 0.656883 0.812309
Si Si5 0.938336 0.067662 0.884052
O O1 0.437787 0.775904 0.131419
O O2 0.629917 0.733223 0.124747
O O3 0.516238 0.543268 0.140425
O O4 0.519348 0.686041 0.955953
O O5 0.284041 0.791334 0.253200
O O6 0.259197 0.695557 0.065508
O O7 0.309565 0.947400 0.086848
O O8 0.219880 0.548218 0.898138
O O9 0.366237 0.497644 0.028533
O O10 0.114269 0.601673 0.724801
#
# Coordination Sequence:
#
# PCOD8249399 Si02
#       5
#     8   8   8   8   8
#     4  10  22  40  61  88 127 164 205 263 311 367
#     4  10  24  41  62  95 129 164 209 258 311 370
#     4  10  22  41  62  88 127 162 203 260 309 367
#     4  11  22  38  65  92 119 168 213 250 311 377
#     4   9  22  40  58  90 128 162 206 260 316 368
#
# _framework density 22.432797000000001
#
# number of rings (size 3 to 8) (size 9 to 14) (size 15 to 20)
#    0.000    2.000    0.000    2.400    0.000   18.400 
#    0.000    0.000    0.000    0.000    0.000    0.000 
#    0.000    0.000    0.000    0.000    0.000    0.000 
#
# Total GULP energy -495585.018401 kJ/mol
# GULP energy per Si atom -12389.625460 kJ/mol
# Density = 2.238174 g / cm^3
# Si number density = 22.432797 Si / 1000 Ang^3
#
#
#
# Elastic Constant Matrix: (Units=GPa)
#
#
# Indices 1 2 3 4 5 6 
#
# 1 70.0983 25.1431 25.5993 0.0000 0.0000 0.0000
# 2 25.1431 75.0443 44.0261 0.0000 0.0000 0.0000
# 3 25.5993 44.0261 102.6801 0.0000 0.0000 0.0000
# 4 0.0000 0.0000 0.0000 14.3953 0.0000 0.0000
# 5 0.0000 0.0000 0.0000 0.0000 45.2128 0.0000
# 6 0.0000 0.0000 0.0000 0.0000 0.0000 38.4646
#
#
#
# Elastic Compliance Matrix: (Units=1/GPa)
#
#
# Indices 1 2 3 4 5 6 
#
# 1 0.016627 -0.004194 -0.002347 0.000000 0.000000 0.000000
# 2 -0.004194 0.018862 -0.007042 0.000000 0.000000 0.000000
# 3 -0.002347 -0.007042 0.013343 0.000000 0.000000 0.000000
# 4 0.000000 0.000000 0.000000 0.069467 0.000000 0.000000
# 5 0.000000 0.000000 0.000000 0.000000 0.022118 0.000000
# 6 0.000000 0.000000 0.000000 0.000000 0.000000 0.025998
#
#
# Mechanical properties :
#
#
# Convention : Reuss Voigt Hill
#
# Bulk Modulus (GPa) = 46.15347 48.59551 47.37449
# Shear Modulus (GPa) = 24.90006 29.81817 27.35911
#
# Velocity S-wave (km/s) = 3.33526 3.64980 3.49607
# Velocity P-wave (km/s) = 5.95405 6.28261 6.12053
#
# Compressibility (1/GPa) = 0.02166684
#
# Stress axis : x y z
#
# Youngs Moduli (GPa) = 60.14289 53.01737 74.94311
#
# Poissons Ratio (x) = 0.22234 0.17590
# Poissons Ratio (y) = 0.25223 0.52773
# Poissons Ratio (z) = 0.14116 0.37334
#
# Static dielectric constant tensor:
#      x y z
#    x 4.084760 0.000000 0.000000 
#    y 0.000000 4.046800 0.000000 
#    z 0.000000 0.000000 4.077830 
# 
# 
# High freq. dielectric constant tensor:
#      x y z
#    x 1.888320 0.000000 0.000000 
#    y 0.000000 1.872810 0.000000 
#    z 0.000000 0.000000 1.881860 
# 
# From -- ./inp_files/5125.got.cif
#   From: 2010.03.12/outbox.cif.g09.slc.cpg/sg61_3_cif.got.tgz:5125.got - 2010.04.10 19:05:03.
