data_PCOD8249270
_publ_section_title
;
Structure prediction by ZEFSAII (Michael W. Deem and Ramdas Pophale) SiO2 
 PCOD8249270
Probable space group: P B C A
;
_chemical_formula_sum "Si O2"
_cell_formula_units_Z 48
_cell_length_a 11.580300
_cell_length_b 7.409511
_cell_length_c 25.665367
_cell_angle_alpha 90.000000
_cell_angle_beta 90.000000
_cell_angle_gamma 90.000000
_cell_volume 2202.200396
_symmetry_space_group_name_H-M "P B C A"
_symmetry_group_IT_number 61
_symmetry_cell_setting 'orthorhombic'
loop_
_space_group_symop_operation_xyz
x,y,z
1/2-x,-y,1/2+z
1/2+x,1/2-y,-z
-x,1/2+y,1/2-z
-x,-y,-z
1/2+x,y,1/2-z
1/2-x,1/2+y,z
x,1/2-y,1/2+z
loop_
_atom_site_type_symbol
_atom_site_label
_atom_site_fract_x
_atom_site_fract_y
_atom_site_fract_z
Si Si1 0.403656 0.639233 0.424306
Si Si2 0.846437 0.108597 0.837422
Si Si3 0.303619 0.959972 0.481255
Si Si4 0.036295 0.391432 0.809859
Si Si5 0.645392 0.739615 0.449755
Si Si6 0.112561 0.265690 0.205622
O O1 0.379642 0.845610 0.441295
O O2 0.316206 0.506788 0.452290
O O3 0.388522 0.617512 0.362497
O O4 0.537170 0.603825 0.440984
O O5 0.826330 0.148963 0.897954
O O6 0.726317 0.117559 0.806141
O O7 0.928733 0.257225 0.812559
O O8 0.897985 0.905898 0.833286
O O9 0.262725 0.863510 0.534673
O O10 0.379662 0.129247 0.500327
O O11 0.117416 0.320877 0.763358
O O12 0.995538 0.598200 0.800717
#
# Coordination Sequence:
#
# PCOD8249270 Si02
#       6
#     8   8   8   8   8   8
#     4  10  23  42  61  94 131 168 219 264 328 398
#     4  11  23  41  67  97 128 168 221 274 325 386
#     4  10  21  41  64  92 131 174 209 266 338 386
#     4  11  25  43  64  98 130 169 220 270 330 390
#     4  10  21  40  65  95 127 168 223 270 320 395
#     4  12  23  43  67  95 130 171 218 274 328 388
#
# _framework density 21.796381
#
# number of rings (size 3 to 8) (size 9 to 14) (size 15 to 20)
#    0.000    1.333    3.333    2.000    2.333    1.333 
#   15.000    0.000    0.000    0.000    0.000    0.000 
#    0.000    0.000    0.000    0.000    0.000    0.000 
#
# Total GULP energy -595061.566964 kJ/mol
# GULP energy per Si atom -12397.115978 kJ/mol
# Density = 2.174677 g / cm^3
# Si number density = 21.796381 Si / 1000 Ang^3
#
#
#
# Elastic Constant Matrix: (Units=GPa)
#
#
# Indices 1 2 3 4 5 6 
#
# 1 47.7887 9.4303 36.3395 0.0000 0.0000 0.0000
# 2 9.4303 94.4275 23.5763 0.0000 0.0000 0.0000
# 3 36.3395 23.5763 126.0208 0.0000 0.0000 0.0000
# 4 0.0000 0.0000 0.0000 38.6432 0.0000 0.0000
# 5 0.0000 0.0000 0.0000 0.0000 26.2364 0.0000
# 6 0.0000 0.0000 0.0000 0.0000 0.0000 28.2940
#
#
#
# Elastic Compliance Matrix: (Units=1/GPa)
#
#
# Indices 1 2 3 4 5 6 
#
# 1 0.026858 -0.000785 -0.007598 0.000000 0.000000 0.000000
# 2 -0.000785 0.011132 -0.001856 0.000000 0.000000 0.000000
# 3 -0.007598 -0.001856 0.010473 0.000000 0.000000 0.000000
# 4 0.000000 0.000000 0.000000 0.025878 0.000000 0.000000
# 5 0.000000 0.000000 0.000000 0.000000 0.038115 0.000000
# 6 0.000000 0.000000 0.000000 0.000000 0.000000 0.035343
#
#
# Mechanical properties :
#
#
# Convention : Reuss Voigt Hill
#
# Bulk Modulus (GPa) = 35.73372 45.21434 40.47403
# Shear Modulus (GPa) = 28.15219 31.89414 30.02317
#
# Velocity S-wave (km/s) = 3.59778 3.82943 3.71541
# Velocity P-wave (km/s) = 5.80419 6.35151 6.08401
#
# Compressibility (1/GPa) = 0.02798477
#
# Stress axis : x y z
#
# Youngs Moduli (GPa) = 37.23290 89.83119 95.48012
#
# Poissons Ratio (x) = 0.07054 0.72545
# Poissons Ratio (y) = 0.02924 0.17723
# Poissons Ratio (z) = 0.28289 0.16674
#
# Static dielectric constant tensor:
#      x y z
#    x 3.692210 0.000000 0.000000 
#    y 0.000000 4.059640 0.000000 
#    z 0.000000 0.000000 4.004760 
# 
# 
# High freq. dielectric constant tensor:
#      x y z
#    x 1.838840 0.000000 0.000000 
#    y 0.000000 1.864330 0.000000 
#    z 0.000000 0.000000 1.863600 
# 
# From -- ./inp_files/4235.got.cif
#   From: 2010.03.12/outbox.cif.g09.slc.cpg/sg61_3_cif.got.tgz:4235.got - 2010.04.10 19:05:03.
