data_PCOD8249319
_publ_section_title
;
Structure prediction by ZEFSAII (Michael W. Deem and Ramdas Pophale) SiO2 
 PCOD8249319
Probable space group: P B C A
;
_chemical_formula_sum "Si O2"
_cell_formula_units_Z 48
_cell_length_a 17.614532
_cell_length_b 13.684761
_cell_length_c 9.650539
_cell_angle_alpha 90.000000
_cell_angle_beta 90.000000
_cell_angle_gamma 90.000000
_cell_volume 2326.268801
_symmetry_space_group_name_H-M "P B C A"
_symmetry_group_IT_number 61
_symmetry_cell_setting 'orthorhombic'
loop_
_space_group_symop_operation_xyz
x,y,z
1/2-x,-y,1/2+z
1/2+x,1/2-y,-z
-x,1/2+y,1/2-z
-x,-y,-z
1/2+x,y,1/2-z
1/2-x,1/2+y,z
x,1/2-y,1/2+z
loop_
_atom_site_type_symbol
_atom_site_label
_atom_site_fract_x
_atom_site_fract_y
_atom_site_fract_z
Si Si1 0.807861 0.721620 0.148935
Si Si2 0.702095 0.605789 0.593294
Si Si3 0.411240 0.723858 0.609890
Si Si4 0.053976 0.444594 0.605858
Si Si5 0.721816 0.036663 0.328439
Si Si6 0.530272 0.560472 0.625703
O O1 0.739979 0.786869 0.083745
O O2 0.851120 0.780732 0.266970
O O3 0.774128 0.625000 0.218423
O O4 0.867915 0.692261 0.030106
O O5 0.716643 0.546801 0.450118
O O6 0.736803 0.557472 0.732887
O O7 0.611845 0.610623 0.604513
O O8 0.453292 0.828024 0.591022
O O9 0.474771 0.648865 0.657132
O O10 0.142653 0.470711 0.587129
O O11 0.029312 0.479235 0.756222
O O12 0.000000 0.500000 0.500000
O O13 0.500000 0.500000 0.500000
#
# Coordination Sequence:
#
# PCOD8249319 Si02
#       6
#     8   8   8   8   8   8
#     4  11  22  44  68  93 130 175 223 261 342 396
#     4  11  24  44  64 100 128 174 225 271 330 400
#     4  11  22  43  67  93 134 177 214 282 333 397
#     4  10  21  42  65  97 125 171 226 264 339 396
#     4  10  24  41  65  95 131 173 220 277 332 391
#     4  11  25  42  66  97 134 169 219 276 335 394
#
# _framework density 20.633901000000002
#
# number of rings (size 3 to 8) (size 9 to 14) (size 15 to 20)
#    0.000    1.333    3.333    4.000    4.667    0.000 
#   15.000    0.000    0.000    0.000    0.000    0.000 
#    0.000    0.000    0.000    0.000    0.000    0.000 
#
# Total GULP energy -595113.727256 kJ/mol
# GULP energy per Si atom -12398.202651 kJ/mol
# Density = 2.058694 g / cm^3
# Si number density = 20.633901 Si / 1000 Ang^3
#
#
#
# Elastic Constant Matrix: (Units=GPa)
#
#
# Indices 1 2 3 4 5 6 
#
# 1 50.7560 35.0650 14.0327 0.0000 0.0000 0.0000
# 2 35.0650 42.2269 -15.4632 0.0000 0.0000 0.0000
# 3 14.0327 -15.4632 67.2080 0.0000 0.0000 0.0000
# 4 0.0000 0.0000 0.0000 36.4614 0.0000 0.0000
# 5 0.0000 0.0000 0.0000 0.0000 29.6582 0.0000
# 6 0.0000 0.0000 0.0000 0.0000 0.0000 32.5748
#
#
#
# Elastic Compliance Matrix: (Units=1/GPa)
#
#
# Indices 1 2 3 4 5 6 
#
# 1 0.100967 -0.099987 -0.044087 0.000000 0.000000 0.000000
# 2 -0.099987 0.124877 0.049608 0.000000 0.000000 0.000000
# 3 -0.044087 0.049608 0.035498 0.000000 0.000000 0.000000
# 4 0.000000 0.000000 0.000000 0.027426 0.000000 0.000000
# 5 0.000000 0.000000 0.000000 0.000000 0.033718 0.000000
# 6 0.000000 0.000000 0.000000 0.000000 0.000000 0.030699
#
#
# Mechanical properties :
#
#
# Convention : Reuss Voigt Hill
#
# Bulk Modulus (GPa) = 13.80991 25.27333 19.54162
# Shear Modulus (GPa) = 8.82999 28.17596 18.50297
#
# Velocity S-wave (km/s) = 2.07091 3.69930 2.99779
# Velocity P-wave (km/s) = 3.52499 5.52462 4.63395
#
# Compressibility (1/GPa) = 0.07241177
#
# Stress axis : x y z
#
# Youngs Moduli (GPa) = 9.90418 8.00791 28.17051
#
# Poissons Ratio (x) = 0.80069 1.24194
# Poissons Ratio (y) = 0.99029 -1.39749
# Poissons Ratio (z) = 0.43664 -0.39726
#
# Static dielectric constant tensor:
#      x y z
#    x 3.796650 0.000000 0.000000 
#    y 0.000000 3.970110 0.000000 
#    z 0.000000 0.000000 3.853150 
# 
# 
# High freq. dielectric constant tensor:
#      x y z
#    x 1.801340 0.000000 0.000000 
#    y 0.000000 1.808800 0.000000 
#    z 0.000000 0.000000 1.823810 
# 
# From -- ./inp_files/3423.got.cif
#   From: 2010.03.12/outbox.cif.g09.slc.cpg/sg61_2_cif.got.tgz:3423.got - 2010.04.10 19:05:03.
