data_PCOD8249767
_publ_section_title
;
Structure prediction by ZEFSAII (Michael W. Deem and Ramdas Pophale) SiO2 
 PCOD8249767
Probable space group: P B C A
;
_chemical_formula_sum "Si O2"
_cell_formula_units_Z 64
_cell_length_a 21.967451
_cell_length_b 15.123314
_cell_length_c 8.602943
_cell_angle_alpha 90.000000
_cell_angle_beta 90.000000
_cell_angle_gamma 90.000000
_cell_volume 2858.075395
_symmetry_space_group_name_H-M "P B C A"
_symmetry_group_IT_number 61
_symmetry_cell_setting 'orthorhombic'
loop_
_space_group_symop_operation_xyz
x,y,z
1/2-x,-y,1/2+z
1/2+x,1/2-y,-z
-x,1/2+y,1/2-z
-x,-y,-z
1/2+x,y,1/2-z
1/2-x,1/2+y,z
x,1/2-y,1/2+z
loop_
_atom_site_type_symbol
_atom_site_label
_atom_site_fract_x
_atom_site_fract_y
_atom_site_fract_z
Si Si1 0.500000 0.527210 0.246372
Si Si2 0.369728 0.509951 0.671090
Si Si3 0.816475 0.843635 0.816190
Si Si4 0.371025 0.812843 0.361535
Si Si5 0.000001 0.858536 0.030934
Si Si6 0.683526 0.843634 0.683806
Si Si7 0.869728 0.490049 0.171087
Si Si8 0.371025 0.187158 0.638467
O O1 0.560216 0.519854 0.349685
O O2 0.499996 0.449033 0.123045
O O3 0.439784 0.519857 0.349690
O O4 0.500000 0.619789 0.152588
O O5 0.363020 0.608637 0.736524
O O6 0.335304 0.445081 0.789195
O O7 0.339680 0.499999 0.500001
O O8 0.861536 0.779221 0.724228
O O9 0.750000 0.824365 0.749998
O O10 0.835304 0.945081 0.789191
O O11 0.821864 0.826212 0.000539
O O12 0.439098 0.804674 0.429682
O O13 0.060903 0.804671 0.070316
O O14 0.638464 0.779220 0.775768
O O15 0.678137 0.826212 0.499457
O O16 0.863023 0.391363 0.236523
#
# Coordination Sequence:
#
# PCOD8249767 Si02
#       8
#     8   8   8   8   8   8   8   8
#     4   9  17  37  65  96 129 163 212 271 345 397
#     4  11  23  41  68 100 131 174 221 277 344 409
#     4  12  26  43  65  94 133 182 227 277 329 401
#     4  11  24  44  67  98 133 173 224 282 339 401
#     4   9  18  37  69  96 125 170 210 276 348 399
#     4  12  26  43  65  94 133 182 227 277 329 401
#     4  11  23  41  68 100 131 174 221 277 344 409
#     4  11  24  44  67  98 133 173 224 282 339 401
#
# _framework density 22.392692
#
# number of rings (size 3 to 8) (size 9 to 14) (size 15 to 20)
#    0.000    1.250    2.500    3.375    0.000    5.000 
#    0.000    2.500    0.000    0.000    0.000    0.000 
#    0.000    0.000    0.000    0.000    0.000    0.000 
#
# Total GULP energy -793743.273391 kJ/mol
# GULP energy per Si atom -12402.238647 kJ/mol
# Density = 2.234173 g / cm^3
# Si number density = 22.392692 Si / 1000 Ang^3
#
#
#
# Elastic Constant Matrix: (Units=GPa)
#
#
# Indices 1 2 3 4 5 6 
#
# 1 99.0110 22.7978 18.2154 0.0000 0.0000 0.0000
# 2 22.7978 66.7224 0.5735 0.0000 0.0000 0.0000
# 3 18.2154 0.5735 102.3380 0.0000 0.0000 0.0000
# 4 0.0000 0.0000 0.0000 36.4623 0.0000 0.0000
# 5 0.0000 0.0000 0.0000 0.0000 19.1377 0.0000
# 6 0.0000 0.0000 0.0000 0.0000 0.0000 10.3949
#
#
#
# Elastic Compliance Matrix: (Units=1/GPa)
#
#
# Indices 1 2 3 4 5 6 
#
# 1 0.011357 -0.003863 -0.002000 0.000000 0.000000 0.000000
# 2 -0.003863 0.016302 0.000596 0.000000 0.000000 0.000000
# 3 -0.002000 0.000596 0.010124 0.000000 0.000000 0.000000
# 4 0.000000 0.000000 0.000000 0.027426 0.000000 0.000000
# 5 0.000000 0.000000 0.000000 0.000000 0.052253 0.000000
# 6 0.000000 0.000000 0.000000 0.000000 0.000000 0.096201
#
#
# Mechanical properties :
#
#
# Convention : Reuss Voigt Hill
#
# Bulk Modulus (GPa) = 36.69731 39.02721 37.86226
# Shear Modulus (GPa) = 21.43344 28.29797 24.86570
#
# Velocity S-wave (km/s) = 3.09716 3.55873 3.33594
# Velocity P-wave (km/s) = 5.40495 5.86110 5.63764
#
# Compressibility (1/GPa) = 0.02724995
#
# Stress axis : x y z
#
# Youngs Moduli (GPa) = 88.04842 61.34067 98.77363
#
# Poissons Ratio (x) = 0.23698 0.19754
# Poissons Ratio (y) = 0.34017 -0.05890
# Poissons Ratio (z) = 0.17609 -0.03658
#
# Static dielectric constant tensor:
#      x y z
#    x 4.096570 0.000000 0.000000 
#    y 0.000000 3.830250 0.000000 
#    z 0.000000 0.000000 3.947150 
# 
# 
# High freq. dielectric constant tensor:
#      x y z
#    x 1.877110 0.000000 0.000000 
#    y 0.000000 1.877220 0.000000 
#    z 0.000000 0.000000 1.888610 
# 
# From -- ./inp_files/4338.got.cif
#   From: 2010.03.12/outbox.cif.g09.slc.cpg/sg61_3_cif.got.tgz:4338.got - 2010.04.10 19:05:03.
