data_PCOD8249812
_publ_section_title
;
Structure prediction by ZEFSAII (Michael W. Deem and Ramdas Pophale) SiO2 
 PCOD8249812
Probable space group: P B C A
;
_chemical_formula_sum "Si O2"
_cell_formula_units_Z 16
_cell_length_a 9.775029
_cell_length_b 8.601688
_cell_length_c 8.664588
_cell_angle_alpha 90.000000
_cell_angle_beta 90.000000
_cell_angle_gamma 90.000000
_cell_volume 728.533719
_symmetry_space_group_name_H-M "P B C A"
_symmetry_group_IT_number 61
_symmetry_cell_setting 'orthorhombic'
loop_
_space_group_symop_operation_xyz
x,y,z
1/2-x,-y,1/2+z
1/2+x,1/2-y,-z
-x,1/2+y,1/2-z
-x,-y,-z
1/2+x,y,1/2-z
1/2-x,1/2+y,z
x,1/2-y,1/2+z
loop_
_atom_site_type_symbol
_atom_site_label
_atom_site_fract_x
_atom_site_fract_y
_atom_site_fract_z
Si Si1 0.386461 0.559573 0.790024
Si Si2 0.654233 0.120043 0.362911
O O1 0.296655 0.420991 0.718895
O O2 0.387438 0.704473 0.674530
O O3 0.541067 0.501285 0.805149
O O4 0.325445 0.610309 0.954068
#
# Coordination Sequence:
#
# PCOD8249812 Si02
#       2
#     8   8
#     4  11  24  41  63  91 123 160 202 249 301 358
#     4  11  24  41  63  91 123 160 202 249 301 358
#
# _framework density 21.961919000000002
#
# number of rings (size 3 to 8) (size 9 to 14) (size 15 to 20)
#    0.000    1.000    0.000    6.000    0.000   16.000 
#    0.000    0.000    0.000    0.000    0.000    0.000 
#    0.000    0.000    0.000    0.000    0.000    0.000 
#
# Total GULP energy -198575.767648 kJ/mol
# GULP energy per Si atom -12410.985478 kJ/mol
# Density = 2.191193 g / cm^3
# Si number density = 21.961919 Si / 1000 Ang^3
#
#
#
# Elastic Constant Matrix: (Units=GPa)
#
#
# Indices 1 2 3 4 5 6 
#
# 1 36.9253 -4.6397 30.8069 0.0000 0.0000 0.0000
# 2 -4.6397 81.9669 -14.1316 0.0000 0.0000 0.0000
# 3 30.8069 -14.1316 52.0102 0.0000 0.0000 0.0000
# 4 0.0000 0.0000 0.0000 33.1485 0.0000 0.0000
# 5 0.0000 0.0000 0.0000 0.0000 34.5960 0.0000
# 6 0.0000 0.0000 0.0000 0.0000 0.0000 39.5422
#
#
#
# Elastic Compliance Matrix: (Units=1/GPa)
#
#
# Indices 1 2 3 4 5 6 
#
# 1 0.054055 -0.002581 -0.032720 0.000000 0.000000 0.000000
# 2 -0.002581 0.012923 0.005040 0.000000 0.000000 0.000000
# 3 -0.032720 0.005040 0.039977 0.000000 0.000000 0.000000
# 4 0.000000 0.000000 0.000000 0.030167 0.000000 0.000000
# 5 0.000000 0.000000 0.000000 0.000000 0.028905 0.000000
# 6 0.000000 0.000000 0.000000 0.000000 0.000000 0.025289
#
#
# Mechanical properties :
#
#
# Convention : Reuss Voigt Hill
#
# Bulk Modulus (GPa) = 21.53598 21.66374 21.59986
# Shear Modulus (GPa) = 18.70443 32.04845 25.37644
#
# Velocity S-wave (km/s) = 2.92151 3.82419 3.40292
# Velocity P-wave (km/s) = 4.60518 5.42078 5.02954
#
# Compressibility (1/GPa) = 0.04643393
#
# Stress axis : x y z
#
# Youngs Moduli (GPa) = 18.49956 77.38201 25.01439
#
# Poissons Ratio (x) = 0.19974 0.81846
# Poissons Ratio (y) = 0.04775 -0.12608
# Poissons Ratio (z) = 0.60530 -0.39002
#
# Static dielectric constant tensor:
#      x y z
#    x 3.935840 0.000000 0.000000 
#    y 0.000000 3.848630 0.000000 
#    z 0.000000 0.000000 4.076480 
# 
# 
# High freq. dielectric constant tensor:
#      x y z
#    x 1.867750 0.000000 0.000000 
#    y 0.000000 1.872400 0.000000 
#    z 0.000000 0.000000 1.876900 
# 
# From -- ./inp_files/110.got.cif
#   From: 2010.03.12/outbox.cif.g09.slc.cpg/sg61_1_cif.got.tgz:110.got - 2010.04.10 19:05:03.
