data_PCOD8249815
_publ_section_title
;
Structure prediction by ZEFSAII (Michael W. Deem and Ramdas Pophale) SiO2 
 PCOD8249815
Probable space group: P B C A
;
_chemical_formula_sum "Si O2"
_cell_formula_units_Z 32
_cell_length_a 20.415148
_cell_length_b 4.935587
_cell_length_c 13.361259
_cell_angle_alpha 90.000000
_cell_angle_beta 90.000000
_cell_angle_gamma 90.000000
_cell_volume 1346.290332
_symmetry_space_group_name_H-M "P B C A"
_symmetry_group_IT_number 61
_symmetry_cell_setting 'orthorhombic'
loop_
_space_group_symop_operation_xyz
x,y,z
1/2-x,-y,1/2+z
1/2+x,1/2-y,-z
-x,1/2+y,1/2-z
-x,-y,-z
1/2+x,y,1/2-z
1/2-x,1/2+y,z
x,1/2-y,1/2+z
loop_
_atom_site_type_symbol
_atom_site_label
_atom_site_fract_x
_atom_site_fract_y
_atom_site_fract_z
Si Si1 0.894937 0.497597 0.452084
Si Si2 0.460285 0.493424 0.636177
Si Si3 0.205628 0.862293 0.207936
Si Si4 0.590423 0.711879 0.162987
O O1 0.912003 0.804342 0.422940
O O2 0.827184 0.405244 0.400498
O O3 0.885407 0.471775 0.570867
O O4 0.953994 0.304411 0.412734
O O5 0.438714 0.488565 0.752344
O O6 0.535379 0.578332 0.625571
O O7 0.233959 0.562394 0.220462
O O8 0.150104 0.891456 0.293377
#
# Coordination Sequence:
#
# PCOD8249815 Si02
#       4
#     8   8   8   8
#     4  11  25  43  68  97 134 174 215 272 334 394
#     4  11  24  42  67 105 133 161 219 274 329 409
#     4  11  25  43  62  93 130 170 226 269 304 381
#     4  11  24  44  71  97 135 177 211 271 343 386
#
# _framework density 23.769017000000002
#
# number of rings (size 3 to 8) (size 9 to 14) (size 15 to 20)
#    0.000    1.000    0.000    7.500    0.000   12.000 
#    0.000    0.000    0.000    0.000    0.000    0.000 
#    0.000    0.000    0.000    0.000    0.000    0.000 
#
# Total GULP energy -397038.697171 kJ/mol
# GULP energy per Si atom -12407.459287 kJ/mol
# Density = 2.371492 g / cm^3
# Si number density = 23.769017 Si / 1000 Ang^3
#
#
#
# Elastic Constant Matrix: (Units=GPa)
#
#
# Indices 1 2 3 4 5 6 
#
# 1 99.2460 -5.9206 0.5464 0.0000 0.0000 0.0000
# 2 -5.9206 56.8927 -8.3980 0.0000 0.0000 0.0000
# 3 0.5464 -8.3980 103.1260 0.0000 0.0000 0.0000
# 4 0.0000 0.0000 0.0000 33.0724 0.0000 0.0000
# 5 0.0000 0.0000 0.0000 0.0000 17.2528 0.0000
# 6 0.0000 0.0000 0.0000 0.0000 0.0000 17.7950
#
#
#
# Elastic Compliance Matrix: (Units=1/GPa)
#
#
# Indices 1 2 3 4 5 6 
#
# 1 0.010139 0.001060 0.000033 0.000000 0.000000 0.000000
# 2 0.001060 0.017902 0.001452 0.000000 0.000000 0.000000
# 3 0.000033 0.001452 0.009815 0.000000 0.000000 0.000000
# 4 0.000000 0.000000 0.000000 0.030237 0.000000 0.000000
# 5 0.000000 0.000000 0.000000 0.000000 0.057961 0.000000
# 6 0.000000 0.000000 0.000000 0.000000 0.000000 0.056196
#
#
# Mechanical properties :
#
#
# Convention : Reuss Voigt Hill
#
# Bulk Modulus (GPa) = 23.28559 25.74671 24.51615
# Shear Modulus (GPa) = 26.11308 31.82651 28.96979
#
# Velocity S-wave (km/s) = 3.31814 3.66319 3.49493
# Velocity P-wave (km/s) = 4.94954 5.36167 5.15972
#
# Compressibility (1/GPa) = 0.04294501
#
# Stress axis : x y z
#
# Youngs Moduli (GPa) = 98.62885 55.86095 101.88531
#
# Poissons Ratio (x) = -0.05921 -0.00332
# Poissons Ratio (y) = -0.10454 -0.14796
# Poissons Ratio (z) = -0.00322 -0.08112
#
# Static dielectric constant tensor:
#      x y z
#    x 4.211920 0.000000 0.000000 
#    y 0.000000 4.101970 0.000000 
#    z 0.000000 0.000000 4.440910 
# 
# 
# High freq. dielectric constant tensor:
#      x y z
#    x 1.936400 0.000000 0.000000 
#    y 0.000000 1.943120 0.000000 
#    z 0.000000 0.000000 1.949520 
# 
# From -- ./inp_files/8041.got.cif
#   From: 2010.03.12/outbox.cif.g09.slc.cpg/sg61_5_cif.got.tgz:8041.got - 2010.04.10 19:05:03.
