data_PCOD8249120
_publ_section_title
;
Structure prediction by ZEFSAII (Michael W. Deem and Ramdas Pophale) SiO2 
 PCOD8249120
Probable space group: P B C A
;
_chemical_formula_sum "Si O2"
_cell_formula_units_Z 40
_cell_length_a 13.068410
_cell_length_b 19.879586
_cell_length_c 7.637907
_cell_angle_alpha 90.000000
_cell_angle_beta 90.000000
_cell_angle_gamma 90.000000
_cell_volume 1984.286845
_symmetry_space_group_name_H-M "P B C A"
_symmetry_group_IT_number 61
_symmetry_cell_setting 'orthorhombic'
loop_
_space_group_symop_operation_xyz
x,y,z
1/2-x,-y,1/2+z
1/2+x,1/2-y,-z
-x,1/2+y,1/2-z
-x,-y,-z
1/2+x,y,1/2-z
1/2-x,1/2+y,z
x,1/2-y,1/2+z
loop_
_atom_site_type_symbol
_atom_site_label
_atom_site_fract_x
_atom_site_fract_y
_atom_site_fract_z
Si Si1 0.794504 0.063318 0.405634
Si Si2 0.625778 0.334151 0.829387
Si Si3 0.399132 0.134734 0.398167
Si Si4 0.783092 0.077455 0.802784
Si Si5 0.792116 0.800923 0.481519
O O1 0.683781 0.096784 0.372705
O O2 0.881846 0.096913 0.286124
O O3 0.827109 0.071213 0.607568
O O4 0.786771 0.985562 0.354502
O O5 0.512678 0.336464 0.908659
O O6 0.620523 0.323150 0.620137
O O7 0.688334 0.272985 0.913401
O O8 0.378182 0.083314 0.560416
O O9 0.317896 0.196527 0.415691
O O10 0.711365 0.144440 0.822726
#
# Coordination Sequence:
#
# PCOD8249120 Si02
#       5
#     8   8   8   8   8
#     4  11  20  41  68  89 134 162 208 270 317 378
#     4  11  21  41  63  94 128 168 217 266 309 388
#     4   9  23  40  63  95 122 169 215 251 323 375
#     4  10  20  44  63  91 129 172 201 266 328 370
#     4   9  22  40  59  89 129 165 209 261 319 367
#
# _framework density 20.158374999999999
#
# number of rings (size 3 to 8) (size 9 to 14) (size 15 to 20)
#    1.200    0.800    2.000    1.200    0.000    4.000 
#    7.200    2.000    0.000    0.000    0.000    0.000 
#    0.000    0.000    0.000    0.000    0.000    0.000 
#
# Total GULP energy -495790.273780 kJ/mol
# GULP energy per Si atom -12394.756845 kJ/mol
# Density = 2.011249 g / cm^3
# Si number density = 20.158375 Si / 1000 Ang^3
#
#
#
# Elastic Constant Matrix: (Units=GPa)
#
#
# Indices 1 2 3 4 5 6 
#
# 1 75.5275 29.3153 6.5816 0.0000 0.0000 0.0000
# 2 29.3153 80.6097 12.0387 0.0000 0.0000 0.0000
# 3 6.5816 12.0387 137.7795 0.0000 0.0000 0.0000
# 4 0.0000 0.0000 0.0000 30.1567 0.0000 0.0000
# 5 0.0000 0.0000 0.0000 0.0000 18.1905 0.0000
# 6 0.0000 0.0000 0.0000 0.0000 0.0000 17.2146
#
#
#
# Elastic Compliance Matrix: (Units=1/GPa)
#
#
# Indices 1 2 3 4 5 6 
#
# 1 0.015425 -0.005572 -0.000250 0.000000 0.000000 0.000000
# 2 -0.005572 0.014582 -0.001008 0.000000 0.000000 0.000000
# 3 -0.000250 -0.001008 0.007358 0.000000 0.000000 0.000000
# 4 0.000000 0.000000 0.000000 0.033160 0.000000 0.000000
# 5 0.000000 0.000000 0.000000 0.000000 0.054974 0.000000
# 6 0.000000 0.000000 0.000000 0.000000 0.000000 0.058090
#
#
# Mechanical properties :
#
#
# Convention : Reuss Voigt Hill
#
# Bulk Modulus (GPa) = 42.18530 43.30978 42.74754
# Shear Modulus (GPa) = 24.37226 29.51110 26.94168
#
# Velocity S-wave (km/s) = 3.48090 3.83033 3.65978
# Velocity P-wave (km/s) = 6.09327 6.41040 6.25384
#
# Compressibility (1/GPa) = 0.02370494
#
# Stress axis : x y z
#
# Youngs Moduli (GPa) = 64.83068 68.57569 135.90673
#
# Poissons Ratio (x) = 0.38212 0.03397
# Poissons Ratio (y) = 0.36125 0.13699
# Poissons Ratio (z) = 0.01620 0.06912
#
# Static dielectric constant tensor:
#      x y z
#    x 3.164870 0.000000 0.000000 
#    y 0.000000 3.542910 0.000000 
#    z 0.000000 0.000000 3.872530 
# 
# 
# High freq. dielectric constant tensor:
#      x y z
#    x 1.745280 0.000000 0.000000 
#    y 0.000000 1.788980 0.000000 
#    z 0.000000 0.000000 1.802800 
# 
# From -- ./inp_files/2908.got.cif
#   From: 2010.03.12/outbox.cif.g09.slc.cpg/sg61_2_cif.got.tgz:2908.got - 2010.04.10 19:05:03.
