data_PCOD8249826
_publ_section_title
;
Structure prediction by ZEFSAII (Michael W. Deem and Ramdas Pophale) SiO2 
 PCOD8249826
Probable space group: P B C A
;
_chemical_formula_sum "Si O2"
_cell_formula_units_Z 40
_cell_length_a 14.944981
_cell_length_b 8.444606
_cell_length_c 13.382721
_cell_angle_alpha 90.000000
_cell_angle_beta 90.000000
_cell_angle_gamma 90.000000
_cell_volume 1688.959294
_symmetry_space_group_name_H-M "P B C A"
_symmetry_group_IT_number 61
_symmetry_cell_setting 'orthorhombic'
loop_
_space_group_symop_operation_xyz
x,y,z
1/2-x,-y,1/2+z
1/2+x,1/2-y,-z
-x,1/2+y,1/2-z
-x,-y,-z
1/2+x,y,1/2-z
1/2-x,1/2+y,z
x,1/2-y,1/2+z
loop_
_atom_site_type_symbol
_atom_site_label
_atom_site_fract_x
_atom_site_fract_y
_atom_site_fract_z
Si Si1 0.684118 0.202137 0.972318
Si Si2 0.569919 0.767172 0.258420
Si Si3 0.715411 0.515348 0.286734
Si Si4 0.303365 0.411754 0.399579
Si Si5 0.591714 0.097805 0.335040
O O1 0.600328 0.320117 0.945303
O O2 0.716446 0.117903 0.870883
O O3 0.768616 0.305075 0.009181
O O4 0.656911 0.075299 0.056022
O O5 0.630025 0.627074 0.303601
O O6 0.614539 0.827896 0.155913
O O7 0.471896 0.701933 0.235413
O O8 0.560741 0.913643 0.336820
O O9 0.718713 0.439244 0.175296
O O10 0.808382 0.612275 0.290256
#
# Coordination Sequence:
#
# PCOD8249826 Si02
#       5
#     8   8   8   8   8
#     4  12  24  43  75 105 141 192 241 289 364 428
#     4  11  25  48  73 108 144 189 242 298 355 429
#     4  11  24  47  76 101 147 192 238 301 359 424
#     4  11  25  43  71 108 142 189 241 290 361 427
#     4  11  24  43  73 104 138 192 235 293 358 419
#
# _framework density 23.683222000000001
#
# number of rings (size 3 to 8) (size 9 to 14) (size 15 to 20)
#    0.000    0.800    4.000    3.600    2.800    0.800 
#    0.000    4.000    0.000    0.000    0.000    0.000 
#    0.000    0.000    0.000    0.000    0.000    0.000 
#
# Total GULP energy -495776.302336 kJ/mol
# GULP energy per Si atom -12394.407558 kJ/mol
# Density = 2.362932 g / cm^3
# Si number density = 23.683222 Si / 1000 Ang^3
#
#
#
# Elastic Constant Matrix: (Units=GPa)
#
#
# Indices 1 2 3 4 5 6 
#
# 1 66.7255 30.6788 3.5975 0.0000 0.0000 0.0000
# 2 30.6788 143.8600 57.5256 0.0000 0.0000 0.0000
# 3 3.5975 57.5256 94.6357 0.0000 0.0000 0.0000
# 4 0.0000 0.0000 0.0000 53.4729 0.0000 0.0000
# 5 0.0000 0.0000 0.0000 0.0000 30.3525 0.0000
# 6 0.0000 0.0000 0.0000 0.0000 0.0000 43.0730
#
#
#
# Elastic Compliance Matrix: (Units=1/GPa)
#
#
# Indices 1 2 3 4 5 6 
#
# 1 0.016911 -0.004425 0.002047 0.000000 0.000000 0.000000
# 2 -0.004425 0.010341 -0.006118 0.000000 0.000000 0.000000
# 3 0.002047 -0.006118 0.014208 0.000000 0.000000 0.000000
# 4 0.000000 0.000000 0.000000 0.018701 0.000000 0.000000
# 5 0.000000 0.000000 0.000000 0.000000 0.032946 0.000000
# 6 0.000000 0.000000 0.000000 0.000000 0.000000 0.023216
#
#
# Mechanical properties :
#
#
# Convention : Reuss Voigt Hill
#
# Bulk Modulus (GPa) = 40.86930 54.31390 47.59160
# Shear Modulus (GPa) = 35.34289 39.60761 37.47525
#
# Velocity S-wave (km/s) = 3.86724 4.09392 3.98220
# Velocity P-wave (km/s) = 6.10204 6.73277 6.42515
#
# Compressibility (1/GPa) = 0.02446825
#
# Stress axis : x y z
#
# Youngs Moduli (GPa) = 59.13370 96.70110 70.38380
#
# Poissons Ratio (x) = 0.42788 -0.14406
# Poissons Ratio (y) = 0.26165 0.43059
# Poissons Ratio (z) = -0.12103 0.59160
#
# Static dielectric constant tensor:
#      x y z
#    x 3.961310 0.000000 0.000000 
#    y 0.000000 4.813100 0.000000 
#    z 0.000000 0.000000 4.443290 
# 
# 
# High freq. dielectric constant tensor:
#      x y z
#    x 1.905780 0.000000 0.000000 
#    y 0.000000 1.971080 0.000000 
#    z 0.000000 0.000000 1.930700 
# 
# From -- ./inp_files/7719.got.cif
#   From: 2010.03.12/outbox.cif.g09.slc.cpg/sg61_4_cif.got.tgz:7719.got - 2010.04.10 19:05:03.
