data_PCOD8249236
_publ_section_title
;
Structure prediction by ZEFSAII (Michael W. Deem and Ramdas Pophale) SiO2 
 PCOD8249236
Probable space group: P B C A
;
_chemical_formula_sum "Si O2"
_cell_formula_units_Z 56
_cell_length_a 22.851915
_cell_length_b 13.061293
_cell_length_c 9.490374
_cell_angle_alpha 90.000000
_cell_angle_beta 90.000000
_cell_angle_gamma 90.000000
_cell_volume 2832.644670
_symmetry_space_group_name_H-M "P B C A"
_symmetry_group_IT_number 61
_symmetry_cell_setting 'orthorhombic'
loop_
_space_group_symop_operation_xyz
x,y,z
1/2-x,-y,1/2+z
1/2+x,1/2-y,-z
-x,1/2+y,1/2-z
-x,-y,-z
1/2+x,y,1/2-z
1/2-x,1/2+y,z
x,1/2-y,1/2+z
loop_
_atom_site_type_symbol
_atom_site_label
_atom_site_fract_x
_atom_site_fract_y
_atom_site_fract_z
Si Si1 0.344570 0.422072 0.272645
Si Si2 0.191311 0.921669 0.960518
Si Si3 0.722079 0.131033 0.639788
Si Si4 0.303666 0.686771 0.550024
Si Si5 0.907988 0.269747 0.639986
Si Si6 0.411913 0.938339 0.967047
Si Si7 0.537489 0.862661 0.900321
O O1 0.291066 0.393705 0.377807
O O2 0.386354 0.323814 0.263865
O O3 0.380737 0.518684 0.328192
O O4 0.322877 0.453614 0.119513
O O5 0.147161 0.838277 0.901566
O O6 0.187777 0.022775 0.863519
O O7 0.257301 0.878211 0.958262
O O8 0.712858 0.190775 0.785842
O O9 0.698478 0.198196 0.509875
O O10 0.368471 0.640284 0.542768
O O11 0.940658 0.228346 0.501852
O O12 0.952287 0.334184 0.737250
O O13 0.468736 0.875504 0.922091
O O14 0.427923 0.032035 0.070384
#
# Coordination Sequence:
#
# PCOD8249236 Si02
#       7
#     8   8   8   8   8   8   8
#     4  10  21  39  64  92 124 164 202 262 313 382
#     4  11  22  39  64  96 128 163 207 260 324 377
#     4  11  24  37  61  97 126 169 202 253 326 380
#     4  11  24  39  62  93 130 166 203 264 318 381
#     4  11  20  41  65  95 119 163 212 260 307 385
#     4  10  22  43  62  89 126 169 210 261 311 374
#     4  10  23  40  69  87 121 169 217 254 313 365
#
# _framework density 19.769511000000001
#
# number of rings (size 3 to 8) (size 9 to 14) (size 15 to 20)
#    0.000    1.429    4.286    0.857    2.000    1.143 
#    0.000    2.143    0.000    0.000    0.000    0.000 
#    0.000    0.000    0.000    0.000    0.000    0.000 
#
# Total GULP energy -694562.131691 kJ/mol
# GULP energy per Si atom -12402.895209 kJ/mol
# Density = 1.972451 g / cm^3
# Si number density = 19.769511 Si / 1000 Ang^3
#
#
#
# Elastic Constant Matrix: (Units=GPa)
#
#
# Indices 1 2 3 4 5 6 
#
# 1 118.2685 30.0323 29.7792 0.0000 0.0000 0.0000
# 2 30.0323 71.6846 29.3455 0.0000 0.0000 0.0000
# 3 29.7792 29.3455 67.4067 0.0000 0.0000 0.0000
# 4 0.0000 0.0000 0.0000 25.6407 0.0000 0.0000
# 5 0.0000 0.0000 0.0000 0.0000 26.1560 0.0000
# 6 0.0000 0.0000 0.0000 0.0000 0.0000 38.0728
#
#
#
# Elastic Compliance Matrix: (Units=1/GPa)
#
#
# Indices 1 2 3 4 5 6 
#
# 1 0.009983 -0.002892 -0.003151 0.000000 0.000000 0.000000
# 2 -0.002892 0.017813 -0.006477 0.000000 0.000000 0.000000
# 3 -0.003151 -0.006477 0.019047 0.000000 0.000000 0.000000
# 4 0.000000 0.000000 0.000000 0.039001 0.000000 0.000000
# 5 0.000000 0.000000 0.000000 0.000000 0.038232 0.000000
# 6 0.000000 0.000000 0.000000 0.000000 0.000000 0.026265
#
#
# Mechanical properties :
#
#
# Convention : Reuss Voigt Hill
#
# Bulk Modulus (GPa) = 45.86694 48.40819 47.13756
# Shear Modulus (GPa) = 27.37455 29.18740 28.28097
#
# Velocity S-wave (km/s) = 3.72517 3.84654 3.78634
# Velocity P-wave (km/s) = 6.46172 6.65337 6.55824
#
# Compressibility (1/GPa) = 0.02180220
#
# Stress axis : x y z
#
# Youngs Moduli (GPa) = 100.16737 56.13758 52.50083
#
# Poissons Ratio (x) = 0.16238 0.16544
# Poissons Ratio (y) = 0.28973 0.34006
# Poissons Ratio (z) = 0.31565 0.36361
#
# Static dielectric constant tensor:
#      x y z
#    x 3.606530 0.000000 0.000000 
#    y 0.000000 3.549690 0.000000 
#    z 0.000000 0.000000 3.414560 
# 
# 
# High freq. dielectric constant tensor:
#      x y z
#    x 1.768640 0.000000 0.000000 
#    y 0.000000 1.773850 0.000000 
#    z 0.000000 0.000000 1.763030 
# 
# From -- ./inp_files/3956.got.cif
#   From: 2010.03.12/outbox.cif.g09.slc.cpg/sg61_2_cif.got.tgz:3956.got - 2010.04.10 19:05:03.
