data_PCOD8249540
_publ_section_title
;
Structure prediction by ZEFSAII (Michael W. Deem and Ramdas Pophale) SiO2 
 PCOD8249540
Probable space group: P B C A
;
_chemical_formula_sum "Si O2"
_cell_formula_units_Z 64
_cell_length_a 28.225786
_cell_length_b 5.150505
_cell_length_c 17.916638
_cell_angle_alpha 90.000000
_cell_angle_beta 90.000000
_cell_angle_gamma 90.000000
_cell_volume 2604.668013
_symmetry_space_group_name_H-M "P B C A"
_symmetry_group_IT_number 61
_symmetry_cell_setting 'orthorhombic'
loop_
_space_group_symop_operation_xyz
x,y,z
1/2-x,-y,1/2+z
1/2+x,1/2-y,-z
-x,1/2+y,1/2-z
-x,-y,-z
1/2+x,y,1/2-z
1/2-x,1/2+y,z
x,1/2-y,1/2+z
loop_
_atom_site_type_symbol
_atom_site_label
_atom_site_fract_x
_atom_site_fract_y
_atom_site_fract_z
Si Si1 0.931737 0.386353 0.760315
Si Si2 0.646229 0.190966 0.672494
Si Si3 0.576522 0.068277 0.067415
Si Si4 0.780233 0.119326 0.913369
Si Si5 0.857333 0.515350 0.307178
Si Si6 0.977874 0.069590 0.117004
Si Si7 0.219683 0.878381 0.915812
Si Si8 0.072696 0.315992 0.099045
O O1 0.899452 0.589449 0.715994
O O2 0.978108 0.376598 0.707079
O O3 0.947787 0.470358 0.843078
O O4 0.902325 0.122340 0.768606
O O5 0.627589 0.376889 0.605787
O O6 0.672567 0.353241 0.738632
O O7 0.677174 0.954393 0.639803
O O8 0.537996 0.284228 0.090890
O O9 0.558672 0.780554 0.084709
O O10 0.585674 0.060402 0.979413
O O11 0.758417 0.837796 0.897401
O O12 0.822879 0.171005 0.854897
O O13 0.798521 0.117649 0.998844
O O14 0.877921 0.715596 0.367685
O O15 0.031548 0.100699 0.088009
O O16 0.261585 0.087966 0.900023
#
# Coordination Sequence:
#
# PCOD8249540 Si02
#       8
#     8   8   8   8   8   8   8   8
#     4  10  25  42  64  97 136 178 225 276 334 404
#     4  10  23  43  63  93 134 173 217 275 332 396
#     4  11  24  45  66  99 132 180 227 284 329 400
#     4  10  24  45  68  96 132 167 214 276 333 397
#     4  11  24  43  64  99 132 178 224 269 338 406
#     4  11  25  44  68  96 139 177 228 283 334 397
#     4  10  23  42  67  97 125 166 216 269 335 400
#     4  11  26  40  70  98 134 180 230 277 342 394
#
# _framework density 24.571268
#
# number of rings (size 3 to 8) (size 9 to 14) (size 15 to 20)
#    0.000    1.500    1.250    1.500   10.500    1.000 
#    2.250    0.000    0.000    0.000    0.000    0.000 
#    0.000    0.000    0.000    0.000    0.000    0.000 
#
# Total GULP energy -793404.677447 kJ/mol
# GULP energy per Si atom -12396.948085 kJ/mol
# Density = 2.451534 g / cm^3
# Si number density = 24.571268 Si / 1000 Ang^3
#
#
#
# Elastic Constant Matrix: (Units=GPa)
#
#
# Indices 1 2 3 4 5 6 
#
# 1 35.0308 -26.5002 2.1438 0.0000 0.0000 0.0000
# 2 -26.5002 48.6089 -1.6852 0.0000 0.0000 0.0000
# 3 2.1438 -1.6852 136.9225 0.0000 0.0000 0.0000
# 4 0.0000 0.0000 0.0000 32.9294 0.0000 0.0000
# 5 0.0000 0.0000 0.0000 0.0000 31.0712 0.0000
# 6 0.0000 0.0000 0.0000 0.0000 0.0000 17.8483
#
#
#
# Elastic Compliance Matrix: (Units=1/GPa)
#
#
# Indices 1 2 3 4 5 6 
#
# 1 0.048608 0.026485 -0.000435 0.000000 0.000000 0.000000
# 2 0.026485 0.035012 0.000016 0.000000 0.000000 0.000000
# 3 -0.000435 0.000016 0.007310 0.000000 0.000000 0.000000
# 4 0.000000 0.000000 0.000000 0.030368 0.000000 0.000000
# 5 0.000000 0.000000 0.000000 0.000000 0.032184 0.000000
# 6 0.000000 0.000000 0.000000 0.000000 0.000000 0.056028
#
#
# Mechanical properties :
#
#
# Convention : Reuss Voigt Hill
#
# Bulk Modulus (GPa) = 6.98999 18.71988 12.85494
# Shear Modulus (GPa) = 24.38244 32.81003 28.59623
#
# Velocity S-wave (km/s) = 3.15352 3.65814 3.41516
# Velocity P-wave (km/s) = 4.01379 5.04755 4.56006
#
# Compressibility (1/GPa) = 0.14306176
#
# Stress axis : x y z
#
# Youngs Moduli (GPa) = 20.57271 28.56197 136.79116
#
# Poissons Ratio (x) = -0.75645 0.05952
# Poissons Ratio (y) = -0.54486 -0.00222
# Poissons Ratio (z) = 0.00895 -0.00046
#
# Static dielectric constant tensor:
#      x y z
#    x 3.995410 0.000000 0.000000 
#    y 0.000000 4.315960 0.000000 
#    z 0.000000 0.000000 4.892640 
# 
# 
# High freq. dielectric constant tensor:
#      x y z
#    x 1.952660 0.000000 0.000000 
#    y 0.000000 1.976350 0.000000 
#    z 0.000000 0.000000 1.997450 
# 
# From -- ./inp_files/9908.got.cif
#   From: 2010.03.12/outbox.cif.g09.slc.cpg/sg61_5_cif.got.tgz:9908.got - 2010.04.10 19:05:03.
