data_PCOD8249869
_publ_section_title
;
Structure prediction by ZEFSAII (Michael W. Deem and Ramdas Pophale) SiO2 
 PCOD8249869
Probable space group: P B C A
;
_chemical_formula_sum "Si O2"
_cell_formula_units_Z 48
_cell_length_a 8.413107
_cell_length_b 9.281126
_cell_length_c 26.173537
_cell_angle_alpha 90.000000
_cell_angle_beta 90.000000
_cell_angle_gamma 90.000000
_cell_volume 2043.711067
_symmetry_space_group_name_H-M "P B C A"
_symmetry_group_IT_number 61
_symmetry_cell_setting 'orthorhombic'
loop_
_space_group_symop_operation_xyz
x,y,z
1/2-x,-y,1/2+z
1/2+x,1/2-y,-z
-x,1/2+y,1/2-z
-x,-y,-z
1/2+x,y,1/2-z
1/2-x,1/2+y,z
x,1/2-y,1/2+z
loop_
_atom_site_type_symbol
_atom_site_label
_atom_site_fract_x
_atom_site_fract_y
_atom_site_fract_z
Si Si1 0.095584 0.613851 0.154843
Si Si2 0.418007 0.599164 0.205015
Si Si3 0.577330 0.903377 0.457614
Si Si4 0.398630 0.623903 0.852878
Si Si5 0.890857 0.080900 0.458861
Si Si6 0.913811 0.384399 0.207297
O O1 0.279758 0.650092 0.165986
O O2 0.033094 0.596424 0.096800
O O3 0.993529 0.748248 0.175333
O O4 0.062479 0.466064 0.183223
O O5 0.553087 0.526456 0.171478
O O6 0.347309 0.489100 0.247753
O O7 0.509905 0.736810 0.229434
O O8 0.445642 0.885821 0.412825
O O9 0.634089 0.745874 0.478530
O O10 0.500000 0.000000 0.500000
O O11 0.734165 0.991819 0.443508
O O12 0.213689 0.645045 0.838085
O O13 0.000000 0.000000 0.500000
#
# Coordination Sequence:
#
# PCOD8249869 Si02
#       6
#     8   8   8   8   8   8
#     4  11  25  46  71 105 145 193 244 307 375 446
#     4  12  25  47  73 103 148 193 250 309 373 448
#     4  11  25  47  74 109 151 188 251 312 381 455
#     4  11  25  46  70 109 145 192 247 308 379 449
#     4  11  25  46  75 107 147 196 247 308 382 451
#     4  12  27  44  75 105 145 195 253 309 376 454
#
# _framework density 23.486685000000001
#
# number of rings (size 3 to 8) (size 9 to 14) (size 15 to 20)
#    0.000    0.667    1.667    5.000    4.667    5.333 
#    0.000    1.667    0.000    0.000    0.000    0.000 
#    0.000    0.000    0.000    0.000    0.000    0.000 
#
# Total GULP energy -594641.220324 kJ/mol
# GULP energy per Si atom -12388.358757 kJ/mol
# Density = 2.343323 g / cm^3
# Si number density = 23.486685 Si / 1000 Ang^3
#
#
#
# Elastic Constant Matrix: (Units=GPa)
#
#
# Indices 1 2 3 4 5 6 
#
# 1 102.5017 44.0279 38.0281 0.0000 0.0000 0.0000
# 2 44.0279 184.8958 48.0470 0.0000 0.0000 0.0000
# 3 38.0281 48.0470 115.9352 0.0000 0.0000 0.0000
# 4 0.0000 0.0000 0.0000 35.2290 0.0000 0.0000
# 5 0.0000 0.0000 0.0000 0.0000 34.7134 0.0000
# 6 0.0000 0.0000 0.0000 0.0000 0.0000 42.8183
#
#
#
# Elastic Compliance Matrix: (Units=1/GPa)
#
#
# Indices 1 2 3 4 5 6 
#
# 1 0.011739 -0.002011 -0.003017 0.000000 0.000000 0.000000
# 2 -0.002011 0.006406 -0.001995 0.000000 0.000000 0.000000
# 3 -0.003017 -0.001995 0.010442 0.000000 0.000000 0.000000
# 4 0.000000 0.000000 0.000000 0.028386 0.000000 0.000000
# 5 0.000000 0.000000 0.000000 0.000000 0.028807 0.000000
# 6 0.000000 0.000000 0.000000 0.000000 0.000000 0.023354
#
#
# Mechanical properties :
#
#
# Convention : Reuss Voigt Hill
#
# Bulk Modulus (GPa) = 68.77513 73.72651 71.25082
# Shear Modulus (GPa) = 39.05396 40.76745 39.91070
#
# Velocity S-wave (km/s) = 4.08218 4.17078 4.12672
# Velocity P-wave (km/s) = 7.18089 7.39275 7.28759
#
# Compressibility (1/GPa) = 0.01454014
#
# Stress axis : x y z
#
# Youngs Moduli (GPa) = 85.18471 156.10782 95.76784
#
# Poissons Ratio (x) = 0.31399 0.28893
# Poissons Ratio (y) = 0.17134 0.19106
# Poissons Ratio (z) = 0.25700 0.31144
#
# Static dielectric constant tensor:
#      x y z
#    x 3.799960 0.000000 0.000000 
#    y 0.000000 4.077680 0.000000 
#    z 0.000000 0.000000 4.198280 
# 
# 
# High freq. dielectric constant tensor:
#      x y z
#    x 1.919150 0.000000 0.000000 
#    y 0.000000 1.955780 0.000000 
#    z 0.000000 0.000000 1.928000 
# 
# From -- ./inp_files/11691.got.cif
#   From: 2010.03.12/outbox.cif.g09.slc.cpg/sg61_6_cif.got.tgz:11691.got - 2010.04.10 19:05:03.
