data_PCOD8249749
_publ_section_title
;
Structure prediction by ZEFSAII (Michael W. Deem and Ramdas Pophale) SiO2 
 PCOD8249749
Probable space group: P B C A
;
_chemical_formula_sum "Si O2"
_cell_formula_units_Z 64
_cell_length_a 9.008173
_cell_length_b 28.906930
_cell_length_c 11.308330
_cell_angle_alpha 90.000000
_cell_angle_beta 90.000000
_cell_angle_gamma 90.000000
_cell_volume 2944.673598
_symmetry_space_group_name_H-M "P B C A"
_symmetry_group_IT_number 61
_symmetry_cell_setting 'orthorhombic'
loop_
_space_group_symop_operation_xyz
x,y,z
1/2-x,-y,1/2+z
1/2+x,1/2-y,-z
-x,1/2+y,1/2-z
-x,-y,-z
1/2+x,y,1/2-z
1/2-x,1/2+y,z
x,1/2-y,1/2+z
loop_
_atom_site_type_symbol
_atom_site_label
_atom_site_fract_x
_atom_site_fract_y
_atom_site_fract_z
Si Si1 0.839689 0.319101 0.849392
Si Si2 0.941352 0.436193 0.412813
Si Si3 0.340016 0.788543 0.859873
Si Si4 0.319822 0.879875 0.001290
Si Si5 0.858032 0.960954 0.881122
Si Si6 0.481173 0.858967 0.238042
Si Si7 0.748663 0.687772 0.607044
Si Si8 0.052378 0.916381 0.676212
O O1 0.710862 0.294402 0.775918
O O2 0.885235 0.366474 0.782977
O O3 0.981384 0.285136 0.861995
O O4 0.778117 0.333520 0.977732
O O5 0.091908 0.444237 0.488060
O O6 0.967203 0.407390 0.293421
O O7 0.828191 0.410191 0.500338
O O8 0.872093 0.484181 0.369776
O O9 0.260928 0.742920 0.909599
O O10 0.285325 0.831214 0.938859
O O11 0.365764 0.869843 0.135212
O O12 0.447342 0.909036 0.936808
O O13 0.686044 0.949696 0.861346
O O14 0.960228 0.937441 0.782917
O O15 0.403256 0.830259 0.342089
O O16 0.615186 0.827305 0.192240
#
# Coordination Sequence:
#
# PCOD8249749 Si02
#       8
#     8   8   8   8   8   8   8   8
#     4  11  24  44  68 100 134 183 224 289 351 401
#     4  11  26  45  69 102 141 183 232 286 360 413
#     4  11  25  42  70  98 137 176 238 284 338 412
#     4  11  25  46  68  97 143 185 227 286 353 413
#     4  11  25  43  72 106 132 181 239 290 342 433
#     4  12  25  47  67 101 144 185 225 290 355 420
#     4  12  26  44  71 100 141 184 236 287 346 421
#     4  11  22  45  70  98 139 177 234 285 351 412
#
# _framework density 21.734155999999999
#
# number of rings (size 3 to 8) (size 9 to 14) (size 15 to 20)
#    0.000    0.750    3.750    4.500    3.500    3.500 
#    2.250    0.000    0.000    0.000    0.000    0.000 
#    0.000    0.000    0.000    0.000    0.000    0.000 
#
# Total GULP energy -793956.206969 kJ/mol
# GULP energy per Si atom -12405.565734 kJ/mol
# Density = 2.168469 g / cm^3
# Si number density = 21.734156 Si / 1000 Ang^3
#
#
#
# Elastic Constant Matrix: (Units=GPa)
#
#
# Indices 1 2 3 4 5 6 
#
# 1 61.5623 39.6120 28.7708 0.0000 0.0000 0.0000
# 2 39.6120 134.2749 47.6492 0.0000 0.0000 0.0000
# 3 28.7708 47.6492 98.5782 0.0000 0.0000 0.0000
# 4 0.0000 0.0000 0.0000 30.7495 0.0000 0.0000
# 5 0.0000 0.0000 0.0000 0.0000 42.5324 0.0000
# 6 0.0000 0.0000 0.0000 0.0000 0.0000 36.1853
#
#
#
# Elastic Compliance Matrix: (Units=1/GPa)
#
#
# Indices 1 2 3 4 5 6 
#
# 1 0.021175 -0.004893 -0.003815 0.000000 0.000000 0.000000
# 2 -0.004893 0.010120 -0.003464 0.000000 0.000000 0.000000
# 3 -0.003815 -0.003464 0.012932 0.000000 0.000000 0.000000
# 4 0.000000 0.000000 0.000000 0.032521 0.000000 0.000000
# 5 0.000000 0.000000 0.000000 0.000000 0.023512 0.000000
# 6 0.000000 0.000000 0.000000 0.000000 0.000000 0.027636
#
#
# Mechanical properties :
#
#
# Convention : Reuss Voigt Hill
#
# Bulk Modulus (GPa) = 50.29245 58.49772 54.39508
# Shear Modulus (GPa) = 31.47313 33.78566 32.62940
#
# Velocity S-wave (km/s) = 3.80951 3.94699 3.87886
# Velocity P-wave (km/s) = 6.52226 6.90979 6.71882
#
# Compressibility (1/GPa) = 0.01988370
#
# Stress axis : x y z
#
# Youngs Moduli (GPa) = 47.22553 98.81454 77.32849
#
# Poissons Ratio (x) = 0.48350 0.29501
# Poissons Ratio (y) = 0.23107 0.26783
# Poissons Ratio (z) = 0.18017 0.34225
#
# Static dielectric constant tensor:
#      x y z
#    x 4.023260 0.000000 0.000000 
#    y 0.000000 3.976710 0.000000 
#    z 0.000000 0.000000 3.893280 
# 
# 
# High freq. dielectric constant tensor:
#      x y z
#    x 1.861990 0.000000 0.000000 
#    y 0.000000 1.857380 0.000000 
#    z 0.000000 0.000000 1.860340 
# 
# From -- ./inp_files/4954.got.cif
#   From: 2010.03.12/outbox.cif.g09.slc.cpg/sg61_3_cif.got.tgz:4954.got - 2010.04.10 19:05:03.
