data_PCOD8249333
_publ_section_title
;
Structure prediction by ZEFSAII (Michael W. Deem and Ramdas Pophale) SiO2 
 PCOD8249333
Probable space group: P B C A
;
_chemical_formula_sum "Si O2"
_cell_formula_units_Z 48
_cell_length_a 16.967649
_cell_length_b 14.352325
_cell_length_c 8.859334
_cell_angle_alpha 90.000000
_cell_angle_beta 90.000000
_cell_angle_gamma 90.000000
_cell_volume 2157.471199
_symmetry_space_group_name_H-M "P B C A"
_symmetry_group_IT_number 61
_symmetry_cell_setting 'orthorhombic'
loop_
_space_group_symop_operation_xyz
x,y,z
1/2-x,-y,1/2+z
1/2+x,1/2-y,-z
-x,1/2+y,1/2-z
-x,-y,-z
1/2+x,y,1/2-z
1/2-x,1/2+y,z
x,1/2-y,1/2+z
loop_
_atom_site_type_symbol
_atom_site_label
_atom_site_fract_x
_atom_site_fract_y
_atom_site_fract_z
Si Si1 0.411640 0.266933 0.854532
Si Si2 0.646996 0.347728 0.490570
Si Si3 0.124167 0.029492 0.236364
Si Si4 0.183099 0.835332 0.120719
Si Si5 0.496206 0.595143 0.687503
Si Si6 0.442719 0.660001 0.010551
O O1 0.359562 0.251557 0.704733
O O2 0.443810 0.163979 0.903531
O O3 0.494546 0.323683 0.851468
O O4 0.353180 0.327072 0.956161
O O5 0.669244 0.405764 0.641599
O O6 0.723264 0.323041 0.391207
O O7 0.589375 0.410978 0.387419
O O8 0.605729 0.251534 0.535808
O O9 0.116635 0.082551 0.076003
O O10 0.170141 0.933920 0.203432
O O11 0.037515 0.005902 0.306522
O O12 0.489753 0.629396 0.861782
#
# Coordination Sequence:
#
# PCOD8249333 Si02
#       6
#     8   8   8   8   8   8
#     4  10  21  43  67  98 133 177 229 274 343 409
#     4  11  25  43  67 102 141 179 226 287 350 408
#     4  11  24  45  67 102 135 177 237 279 340 414
#     4  11  26  44  68 102 139 183 223 289 351 409
#     4  10  22  42  67 101 129 180 231 281 337 407
#     4  11  22  43  72 100 132 184 233 281 337 415
#
# _framework density 22.248269000000001
#
# number of rings (size 3 to 8) (size 9 to 14) (size 15 to 20)
#    0.000    1.333    3.333    3.000    7.000    1.333 
#    3.000    0.000    0.000    0.000    0.000    0.000 
#    0.000    0.000    0.000    0.000    0.000    0.000 
#
# Total GULP energy -594651.008569 kJ/mol
# GULP energy per Si atom -12388.562679 kJ/mol
# Density = 2.219763 g / cm^3
# Si number density = 22.248269 Si / 1000 Ang^3
#
#
#
# Elastic Constant Matrix: (Units=GPa)
#
#
# Indices 1 2 3 4 5 6 
#
# 1 103.4220 15.8049 27.2693 0.0000 0.0000 0.0000
# 2 15.8049 61.1192 32.1281 0.0000 0.0000 0.0000
# 3 27.2693 32.1281 57.0086 0.0000 0.0000 0.0000
# 4 0.0000 0.0000 0.0000 45.5974 0.0000 0.0000
# 5 0.0000 0.0000 0.0000 0.0000 32.5058 0.0000
# 6 0.0000 0.0000 0.0000 0.0000 0.0000 22.4098
#
#
#
# Elastic Compliance Matrix: (Units=1/GPa)
#
#
# Indices 1 2 3 4 5 6 
#
# 1 0.011065 -0.000112 -0.005230 0.000000 0.000000 0.000000
# 2 -0.000112 0.023250 -0.013049 0.000000 0.000000 0.000000
# 3 -0.005230 -0.013049 0.027397 0.000000 0.000000 0.000000
# 4 0.000000 0.000000 0.000000 0.021931 0.000000 0.000000
# 5 0.000000 0.000000 0.000000 0.000000 0.030764 0.000000
# 6 0.000000 0.000000 0.000000 0.000000 0.000000 0.044623
#
#
# Mechanical properties :
#
#
# Convention : Reuss Voigt Hill
#
# Bulk Modulus (GPa) = 40.11271 41.32829 40.72050
# Shear Modulus (GPa) = 24.49515 29.85910 27.17712
#
# Velocity S-wave (km/s) = 3.32172 3.66742 3.49884
# Velocity P-wave (km/s) = 5.72542 6.04563 5.88770
#
# Compressibility (1/GPa) = 0.02492976
#
# Stress axis : x y z
#
# Youngs Moduli (GPa) = 90.37367 43.01083 36.50070
#
# Poissons Ratio (x) = 0.00483 0.19088
# Poissons Ratio (y) = 0.01016 0.47630
# Poissons Ratio (z) = 0.47261 0.56125
#
# Static dielectric constant tensor:
#      x y z
#    x 3.988310 0.000000 0.000000 
#    y 0.000000 3.921350 0.000000 
#    z 0.000000 0.000000 3.869890 
# 
# 
# High freq. dielectric constant tensor:
#      x y z
#    x 1.870680 0.000000 0.000000 
#    y 0.000000 1.871930 0.000000 
#    z 0.000000 0.000000 1.864170 
# 
# From -- ./inp_files/3473.got.cif
#   From: 2010.03.12/outbox.cif.g09.slc.cpg/sg61_2_cif.got.tgz:3473.got - 2010.04.10 19:05:03.
