data_PCOD8249716
_publ_section_title
;
Structure prediction by ZEFSAII (Michael W. Deem and Ramdas Pophale) SiO2 
 PCOD8249716
Probable space group: P B C A
;
_chemical_formula_sum "Si O2"
_cell_formula_units_Z 64
_cell_length_a 14.992107
_cell_length_b 8.301863
_cell_length_c 23.342395
_cell_angle_alpha 90.000000
_cell_angle_beta 90.000000
_cell_angle_gamma 90.000000
_cell_volume 2905.250933
_symmetry_space_group_name_H-M "P B C A"
_symmetry_group_IT_number 61
_symmetry_cell_setting 'orthorhombic'
loop_
_space_group_symop_operation_xyz
x,y,z
1/2-x,-y,1/2+z
1/2+x,1/2-y,-z
-x,1/2+y,1/2-z
-x,-y,-z
1/2+x,y,1/2-z
1/2-x,1/2+y,z
x,1/2-y,1/2+z
loop_
_atom_site_type_symbol
_atom_site_label
_atom_site_fract_x
_atom_site_fract_y
_atom_site_fract_z
Si Si1 0.078120 0.619071 0.982774
Si Si2 0.166776 0.260372 0.627165
Si Si3 0.137157 0.951915 0.846513
Si Si4 0.507973 0.422168 0.935737
Si Si5 0.823956 0.084137 0.624657
Si Si6 0.083814 0.346274 0.239697
Si Si7 0.144174 0.604851 0.100516
Si Si8 0.979429 0.907645 0.676306
O O1 0.129171 0.683902 0.038342
O O2 0.156266 0.553763 0.942368
O O3 0.000000 0.500000 0.000000
O O4 0.032268 0.747406 0.942251
O O5 0.106373 0.394282 0.592840
O O6 0.151463 0.242827 0.695874
O O7 0.268752 0.316274 0.627107
O O8 0.154540 0.088139 0.596332
O O9 0.153856 0.760226 0.848660
O O10 0.054245 0.008353 0.887452
O O11 0.220490 0.051130 0.869402
O O12 0.124736 0.015374 0.781069
O O13 0.500000 0.500000 0.000000
O O14 0.880882 0.939709 0.652719
O O15 0.027406 0.217506 0.273325
O O16 0.011513 0.420645 0.197853
O O17 0.054136 0.658525 0.132850
#
# Coordination Sequence:
#
# PCOD8249716 Si02
#       8
#     8   8   8   8   8   8   8   8
#     4  11  21  44  69  92 137 182 215 283 343 413
#     4  11  26  45  65 101 138 180 231 283 347 414
#     4  11  25  43  66 100 131 179 227 282 345 410
#     4  11  26  44  68 102 143 176 230 289 346 424
#     4  11  24  42  67 100 136 172 235 276 347 415
#     4  11  24  44  69  95 142 181 233 287 345 418
#     4  11  25  42  68 100 134 176 230 276 347 413
#     4  11  23  42  68  96 128 183 223 286 341 411
#
# _framework density 22.029078999999999
#
# number of rings (size 3 to 8) (size 9 to 14) (size 15 to 20)
#    0.000    1.000    2.500    4.500    5.250    8.000 
#    0.000    0.000    0.000    0.000    0.000    0.000 
#    0.000    0.000    0.000    0.000    0.000    0.000 
#
# Total GULP energy -792918.806879 kJ/mol
# GULP energy per Si atom -12389.356357 kJ/mol
# Density = 2.197894 g / cm^3
# Si number density = 22.029079 Si / 1000 Ang^3
#
#
#
# Elastic Constant Matrix: (Units=GPa)
#
#
# Indices 1 2 3 4 5 6 
#
# 1 103.4436 22.9905 32.0340 0.0000 0.0000 0.0000
# 2 22.9905 4.6638 -0.6009 0.0000 0.0000 0.0000
# 3 32.0340 -0.6009 126.2750 0.0000 0.0000 0.0000
# 4 0.0000 0.0000 0.0000 37.7950 0.0000 0.0000
# 5 0.0000 0.0000 0.0000 0.0000 29.7323 0.0000
# 6 0.0000 0.0000 0.0000 0.0000 0.0000 30.5081
#
#
#
# Elastic Compliance Matrix: (Units=1/GPa)
#
#
# Indices 1 2 3 4 5 6 
#
# 1 -0.051038 0.253415 0.014153 0.000000 0.000000 0.000000
# 2 0.253415 -1.043725 -0.069254 0.000000 0.000000 0.000000
# 3 0.014153 -0.069254 0.003999 0.000000 0.000000 0.000000
# 4 0.000000 0.000000 0.000000 0.026459 0.000000 0.000000
# 5 0.000000 0.000000 0.000000 0.000000 0.033633 0.000000
# 6 0.000000 0.000000 0.000000 0.000000 0.000000 0.032778
#
#
# Mechanical properties :
#
#
# Convention : Reuss Voigt Hill
#
# Bulk Modulus (GPa) = -1.44065 38.13663 18.34799
# Shear Modulus (GPa) = -3.07522 31.60432 14.26455
#
# Velocity S-wave (km/s) = -1.18280 3.79180 2.54743
# Velocity P-wave (km/s) = 1.58768 6.04317 4.12306
#
# Compressibility (1/GPa) = -0.69413335
#
# Stress axis : x y z
#
# Youngs Moduli (GPa) = -19.59333 -0.95811 250.04863
#
# Poissons Ratio (x) = 0.24280 -3.53902
# Poissons Ratio (y) = 4.96525 17.31684
# Poissons Ratio (z) = 0.27731 -0.06635
#
# Static dielectric constant tensor:
#      x y z
#    x 4.015400 0.000000 0.000000 
#    y 0.000000 3.998290 0.000000 
#    z 0.000000 0.000000 6.307870 
# 
# 
# High freq. dielectric constant tensor:
#      x y z
#    x 1.873180 0.000000 0.000000 
#    y 0.000000 1.861570 0.000000 
#    z 0.000000 0.000000 1.882620 
# 
# From -- ./inp_files/11091.got.cif
#   From: 2010.03.12/outbox.cif.g09.slc.cpg/sg61_6_cif.got.tgz:11091.got - 2010.04.10 19:05:03.
