data_PCOD8249456
_publ_section_title
;
Structure prediction by ZEFSAII (Michael W. Deem and Ramdas Pophale) SiO2 
 PCOD8249456
Probable space group: P B C A
;
_chemical_formula_sum "Si O2"
_cell_formula_units_Z 56
_cell_length_a 15.726981
_cell_length_b 11.763857
_cell_length_c 11.154041
_cell_angle_alpha 90.000000
_cell_angle_beta 90.000000
_cell_angle_gamma 90.000000
_cell_volume 2063.608629
_symmetry_space_group_name_H-M "P B C A"
_symmetry_group_IT_number 61
_symmetry_cell_setting 'orthorhombic'
loop_
_space_group_symop_operation_xyz
x,y,z
1/2-x,-y,1/2+z
1/2+x,1/2-y,-z
-x,1/2+y,1/2-z
-x,-y,-z
1/2+x,y,1/2-z
1/2-x,1/2+y,z
x,1/2-y,1/2+z
loop_
_atom_site_type_symbol
_atom_site_label
_atom_site_fract_x
_atom_site_fract_y
_atom_site_fract_z
Si Si1 0.652439 0.990752 0.983801
Si Si2 0.578477 0.246840 0.917240
Si Si3 0.926622 0.259172 0.919348
Si Si4 0.800743 0.652535 0.596180
Si Si5 0.605897 0.061187 0.239014
Si Si6 0.536280 0.398510 0.224461
Si Si7 0.273847 0.374120 0.166465
O O1 0.738581 0.929362 0.025095
O O2 0.605996 0.058027 0.093683
O O3 0.589861 0.895442 0.923902
O O4 0.685374 0.088954 0.893704
O O5 0.608133 0.313795 0.796343
O O6 0.561232 0.118772 0.865762
O O7 0.488209 0.285189 0.973499
O O8 0.659054 0.250928 0.009367
O O9 0.834400 0.197460 0.922955
O O10 0.978259 0.216155 0.802351
O O11 0.883120 0.580531 0.639179
O O12 0.751073 0.701083 0.714212
O O13 0.519201 0.009724 0.290882
O O14 0.684430 0.990121 0.288139
#
# Coordination Sequence:
#
# PCOD8249456 Si02
#       7
#     8   8   8   8   8   8   8
#     4  11  22  45  67 106 144 180 234 303 352 423
#     4  11  22  45  73 100 139 198 232 295 359 424
#     4  10  24  43  69  99 146 187 232 292 363 425
#     4  10  24  40  69  99 139 177 241 280 355 433
#     4  10  22  42  69 105 141 180 241 285 353 438
#     4  10  23  43  66 102 136 183 240 284 350 428
#     4  10  23  42  68 105 139 182 228 300 356 417
#
# _framework density 27.13693
#
# number of rings (size 3 to 8) (size 9 to 14) (size 15 to 20)
#    0.000    1.714    2.857    0.000    4.000    4.000 
#    5.143    1.429    0.000    0.000    0.000    0.000 
#    0.000    0.000    0.000    0.000    0.000    0.000 
#
# Total GULP energy -693760.188904 kJ/mol
# GULP energy per Si atom -12388.574802 kJ/mol
# Density = 2.707516 g / cm^3
# Si number density = 27.136930 Si / 1000 Ang^3
#
#
#
# Elastic Constant Matrix: (Units=GPa)
#
#
# Indices 1 2 3 4 5 6 
#
# 1 145.4475 14.4483 25.8409 0.0000 0.0000 0.0000
# 2 14.4483 72.0651 25.6364 0.0000 0.0000 0.0000
# 3 25.8409 25.6364 87.3612 0.0000 0.0000 0.0000
# 4 0.0000 0.0000 0.0000 15.3033 0.0000 0.0000
# 5 0.0000 0.0000 0.0000 0.0000 42.9000 0.0000
# 6 0.0000 0.0000 0.0000 0.0000 0.0000 17.7326
#
#
#
# Elastic Compliance Matrix: (Units=1/GPa)
#
#
# Indices 1 2 3 4 5 6 
#
# 1 0.007295 -0.000776 -0.001930 0.000000 0.000000 0.000000
# 2 -0.000776 0.015576 -0.004341 0.000000 0.000000 0.000000
# 3 -0.001930 -0.004341 0.013292 0.000000 0.000000 0.000000
# 4 0.000000 0.000000 0.000000 0.065346 0.000000 0.000000
# 5 0.000000 0.000000 0.000000 0.000000 0.023310 0.000000
# 6 0.000000 0.000000 0.000000 0.000000 0.000000 0.056393
#
#
# Mechanical properties :
#
#
# Convention : Reuss Voigt Hill
#
# Bulk Modulus (GPa) = 45.31411 48.52499 46.91955
# Shear Modulus (GPa) = 24.67145 31.11707 27.89426
#
# Velocity S-wave (km/s) = 3.01848 3.38992 3.20958
# Velocity P-wave (km/s) = 5.37428 5.76563 5.57339
#
# Compressibility (1/GPa) = 0.02206818
#
# Stress axis : x y z
#
# Youngs Moduli (GPa) = 137.07375 64.20007 75.23520
#
# Poissons Ratio (x) = 0.04982 0.14522
# Poissons Ratio (y) = 0.10637 0.32662
# Poissons Ratio (z) = 0.26458 0.27872
#
# Static dielectric constant tensor:
#      x y z
#    x 5.261960 0.000000 0.000000 
#    y 0.000000 4.687900 0.000000 
#    z 0.000000 0.000000 5.248900 
# 
# 
# High freq. dielectric constant tensor:
#      x y z
#    x 2.134730 0.000000 0.000000 
#    y 0.000000 2.073350 0.000000 
#    z 0.000000 0.000000 2.097110 
# 
# From -- ./inp_files/5793.got.cif
#   From: 2010.03.12/outbox.cif.g09.slc.cpg/sg61_3_cif.got.tgz:5793.got - 2010.04.10 19:05:03.
