data_PCOD8249830
_publ_section_title
;
Structure prediction by ZEFSAII (Michael W. Deem and Ramdas Pophale) SiO2 
 PCOD8249830
Probable space group: P B C A
;
_chemical_formula_sum "Si O2"
_cell_formula_units_Z 48
_cell_length_a 9.048017
_cell_length_b 8.670856
_cell_length_c 25.605779
_cell_angle_alpha 90.000000
_cell_angle_beta 90.000000
_cell_angle_gamma 90.000000
_cell_volume 2008.877130
_symmetry_space_group_name_H-M "P B C A"
_symmetry_group_IT_number 61
_symmetry_cell_setting 'orthorhombic'
loop_
_space_group_symop_operation_xyz
x,y,z
1/2-x,-y,1/2+z
1/2+x,1/2-y,-z
-x,1/2+y,1/2-z
-x,-y,-z
1/2+x,y,1/2-z
1/2-x,1/2+y,z
x,1/2-y,1/2+z
loop_
_atom_site_type_symbol
_atom_site_label
_atom_site_fract_x
_atom_site_fract_y
_atom_site_fract_z
Si Si1 0.143413 0.666909 0.913242
Si Si2 0.619999 0.354183 0.530656
Si Si3 0.544997 0.597930 0.226161
Si Si4 0.164985 0.577043 0.795107
Si Si5 0.169029 0.793665 0.062897
Si Si6 0.398123 0.604616 0.116223
O O1 0.295715 0.753544 0.925783
O O2 0.108451 0.533377 0.954523
O O3 0.153653 0.588572 0.856941
O O4 0.016808 0.795027 0.915290
O O5 0.454461 0.287431 0.527194
O O6 0.700474 0.348008 0.475155
O O7 0.448698 0.556251 0.276945
O O8 0.624014 0.762792 0.233505
O O9 0.668102 0.466197 0.219287
O O10 0.432546 0.601253 0.177428
O O11 0.235907 0.677721 0.106471
O O12 0.095293 0.934509 0.093087
#
# Coordination Sequence:
#
# PCOD8249830 Si02
#       6
#     8   8   8   8   8   8
#     4  11  24  45  69  99 135 181 225 277 337 396
#     4  12  25  43  70  98 135 178 226 278 335 400
#     4  11  25  45  71 102 137 178 224 276 333 398
#     4  11  24  44  69 101 137 176 224 276 335 395
#     4  12  26  45  68  99 135 177 225 278 335 402
#     4  11  26  46  69  99 135 176 224 275 335 399
#
# _framework density 23.893947000000001
#
# number of rings (size 3 to 8) (size 9 to 14) (size 15 to 20)
#    0.000    0.667    0.000    8.000    0.000   10.667 
#    0.000    1.667    0.000    0.000    0.000    0.000 
#    0.000    0.000    0.000    0.000    0.000    0.000 
#
# Total GULP energy -595557.567523 kJ/mol
# GULP energy per Si atom -12407.449323 kJ/mol
# Density = 2.383956 g / cm^3
# Si number density = 23.893947 Si / 1000 Ang^3
#
#
#
# Elastic Constant Matrix: (Units=GPa)
#
#
# Indices 1 2 3 4 5 6 
#
# 1 96.6615 22.6514 11.0609 0.0000 0.0000 0.0000
# 2 22.6514 118.2887 20.6071 0.0000 0.0000 0.0000
# 3 11.0609 20.6071 63.9330 0.0000 0.0000 0.0000
# 4 0.0000 0.0000 0.0000 43.4192 0.0000 0.0000
# 5 0.0000 0.0000 0.0000 0.0000 40.2725 0.0000
# 6 0.0000 0.0000 0.0000 0.0000 0.0000 55.8106
#
#
#
# Elastic Compliance Matrix: (Units=1/GPa)
#
#
# Indices 1 2 3 4 5 6 
#
# 1 0.010931 -0.001869 -0.001289 0.000000 0.000000 0.000000
# 2 -0.001869 0.009276 -0.002667 0.000000 0.000000 0.000000
# 3 -0.001289 -0.002667 0.016724 0.000000 0.000000 0.000000
# 4 0.000000 0.000000 0.000000 0.023031 0.000000 0.000000
# 5 0.000000 0.000000 0.000000 0.000000 0.024831 0.000000
# 6 0.000000 0.000000 0.000000 0.000000 0.000000 0.017918
#
#
# Mechanical properties :
#
#
# Convention : Reuss Voigt Hill
#
# Bulk Modulus (GPa) = 39.55275 43.05801 41.30538
# Shear Modulus (GPa) = 40.72104 42.87136 41.79620
#
# Velocity S-wave (km/s) = 4.13272 4.24044 4.18693
# Velocity P-wave (km/s) = 6.27391 6.48341 6.37952
#
# Compressibility (1/GPa) = 0.02528269
#
# Stress axis : x y z
#
# Youngs Moduli (GPa) = 91.48503 107.80176 59.79468
#
# Poissons Ratio (x) = 0.20144 0.07706
# Poissons Ratio (y) = 0.17095 0.15945
# Poissons Ratio (z) = 0.11791 0.28747
#
# Static dielectric constant tensor:
#      x y z
#    x 4.438960 0.000000 0.000000 
#    y 0.000000 4.454820 0.000000 
#    z 0.000000 0.000000 4.125290 
# 
# 
# High freq. dielectric constant tensor:
#      x y z
#    x 1.960620 0.000000 0.000000 
#    y 0.000000 1.963860 0.000000 
#    z 0.000000 0.000000 1.946370 
# 
# From -- ./inp_files/11687.got.cif
#   From: 2010.03.12/outbox.cif.g09.slc.cpg/sg61_6_cif.got.tgz:11687.got - 2010.04.10 19:05:03.
