data_PCOD8249345
_publ_section_title
;
Structure prediction by ZEFSAII (Michael W. Deem and Ramdas Pophale) SiO2 
 PCOD8249345
Probable space group: P B C A
;
_chemical_formula_sum "Si O2"
_cell_formula_units_Z 56
_cell_length_a 12.585250
_cell_length_b 13.837508
_cell_length_c 14.642627
_cell_angle_alpha 90.000000
_cell_angle_beta 90.000000
_cell_angle_gamma 90.000000
_cell_volume 2549.991492
_symmetry_space_group_name_H-M "P B C A"
_symmetry_group_IT_number 61
_symmetry_cell_setting 'orthorhombic'
loop_
_space_group_symop_operation_xyz
x,y,z
1/2-x,-y,1/2+z
1/2+x,1/2-y,-z
-x,1/2+y,1/2-z
-x,-y,-z
1/2+x,y,1/2-z
1/2-x,1/2+y,z
x,1/2-y,1/2+z
loop_
_atom_site_type_symbol
_atom_site_label
_atom_site_fract_x
_atom_site_fract_y
_atom_site_fract_z
Si Si1 0.996354 0.368985 0.475034
Si Si2 0.592712 0.578060 0.616086
Si Si3 0.646360 0.032992 0.408587
Si Si4 0.978544 0.191903 0.341759
Si Si5 0.321541 0.591661 0.287523
Si Si6 0.117732 0.990316 0.584034
Si Si7 0.113750 0.705625 0.348313
O O1 0.945276 0.451801 0.411636
O O2 0.985031 0.273349 0.417631
O O3 0.937751 0.359400 0.573045
O O4 0.118521 0.397294 0.503581
O O5 0.670812 0.522838 0.687229
O O6 0.598767 0.520479 0.522283
O O7 0.463658 0.566150 0.634480
O O8 0.635034 0.687582 0.610728
O O9 0.643886 0.099310 0.318186
O O10 0.759300 0.977180 0.409135
O O11 0.888274 0.114381 0.367273
O O12 0.960263 0.229344 0.239071
O O13 0.092194 0.142604 0.350711
O O14 0.212772 0.644895 0.310966
#
# Coordination Sequence:
#
# PCOD8249345 Si02
#       7
#     8   8   8   8   8   8   8
#     4  11  25  42  70 100 140 185 239 283 356 430
#     4  10  23  42  67  99 131 181 230 280 354 425
#     4  11  23  45  67  98 138 185 226 298 353 415
#     4  11  23  43  65  99 136 176 230 294 340 423
#     4  11  24  43  69  99 139 177 233 292 354 413
#     4  10  21  44  66  90 138 176 221 287 350 413
#     4  12  23  45  68 103 140 181 238 292 349 425
#
# _framework density 21.960858999999999
#
# number of rings (size 3 to 8) (size 9 to 14) (size 15 to 20)
#    0.000    1.143    4.286    1.714    2.000    0.000 
#    7.714    0.000    0.000    0.000    0.000    0.000 
#    0.000    0.000    0.000    0.000    0.000    0.000 
#
# Total GULP energy -693749.179404 kJ/mol
# GULP energy per Si atom -12388.378204 kJ/mol
# Density = 2.191087 g / cm^3
# Si number density = 21.960859 Si / 1000 Ang^3
#
#
#
# Elastic Constant Matrix: (Units=GPa)
#
#
# Indices 1 2 3 4 5 6 
#
# 1 102.6452 40.7415 31.2315 0.0000 0.0000 0.0000
# 2 40.7415 84.6991 19.8100 0.0000 0.0000 0.0000
# 3 31.2315 19.8100 95.1210 0.0000 0.0000 0.0000
# 4 0.0000 0.0000 0.0000 36.9322 0.0000 0.0000
# 5 0.0000 0.0000 0.0000 0.0000 23.7912 0.0000
# 6 0.0000 0.0000 0.0000 0.0000 0.0000 22.8898
#
#
#
# Elastic Compliance Matrix: (Units=1/GPa)
#
#
# Indices 1 2 3 4 5 6 
#
# 1 0.012846 -0.005459 -0.003081 0.000000 0.000000 0.000000
# 2 -0.005459 0.014731 -0.001276 0.000000 0.000000 0.000000
# 3 -0.003081 -0.001276 0.011790 0.000000 0.000000 0.000000
# 4 0.000000 0.000000 0.000000 0.027077 0.000000 0.000000
# 5 0.000000 0.000000 0.000000 0.000000 0.042032 0.000000
# 6 0.000000 0.000000 0.000000 0.000000 0.000000 0.043688
#
#
# Mechanical properties :
#
#
# Convention : Reuss Voigt Hill
#
# Bulk Modulus (GPa) = 50.66744 51.78127 51.22435
# Shear Modulus (GPa) = 28.03111 29.43478 28.73295
#
# Velocity S-wave (km/s) = 3.57657 3.66502 3.62107
# Velocity P-wave (km/s) = 6.33858 6.44515 6.39209
#
# Compressibility (1/GPa) = 0.01973654
#
# Stress axis : x y z
#
# Youngs Moduli (GPa) = 77.84273 67.88614 84.81625
#
# Poissons Ratio (x) = 0.37057 0.26133
# Poissons Ratio (y) = 0.42492 0.10819
# Poissons Ratio (z) = 0.23984 0.08659
#
# Static dielectric constant tensor:
#      x y z
#    x 4.174760 0.000000 0.000000 
#    y 0.000000 3.859700 0.000000 
#    z 0.000000 0.000000 4.163870 
# 
# 
# High freq. dielectric constant tensor:
#      x y z
#    x 1.858320 0.000000 0.000000 
#    y 0.000000 1.853050 0.000000 
#    z 0.000000 0.000000 1.874770 
# 
# From -- ./inp_files/7527.got.cif
#   From: 2010.03.12/outbox.cif.g09.slc.cpg/sg61_4_cif.got.tgz:7527.got - 2010.04.10 19:05:03.
