data_PCOD8249602
_publ_section_title
;
Structure prediction by ZEFSAII (Michael W. Deem and Ramdas Pophale) SiO2 
 PCOD8249602
Probable space group: P B C A
;
_chemical_formula_sum "Si O2"
_cell_formula_units_Z 64
_cell_length_a 9.067019
_cell_length_b 14.223802
_cell_length_c 22.497287
_cell_angle_alpha 90.000000
_cell_angle_beta 90.000000
_cell_angle_gamma 90.000000
_cell_volume 2901.418478
_symmetry_space_group_name_H-M "P B C A"
_symmetry_group_IT_number 61
_symmetry_cell_setting 'orthorhombic'
loop_
_space_group_symop_operation_xyz
x,y,z
1/2-x,-y,1/2+z
1/2+x,1/2-y,-z
-x,1/2+y,1/2-z
-x,-y,-z
1/2+x,y,1/2-z
1/2-x,1/2+y,z
x,1/2-y,1/2+z
loop_
_atom_site_type_symbol
_atom_site_label
_atom_site_fract_x
_atom_site_fract_y
_atom_site_fract_z
Si Si1 0.579429 0.370095 0.806758
Si Si2 0.079641 0.078874 0.460725
Si Si3 0.642192 0.547390 0.732035
Si Si4 0.837223 0.029266 0.128761
Si Si5 0.788503 0.702353 0.944264
Si Si6 0.785920 0.100988 0.409847
Si Si7 0.074374 0.551308 0.554036
Si Si8 0.866122 0.837450 0.308710
O O1 0.578141 0.449346 0.756541
O O2 0.429126 0.379404 0.847002
O O3 0.729939 0.387628 0.843105
O O4 0.594934 0.264981 0.780236
O O5 0.231872 0.052495 0.427262
O O6 0.103658 0.167508 0.503816
O O7 0.963285 0.106145 0.409192
O O8 0.000000 0.000000 0.500000
O O9 0.757361 0.524618 0.680908
O O10 0.504805 0.597120 0.702032
O O11 0.719794 0.615542 0.780322
O O12 0.964150 0.955671 0.109425
O O13 0.779431 0.814503 0.950273
O O14 0.624247 0.658574 0.955525
O O15 0.845333 0.672743 0.879141
O O16 0.730606 0.002228 0.436154
O O17 0.000000 0.500000 0.500000
#
# Coordination Sequence:
#
# PCOD8249602 Si02
#       8
#     8   8   8   8   8   8   8   8
#     4  10  25  48  67  97 142 177 224 291 342 407
#     4  12  23  42  70 103 134 178 227 274 340 403
#     4  12  25  45  72  95 137 176 232 284 346 404
#     4  11  24  42  69 100 130 185 221 281 345 406
#     4  11  24  42  69  94 139 174 221 278 329 407
#     4  10  24  41  67  96 133 175 218 270 336 392
#     4  11  21  43  64  92 136 173 213 267 333 397
#     4  11  26  45  69 102 131 180 235 278 347 410
#
# _framework density 22.058174999999999
#
# number of rings (size 3 to 8) (size 9 to 14) (size 15 to 20)
#    0.000    1.000    3.750    2.250    5.250    1.000 
#    4.500    0.000    0.000    0.000    0.000    0.000 
#    0.000    0.000    0.000    0.000    0.000    0.000 
#
# Total GULP energy -793349.403162 kJ/mol
# GULP energy per Si atom -12396.084424 kJ/mol
# Density = 2.200797 g / cm^3
# Si number density = 22.058175 Si / 1000 Ang^3
#
#
#
# Elastic Constant Matrix: (Units=GPa)
#
#
# Indices 1 2 3 4 5 6 
#
# 1 121.0212 16.7860 27.3782 0.0000 0.0000 0.0000
# 2 16.7860 92.1935 15.6023 0.0000 0.0000 0.0000
# 3 27.3782 15.6023 63.1777 0.0000 0.0000 0.0000
# 4 0.0000 0.0000 0.0000 28.6496 0.0000 0.0000
# 5 0.0000 0.0000 0.0000 0.0000 37.3942 0.0000
# 6 0.0000 0.0000 0.0000 0.0000 0.0000 25.1603
#
#
#
# Elastic Compliance Matrix: (Units=1/GPa)
#
#
# Indices 1 2 3 4 5 6 
#
# 1 0.009258 -0.001051 -0.003752 0.000000 0.000000 0.000000
# 2 -0.001051 0.011439 -0.002370 0.000000 0.000000 0.000000
# 3 -0.003752 -0.002370 0.018040 0.000000 0.000000 0.000000
# 4 0.000000 0.000000 0.000000 0.034904 0.000000 0.000000
# 5 0.000000 0.000000 0.000000 0.000000 0.026742 0.000000
# 6 0.000000 0.000000 0.000000 0.000000 0.000000 0.039745
#
#
# Mechanical properties :
#
#
# Convention : Reuss Voigt Hill
#
# Bulk Modulus (GPa) = 40.99857 43.99173 42.49515
# Shear Modulus (GPa) = 30.74960 32.68256 31.71608
#
# Velocity S-wave (km/s) = 3.73771 3.85340 3.79600
# Velocity P-wave (km/s) = 6.10362 6.30754 6.20642
#
# Compressibility (1/GPa) = 0.02439110
#
# Stress axis : x y z
#
# Youngs Moduli (GPa) = 108.01923 87.41977 55.43332
#
# Poissons Ratio (x) = 0.09184 0.20801
# Poissons Ratio (y) = 0.11348 0.13136
# Poissons Ratio (z) = 0.40533 0.20716
#
# Static dielectric constant tensor:
#      x y z
#    x 4.295390 0.000000 0.000000 
#    y 0.000000 9.692960 0.000000 
#    z 0.000000 0.000000 3.948010 
# 
# 
# High freq. dielectric constant tensor:
#      x y z
#    x 1.881890 0.000000 0.000000 
#    y 0.000000 1.864030 0.000000 
#    z 0.000000 0.000000 1.865750 
# 
# From -- ./inp_files/10910.got.cif
#   From: 2010.03.12/outbox.cif.g09.slc.cpg/sg61_6_cif.got.tgz:10910.got - 2010.04.10 19:05:03.
