data_PCOD8249367
_publ_section_title
;
Structure prediction by ZEFSAII (Michael W. Deem and Ramdas Pophale) SiO2 
 PCOD8249367
Probable space group: P B C A
;
_chemical_formula_sum "Si O2"
_cell_formula_units_Z 48
_cell_length_a 9.532957
_cell_length_b 15.778559
_cell_length_c 16.234508
_cell_angle_alpha 90.000000
_cell_angle_beta 90.000000
_cell_angle_gamma 90.000000
_cell_volume 2441.935023
_symmetry_space_group_name_H-M "P B C A"
_symmetry_group_IT_number 61
_symmetry_cell_setting 'orthorhombic'
loop_
_space_group_symop_operation_xyz
x,y,z
1/2-x,-y,1/2+z
1/2+x,1/2-y,-z
-x,1/2+y,1/2-z
-x,-y,-z
1/2+x,y,1/2-z
1/2-x,1/2+y,z
x,1/2-y,1/2+z
loop_
_atom_site_type_symbol
_atom_site_label
_atom_site_fract_x
_atom_site_fract_y
_atom_site_fract_z
Si Si1 0.985862 0.763969 0.926800
Si Si2 0.386386 0.445248 0.950550
Si Si3 0.636126 0.011280 0.944527
Si Si4 0.705504 0.086895 0.659101
Si Si5 0.714114 0.666395 0.488473
Si Si6 0.509370 0.120243 0.802771
O O1 0.999542 0.714452 0.840687
O O2 0.052820 0.856440 0.920361
O O3 0.063712 0.710828 0.998741
O O4 0.821119 0.768826 0.946366
O O5 0.339897 0.492511 0.866891
O O6 0.500000 0.500000 0.000000
O O7 0.250920 0.431082 0.008643
O O8 0.598727 0.055851 0.859248
O O9 0.697971 0.916714 0.930977
O O10 0.500000 0.000000 0.000000
O O11 0.720937 0.142385 0.576966
O O12 0.583714 0.127574 0.714765
O O13 0.852423 0.083804 0.708526
#
# Coordination Sequence:
#
# PCOD8249367 Si02
#       6
#     8   8   8   8   8   8
#     4  11  21  38  62  96 116 162 208 264 295 378
#     4  11  21  39  68  91 125 160 221 251 308 375
#     4  11  19  41  62  92 124 170 206 260 306 383
#     4  10  23  41  58  91 122 170 198 259 315 377
#     4  10  22  38  63  92 123 158 219 247 320 363
#     4  11  24  40  65  88 133 161 212 256 328 362
#
# _framework density 19.656542000000002
#
# number of rings (size 3 to 8) (size 9 to 14) (size 15 to 20)
#    0.000    1.333    8.333    1.000    2.333    1.333 
#    0.000    8.333    0.000    0.000    0.000    0.000 
#    0.000    0.000    0.000    0.000    0.000    0.000 
#
# Total GULP energy -595181.747455 kJ/mol
# GULP energy per Si atom -12399.619739 kJ/mol
# Density = 1.961180 g / cm^3
# Si number density = 19.656542 Si / 1000 Ang^3
#
#
#
# Elastic Constant Matrix: (Units=GPa)
#
#
# Indices 1 2 3 4 5 6 
#
# 1 100.1811 28.0403 21.4327 0.0000 0.0000 0.0000
# 2 28.0403 121.5414 29.2818 0.0000 0.0000 0.0000
# 3 21.4327 29.2818 41.7309 0.0000 0.0000 0.0000
# 4 0.0000 0.0000 0.0000 20.1288 0.0000 0.0000
# 5 0.0000 0.0000 0.0000 0.0000 38.7957 0.0000
# 6 0.0000 0.0000 0.0000 0.0000 0.0000 40.9474
#
#
#
# Elastic Compliance Matrix: (Units=1/GPa)
#
#
# Indices 1 2 3 4 5 6 
#
# 1 0.011429 -0.001471 -0.004837 0.000000 0.000000 0.000000
# 2 -0.001471 0.010091 -0.006325 0.000000 0.000000 0.000000
# 3 -0.004837 -0.006325 0.030886 0.000000 0.000000 0.000000
# 4 0.000000 0.000000 0.000000 0.049680 0.000000 0.000000
# 5 0.000000 0.000000 0.000000 0.000000 0.025776 0.000000
# 6 0.000000 0.000000 0.000000 0.000000 0.000000 0.024422
#
#
# Mechanical properties :
#
#
# Convention : Reuss Voigt Hill
#
# Bulk Modulus (GPa) = 36.84865 46.77368 41.81117
# Shear Modulus (GPa) = 26.79587 32.28762 29.54174
#
# Velocity S-wave (km/s) = 3.69616 4.05728 3.88093
# Velocity P-wave (km/s) = 6.08296 6.76726 6.43422
#
# Compressibility (1/GPa) = 0.02713803
#
# Stress axis : x y z
#
# Youngs Moduli (GPa) = 87.49972 99.09936 32.37754
#
# Poissons Ratio (x) = 0.14580 0.15662
# Poissons Ratio (y) = 0.12873 0.20479
# Poissons Ratio (z) = 0.42326 0.62680
#
# Static dielectric constant tensor:
#      x y z
#    x 4.082270 0.000000 0.000000 
#    y 0.000000 3.933450 0.000000 
#    z 0.000000 0.000000 3.373160 
# 
# 
# High freq. dielectric constant tensor:
#      x y z
#    x 1.792020 0.000000 0.000000 
#    y 0.000000 1.767300 0.000000 
#    z 0.000000 0.000000 1.728230 
# 
# From -- ./inp_files/8901.got.cif
#   From: 2010.03.12/outbox.cif.g09.slc.cpg/sg61_5_cif.got.tgz:8901.got - 2010.04.10 19:05:03.
