data_PCOD8249093
_publ_section_title
;
Structure prediction by ZEFSAII (Michael W. Deem and Ramdas Pophale) SiO2 
 PCOD8249093
Probable space group: P B C A
;
_chemical_formula_sum "Si O2"
_cell_formula_units_Z 64
_cell_length_a 17.521771
_cell_length_b 8.642936
_cell_length_c 21.173733
_cell_angle_alpha 90.000000
_cell_angle_beta 90.000000
_cell_angle_gamma 90.000000
_cell_volume 3206.540499
_symmetry_space_group_name_H-M "P B C A"
_symmetry_group_IT_number 61
_symmetry_cell_setting 'orthorhombic'
loop_
_space_group_symop_operation_xyz
x,y,z
1/2-x,-y,1/2+z
1/2+x,1/2-y,-z
-x,1/2+y,1/2-z
-x,-y,-z
1/2+x,y,1/2-z
1/2-x,1/2+y,z
x,1/2-y,1/2+z
loop_
_atom_site_type_symbol
_atom_site_label
_atom_site_fract_x
_atom_site_fract_y
_atom_site_fract_z
Si Si1 0.469303 0.748732 0.690859
Si Si2 0.194549 0.284725 0.136748
Si Si3 0.248785 0.534252 0.048682
Si Si4 0.585901 0.026198 0.207511
Si Si5 0.169556 0.262369 0.366514
Si Si6 0.390922 0.092007 0.351799
Si Si7 0.206044 0.779976 0.260269
Si Si8 0.799009 0.275681 0.538420
O O1 0.391917 0.708661 0.657186
O O2 0.517093 0.590949 0.695813
O O3 0.519113 0.876279 0.653710
O O4 0.446646 0.823941 0.757163
O O5 0.207668 0.452179 0.106853
O O6 0.197867 0.162857 0.080102
O O7 0.256690 0.247651 0.191829
O O8 0.187605 0.619453 0.002221
O O9 0.302684 0.421421 0.008336
O O10 0.654707 0.936630 0.243828
O O11 0.621330 0.104515 0.144474
O O12 0.117141 0.414518 0.371746
O O13 0.225651 0.302300 0.308994
O O14 0.214421 0.235784 0.431296
O O15 0.347438 0.138028 0.285788
O O16 0.360679 0.207418 0.406359
#
# Coordination Sequence:
#
# PCOD8249093 Si02
#       8
#     8   8   8   8   8   8   8   8
#     4  11  24  39  57  93 141 163 201 243 329 398
#     4  11  23  40  61  90 128 162 204 256 310 381
#     4  10  23  39  65  85 116 164 214 267 295 354
#     4  11  23  38  59  96 133 167 198 247 324 391
#     4  11  20  36  67  94 121 155 206 273 307 357
#     4  10  22  37  65  93 124 163 197 265 314 371
#     4  10  21  36  64  95 121 160 210 255 317 367
#     4  10  20  41  64  93 114 151 227 269 298 347
#
# _framework density 19.959205000000001
#
# number of rings (size 3 to 8) (size 9 to 14) (size 15 to 20)
#    0.000    1.500    2.500    3.000    5.250    1.000 
#    0.000    3.750    0.000    0.000    0.000    0.000 
#    0.000    0.000    0.000    0.000    0.000    0.000 
#
# Total GULP energy -793268.464443 kJ/mol
# GULP energy per Si atom -12394.819757 kJ/mol
# Density = 1.991378 g / cm^3
# Si number density = 19.959205 Si / 1000 Ang^3
#
#
#
# Elastic Constant Matrix: (Units=GPa)
#
#
# Indices 1 2 3 4 5 6 
#
# 1 94.1053 24.7226 28.1044 0.0000 0.0000 0.0000
# 2 24.7226 81.6336 19.7092 0.0000 0.0000 0.0000
# 3 28.1044 19.7092 88.3125 0.0000 0.0000 0.0000
# 4 0.0000 0.0000 0.0000 33.9093 0.0000 0.0000
# 5 0.0000 0.0000 0.0000 0.0000 14.4785 0.0000
# 6 0.0000 0.0000 0.0000 0.0000 0.0000 26.1273
#
#
#
# Elastic Compliance Matrix: (Units=1/GPa)
#
#
# Indices 1 2 3 4 5 6 
#
# 1 0.012383 -0.002958 -0.003281 0.000000 0.000000 0.000000
# 2 -0.002958 0.013654 -0.002106 0.000000 0.000000 0.000000
# 3 -0.003281 -0.002106 0.012837 0.000000 0.000000 0.000000
# 4 0.000000 0.000000 0.000000 0.029490 0.000000 0.000000
# 5 0.000000 0.000000 0.000000 0.000000 0.069068 0.000000
# 6 0.000000 0.000000 0.000000 0.000000 0.000000 0.038274
#
#
# Mechanical properties :
#
#
# Convention : Reuss Voigt Hill
#
# Bulk Modulus (GPa) = 45.07451 45.45820 45.26635
# Shear Modulus (GPa) = 25.02602 27.67069 26.34836
#
# Velocity S-wave (km/s) = 3.54483 3.72743 3.63727
# Velocity P-wave (km/s) = 6.27589 6.43039 6.35361
#
# Compressibility (1/GPa) = 0.02218549
#
# Stress axis : x y z
#
# Youngs Moduli (GPa) = 80.75384 73.23772 77.89724
#
# Poissons Ratio (x) = 0.21665 0.25555
# Poissons Ratio (y) = 0.23889 0.16404
# Poissons Ratio (z) = 0.26492 0.15423
#
# Static dielectric constant tensor:
#      x y z
#    x 3.547670 0.000000 0.000000 
#    y 0.000000 3.855360 0.000000 
#    z 0.000000 0.000000 3.706170 
# 
# 
# High freq. dielectric constant tensor:
#      x y z
#    x 1.754430 0.000000 0.000000 
#    y 0.000000 1.798570 0.000000 
#    z 0.000000 0.000000 1.771230 
# 
# From -- ./inp_files/10531.got.cif
#   From: 2010.03.12/outbox.cif.g09.slc.cpg/sg61_6_cif.got.tgz:10531.got - 2010.04.10 19:05:03.
