data_PCOD8249614
_publ_section_title
;
Structure prediction by ZEFSAII (Michael W. Deem and Ramdas Pophale) SiO2 
 PCOD8249614
Probable space group: P B C A
;
_chemical_formula_sum "Si O2"
_cell_formula_units_Z 64
_cell_length_a 11.285373
_cell_length_b 16.886187
_cell_length_c 15.566454
_cell_angle_alpha 90.000000
_cell_angle_beta 90.000000
_cell_angle_gamma 90.000000
_cell_volume 2966.451176
_symmetry_space_group_name_H-M "P B C A"
_symmetry_group_IT_number 61
_symmetry_cell_setting 'orthorhombic'
loop_
_space_group_symop_operation_xyz
x,y,z
1/2-x,-y,1/2+z
1/2+x,1/2-y,-z
-x,1/2+y,1/2-z
-x,-y,-z
1/2+x,y,1/2-z
1/2-x,1/2+y,z
x,1/2-y,1/2+z
loop_
_atom_site_type_symbol
_atom_site_label
_atom_site_fract_x
_atom_site_fract_y
_atom_site_fract_z
Si Si1 0.557854 0.006009 0.677919
Si Si2 0.862168 0.392316 0.399754
Si Si3 0.451482 0.900804 0.810247
Si Si4 0.874221 0.212727 0.410874
Si Si5 0.730555 0.137942 0.731697
Si Si6 0.116105 0.724858 0.898552
Si Si7 0.776828 0.109979 0.085301
Si Si8 0.126111 0.279575 0.677677
O O1 0.506931 0.982568 0.772724
O O2 0.614686 0.928212 0.636804
O O3 0.460550 0.040515 0.612839
O O4 0.657887 0.071992 0.682929
O O5 0.919523 0.303935 0.404179
O O6 0.773410 0.398990 0.320606
O O7 0.787370 0.411993 0.485128
O O8 0.552094 0.843473 0.848024
O O9 0.351162 0.919582 0.881045
O O10 0.392085 0.861588 0.726775
O O11 0.887313 0.182324 0.508529
O O12 0.736943 0.209984 0.385218
O O13 0.843049 0.162662 0.673506
O O14 0.647594 0.213060 0.750214
O O15 0.211696 0.795924 0.901142
O O16 0.985730 0.756842 0.879760
#
# Coordination Sequence:
#
# PCOD8249614 Si02
#       8
#     8   8   8   8   8   8   8   8
#     4  12  24  43  67  98 138 185 227 277 356 420
#     4  10  24  43  64  98 137 178 225 282 349 411
#     4  12  23  43  68 101 138 180 233 282 343 416
#     4  10  25  40  70 107 134 178 233 292 341 411
#     4  11  23  43  68  96 134 181 222 282 350 410
#     4  11  23  41  69 105 133 177 232 285 343 409
#     4  11  24  42  67  99 134 177 227 285 337 414
#     4  11  21  41  70  95 138 176 229 281 343 414
#
# _framework density 21.5746
#
# number of rings (size 3 to 8) (size 9 to 14) (size 15 to 20)
#    0.000    1.000    2.500    4.875    5.250    1.000 
#    4.500    0.625    0.000    0.000    0.000    0.000 
#    0.000    0.000    0.000    0.000    0.000    0.000 
#
# Total GULP energy -793876.806509 kJ/mol
# GULP energy per Si atom -12404.325102 kJ/mol
# Density = 2.152550 g / cm^3
# Si number density = 21.574600 Si / 1000 Ang^3
#
#
#
# Elastic Constant Matrix: (Units=GPa)
#
#
# Indices 1 2 3 4 5 6 
#
# 1 112.5587 37.1293 55.1018 0.0000 0.0000 0.0000
# 2 37.1293 52.4108 28.3995 0.0000 0.0000 0.0000
# 3 55.1018 28.3995 139.2646 0.0000 0.0000 0.0000
# 4 0.0000 0.0000 0.0000 13.1889 0.0000 0.0000
# 5 0.0000 0.0000 0.0000 0.0000 41.3381 0.0000
# 6 0.0000 0.0000 0.0000 0.0000 0.0000 26.2429
#
#
#
# Elastic Compliance Matrix: (Units=1/GPa)
#
#
# Indices 1 2 3 4 5 6 
#
# 1 0.013093 -0.007272 -0.003698 0.000000 0.000000 0.000000
# 2 -0.007272 0.025489 -0.002321 0.000000 0.000000 0.000000
# 3 -0.003698 -0.002321 0.009117 0.000000 0.000000 0.000000
# 4 0.000000 0.000000 0.000000 0.075821 0.000000 0.000000
# 5 0.000000 0.000000 0.000000 0.000000 0.024191 0.000000
# 6 0.000000 0.000000 0.000000 0.000000 0.000000 0.038106
#
#
# Mechanical properties :
#
#
# Convention : Reuss Voigt Hill
#
# Bulk Modulus (GPa) = 47.35115 60.61059 53.98087
# Shear Modulus (GPa) = 22.78564 28.39422 25.58993
#
# Velocity S-wave (km/s) = 3.25335 3.63174 3.44774
# Velocity P-wave (km/s) = 6.00896 6.76317 6.39719
#
# Compressibility (1/GPa) = 0.02111881
#
# Stress axis : x y z
#
# Youngs Moduli (GPa) = 76.37610 39.23240 109.68786
#
# Poissons Ratio (x) = 0.28530 0.40557
# Poissons Ratio (y) = 0.55540 0.25454
# Poissons Ratio (z) = 0.28240 0.09104
#
# Static dielectric constant tensor:
#      x y z
#    x 3.840020 0.000000 0.000000 
#    y 0.000000 3.887850 0.000000 
#    z 0.000000 0.000000 3.991210 
# 
# 
# High freq. dielectric constant tensor:
#      x y z
#    x 1.849220 0.000000 0.000000 
#    y 0.000000 1.835310 0.000000 
#    z 0.000000 0.000000 1.855120 
# 
# From -- ./inp_files/7644.got.cif
#   From: 2010.03.12/outbox.cif.g09.slc.cpg/sg61_4_cif.got.tgz:7644.got - 2010.04.10 19:05:03.
