data_PCOD8249626
_publ_section_title
;
Structure prediction by ZEFSAII (Michael W. Deem and Ramdas Pophale) SiO2 
 PCOD8249626
Probable space group: P B C A
;
_chemical_formula_sum "Si O2"
_cell_formula_units_Z 40
_cell_length_a 8.927254
_cell_length_b 10.696438
_cell_length_c 15.264964
_cell_angle_alpha 90.000000
_cell_angle_beta 90.000000
_cell_angle_gamma 90.000000
_cell_volume 1457.648648
_symmetry_space_group_name_H-M "P B C A"
_symmetry_group_IT_number 61
_symmetry_cell_setting 'orthorhombic'
loop_
_space_group_symop_operation_xyz
x,y,z
1/2-x,-y,1/2+z
1/2+x,1/2-y,-z
-x,1/2+y,1/2-z
-x,-y,-z
1/2+x,y,1/2-z
1/2-x,1/2+y,z
x,1/2-y,1/2+z
loop_
_atom_site_type_symbol
_atom_site_label
_atom_site_fract_x
_atom_site_fract_y
_atom_site_fract_z
Si Si1 0.093105 0.572409 0.127893
Si Si2 0.996262 0.566111 0.704845
Si Si3 0.737821 0.734729 0.760848
Si Si4 0.572798 0.663190 0.097761
Si Si5 0.862540 0.840747 0.493228
O O1 0.998282 0.517068 0.208193
O O2 0.235851 0.650009 0.169098
O O3 0.146660 0.469977 0.059116
O O4 0.971426 0.657607 0.077529
O O5 0.895602 0.691177 0.721146
O O6 0.945333 0.484792 0.620311
O O7 0.165836 0.614470 0.688519
O O8 0.624721 0.763862 0.683006
O O9 0.416774 0.727749 0.069335
O O10 0.693346 0.686183 0.021784
#
# Coordination Sequence:
#
# PCOD8249626 Si02
#       5
#     8   8   8   8   8
#     4  10  24  44  73 103 152 193 247 302 385 435
#     4  11  24  46  76 108 142 203 253 304 372 462
#     4  11  24  47  74 107 144 202 249 310 362 468
#     4  11  26  45  78 108 154 192 253 304 381 447
#     4  11  24  48  74 114 148 194 246 320 371 447
#
# _framework density 27.441457
#
# number of rings (size 3 to 8) (size 9 to 14) (size 15 to 20)
#    0.000    1.200    2.000    2.400    5.600    6.400 
#    0.000    4.000    0.000    0.000    0.000    0.000 
#    0.000    0.000    0.000    0.000    0.000    0.000 
#
# Total GULP energy -495953.317273 kJ/mol
# GULP energy per Si atom -12398.832932 kJ/mol
# Density = 2.737900 g / cm^3
# Si number density = 27.441457 Si / 1000 Ang^3
#
#
#
# Elastic Constant Matrix: (Units=GPa)
#
#
# Indices 1 2 3 4 5 6 
#
# 1 65.2595 22.0621 11.5834 0.0000 0.0000 0.0000
# 2 22.0621 109.9043 32.9188 0.0000 0.0000 0.0000
# 3 11.5834 32.9188 105.9821 0.0000 0.0000 0.0000
# 4 0.0000 0.0000 0.0000 38.6767 0.0000 0.0000
# 5 0.0000 0.0000 0.0000 0.0000 47.1642 0.0000
# 6 0.0000 0.0000 0.0000 0.0000 0.0000 9.5458
#
#
#
# Elastic Compliance Matrix: (Units=1/GPa)
#
#
# Indices 1 2 3 4 5 6 
#
# 1 0.016509 -0.003058 -0.000855 0.000000 0.000000 0.000000
# 2 -0.003058 0.010599 -0.002958 0.000000 0.000000 0.000000
# 3 -0.000855 -0.002958 0.010448 0.000000 0.000000 0.000000
# 4 0.000000 0.000000 0.000000 0.025855 0.000000 0.000000
# 5 0.000000 0.000000 0.000000 0.000000 0.021203 0.000000
# 6 0.000000 0.000000 0.000000 0.000000 0.000000 0.104758
#
#
# Mechanical properties :
#
#
# Convention : Reuss Voigt Hill
#
# Bulk Modulus (GPa) = 41.99111 46.03049 44.01080
# Shear Modulus (GPa) = 23.69106 33.38279 28.53693
#
# Velocity S-wave (km/s) = 2.94144 3.49163 3.22828
# Velocity P-wave (km/s) = 5.18376 5.75029 5.47436
#
# Compressibility (1/GPa) = 0.02381456
#
# Stress axis : x y z
#
# Youngs Moduli (GPa) = 60.57322 94.35200 95.71531
#
# Poissons Ratio (x) = 0.28853 0.08179
# Poissons Ratio (y) = 0.18524 0.28310
# Poissons Ratio (z) = 0.05176 0.27907
#
# Static dielectric constant tensor:
#      x y z
#    x 4.733230 0.000000 0.000000 
#    y 0.000000 5.115620 0.000000 
#    z 0.000000 0.000000 5.195090 
# 
# 
# High freq. dielectric constant tensor:
#      x y z
#    x 2.105820 0.000000 0.000000 
#    y 0.000000 2.109370 0.000000 
#    z 0.000000 0.000000 2.121140 
# 
# From -- ./inp_files/7357.got.cif
#   From: 2010.03.12/outbox.cif.g09.slc.cpg/sg61_4_cif.got.tgz:7357.got - 2010.04.10 19:05:03.
