data_PCOD8249912
_publ_section_title
;
Structure prediction by ZEFSAII (Michael W. Deem and Ramdas Pophale) SiO2 
 PCOD8249912
Probable space group: P B C A
;
_chemical_formula_sum "Si O2"
_cell_formula_units_Z 64
_cell_length_a 10.651064
_cell_length_b 8.700598
_cell_length_c 29.748800
_cell_angle_alpha 90.000000
_cell_angle_beta 90.000000
_cell_angle_gamma 90.000000
_cell_volume 2756.839923
_symmetry_space_group_name_H-M "P B C A"
_symmetry_group_IT_number 61
_symmetry_cell_setting 'orthorhombic'
loop_
_space_group_symop_operation_xyz
x,y,z
1/2-x,-y,1/2+z
1/2+x,1/2-y,-z
-x,1/2+y,1/2-z
-x,-y,-z
1/2+x,y,1/2-z
1/2-x,1/2+y,z
x,1/2-y,1/2+z
loop_
_atom_site_type_symbol
_atom_site_label
_atom_site_fract_x
_atom_site_fract_y
_atom_site_fract_z
Si Si1 0.864383 0.952279 0.110082
Si Si2 0.253905 0.656057 0.688609
Si Si3 0.807945 0.230785 0.167399
Si Si4 0.067164 0.722997 0.113837
Si Si5 0.878352 0.094918 0.482636
Si Si6 0.863249 0.065819 0.013444
Si Si7 0.849464 0.904547 0.750044
Si Si8 0.001775 0.005829 0.678774
O O1 0.779984 0.820980 0.132489
O O2 0.001508 0.881821 0.100622
O O3 0.882469 0.096971 0.142205
O O4 0.815391 0.010729 0.062206
O O5 0.174514 0.734830 0.649769
O O6 0.178337 0.571486 0.728216
O O7 0.346048 0.781597 0.710778
O O8 0.353214 0.537982 0.667411
O O9 0.741020 0.145894 0.208969
O O10 0.910882 0.350624 0.183953
O O11 0.114497 0.640767 0.069392
O O12 0.965255 0.609307 0.138062
O O13 0.867695 0.249147 0.512445
O O14 0.750691 0.994831 0.482523
O O15 0.000000 0.000000 0.500000
O O16 0.000000 0.000000 0.000000
O O17 0.987998 0.917341 0.727075
#
# Coordination Sequence:
#
# PCOD8249912 Si02
#       8
#     8   8   8   8   8   8   8   8
#     4  12  25  47  78 109 153 191 258 309 389 459
#     4  12  29  47  71 105 150 199 251 318 386 453
#     4  12  25  45  76 110 146 195 253 319 365 457
#     4  12  29  52  72 112 158 200 253 323 396 469
#     4  12  30  52  83 118 161 203 267 332 408 499
#     4  12  27  50  81 116 152 208 255 328 399 487
#     4  12  25  47  68 106 145 199 258 305 375 448
#     4  12  28  45  75 103 147 204 253 315 380 456
#
# _framework density 23.214987000000001
#
# number of rings (size 3 to 8) (size 9 to 14) (size 15 to 20)
#    0.000    0.000    6.250    1.500   12.250    1.000 
#    0.000    0.000    0.000    0.000    0.000    0.000 
#    0.000    0.000    0.000    0.000    0.000    0.000 
#
# Total GULP energy -793173.217362 kJ/mol
# GULP energy per Si atom -12393.331521 kJ/mol
# Density = 2.316215 g / cm^3
# Si number density = 23.214987 Si / 1000 Ang^3
#
#
#
# Elastic Constant Matrix: (Units=GPa)
#
#
# Indices 1 2 3 4 5 6 
#
# 1 98.4276 49.2457 42.1128 0.0000 0.0000 0.0000
# 2 49.2457 139.6998 57.0975 0.0000 0.0000 0.0000
# 3 42.1128 57.0975 154.4531 0.0000 0.0000 0.0000
# 4 0.0000 0.0000 0.0000 38.3216 0.0000 0.0000
# 5 0.0000 0.0000 0.0000 0.0000 32.1007 0.0000
# 6 0.0000 0.0000 0.0000 0.0000 0.0000 36.6574
#
#
#
# Elastic Compliance Matrix: (Units=1/GPa)
#
#
# Indices 1 2 3 4 5 6 
#
# 1 0.012923 -0.003670 -0.002167 0.000000 0.000000 0.000000
# 2 -0.003670 0.009474 -0.002502 0.000000 0.000000 0.000000
# 3 -0.002167 -0.002502 0.007990 0.000000 0.000000 0.000000
# 4 0.000000 0.000000 0.000000 0.026095 0.000000 0.000000
# 5 0.000000 0.000000 0.000000 0.000000 0.031152 0.000000
# 6 0.000000 0.000000 0.000000 0.000000 0.000000 0.027280
#
#
# Mechanical properties :
#
#
# Convention : Reuss Voigt Hill
#
# Bulk Modulus (GPa) = 72.93750 76.61026 74.77388
# Shear Modulus (GPa) = 36.72113 37.69090 37.20601
#
# Velocity S-wave (km/s) = 3.98148 4.03371 4.00768
# Velocity P-wave (km/s) = 7.25415 7.40043 7.32766
#
# Compressibility (1/GPa) = 0.01371037
#
# Stress axis : x y z
#
# Youngs Moduli (GPa) = 77.38151 105.54749 125.15414
#
# Poissons Ratio (x) = 0.38734 0.27120
# Poissons Ratio (y) = 0.28398 0.31312
# Poissons Ratio (z) = 0.16768 0.26406
#
# Static dielectric constant tensor:
#      x y z
#    x 4.164500 0.000000 0.000000 
#    y 0.000000 4.696520 0.000000 
#    z 0.000000 0.000000 4.212920 
# 
# 
# High freq. dielectric constant tensor:
#      x y z
#    x 1.910810 0.000000 0.000000 
#    y 0.000000 1.945210 0.000000 
#    z 0.000000 0.000000 1.925310 
# 
# From -- ./inp_files/11789.got.cif
#   From: 2010.03.12/outbox.cif.g09.slc.cpg/sg61_6_cif.got.tgz:11789.got - 2010.04.10 19:05:03.
