data_PCOD8249168
_publ_section_title
;
Structure prediction by ZEFSAII (Michael W. Deem and Ramdas Pophale) SiO2 
 PCOD8249168
Probable space group: P B C A
;
_chemical_formula_sum "Si O2"
_cell_formula_units_Z 64
_cell_length_a 5.160311
_cell_length_b 15.757512
_cell_length_c 34.114072
_cell_angle_alpha 90.000000
_cell_angle_beta 90.000000
_cell_angle_gamma 90.000000
_cell_volume 2773.940137
_symmetry_space_group_name_H-M "P B C A"
_symmetry_group_IT_number 61
_symmetry_cell_setting 'orthorhombic'
loop_
_space_group_symop_operation_xyz
x,y,z
1/2-x,-y,1/2+z
1/2+x,1/2-y,-z
-x,1/2+y,1/2-z
-x,-y,-z
1/2+x,y,1/2-z
1/2-x,1/2+y,z
x,1/2-y,1/2+z
loop_
_atom_site_type_symbol
_atom_site_label
_atom_site_fract_x
_atom_site_fract_y
_atom_site_fract_z
Si Si1 0.076960 0.965337 0.735241
Si Si2 0.049942 0.291043 0.012261
Si Si3 0.752412 0.459321 0.518733
Si Si4 0.900626 0.079359 0.350378
Si Si5 0.599826 0.923481 0.602751
Si Si6 0.410238 0.279120 0.146673
Si Si7 0.083511 0.775007 0.401320
Si Si8 0.505598 0.153262 0.730925
O O1 0.806626 0.915041 0.742022
O O2 0.003300 0.054188 0.756924
O O3 0.143413 0.972840 0.689491
O O4 0.971103 0.317093 0.056410
O O5 0.276371 0.218407 0.011494
O O6 0.223968 0.360327 0.989834
O O7 0.500000 0.500000 0.500000
O O8 0.798752 0.474386 0.564937
O O9 0.000000 0.500000 0.500000
O O10 0.681766 0.047593 0.381155
O O11 0.888869 0.180080 0.342231
O O12 0.186984 0.056690 0.364579
O O13 0.574237 0.825207 0.592093
O O14 0.634444 0.299794 0.115053
O O15 0.469021 0.335293 0.184689
O O16 0.136166 0.307999 0.128564
O O17 0.768045 0.197702 0.745879
#
# Coordination Sequence:
#
# PCOD8249168 Si02
#       8
#     8   8   8   8   8   8   8   8
#     4  10  21  38  58  86 117 156 211 255 313 403
#     4  12  24  42  73 101 131 184 237 276 334 412
#     4  12  26  44  64 100 143 179 225 283 347 404
#     4  10  21  37  63  90 117 164 218 263 321 393
#     4  10  21  41  63  89 129 169 212 273 330 386
#     4  10  21  37  60  91 127 158 209 281 333 373
#     4  10  21  39  64  96 124 164 223 272 326 398
#     4  10  21  38  57  82 118 164 201 253 334 384
#
# _framework density 23.071874000000001
#
# number of rings (size 3 to 8) (size 9 to 14) (size 15 to 20)
#    0.000    1.500    1.250    3.750    3.500    1.000 
#    0.000   15.000    0.000    0.000    0.000    0.000 
#    0.000    0.000    0.000    0.000    0.000    0.000 
#
# Total GULP energy -793178.741135 kJ/mol
# GULP energy per Si atom -12393.417830 kJ/mol
# Density = 2.301936 g / cm^3
# Si number density = 23.071874 Si / 1000 Ang^3
#
#
#
# Elastic Constant Matrix: (Units=GPa)
#
#
# Indices 1 2 3 4 5 6 
#
# 1 193.1312 12.7213 51.8859 0.0000 0.0000 0.0000
# 2 12.7213 26.2799 26.4326 0.0000 0.0000 0.0000
# 3 51.8859 26.4326 160.2321 0.0000 0.0000 0.0000
# 4 0.0000 0.0000 0.0000 34.1227 0.0000 0.0000
# 5 0.0000 0.0000 0.0000 0.0000 49.6967 0.0000
# 6 0.0000 0.0000 0.0000 0.0000 0.0000 22.5826
#
#
#
# Elastic Compliance Matrix: (Units=1/GPa)
#
#
# Indices 1 2 3 4 5 6 
#
# 1 0.005697 -0.001082 -0.001666 0.000000 0.000000 0.000000
# 2 -0.001082 0.045827 -0.007210 0.000000 0.000000 0.000000
# 3 -0.001666 -0.007210 0.007970 0.000000 0.000000 0.000000
# 4 0.000000 0.000000 0.000000 0.029306 0.000000 0.000000
# 5 0.000000 0.000000 0.000000 0.000000 0.020122 0.000000
# 6 0.000000 0.000000 0.000000 0.000000 0.000000 0.044282
#
#
# Mechanical properties :
#
#
# Convention : Reuss Voigt Hill
#
# Bulk Modulus (GPa) = 25.26621 62.41365 43.83993
# Shear Modulus (GPa) = 26.83681 40.52062 33.67871
#
# Velocity S-wave (km/s) = 3.41425 4.19534 3.82479
# Velocity P-wave (km/s) = 5.14953 7.11185 6.20871
#
# Compressibility (1/GPa) = 0.03957854
#
# Stress axis : x y z
#
# Youngs Moduli (GPa) = 175.53944 21.82121 125.47310
#
# Poissons Ratio (x) = 0.02360 0.20907
# Poissons Ratio (y) = 0.18987 0.90461
# Poissons Ratio (z) = 0.29249 0.15732
#
# Static dielectric constant tensor:
#      x y z
#    x 3.551550 0.000000 0.000000 
#    y 0.000000 3.954590 0.000000 
#    z 0.000000 0.000000 4.114690 
# 
# 
# High freq. dielectric constant tensor:
#      x y z
#    x 1.948260 0.000000 0.000000 
#    y 0.000000 1.869520 0.000000 
#    z 0.000000 0.000000 1.916990 
# 
# From -- ./inp_files/11642.got.cif
#   From: 2010.03.12/outbox.cif.g09.slc.cpg/sg61_6_cif.got.tgz:11642.got - 2010.04.10 19:05:03.
