data_PCOD8249906
_publ_section_title
;
Structure prediction by ZEFSAII (Michael W. Deem and Ramdas Pophale) SiO2 
 PCOD8249906
Probable space group: P B C A
;
_chemical_formula_sum "Si O2"
_cell_formula_units_Z 48
_cell_length_a 9.107245
_cell_length_b 13.140812
_cell_length_c 17.934768
_cell_angle_alpha 90.000000
_cell_angle_beta 90.000000
_cell_angle_gamma 90.000000
_cell_volume 2146.371955
_symmetry_space_group_name_H-M "P B C A"
_symmetry_group_IT_number 61
_symmetry_cell_setting 'orthorhombic'
loop_
_space_group_symop_operation_xyz
x,y,z
1/2-x,-y,1/2+z
1/2+x,1/2-y,-z
-x,1/2+y,1/2-z
-x,-y,-z
1/2+x,y,1/2-z
1/2-x,1/2+y,z
x,1/2-y,1/2+z
loop_
_atom_site_type_symbol
_atom_site_label
_atom_site_fract_x
_atom_site_fract_y
_atom_site_fract_z
Si Si1 0.891752 0.299462 0.572561
Si Si2 0.902179 0.181042 0.428487
Si Si3 0.508957 0.870283 0.335091
Si Si4 0.335751 0.956015 0.934774
Si Si5 0.151062 0.050245 0.069389
Si Si6 0.340545 0.375321 0.322400
O O1 0.833579 0.240395 0.499162
O O2 0.765886 0.372166 0.604160
O O3 0.917443 0.223215 0.641089
O O4 0.032247 0.364787 0.547109
O O5 0.964844 0.258592 0.368063
O O6 0.776694 0.113700 0.386313
O O7 0.022090 0.104309 0.465544
O O8 0.598793 0.884879 0.259972
O O9 0.336117 0.878801 0.322015
O O10 0.572412 0.958430 0.388477
O O11 0.395436 0.030018 0.870993
O O12 0.235635 0.010956 0.996325
#
# Coordination Sequence:
#
# PCOD8249906 Si02
#       6
#     8   8   8   8   8   8
#     4  12  24  46  76 105 142 185 244 300 362 423
#     4  12  26  43  77 110 142 188 242 297 362 439
#     4  12  29  49  70 105 149 191 242 301 367 433
#     4  12  24  47  74 109 145 188 246 297 364 433
#     4  12  26  44  77 108 142 190 241 305 362 429
#     4  12  29  48  72 105 148 192 242 303 360 441
#
# _framework density 22.363320000000002
#
# number of rings (size 3 to 8) (size 9 to 14) (size 15 to 20)
#    0.000    0.000    6.667    3.000    4.667    2.667 
#    0.000    0.000    0.000    0.000    0.000    0.000 
#    0.000    0.000    0.000    0.000    0.000    0.000 
#
# Total GULP energy -595010.834334 kJ/mol
# GULP energy per Si atom -12396.059049 kJ/mol
# Density = 2.231242 g / cm^3
# Si number density = 22.363320 Si / 1000 Ang^3
#
#
#
# Elastic Constant Matrix: (Units=GPa)
#
#
# Indices 1 2 3 4 5 6 
#
# 1 101.0052 45.5992 21.6264 0.0000 0.0000 0.0000
# 2 45.5992 132.0311 37.4340 0.0000 0.0000 0.0000
# 3 21.6264 37.4340 99.0312 0.0000 0.0000 0.0000
# 4 0.0000 0.0000 0.0000 28.7394 0.0000 0.0000
# 5 0.0000 0.0000 0.0000 0.0000 31.5270 0.0000
# 6 0.0000 0.0000 0.0000 0.0000 0.0000 41.5358
#
#
#
# Elastic Compliance Matrix: (Units=1/GPa)
#
#
# Indices 1 2 3 4 5 6 
#
# 1 0.011848 -0.003762 -0.001166 0.000000 0.000000 0.000000
# 2 -0.003762 0.009677 -0.002837 0.000000 0.000000 0.000000
# 3 -0.001166 -0.002837 0.011425 0.000000 0.000000 0.000000
# 4 0.000000 0.000000 0.000000 0.034795 0.000000 0.000000
# 5 0.000000 0.000000 0.000000 0.000000 0.031719 0.000000
# 6 0.000000 0.000000 0.000000 0.000000 0.000000 0.024076
#
#
# Mechanical properties :
#
#
# Convention : Reuss Voigt Hill
#
# Bulk Modulus (GPa) = 57.39614 60.15409 58.77511
# Shear Modulus (GPa) = 34.51252 35.52096 35.01674
#
# Velocity S-wave (km/s) = 3.93270 3.98974 3.96133
# Velocity P-wave (km/s) = 6.80754 6.94126 6.87472
#
# Compressibility (1/GPa) = 0.01742277
#
# Stress axis : x y z
#
# Youngs Moduli (GPa) = 84.40107 103.33429 87.53040
#
# Poissons Ratio (x) = 0.38869 0.10202
# Poissons Ratio (y) = 0.31748 0.24829
# Poissons Ratio (z) = 0.09837 0.29312
#
# Static dielectric constant tensor:
#      x y z
#    x 4.415120 0.000000 0.000000 
#    y 0.000000 4.788810 0.000000 
#    z 0.000000 0.000000 3.732060 
# 
# 
# High freq. dielectric constant tensor:
#      x y z
#    x 1.899270 0.000000 0.000000 
#    y 0.000000 1.915260 0.000000 
#    z 0.000000 0.000000 1.850270 
# 
# From -- ./inp_files/8890.got.cif
#   From: 2010.03.12/outbox.cif.g09.slc.cpg/sg61_5_cif.got.tgz:8890.got - 2010.04.10 19:05:03.
