data_PCOD8249220
_publ_section_title
;
Structure prediction by ZEFSAII (Michael W. Deem and Ramdas Pophale) SiO2 
 PCOD8249220
Probable space group: P B C A
;
_chemical_formula_sum "Si O2"
_cell_formula_units_Z 48
_cell_length_a 15.291404
_cell_length_b 8.900517
_cell_length_c 17.101956
_cell_angle_alpha 90.000000
_cell_angle_beta 90.000000
_cell_angle_gamma 90.000000
_cell_volume 2327.600176
_symmetry_space_group_name_H-M "P B C A"
_symmetry_group_IT_number 61
_symmetry_cell_setting 'orthorhombic'
loop_
_space_group_symop_operation_xyz
x,y,z
1/2-x,-y,1/2+z
1/2+x,1/2-y,-z
-x,1/2+y,1/2-z
-x,-y,-z
1/2+x,y,1/2-z
1/2-x,1/2+y,z
x,1/2-y,1/2+z
loop_
_atom_site_type_symbol
_atom_site_label
_atom_site_fract_x
_atom_site_fract_y
_atom_site_fract_z
Si Si1 0.515243 0.629446 0.832822
Si Si2 0.822830 0.206875 0.087298
Si Si3 0.676721 0.395967 0.157513
Si Si4 0.497880 0.275470 0.828687
Si Si5 0.674590 0.768401 0.910180
Si Si6 0.169673 0.090295 0.662703
O O1 0.417880 0.679019 0.859869
O O2 0.521115 0.450686 0.820433
O O3 0.539526 0.715033 0.753184
O O4 0.582880 0.682384 0.898676
O O5 0.754138 0.278900 0.147356
O O6 0.921974 0.253002 0.107905
O O7 0.809615 0.029640 0.096361
O O8 0.798815 0.256045 0.000310
O O9 0.674451 0.456810 0.246485
O O10 0.583112 0.185855 0.856041
O O11 0.747389 0.691855 0.856744
O O12 0.666953 0.942749 0.889786
#
# Coordination Sequence:
#
# PCOD8249220 Si02
#       6
#     8   8   8   8   8   8
#     4  10  21  39  62  87 118 158 206 253 298 360
#     4  11  24  39  60  90 124 157 195 252 312 362
#     4  10  22  40  61  85 116 160 206 244 294 360
#     4  10  22  40  63  89 119 160 207 251 300 359
#     4  12  24  39  61  91 125 157 198 254 312 363
#     4  11  23  40  63  88 118 163 210 250 296 363
#
# _framework density 20.622098999999999
#
# number of rings (size 3 to 8) (size 9 to 14) (size 15 to 20)
#    0.000    1.333    0.000    7.000    0.000   10.000 
#    0.000    0.000    0.000    0.000    0.000    0.000 
#    0.000    0.000    0.000    0.000    0.000    0.000 
#
# Total GULP energy -595444.387292 kJ/mol
# GULP energy per Si atom -12405.091402 kJ/mol
# Density = 2.057516 g / cm^3
# Si number density = 20.622099 Si / 1000 Ang^3
#
#
#
# Elastic Constant Matrix: (Units=GPa)
#
#
# Indices 1 2 3 4 5 6 
#
# 1 126.4973 48.4207 24.3300 0.0000 0.0000 0.0000
# 2 48.4207 96.4887 14.7076 0.0000 0.0000 0.0000
# 3 24.3300 14.7076 56.9951 0.0000 0.0000 0.0000
# 4 0.0000 0.0000 0.0000 32.9376 0.0000 0.0000
# 5 0.0000 0.0000 0.0000 0.0000 23.4096 0.0000
# 6 0.0000 0.0000 0.0000 0.0000 0.0000 35.7178
#
#
#
# Elastic Compliance Matrix: (Units=1/GPa)
#
#
# Indices 1 2 3 4 5 6 
#
# 1 0.010314 -0.004689 -0.003193 0.000000 0.000000 0.000000
# 2 -0.004689 0.012920 -0.001332 0.000000 0.000000 0.000000
# 3 -0.003193 -0.001332 0.019252 0.000000 0.000000 0.000000
# 4 0.000000 0.000000 0.000000 0.030360 0.000000 0.000000
# 5 0.000000 0.000000 0.000000 0.000000 0.042718 0.000000
# 6 0.000000 0.000000 0.000000 0.000000 0.000000 0.027997
#
#
# Mechanical properties :
#
#
# Convention : Reuss Voigt Hill
#
# Bulk Modulus (GPa) = 41.56678 50.54421 46.05549
# Shear Modulus (GPa) = 29.40997 31.24785 30.32891
#
# Velocity S-wave (km/s) = 3.78052 3.89686 3.83913
# Velocity P-wave (km/s) = 6.26551 6.69405 6.48332
#
# Compressibility (1/GPa) = 0.02405768
#
# Stress axis : x y z
#
# Youngs Moduli (GPa) = 96.95169 77.39799 51.94222
#
# Poissons Ratio (x) = 0.36295 0.16585
# Poissons Ratio (y) = 0.45464 0.06920
# Poissons Ratio (z) = 0.30956 0.10312
#
# Static dielectric constant tensor:
#      x y z
#    x 3.966610 0.000000 0.000000 
#    y 0.000000 3.683320 0.000000 
#    z 0.000000 0.000000 3.505490 
# 
# 
# High freq. dielectric constant tensor:
#      x y z
#    x 1.825300 0.000000 0.000000 
#    y 0.000000 1.812030 0.000000 
#    z 0.000000 0.000000 1.797720 
# 
# From -- ./inp_files/3445.got.cif
#   From: 2010.03.12/outbox.cif.g09.slc.cpg/sg61_2_cif.got.tgz:3445.got - 2010.04.10 19:05:03.
