data_PCOD8249073
_publ_section_title
;
Structure prediction by ZEFSAII (Michael W. Deem and Ramdas Pophale) SiO2 
 PCOD8249073
Probable space group: P B C A
;
_chemical_formula_sum "Si O2"
_cell_formula_units_Z 48
_cell_length_a 9.562630
_cell_length_b 16.120524
_cell_length_c 17.167034
_cell_angle_alpha 90.000000
_cell_angle_beta 90.000000
_cell_angle_gamma 90.000000
_cell_volume 2646.377370
_symmetry_space_group_name_H-M "P B C A"
_symmetry_group_IT_number 61
_symmetry_cell_setting 'orthorhombic'
loop_
_space_group_symop_operation_xyz
x,y,z
1/2-x,-y,1/2+z
1/2+x,1/2-y,-z
-x,1/2+y,1/2-z
-x,-y,-z
1/2+x,y,1/2-z
1/2-x,1/2+y,z
x,1/2-y,1/2+z
loop_
_atom_site_type_symbol
_atom_site_label
_atom_site_fract_x
_atom_site_fract_y
_atom_site_fract_z
Si Si1 0.836482 0.755603 0.046187
Si Si2 0.464832 0.198639 0.921706
Si Si3 0.605216 0.426569 0.986126
Si Si4 0.185888 0.126491 0.326586
Si Si5 0.116152 0.977972 0.439672
Si Si6 0.508932 0.148213 0.326961
O O1 0.669443 0.763457 0.031615
O O2 0.913368 0.845705 0.042620
O O3 0.856118 0.711565 0.129477
O O4 0.902719 0.696686 0.979947
O O5 0.426625 0.106175 0.893724
O O6 0.501670 0.253434 0.845831
O O7 0.754203 0.465580 0.002968
O O8 0.500000 0.500000 0.000000
O O9 0.586383 0.397687 0.897676
O O10 0.351585 0.116190 0.312418
O O11 0.104159 0.128951 0.246319
O O12 0.137659 0.047286 0.375191
O O13 0.000000 0.000000 0.500000
#
# Coordination Sequence:
#
# PCOD8249073 Si02
#       6
#     8   8   8   8   8   8
#     4   9  19  34  60  79 113 146 194 234 290 351
#     4   9  19  37  56  86 110 152 191 237 286 355
#     4  10  20  40  61  85 114 157 201 245 292 354
#     4  11  22  39  56  88 120 158 193 248 300 349
#     4  11  21  35  63  90 118 150 205 245 288 353
#     4  10  23  39  59  81 123 156 195 242 304 348
#
# _framework density 18.138002
#
# number of rings (size 3 to 8) (size 9 to 14) (size 15 to 20)
#    0.000    2.000    3.333    0.000    2.333    1.333 
#    3.000    0.000    0.000    0.000    0.000    0.000 
#    0.000    0.000    0.000    0.000    0.000    0.000 
#
# Total GULP energy -594885.101437 kJ/mol
# GULP energy per Si atom -12393.439613 kJ/mol
# Density = 1.809672 g / cm^3
# Si number density = 18.138002 Si / 1000 Ang^3
#
#
#
# Elastic Constant Matrix: (Units=GPa)
#
#
# Indices 1 2 3 4 5 6 
#
# 1 96.1902 66.7081 65.9780 0.0000 0.0000 0.0000
# 2 66.7081 123.2969 74.1254 0.0000 0.0000 0.0000
# 3 65.9780 74.1254 129.3245 0.0000 0.0000 0.0000
# 4 0.0000 0.0000 0.0000 25.5608 0.0000 0.0000
# 5 0.0000 0.0000 0.0000 0.0000 35.9643 0.0000
# 6 0.0000 0.0000 0.0000 0.0000 0.0000 29.5479
#
#
#
# Elastic Compliance Matrix: (Units=1/GPa)
#
#
# Indices 1 2 3 4 5 6 
#
# 1 0.019157 -0.006849 -0.005848 0.000000 0.000000 0.000000
# 2 -0.006849 0.014823 -0.005002 0.000000 0.000000 0.000000
# 3 -0.005848 -0.005002 0.013583 0.000000 0.000000 0.000000
# 4 0.000000 0.000000 0.000000 0.039122 0.000000 0.000000
# 5 0.000000 0.000000 0.000000 0.000000 0.027805 0.000000
# 6 0.000000 0.000000 0.000000 0.000000 0.000000 0.033843
#
#
# Mechanical properties :
#
#
# Convention : Reuss Voigt Hill
#
# Bulk Modulus (GPa) = 82.19987 84.71495 83.45741
# Shear Modulus (GPa) = 26.62590 27.68125 27.15358
#
# Velocity S-wave (km/s) = 3.83556 3.91083 3.87338
# Velocity P-wave (km/s) = 8.06429 8.19756 8.13120
#
# Compressibility (1/GPa) = 0.01216547
#
# Stress axis : x y z
#
# Youngs Moduli (GPa) = 52.20075 67.46126 73.62172
#
# Poissons Ratio (x) = 0.46204 0.43052
# Poissons Ratio (y) = 0.35752 0.36827
# Poissons Ratio (z) = 0.30525 0.33745
#
# Static dielectric constant tensor:
#      x y z
#    x 3.595330 0.000000 0.000000 
#    y 0.000000 6.395310 0.000000 
#    z 0.000000 0.000000 3.105580 
# 
# 
# High freq. dielectric constant tensor:
#      x y z
#    x 1.716900 0.000000 0.000000 
#    y 0.000000 1.717800 0.000000 
#    z 0.000000 0.000000 1.673420 
# 
# From -- ./inp_files/7051.got.cif
#   From: 2010.03.12/outbox.cif.g09.slc.cpg/sg61_4_cif.got.tgz:7051.got - 2010.04.10 19:05:03.
