data_PCOD8249429
_publ_section_title
;
Structure prediction by ZEFSAII (Michael W. Deem and Ramdas Pophale) SiO2 
 PCOD8249429
Probable space group: P B C A
;
_chemical_formula_sum "Si O2"
_cell_formula_units_Z 48
_cell_length_a 28.517623
_cell_length_b 8.591933
_cell_length_c 8.246450
_cell_angle_alpha 90.000000
_cell_angle_beta 90.000000
_cell_angle_gamma 90.000000
_cell_volume 2020.557599
_symmetry_space_group_name_H-M "P B C A"
_symmetry_group_IT_number 61
_symmetry_cell_setting 'orthorhombic'
loop_
_space_group_symop_operation_xyz
x,y,z
1/2-x,-y,1/2+z
1/2+x,1/2-y,-z
-x,1/2+y,1/2-z
-x,-y,-z
1/2+x,y,1/2-z
1/2-x,1/2+y,z
x,1/2-y,1/2+z
loop_
_atom_site_type_symbol
_atom_site_label
_atom_site_fract_x
_atom_site_fract_y
_atom_site_fract_z
Si Si1 0.216563 0.146823 0.513044
Si Si2 0.465009 0.938786 0.201559
Si Si3 0.983292 0.255393 0.437008
Si Si4 0.380744 0.152861 0.516152
Si Si5 0.300529 0.970053 0.649174
Si Si6 0.633993 0.529022 0.335923
O O1 0.210793 0.086900 0.330067
O O2 0.208068 0.331391 0.520475
O O3 0.267374 0.110395 0.588363
O O4 0.179611 0.070727 0.634713
O O5 0.475295 0.872327 0.381564
O O6 0.473894 0.124682 0.202704
O O7 0.411002 0.913348 0.149396
O O8 0.501509 0.844360 0.091486
O O9 0.936874 0.360543 0.463709
O O10 0.363887 0.105186 0.339600
O O11 0.367520 0.333598 0.532927
O O12 0.353646 0.038179 0.641833
#
# Coordination Sequence:
#
# PCOD8249429 Si02
#       6
#     8   8   8   8   8   8
#     4  12  26  46  70 104 138 177 225 275 336 405
#     4  10  23  40  63  93 130 174 222 278 335 399
#     4  10  22  41  63  92 129 172 223 276 336 399
#     4  11  23  43  68  96 133 181 227 282 342 402
#     4  12  26  46  72 100 139 178 222 276 336 403
#     4  11  24  42  66  97 133 176 229 280 341 405
#
# _framework density 23.755818999999999
#
# number of rings (size 3 to 8) (size 9 to 14) (size 15 to 20)
#    0.000    1.000    0.000    7.000    0.000    9.333 
#    0.000    0.000    0.000    0.000    0.000    0.000 
#    0.000    0.000    0.000    0.000    0.000    0.000 
#
# Total GULP energy -595261.575865 kJ/mol
# GULP energy per Si atom -12401.282831 kJ/mol
# Density = 2.370175 g / cm^3
# Si number density = 23.755819 Si / 1000 Ang^3
#
#
#
# Elastic Constant Matrix: (Units=GPa)
#
#
# Indices 1 2 3 4 5 6 
#
# 1 130.7765 56.0835 44.4190 0.0000 0.0000 0.0000
# 2 56.0835 79.8977 23.7513 0.0000 0.0000 0.0000
# 3 44.4190 23.7513 76.1003 0.0000 0.0000 0.0000
# 4 0.0000 0.0000 0.0000 40.2075 0.0000 0.0000
# 5 0.0000 0.0000 0.0000 0.0000 37.9965 0.0000
# 6 0.0000 0.0000 0.0000 0.0000 0.0000 45.4055
#
#
#
# Elastic Compliance Matrix: (Units=1/GPa)
#
#
# Indices 1 2 3 4 5 6 
#
# 1 0.012460 -0.007257 -0.005008 0.000000 0.000000 0.000000
# 2 -0.007257 0.018023 -0.001389 0.000000 0.000000 0.000000
# 3 -0.005008 -0.001389 0.016497 0.000000 0.000000 0.000000
# 4 0.000000 0.000000 0.000000 0.024871 0.000000 0.000000
# 5 0.000000 0.000000 0.000000 0.000000 0.026318 0.000000
# 6 0.000000 0.000000 0.000000 0.000000 0.000000 0.022024
#
#
# Mechanical properties :
#
#
# Convention : Reuss Voigt Hill
#
# Bulk Modulus (GPa) = 50.83408 59.47580 55.15494
# Shear Modulus (GPa) = 32.45519 35.55660 34.00590
#
# Velocity S-wave (km/s) = 3.70022 3.87299 3.78759
# Velocity P-wave (km/s) = 6.30084 6.71496 6.51119
#
# Compressibility (1/GPa) = 0.01967184
#
# Stress axis : x y z
#
# Youngs Moduli (GPa) = 80.25771 55.48392 60.61719
#
# Poissons Ratio (x) = 0.40267 0.30355
# Poissons Ratio (y) = 0.58247 0.08420
# Poissons Ratio (z) = 0.40190 0.07707
#
# Static dielectric constant tensor:
#      x y z
#    x 4.364380 0.000000 0.000000 
#    y 0.000000 4.437500 0.000000 
#    z 0.000000 0.000000 4.162770 
# 
# 
# High freq. dielectric constant tensor:
#      x y z
#    x 1.944040 0.000000 0.000000 
#    y 0.000000 1.946090 0.000000 
#    z 0.000000 0.000000 1.946390 
# 
# From -- ./inp_files/4572.got.cif
#   From: 2010.03.12/outbox.cif.g09.slc.cpg/sg61_3_cif.got.tgz:4572.got - 2010.04.10 19:05:03.
