data_PCOD8249918
_publ_section_title
;
Structure prediction by ZEFSAII (Michael W. Deem and Ramdas Pophale) SiO2 
 PCOD8249918
Probable space group: P B C A
;
_chemical_formula_sum "Si O2"
_cell_formula_units_Z 40
_cell_length_a 8.976393
_cell_length_b 16.363205
_cell_length_c 10.631166
_cell_angle_alpha 90.000000
_cell_angle_beta 90.000000
_cell_angle_gamma 90.000000
_cell_volume 1561.532865
_symmetry_space_group_name_H-M "P B C A"
_symmetry_group_IT_number 61
_symmetry_cell_setting 'orthorhombic'
loop_
_space_group_symop_operation_xyz
x,y,z
1/2-x,-y,1/2+z
1/2+x,1/2-y,-z
-x,1/2+y,1/2-z
-x,-y,-z
1/2+x,y,1/2-z
1/2-x,1/2+y,z
x,1/2-y,1/2+z
loop_
_atom_site_type_symbol
_atom_site_label
_atom_site_fract_x
_atom_site_fract_y
_atom_site_fract_z
Si Si1 0.104809 0.953036 0.739706
Si Si2 0.736270 0.210162 0.189053
Si Si3 0.863306 0.456374 0.364296
Si Si4 0.895149 0.584904 0.018655
Si Si5 0.009893 0.677864 0.796339
O O1 0.170968 0.861753 0.741006
O O2 0.011787 0.965012 0.606378
O O3 0.242613 0.015741 0.741799
O O4 0.994731 0.974729 0.857686
O O5 0.633377 0.173060 0.081134
O O6 0.626189 0.259718 0.279939
O O7 0.856757 0.273483 0.135741
O O8 0.771652 0.455593 0.497767
O O9 0.929485 0.366464 0.331469
O O10 0.963420 0.602158 0.882271
#
# Coordination Sequence:
#
# PCOD8249918 Si02
#       5
#     8   8   8   8   8
#     4  12  25  50  73 111 152 189 255 311 368 451
#     4  12  26  49  72 109 147 196 250 313 365 454
#     4  12  25  48  75 109 147 195 248 311 367 451
#     4  12  27  45  80 103 153 199 246 307 391 427
#     4  12  26  48  73 108 150 191 257 306 369 451
#
# _framework density 25.615856999999998
#
# number of rings (size 3 to 8) (size 9 to 14) (size 15 to 20)
#    0.000    0.000    8.000    0.600    5.600    0.800 
#    0.000    0.000    0.000    0.000    0.000    0.000 
#    0.000    0.000    0.000    0.000    0.000    0.000 
#
# Total GULP energy -495682.178746 kJ/mol
# GULP energy per Si atom -12392.054469 kJ/mol
# Density = 2.555755 g / cm^3
# Si number density = 25.615857 Si / 1000 Ang^3
#
#
#
# Elastic Constant Matrix: (Units=GPa)
#
#
# Indices 1 2 3 4 5 6 
#
# 1 158.3628 69.2820 17.1826 0.0000 0.0000 0.0000
# 2 69.2820 138.9143 18.3333 0.0000 0.0000 0.0000
# 3 17.1826 18.3333 20.2098 0.0000 0.0000 0.0000
# 4 0.0000 0.0000 0.0000 28.3354 0.0000 0.0000
# 5 0.0000 0.0000 0.0000 0.0000 35.9966 0.0000
# 6 0.0000 0.0000 0.0000 0.0000 0.0000 75.9342
#
#
#
# Elastic Compliance Matrix: (Units=1/GPa)
#
#
# Indices 1 2 3 4 5 6 
#
# 1 0.008321 -0.003654 -0.003760 0.000000 0.000000 0.000000
# 2 -0.003654 0.009782 -0.005767 0.000000 0.000000 0.000000
# 3 -0.003760 -0.005767 0.057910 0.000000 0.000000 0.000000
# 4 0.000000 0.000000 0.000000 0.035292 0.000000 0.000000
# 5 0.000000 0.000000 0.000000 0.000000 0.027780 0.000000
# 6 0.000000 0.000000 0.000000 0.000000 0.000000 0.013169
#
#
# Mechanical properties :
#
#
# Convention : Reuss Voigt Hill
#
# Bulk Modulus (GPa) = 20.14084 58.56474 39.35279
# Shear Modulus (GPa) = 25.61909 42.23249 33.92579
#
# Velocity S-wave (km/s) = 3.16591 4.06481 3.64319
# Velocity P-wave (km/s) = 4.60909 6.70392 5.75266
#
# Compressibility (1/GPa) = 0.04965035
#
# Stress axis : x y z
#
# Youngs Moduli (GPa) = 120.17635 102.22718 17.26826
#
# Poissons Ratio (x) = 0.37352 0.06493
# Poissons Ratio (y) = 0.43910 0.09959
# Poissons Ratio (z) = 0.45188 0.58958
#
# Static dielectric constant tensor:
#      x y z
#    x 5.153480 0.000000 0.000000 
#    y 0.000000 4.687750 0.000000 
#    z 0.000000 0.000000 4.359530 
# 
# 
# High freq. dielectric constant tensor:
#      x y z
#    x 2.061140 0.000000 0.000000 
#    y 0.000000 2.044070 0.000000 
#    z 0.000000 0.000000 1.985130 
# 
# From -- ./inp_files/4797.got.cif
#   From: 2010.03.12/outbox.cif.g09.slc.cpg/sg61_3_cif.got.tgz:4797.got - 2010.04.10 19:05:03.
