data_PCOD8249562
_publ_section_title
;
Structure prediction by ZEFSAII (Michael W. Deem and Ramdas Pophale) SiO2 
 PCOD8249562
Probable space group: P B C A
;
_chemical_formula_sum "Si O2"
_cell_formula_units_Z 56
_cell_length_a 20.640441
_cell_length_b 14.814844
_cell_length_c 8.627693
_cell_angle_alpha 90.000000
_cell_angle_beta 90.000000
_cell_angle_gamma 90.000000
_cell_volume 2638.218358
_symmetry_space_group_name_H-M "P B C A"
_symmetry_group_IT_number 61
_symmetry_cell_setting 'orthorhombic'
loop_
_space_group_symop_operation_xyz
x,y,z
1/2-x,-y,1/2+z
1/2+x,1/2-y,-z
-x,1/2+y,1/2-z
-x,-y,-z
1/2+x,y,1/2-z
1/2-x,1/2+y,z
x,1/2-y,1/2+z
loop_
_atom_site_type_symbol
_atom_site_label
_atom_site_fract_x
_atom_site_fract_y
_atom_site_fract_z
Si Si1 0.899534 0.635343 0.003268
Si Si2 0.670909 0.258277 0.764913
Si Si3 0.779301 0.875764 0.022846
Si Si4 0.539564 0.818786 0.936000
Si Si5 0.100519 0.016698 0.081825
Si Si6 0.139513 0.947234 0.418046
Si Si7 0.976529 0.366550 0.592285
O O1 0.880135 0.701707 0.865401
O O2 0.870462 0.671764 0.164247
O O3 0.875993 0.533433 0.973972
O O4 0.976614 0.627081 0.008539
O O5 0.713964 0.190607 0.667299
O O6 0.721779 0.315227 0.867347
O O7 0.714775 0.930983 0.052681
O O8 0.838497 0.945142 0.011782
O O9 0.551362 0.830311 0.753789
O O10 0.600329 0.858913 0.029150
O O11 0.527815 0.713254 0.967295
O O12 0.050307 0.098630 0.113200
O O13 0.122834 0.968937 0.239990
O O14 0.068782 0.946345 0.965584
#
# Coordination Sequence:
#
# PCOD8249562 Si02
#       7
#     8   8   8   8   8   8   8
#     4  11  22  42  70  99 133 174 232 279 338 408
#     4  10  23  43  71  98 127 184 228 277 337 408
#     4  11  25  45  68  97 140 178 227 278 339 410
#     4  12  24  44  67 102 134 180 220 293 337 406
#     4  11  25  46  69 104 134 185 227 288 340 411
#     4  12  27  42  67 102 143 176 229 276 350 417
#     4  11  25  44  73  99 138 174 237 284 350 399
#
# _framework density 21.226445999999999
#
# number of rings (size 3 to 8) (size 9 to 14) (size 15 to 20)
#    0.000    0.857    2.857    3.857    4.000    3.429 
#    2.571    0.000    0.000    0.000    0.000    0.000 
#    0.000    0.000    0.000    0.000    0.000    0.000 
#
# Total GULP energy -694699.862961 kJ/mol
# GULP energy per Si atom -12405.354696 kJ/mol
# Density = 2.117813 g / cm^3
# Si number density = 21.226446 Si / 1000 Ang^3
#
#
#
# Elastic Constant Matrix: (Units=GPa)
#
#
# Indices 1 2 3 4 5 6 
#
# 1 134.1477 55.1337 36.8868 0.0000 0.0000 0.0000
# 2 55.1337 105.4542 45.0041 0.0000 0.0000 0.0000
# 3 36.8868 45.0041 101.0284 0.0000 0.0000 0.0000
# 4 0.0000 0.0000 0.0000 -93.4315 0.0000 0.0000
# 5 0.0000 0.0000 0.0000 0.0000 22.4726 0.0000
# 6 0.0000 0.0000 0.0000 0.0000 0.0000 33.5073
#
#
#
# Elastic Compliance Matrix: (Units=1/GPa)
#
#
# Indices 1 2 3 4 5 6 
#
# 1 0.009695 -0.004393 -0.001583 0.000000 0.000000 0.000000
# 2 -0.004393 0.013700 -0.004498 0.000000 0.000000 0.000000
# 3 -0.001583 -0.004498 0.012480 0.000000 0.000000 0.000000
# 4 0.000000 0.000000 0.000000 -0.010703 0.000000 0.000000
# 5 0.000000 0.000000 0.000000 0.000000 0.044499 0.000000
# 6 0.000000 0.000000 0.000000 0.000000 0.000000 0.029844
#
#
# Mechanical properties :
#
#
# Convention : Reuss Voigt Hill
#
# Bulk Modulus (GPa) = 66.99971 68.29773 67.64872
# Shear Modulus (GPa) = 39.85987 6.08339 22.97163
#
# Velocity S-wave (km/s) = 4.33811 1.69475 3.29328
# Velocity P-wave (km/s) = 7.53160 6.00626 6.81176
#
# Compressibility (1/GPa) = 0.01492544
#
# Stress axis : x y z
#
# Youngs Moduli (GPa) = 103.14194 72.99493 80.12816
#
# Poissons Ratio (x) = 0.32070 0.12683
# Poissons Ratio (y) = 0.45315 0.36046
# Poissons Ratio (z) = 0.16325 0.32837
#
# Static dielectric constant tensor:
#      x y z
#    x 3.680300 0.000000 0.000000 
#    y 0.000000 4.037690 0.000000 
#    z 0.000000 0.000000 4.008010 
# 
# 
# High freq. dielectric constant tensor:
#      x y z
#    x 1.824450 0.000000 0.000000 
#    y 0.000000 1.849280 0.000000 
#    z 0.000000 0.000000 1.841910 
# 
# From -- ./inp_files/3957.got.cif
#   From: 2010.03.12/outbox.cif.g09.slc.cpg/sg61_2_cif.got.tgz:3957.got - 2010.04.10 19:05:03.
