data_PCOD8249696
_publ_section_title
;
Structure prediction by ZEFSAII (Michael W. Deem and Ramdas Pophale) SiO2 
 PCOD8249696
Probable space group: P B C A
;
_chemical_formula_sum "Si O2"
_cell_formula_units_Z 64
_cell_length_a 8.478732
_cell_length_b 19.905778
_cell_length_c 19.714245
_cell_angle_alpha 90.000000
_cell_angle_beta 90.000000
_cell_angle_gamma 90.000000
_cell_volume 3327.286622
_symmetry_space_group_name_H-M "P B C A"
_symmetry_group_IT_number 61
_symmetry_cell_setting 'orthorhombic'
loop_
_space_group_symop_operation_xyz
x,y,z
1/2-x,-y,1/2+z
1/2+x,1/2-y,-z
-x,1/2+y,1/2-z
-x,-y,-z
1/2+x,y,1/2-z
1/2-x,1/2+y,z
x,1/2-y,1/2+z
loop_
_atom_site_type_symbol
_atom_site_label
_atom_site_fract_x
_atom_site_fract_y
_atom_site_fract_z
Si Si1 0.177087 0.449747 0.920840
Si Si2 0.310117 0.442219 0.591181
Si Si3 0.815075 0.587753 0.551763
Si Si4 0.182425 0.580709 0.564250
Si Si5 0.188343 0.840873 0.830310
Si Si6 0.324971 0.227834 0.938193
Si Si7 0.819589 0.834712 0.815327
Si Si8 0.693245 0.221586 0.921599
O O1 0.211860 0.528998 0.913750
O O2 0.240596 0.411752 0.854650
O O3 0.991868 0.438494 0.929708
O O4 0.264949 0.419447 0.985987
O O5 0.207586 0.411683 0.529554
O O6 0.259883 0.518978 0.604993
O O7 0.276670 0.399415 0.658336
O O8 0.762882 0.659089 0.581998
O O9 0.995578 0.574131 0.568744
O O10 0.239433 0.649075 0.599283
O O11 0.229568 0.783635 0.884777
O O12 0.272116 0.819334 0.761239
O O13 0.003536 0.850159 0.820024
O O14 0.510066 0.215546 0.937387
O O15 0.283970 0.250812 0.013422
O O16 0.771813 0.769933 0.858745
#
# Coordination Sequence:
#
# PCOD8249696 Si02
#       8
#     8   8   8   8   8   8   8   8
#     4  11  21  36  59  86 118 154 197 245 298 355
#     4  11  21  36  59  86 118 154 197 245 298 355
#     4  11  21  35  58  88 121 152 195 248 300 351
#     4  11  21  35  58  88 121 152 195 248 300 351
#     4  11  24  41  61  87 121 160 201 246 301 364
#     4  11  22  37  60  89 121 157 201 249 302 357
#     4  11  24  41  61  87 121 160 201 246 301 364
#     4  11  22  37  60  89 121 157 201 249 302 357
#
# _framework density 19.234893
#
# number of rings (size 3 to 8) (size 9 to 14) (size 15 to 20)
#    0.000    1.000    2.500    7.500    0.000    3.000 
#    0.000    1.250    0.000    3.000    0.000    0.000 
#    0.000    0.000    0.000    0.000    0.000    0.000 
#
# Total GULP energy -794031.161395 kJ/mol
# GULP energy per Si atom -12406.736897 kJ/mol
# Density = 1.919111 g / cm^3
# Si number density = 19.234893 Si / 1000 Ang^3
#
#
#
# Elastic Constant Matrix: (Units=GPa)
#
#
# Indices 1 2 3 4 5 6 
#
# 1 68.5475 18.7467 -0.0158 0.0000 0.0000 0.0000
# 2 18.7467 120.2910 26.6557 0.0000 0.0000 0.0000
# 3 -0.0158 26.6557 59.1269 0.0000 0.0000 0.0000
# 4 0.0000 0.0000 0.0000 22.8145 0.0000 0.0000
# 5 0.0000 0.0000 0.0000 0.0000 29.5965 0.0000
# 6 0.0000 0.0000 0.0000 0.0000 0.0000 38.1310
#
#
#
# Elastic Compliance Matrix: (Units=1/GPa)
#
#
# Indices 1 2 3 4 5 6 
#
# 1 0.015314 -0.002653 0.001200 0.000000 0.000000 0.000000
# 2 -0.002653 0.009695 -0.004372 0.000000 0.000000 0.000000
# 3 0.001200 -0.004372 0.018884 0.000000 0.000000 0.000000
# 4 0.000000 0.000000 0.000000 0.043832 0.000000 0.000000
# 5 0.000000 0.000000 0.000000 0.000000 0.033788 0.000000
# 6 0.000000 0.000000 0.000000 0.000000 0.000000 0.026225
#
#
# Mechanical properties :
#
#
# Convention : Reuss Voigt Hill
#
# Bulk Modulus (GPa) = 31.01262 37.63764 34.32513
# Shear Modulus (GPa) = 29.38846 31.61365 30.50105
#
# Velocity S-wave (km/s) = 3.91304 4.05848 3.98642
# Velocity P-wave (km/s) = 6.04764 6.44760 6.25082
#
# Compressibility (1/GPa) = 0.03224494
#
# Stress axis : x y z
#
# Youngs Moduli (GPa) = 65.29917 103.14317 52.95522
#
# Poissons Ratio (x) = 0.27359 -0.06354
# Poissons Ratio (y) = 0.17321 0.23150
# Poissons Ratio (z) = -0.07835 0.45090
#
# Static dielectric constant tensor:
#      x y z
#    x 3.618730 0.000000 0.000000 
#    y 0.000000 3.821990 0.000000 
#    z 0.000000 0.000000 3.267000 
# 
# 
# High freq. dielectric constant tensor:
#      x y z
#    x 1.768460 0.000000 0.000000 
#    y 0.000000 1.765640 0.000000 
#    z 0.000000 0.000000 1.713830 
# 
# From -- ./inp_files/9061.got.cif
#   From: 2010.03.12/outbox.cif.g09.slc.cpg/sg61_5_cif.got.tgz:9061.got - 2010.04.10 19:05:03.
