data_PCOD8249054
_publ_section_title
;
Structure prediction by ZEFSAII (Michael W. Deem and Ramdas Pophale) SiO2 
 PCOD8249054
Probable space group: P B C A
;
_chemical_formula_sum "Si O2"
_cell_formula_units_Z 48
_cell_length_a 16.059171
_cell_length_b 14.624332
_cell_length_c 8.766059
_cell_angle_alpha 90.000000
_cell_angle_beta 90.000000
_cell_angle_gamma 90.000000
_cell_volume 2058.749704
_symmetry_space_group_name_H-M "P B C A"
_symmetry_group_IT_number 61
_symmetry_cell_setting 'orthorhombic'
loop_
_space_group_symop_operation_xyz
x,y,z
1/2-x,-y,1/2+z
1/2+x,1/2-y,-z
-x,1/2+y,1/2-z
-x,-y,-z
1/2+x,y,1/2-z
1/2-x,1/2+y,z
x,1/2-y,1/2+z
loop_
_atom_site_type_symbol
_atom_site_label
_atom_site_fract_x
_atom_site_fract_y
_atom_site_fract_z
Si Si1 0.672006 0.930972 0.550231
Si Si2 0.748244 0.768799 0.723742
Si Si3 0.083609 0.294031 0.180858
Si Si4 0.975873 0.191926 0.959088
Si Si5 0.343090 0.159719 0.994962
Si Si6 0.175925 0.473460 0.134595
O O1 0.726528 0.845910 0.603249
O O2 0.579233 0.896201 0.507011
O O3 0.725014 0.968083 0.406220
O O4 0.665397 0.005638 0.685024
O O5 0.845357 0.747899 0.710677
O O6 0.692209 0.679094 0.676313
O O7 0.728097 0.800674 0.893559
O O8 0.123419 0.382257 0.095408
O O9 0.007001 0.326188 0.287549
O O10 0.053954 0.211483 0.070663
O O11 0.927473 0.287718 0.967018
O O12 0.361436 0.053610 0.027609
#
# Coordination Sequence:
#
# PCOD8249054 Si02
#       6
#     8   8   8   8   8   8
#     4  10  23  43  65  89 120 163 208 252 306 367
#     4  10  20  39  64  85 116 165 211 245 295 373
#     4  12  23  38  62  93 125 160 205 256 312 368
#     4  11  24  42  62  89 129 168 200 246 318 383
#     4  10  21  41  63  86 119 162 210 251 298 366
#     4  11  23  39  64  93 119 157 212 264 303 353
#
# _framework density 23.315121000000001
#
# number of rings (size 3 to 8) (size 9 to 14) (size 15 to 20)
#    0.000    1.333    0.000    8.000    0.000    4.000 
#    0.000    5.000    0.000    0.000    0.000    0.000 
#    0.000    0.000    0.000    0.000    0.000    0.000 
#
# Total GULP energy -595054.851395 kJ/mol
# GULP energy per Si atom -12396.976071 kJ/mol
# Density = 2.326206 g / cm^3
# Si number density = 23.315121 Si / 1000 Ang^3
#
#
#
# Elastic Constant Matrix: (Units=GPa)
#
#
# Indices 1 2 3 4 5 6 
#
# 1 86.2948 14.6068 -5.5410 0.0000 0.0000 0.0000
# 2 14.6068 53.7857 10.2273 0.0000 0.0000 0.0000
# 3 -5.5410 10.2273 25.2789 0.0000 0.0000 0.0000
# 4 0.0000 0.0000 0.0000 33.2957 0.0000 0.0000
# 5 0.0000 0.0000 0.0000 0.0000 43.4168 0.0000
# 6 0.0000 0.0000 0.0000 0.0000 0.0000 40.3542
#
#
#
# Elastic Compliance Matrix: (Units=1/GPa)
#
#
# Indices 1 2 3 4 5 6 
#
# 1 0.012600 -0.004276 0.004492 0.000000 0.000000 0.000000
# 2 -0.004276 0.021593 -0.009673 0.000000 0.000000 0.000000
# 3 0.004492 -0.009673 0.044457 0.000000 0.000000 0.000000
# 4 0.000000 0.000000 0.000000 0.030034 0.000000 0.000000
# 5 0.000000 0.000000 0.000000 0.000000 0.023033 0.000000
# 6 0.000000 0.000000 0.000000 0.000000 0.000000 0.024781
#
#
# Mechanical properties :
#
#
# Convention : Reuss Voigt Hill
#
# Bulk Modulus (GPa) = 16.74052 22.66062 19.70057
# Shear Modulus (GPa) = 25.59853 33.15112 29.37483
#
# Velocity S-wave (km/s) = 3.31711 3.77486 3.55336
# Velocity P-wave (km/s) = 4.67618 5.36095 5.03023
#
# Compressibility (1/GPa) = 0.05973530
#
# Stress axis : x y z
#
# Youngs Moduli (GPa) = 79.36248 46.31148 22.49375
#
# Poissons Ratio (x) = 0.19803 -0.10104
# Poissons Ratio (y) = 0.33936 0.21759
# Poissons Ratio (z) = -0.35649 0.44798
#
# Static dielectric constant tensor:
#      x y z
#    x 4.141510 0.000000 0.000000 
#    y 0.000000 4.271340 0.000000 
#    z 0.000000 0.000000 4.471240 
# 
# 
# High freq. dielectric constant tensor:
#      x y z
#    x 1.919380 0.000000 0.000000 
#    y 0.000000 1.913720 0.000000 
#    z 0.000000 0.000000 1.922960 
# 
# From -- ./inp_files/3438.got.cif
#   From: 2010.03.12/outbox.cif.g09.slc.cpg/sg61_2_cif.got.tgz:3438.got - 2010.04.10 19:05:03.
