data_PCOD8249435
_publ_section_title
;
Structure prediction by ZEFSAII (Michael W. Deem and Ramdas Pophale) SiO2 
 PCOD8249435
Probable space group: P B C A
;
_chemical_formula_sum "Si O2"
_cell_formula_units_Z 56
_cell_length_a 8.939519
_cell_length_b 14.252238
_cell_length_c 19.119791
_cell_angle_alpha 90.000000
_cell_angle_beta 90.000000
_cell_angle_gamma 90.000000
_cell_volume 2436.017245
_symmetry_space_group_name_H-M "P B C A"
_symmetry_group_IT_number 61
_symmetry_cell_setting 'orthorhombic'
loop_
_space_group_symop_operation_xyz
x,y,z
1/2-x,-y,1/2+z
1/2+x,1/2-y,-z
-x,1/2+y,1/2-z
-x,-y,-z
1/2+x,y,1/2-z
1/2-x,1/2+y,z
x,1/2-y,1/2+z
loop_
_atom_site_type_symbol
_atom_site_label
_atom_site_fract_x
_atom_site_fract_y
_atom_site_fract_z
Si Si1 0.299354 0.527583 0.221352
Si Si2 0.199077 0.239496 0.341134
Si Si3 0.949862 0.347547 0.745646
Si Si4 0.175368 0.566402 0.863713
Si Si5 0.806525 0.386136 0.987408
Si Si6 0.340214 0.563242 0.606382
Si Si7 0.378040 0.710377 0.495951
O O1 0.455911 0.575083 0.202407
O O2 0.164614 0.599084 0.202800
O O3 0.292233 0.513503 0.306115
O O4 0.276996 0.435964 0.172064
O O5 0.359775 0.211070 0.311001
O O6 0.210617 0.350685 0.345436
O O7 0.177742 0.192512 0.417021
O O8 0.059987 0.216772 0.291193
O O9 0.999107 0.589798 0.859709
O O10 0.208053 0.543469 0.945332
O O11 0.833879 0.456549 0.923703
O O12 0.945333 0.313702 0.999511
O O13 0.661078 0.317793 0.979869
O O14 0.291640 0.639737 0.548980
#
# Coordination Sequence:
#
# PCOD8249435 Si02
#       7
#     8   8   8   8   8   8   8
#     4  11  22  41  60  96 128 169 222 265 337 397
#     4  10  23  42  64  98 128 175 218 279 336 391
#     4  10  23  38  64  90 131 168 217 278 324 397
#     4  10  22  41  66  91 130 173 222 268 332 402
#     4  10  23  43  70  96 131 177 229 276 345 398
#     4  11  23  41  71  98 132 184 224 278 343 405
#     4  10  22  44  68  96 132 173 225 280 333 417
#
# _framework density 22.988343
#
# number of rings (size 3 to 8) (size 9 to 14) (size 15 to 20)
#    0.000    1.714    1.429    2.571    8.000    3.429 
#   10.286    1.429    0.000    0.000    0.000    0.000 
#    0.000    0.000    0.000    0.000    0.000    0.000 
#
# Total GULP energy -693804.381793 kJ/mol
# GULP energy per Si atom -12389.363961 kJ/mol
# Density = 2.293602 g / cm^3
# Si number density = 22.988343 Si / 1000 Ang^3
#
#
#
# Elastic Constant Matrix: (Units=GPa)
#
#
# Indices 1 2 3 4 5 6 
#
# 1 76.4398 14.8118 26.0419 0.0000 0.0000 0.0000
# 2 14.8118 39.1569 20.4349 0.0000 0.0000 0.0000
# 3 26.0419 20.4349 107.3161 0.0000 0.0000 0.0000
# 4 0.0000 0.0000 0.0000 35.5941 0.0000 0.0000
# 5 0.0000 0.0000 0.0000 0.0000 31.0879 0.0000
# 6 0.0000 0.0000 0.0000 0.0000 0.0000 31.6278
#
#
#
# Elastic Compliance Matrix: (Units=1/GPa)
#
#
# Indices 1 2 3 4 5 6 
#
# 1 0.014844 -0.004147 -0.002812 0.000000 0.000000 0.000000
# 2 -0.004147 0.029515 -0.004614 0.000000 0.000000 0.000000
# 3 -0.002812 -0.004614 0.010879 0.000000 0.000000 0.000000
# 4 0.000000 0.000000 0.000000 0.028095 0.000000 0.000000
# 5 0.000000 0.000000 0.000000 0.000000 0.032167 0.000000
# 6 0.000000 0.000000 0.000000 0.000000 0.000000 0.031618
#
#
# Mechanical properties :
#
#
# Convention : Reuss Voigt Hill
#
# Bulk Modulus (GPa) = 31.16119 38.38779 34.77449
# Shear Modulus (GPa) = 27.63023 30.43689 29.03356
#
# Velocity S-wave (km/s) = 3.47064 3.64265 3.55768
# Velocity P-wave (km/s) = 5.44473 5.86744 5.66003
#
# Compressibility (1/GPa) = 0.03209120
#
# Stress axis : x y z
#
# Youngs Moduli (GPa) = 67.36743 33.88128 91.91782
#
# Poissons Ratio (x) = 0.14052 0.25851
# Poissons Ratio (y) = 0.27939 0.42409
# Poissons Ratio (z) = 0.18946 0.15632
#
# Static dielectric constant tensor:
#      x y z
#    x 4.042650 0.000000 0.000000 
#    y 0.000000 3.977560 0.000000 
#    z 0.000000 0.000000 4.342040 
# 
# 
# High freq. dielectric constant tensor:
#      x y z
#    x 1.896990 0.000000 0.000000 
#    y 0.000000 1.892180 0.000000 
#    z 0.000000 0.000000 1.921560 
# 
# From -- ./inp_files/10127.got.cif
#   From: 2010.03.12/outbox.cif.g09.slc.cpg/sg61_6_cif.got.tgz:10127.got - 2010.04.10 19:05:03.
