data_PCOD8249231
_publ_section_title
;
Structure prediction by ZEFSAII (Michael W. Deem and Ramdas Pophale) SiO2 
 PCOD8249231
Probable space group: P B C A
;
_chemical_formula_sum "Si O2"
_cell_formula_units_Z 56
_cell_length_a 21.390243
_cell_length_b 8.909371
_cell_length_c 14.758227
_cell_angle_alpha 90.000000
_cell_angle_beta 90.000000
_cell_angle_gamma 90.000000
_cell_volume 2812.528606
_symmetry_space_group_name_H-M "P B C A"
_symmetry_group_IT_number 61
_symmetry_cell_setting 'orthorhombic'
loop_
_space_group_symop_operation_xyz
x,y,z
1/2-x,-y,1/2+z
1/2+x,1/2-y,-z
-x,1/2+y,1/2-z
-x,-y,-z
1/2+x,y,1/2-z
1/2-x,1/2+y,z
x,1/2-y,1/2+z
loop_
_atom_site_type_symbol
_atom_site_label
_atom_site_fract_x
_atom_site_fract_y
_atom_site_fract_z
Si Si1 0.254486 0.636997 0.792988
Si Si2 0.395880 0.506294 0.039418
Si Si3 0.460529 0.249599 0.343383
Si Si4 0.041460 0.412788 0.797635
Si Si5 0.168070 0.108316 0.215587
Si Si6 0.170825 0.871864 0.880670
Si Si7 0.003647 0.204714 0.956095
O O1 0.287491 0.747278 0.721117
O O2 0.203859 0.546133 0.735369
O O3 0.222021 0.738723 0.871625
O O4 0.304287 0.525522 0.837156
O O5 0.360589 0.601818 0.115223
O O6 0.449400 0.402271 0.085221
O O7 0.345005 0.405275 0.985694
O O8 0.431081 0.614956 0.967385
O O9 0.466587 0.410200 0.298130
O O10 0.507924 0.139822 0.293514
O O11 0.391538 0.182078 0.329350
O O12 0.479430 0.265310 0.447938
O O13 0.114424 0.370856 0.791144
O O14 0.012887 0.342177 0.888351
#
# Coordination Sequence:
#
# PCOD8249231 Si02
#       7
#     8   8   8   8   8   8   8
#     4  10  23  41  63  88 121 169 215 251 308 368
#     4  10  21  39  63  93 129 161 204 262 312 373
#     4  11  24  39  63  97 126 160 210 257 323 375
#     4  12  23  39  67  93 128 164 203 264 322 375
#     4  11  22  41  63  92 124 164 214 254 308 376
#     4  10  22  41  63  87 125 163 208 262 306 370
#     4  10  22  38  60  97 132 160 204 254 326 382
#
# _framework density 19.910909
#
# number of rings (size 3 to 8) (size 9 to 14) (size 15 to 20)
#    0.000    1.429    2.857    2.143    6.000    1.143 
#    0.000    0.000    3.143    0.000    0.000    0.000 
#    0.000    0.000    0.000    0.000    0.000    0.000 
#
# Total GULP energy -694515.620900 kJ/mol
# GULP energy per Si atom -12402.064659 kJ/mol
# Density = 1.986559 g / cm^3
# Si number density = 19.910909 Si / 1000 Ang^3
#
#
#
# Elastic Constant Matrix: (Units=GPa)
#
#
# Indices 1 2 3 4 5 6 
#
# 1 116.9354 61.2716 49.5702 0.0000 0.0000 0.0000
# 2 61.2716 124.6740 42.4875 0.0000 0.0000 0.0000
# 3 49.5702 42.4875 90.0286 0.0000 0.0000 0.0000
# 4 0.0000 0.0000 0.0000 17.4443 0.0000 0.0000
# 5 0.0000 0.0000 0.0000 0.0000 28.8251 0.0000
# 6 0.0000 0.0000 0.0000 0.0000 0.0000 36.3069
#
#
#
# Elastic Compliance Matrix: (Units=1/GPa)
#
#
# Indices 1 2 3 4 5 6 
#
# 1 0.013170 -0.004768 -0.005001 0.000000 0.000000 0.000000
# 2 -0.004768 0.011284 -0.002700 0.000000 0.000000 0.000000
# 3 -0.005001 -0.002700 0.015136 0.000000 0.000000 0.000000
# 4 0.000000 0.000000 0.000000 0.057325 0.000000 0.000000
# 5 0.000000 0.000000 0.000000 0.000000 0.034692 0.000000
# 6 0.000000 0.000000 0.000000 0.000000 0.000000 0.027543
#
#
# Mechanical properties :
#
#
# Convention : Reuss Voigt Hill
#
# Bulk Modulus (GPa) = 68.25458 70.92184 69.58821
# Shear Modulus (GPa) = 26.45876 28.40254 27.43065
#
# Velocity S-wave (km/s) = 3.64930 3.78098 3.71572
# Velocity P-wave (km/s) = 7.21879 7.39986 7.30989
#
# Compressibility (1/GPa) = 0.01465103
#
# Stress axis : x y z
#
# Youngs Moduli (GPa) = 75.92855 88.61767 66.06927
#
# Poissons Ratio (x) = 0.42255 0.33044
# Poissons Ratio (y) = 0.36204 0.17839
# Poissons Ratio (z) = 0.37975 0.23928
#
# Static dielectric constant tensor:
#      x y z
#    x 3.795090 0.000000 0.000000 
#    y 0.000000 3.640930 0.000000 
#    z 0.000000 0.000000 3.341270 
# 
# 
# High freq. dielectric constant tensor:
#      x y z
#    x 1.787800 0.000000 0.000000 
#    y 0.000000 1.785330 0.000000 
#    z 0.000000 0.000000 1.763570 
# 
# From -- ./inp_files/3038.got.cif
#   From: 2010.03.12/outbox.cif.g09.slc.cpg/sg61_2_cif.got.tgz:3038.got - 2010.04.10 19:05:03.
