data_PCOD8249641
_publ_section_title
;
Structure prediction by ZEFSAII (Michael W. Deem and Ramdas Pophale) SiO2 
 PCOD8249641
Probable space group: P B C A
;
_chemical_formula_sum "Si O2"
_cell_formula_units_Z 40
_cell_length_a 8.841839
_cell_length_b 19.795889
_cell_length_c 9.030491
_cell_angle_alpha 90.000000
_cell_angle_beta 90.000000
_cell_angle_gamma 90.000000
_cell_volume 1580.625473
_symmetry_space_group_name_H-M "P B C A"
_symmetry_group_IT_number 61
_symmetry_cell_setting 'orthorhombic'
loop_
_space_group_symop_operation_xyz
x,y,z
1/2-x,-y,1/2+z
1/2+x,1/2-y,-z
-x,1/2+y,1/2-z
-x,-y,-z
1/2+x,y,1/2-z
1/2-x,1/2+y,z
x,1/2-y,1/2+z
loop_
_atom_site_type_symbol
_atom_site_label
_atom_site_fract_x
_atom_site_fract_y
_atom_site_fract_z
Si Si1 0.789211 0.930592 0.208788
Si Si2 0.661992 0.556305 0.391102
Si Si3 0.555638 0.663745 0.798526
Si Si4 0.400613 0.858543 0.790699
Si Si5 0.369587 0.222503 0.404049
O O1 0.651102 0.905274 0.310968
O O2 0.885148 0.861787 0.183856
O O3 0.877077 0.987171 0.303183
O O4 0.727979 0.959547 0.053088
O O5 0.788066 0.592963 0.295034
O O6 0.504714 0.598283 0.404797
O O7 0.593838 0.700623 0.642703
O O8 0.601910 0.719448 0.920598
O O9 0.304407 0.799893 0.872855
O O10 0.512166 0.827544 0.670617
#
# Coordination Sequence:
#
# PCOD8249641 Si02
#       5
#     8   8   8   8   8
#     4  12  29  48  77 113 151 200 251 313 376 451
#     4  11  26  48  76 112 151 197 251 309 378 445
#     4  12  29  48  76 110 151 195 257 311 380 446
#     4  10  24  46  79 105 150 198 249 309 376 442
#     4  11  26  48  76 107 149 195 253 310 375 447
#
# _framework density 25.306436000000001
#
# number of rings (size 3 to 8) (size 9 to 14) (size 15 to 20)
#    0.000    0.800    2.000    2.400   14.000    6.400 
#    0.000    0.000    0.000    0.000    0.000    0.000 
#    0.000    0.000    0.000    0.000    0.000    0.000 
#
# Total GULP energy -496134.107381 kJ/mol
# GULP energy per Si atom -12403.352685 kJ/mol
# Density = 2.524884 g / cm^3
# Si number density = 25.306436 Si / 1000 Ang^3
#
#
#
# Elastic Constant Matrix: (Units=GPa)
#
#
# Indices 1 2 3 4 5 6 
#
# 1 121.6399 38.0403 38.3624 0.0000 0.0000 0.0000
# 2 38.0403 92.1339 28.6740 0.0000 0.0000 0.0000
# 3 38.3624 28.6740 98.0459 0.0000 0.0000 0.0000
# 4 0.0000 0.0000 0.0000 44.0038 0.0000 0.0000
# 5 0.0000 0.0000 0.0000 0.0000 28.3686 0.0000
# 6 0.0000 0.0000 0.0000 0.0000 0.0000 30.4468
#
#
#
# Elastic Compliance Matrix: (Units=1/GPa)
#
#
# Indices 1 2 3 4 5 6 
#
# 1 0.010200 -0.003267 -0.003036 0.000000 0.000000 0.000000
# 2 -0.003267 0.012987 -0.002520 0.000000 0.000000 0.000000
# 3 -0.003036 -0.002520 0.012124 0.000000 0.000000 0.000000
# 4 0.000000 0.000000 0.000000 0.022725 0.000000 0.000000
# 5 0.000000 0.000000 0.000000 0.000000 0.035250 0.000000
# 6 0.000000 0.000000 0.000000 0.000000 0.000000 0.032844
#
#
# Mechanical properties :
#
#
# Convention : Reuss Voigt Hill
#
# Bulk Modulus (GPa) = 56.60450 57.99702 57.30076
# Shear Modulus (GPa) = 33.40832 34.34672 33.87752
#
# Velocity S-wave (km/s) = 3.63733 3.68806 3.66278
# Velocity P-wave (km/s) = 6.32901 6.41119 6.37023
#
# Compressibility (1/GPa) = 0.01766644
#
# Stress axis : x y z
#
# Youngs Moduli (GPa) = 98.04018 77.00169 82.48111
#
# Poissons Ratio (x) = 0.25153 0.25038
# Poissons Ratio (y) = 0.32026 0.20784
# Poissons Ratio (z) = 0.29761 0.19404
#
# Static dielectric constant tensor:
#      x y z
#    x 4.767300 0.000000 0.000000 
#    y 0.000000 4.472670 0.000000 
#    z 0.000000 0.000000 4.310240 
# 
# 
# High freq. dielectric constant tensor:
#      x y z
#    x 2.027900 0.000000 0.000000 
#    y 0.000000 2.014470 0.000000 
#    z 0.000000 0.000000 1.999970 
# 
# From -- ./inp_files/1771.got.cif
#   From: 2010.03.12/outbox.cif.g09.slc.cpg/sg61_1_cif.got.tgz:1771.got - 2010.04.10 19:05:03.
