data_PCOD8249103
_publ_section_title
;
Structure prediction by ZEFSAII (Michael W. Deem and Ramdas Pophale) SiO2 
 PCOD8249103
Probable space group: P B C A
;
_chemical_formula_sum "Si O2"
_cell_formula_units_Z 48
_cell_length_a 17.683600
_cell_length_b 8.522877
_cell_length_c 13.537487
_cell_angle_alpha 90.000000
_cell_angle_beta 90.000000
_cell_angle_gamma 90.000000
_cell_volume 2040.304353
_symmetry_space_group_name_H-M "P B C A"
_symmetry_group_IT_number 61
_symmetry_cell_setting 'orthorhombic'
loop_
_space_group_symop_operation_xyz
x,y,z
1/2-x,-y,1/2+z
1/2+x,1/2-y,-z
-x,1/2+y,1/2-z
-x,-y,-z
1/2+x,y,1/2-z
1/2-x,1/2+y,z
x,1/2-y,1/2+z
loop_
_atom_site_type_symbol
_atom_site_label
_atom_site_fract_x
_atom_site_fract_y
_atom_site_fract_z
Si Si1 0.706988 0.044191 0.833659
Si Si2 0.660298 0.134227 0.418848
Si Si3 0.535000 0.549169 0.846145
Si Si4 0.368280 0.641955 0.861377
Si Si5 0.068829 0.490769 0.867272
Si Si6 0.413915 0.141009 0.064727
O O1 0.684672 0.188212 0.903192
O O2 0.693563 0.091725 0.719994
O O3 0.793129 0.991881 0.853046
O O4 0.657614 0.894612 0.866007
O O5 0.669780 0.099516 0.534682
O O6 0.572035 0.113926 0.385731
O O7 0.444466 0.539690 0.846685
O O8 0.565604 0.584302 0.735881
O O9 0.564996 0.677794 0.923633
O O10 0.386893 0.826668 0.853683
O O11 0.982633 0.464950 0.898650
O O12 0.107188 0.600351 0.950737
#
# Coordination Sequence:
#
# PCOD8249103 Si02
#       6
#     8   8   8   8   8   8
#     4  12  25  46  69 101 142 192 238 288 362 425
#     4  12  27  45  69 105 142 189 240 294 357 433
#     4  11  23  42  73 111 139 182 244 298 357 426
#     4  11  24  44  75 102 146 187 236 302 355 424
#     4  10  20  41  71 104 141 189 229 291 358 413
#     4  10  22  40  69 104 140 183 236 293 344 426
#
# _framework density 23.525901000000001
#
# number of rings (size 3 to 8) (size 9 to 14) (size 15 to 20)
#    0.000    1.000    5.000    1.500    0.000    4.000 
#    0.000    0.000    0.000    0.000    0.000    0.000 
#    0.000    0.000    0.000    0.000    0.000    0.000 
#
# Total GULP energy -595280.419967 kJ/mol
# GULP energy per Si atom -12401.675416 kJ/mol
# Density = 2.347236 g / cm^3
# Si number density = 23.525901 Si / 1000 Ang^3
#
#
#
# Elastic Constant Matrix: (Units=GPa)
#
#
# Indices 1 2 3 4 5 6 
#
# 1 73.2870 26.8232 40.0343 0.0000 0.0000 0.0000
# 2 26.8232 52.4918 5.0128 0.0000 0.0000 0.0000
# 3 40.0343 5.0128 157.0955 0.0000 0.0000 0.0000
# 4 0.0000 0.0000 0.0000 39.9749 0.0000 0.0000
# 5 0.0000 0.0000 0.0000 0.0000 33.2099 0.0000
# 6 0.0000 0.0000 0.0000 0.0000 0.0000 29.0535
#
#
#
# Elastic Compliance Matrix: (Units=1/GPa)
#
#
# Indices 1 2 3 4 5 6 
#
# 1 0.019757 -0.009644 -0.004727 0.000000 0.000000 0.000000
# 2 -0.009644 0.023817 0.001698 0.000000 0.000000 0.000000
# 3 -0.004727 0.001698 0.007516 0.000000 0.000000 0.000000
# 4 0.000000 0.000000 0.000000 0.025016 0.000000 0.000000
# 5 0.000000 0.000000 0.000000 0.000000 0.030111 0.000000
# 6 0.000000 0.000000 0.000000 0.000000 0.000000 0.034419
#
#
# Mechanical properties :
#
#
# Convention : Reuss Voigt Hill
#
# Bulk Modulus (GPa) = 38.84648 47.40167 43.12407
# Shear Modulus (GPa) = 28.64266 34.51460 31.57863
#
# Velocity S-wave (km/s) = 3.49305 3.83442 3.66770
# Velocity P-wave (km/s) = 5.72857 6.30842 6.02547
#
# Compressibility (1/GPa) = 0.02574236
#
# Stress axis : x y z
#
# Youngs Moduli (GPa) = 50.61449 41.98727 133.04847
#
# Poissons Ratio (x) = 0.40494 0.62894
# Poissons Ratio (y) = 0.48815 -0.22589
# Poissons Ratio (z) = 0.23926 -0.07129
#
# Static dielectric constant tensor:
#      x y z
#    x 4.166440 0.000000 0.000000 
#    y 0.000000 3.982170 0.000000 
#    z 0.000000 0.000000 4.412260 
# 
# 
# High freq. dielectric constant tensor:
#      x y z
#    x 1.919140 0.000000 0.000000 
#    y 0.000000 1.916480 0.000000 
#    z 0.000000 0.000000 1.945570 
# 
# From -- ./inp_files/8106.got.cif
#   From: 2010.03.12/outbox.cif.g09.slc.cpg/sg61_5_cif.got.tgz:8106.got - 2010.04.10 19:05:03.
