data_PCOD8249339
_publ_section_title
;
Structure prediction by ZEFSAII (Michael W. Deem and Ramdas Pophale) SiO2 
 PCOD8249339
Probable space group: P B C A
;
_chemical_formula_sum "Si O2"
_cell_formula_units_Z 48
_cell_length_a 17.096726
_cell_length_b 7.643865
_cell_length_c 17.077966
_cell_angle_alpha 90.000000
_cell_angle_beta 90.000000
_cell_angle_gamma 90.000000
_cell_volume 2231.835105
_symmetry_space_group_name_H-M "P B C A"
_symmetry_group_IT_number 61
_symmetry_cell_setting 'orthorhombic'
loop_
_space_group_symop_operation_xyz
x,y,z
1/2-x,-y,1/2+z
1/2+x,1/2-y,-z
-x,1/2+y,1/2-z
-x,-y,-z
1/2+x,y,1/2-z
1/2-x,1/2+y,z
x,1/2-y,1/2+z
loop_
_atom_site_type_symbol
_atom_site_label
_atom_site_fract_x
_atom_site_fract_y
_atom_site_fract_z
Si Si1 0.899648 0.497738 0.119331
Si Si2 0.758905 0.796109 0.874797
Si Si3 0.270722 0.547225 0.502649
Si Si4 0.639856 0.576952 0.791559
Si Si5 0.503202 0.829492 0.391350
Si Si6 0.099641 0.867776 0.953435
O O1 0.855150 0.477933 0.201585
O O2 0.972037 0.632219 0.121957
O O3 0.926146 0.304096 0.094716
O O4 0.840337 0.580071 0.056863
O O5 0.791961 0.611389 0.906877
O O6 0.690943 0.752064 0.811327
O O7 0.733563 0.846907 0.966176
O O8 0.827955 0.912070 0.840382
O O9 0.191574 0.601112 0.458371
O O10 0.549630 0.613443 0.813134
O O11 0.566282 0.841480 0.460094
O O12 0.433596 0.964072 0.407818
#
# Coordination Sequence:
#
# PCOD8249339 Si02
#       6
#     8   8   8   8   8   8
#     4  12  27  42  72 103 140 182 236 293 348 412
#     4  10  21  43  70  93 139 181 225 286 344 421
#     4  11  20  43  69 103 127 186 239 289 332 421
#     4  11  26  45  64 107 140 183 230 287 364 411
#     4  11  25  47  67 104 138 187 224 288 357 420
#     4  11  24  44  74  98 138 179 242 285 345 424
#
# _framework density 21.506965999999998
#
# number of rings (size 3 to 8) (size 9 to 14) (size 15 to 20)
#    0.000    1.000    5.000    1.500    7.000    0.000 
#    6.000    0.000    0.000    0.000    0.000    0.000 
#    0.000    0.000    0.000    0.000    0.000    0.000 
#
# Total GULP energy -594762.628721 kJ/mol
# GULP energy per Si atom -12390.888098 kJ/mol
# Density = 2.145801 g / cm^3
# Si number density = 21.506966 Si / 1000 Ang^3
#
#
#
# Elastic Constant Matrix: (Units=GPa)
#
#
# Indices 1 2 3 4 5 6 
#
# 1 61.7196 23.0703 13.2002 0.0000 0.0000 0.0000
# 2 23.0703 68.2795 9.9087 0.0000 0.0000 0.0000
# 3 13.2002 9.9087 86.0341 0.0000 0.0000 0.0000
# 4 0.0000 0.0000 0.0000 23.5473 0.0000 0.0000
# 5 0.0000 0.0000 0.0000 0.0000 14.6977 0.0000
# 6 0.0000 0.0000 0.0000 0.0000 0.0000 34.5497
#
#
#
# Elastic Compliance Matrix: (Units=1/GPa)
#
#
# Indices 1 2 3 4 5 6 
#
# 1 0.018948 -0.006082 -0.002207 0.000000 0.000000 0.000000
# 2 -0.006082 0.016847 -0.001007 0.000000 0.000000 0.000000
# 3 -0.002207 -0.001007 0.012078 0.000000 0.000000 0.000000
# 4 0.000000 0.000000 0.000000 0.042468 0.000000 0.000000
# 5 0.000000 0.000000 0.000000 0.000000 0.068038 0.000000
# 6 0.000000 0.000000 0.000000 0.000000 0.000000 0.028944
#
#
# Mechanical properties :
#
#
# Convention : Reuss Voigt Hill
#
# Bulk Modulus (GPa) = 34.15186 34.26575 34.20880
# Shear Modulus (GPa) = 23.18325 25.88255 24.53290
#
# Velocity S-wave (km/s) = 3.28676 3.47284 3.38108
# Velocity P-wave (km/s) = 5.50615 5.66108 5.58415
#
# Compressibility (1/GPa) = 0.02928099
#
# Stress axis : x y z
#
# Youngs Moduli (GPa) = 52.77715 59.35857 82.79612
#
# Poissons Ratio (x) = 0.36101 0.18270
# Poissons Ratio (y) = 0.32098 0.08339
# Poissons Ratio (z) = 0.11646 0.05978
#
# Static dielectric constant tensor:
#      x y z
#    x 3.569350 0.000000 0.000000 
#    y 0.000000 4.563250 0.000000 
#    z 0.000000 0.000000 3.840840 
# 
# 
# High freq. dielectric constant tensor:
#      x y z
#    x 1.830220 0.000000 0.000000 
#    y 0.000000 1.873150 0.000000 
#    z 0.000000 0.000000 1.839480 
# 
# From -- ./inp_files/9440.got.cif
#   From: 2010.03.12/outbox.cif.g09.slc.cpg/sg61_5_cif.got.tgz:9440.got - 2010.04.10 19:05:03.
