data_PCOD8249421
_publ_section_title
;
Structure prediction by ZEFSAII (Michael W. Deem and Ramdas Pophale) SiO2 
 PCOD8249421
Probable space group: P B C A
;
_chemical_formula_sum "Si O2"
_cell_formula_units_Z 64
_cell_length_a 15.362117
_cell_length_b 23.347028
_cell_length_c 8.910746
_cell_angle_alpha 90.000000
_cell_angle_beta 90.000000
_cell_angle_gamma 90.000000
_cell_volume 3195.926162
_symmetry_space_group_name_H-M "P B C A"
_symmetry_group_IT_number 61
_symmetry_cell_setting 'orthorhombic'
loop_
_space_group_symop_operation_xyz
x,y,z
1/2-x,-y,1/2+z
1/2+x,1/2-y,-z
-x,1/2+y,1/2-z
-x,-y,-z
1/2+x,y,1/2-z
1/2-x,1/2+y,z
x,1/2-y,1/2+z
loop_
_atom_site_type_symbol
_atom_site_label
_atom_site_fract_x
_atom_site_fract_y
_atom_site_fract_z
Si Si1 0.741618 0.178774 0.699166
Si Si2 0.253385 0.701724 0.148824
Si Si3 0.912999 0.369471 0.837473
Si Si4 0.911278 0.110362 0.678954
Si Si5 0.657803 0.994895 0.796805
Si Si6 0.657256 0.486960 0.641118
Si Si7 0.918103 0.897777 0.153408
Si Si8 0.089585 0.377919 0.696310
O O1 0.744030 0.199548 0.529314
O O2 0.741170 0.232377 0.808647
O O3 0.823996 0.139618 0.740572
O O4 0.655773 0.141546 0.728098
O O5 0.164309 0.673546 0.208739
O O6 0.334564 0.668265 0.221503
O O7 0.886318 0.433248 0.791938
O O8 0.997984 0.349904 0.745030
O O9 0.933332 0.365891 0.014047
O O10 0.900403 0.042225 0.677287
O O11 0.989370 0.126237 0.791024
O O12 0.750770 0.991288 0.720383
O O13 0.595055 0.037140 0.705972
O O14 0.671763 0.018184 0.963981
O O15 0.604686 0.432171 0.697283
O O16 0.912925 0.897772 0.974890
#
# Coordination Sequence:
#
# PCOD8249421 Si02
#       8
#     8   8   8   8   8   8   8   8
#     4  10  23  43  62  84 119 157 201 251 298 349
#     4  10  23  43  62  84 119 157 201 251 298 349
#     4  10  22  41  61  87 123 158 194 244 300 353
#     4  10  22  41  61  87 123 158 194 244 300 353
#     4  11  21  37  62  90 124 160 195 241 301 359
#     4  11  21  37  62  90 124 160 195 241 301 359
#     4  11  23  40  61  91 124 156 199 247 295 358
#     4  11  23  40  61  91 124 156 199 247 295 358
#
# _framework density 20.025493999999998
#
# number of rings (size 3 to 8) (size 9 to 14) (size 15 to 20)
#    0.000    1.500    2.500    2.250    0.000    9.000 
#    0.000    5.000    0.000    0.000    0.000    0.000 
#    0.000    0.000    0.000    0.000    0.000    0.000 
#
# Total GULP energy -793965.255982 kJ/mol
# GULP energy per Si atom -12405.707125 kJ/mol
# Density = 1.997992 g / cm^3
# Si number density = 20.025494 Si / 1000 Ang^3
#
#
#
# Elastic Constant Matrix: (Units=GPa)
#
#
# Indices 1 2 3 4 5 6 
#
# 1 118.2448 -8.3101 19.4374 0.0000 0.0000 0.0000
# 2 -8.3101 33.9348 -6.2345 0.0000 0.0000 0.0000
# 3 19.4374 -6.2345 38.1467 0.0000 0.0000 0.0000
# 4 0.0000 0.0000 0.0000 33.3007 0.0000 0.0000
# 5 0.0000 0.0000 0.0000 0.0000 37.7041 0.0000
# 6 0.0000 0.0000 0.0000 0.0000 0.0000 11.1297
#
#
#
# Elastic Compliance Matrix: (Units=1/GPa)
#
#
# Indices 1 2 3 4 5 6 
#
# 1 0.009299 0.001450 -0.004501 0.000000 0.000000 0.000000
# 2 0.001450 0.030607 0.004263 0.000000 0.000000 0.000000
# 3 -0.004501 0.004263 0.029205 0.000000 0.000000 0.000000
# 4 0.000000 0.000000 0.000000 0.030029 0.000000 0.000000
# 5 0.000000 0.000000 0.000000 0.000000 0.026522 0.000000
# 6 0.000000 0.000000 0.000000 0.000000 0.000000 0.089849
#
#
# Mechanical properties :
#
#
# Convention : Reuss Voigt Hill
#
# Bulk Modulus (GPa) = 13.97921 22.23467 18.10694
# Shear Modulus (GPa) = 21.10311 28.78913 24.94612
#
# Velocity S-wave (km/s) = 3.24977 3.79571 3.53330
# Velocity P-wave (km/s) = 4.59099 5.50792 5.07023
#
# Compressibility (1/GPa) = 0.07153481
#
# Stress axis : x y z
#
# Youngs Moduli (GPa) = 107.54011 32.67270 34.24090
#
# Poissons Ratio (x) = -0.04738 0.15412
# Poissons Ratio (y) = -0.15595 -0.14598
# Poissons Ratio (z) = 0.48405 -0.13929
#
# Static dielectric constant tensor:
#      x y z
#    x 3.939600 0.000000 0.000000 
#    y 0.000000 3.621200 0.000000 
#    z 0.000000 0.000000 3.656210 
# 
# 
# High freq. dielectric constant tensor:
#      x y z
#    x 1.798510 0.000000 0.000000 
#    y 0.000000 1.775180 0.000000 
#    z 0.000000 0.000000 1.781160 
# 
# From -- ./inp_files/3210.got.cif
#   From: 2010.03.12/outbox.cif.g09.slc.cpg/sg61_2_cif.got.tgz:3210.got - 2010.04.10 19:05:03.
