data_PCOD8249961
_publ_section_title
;
Structure prediction by ZEFSAII (Michael W. Deem and Ramdas Pophale) SiO2 
 PCOD8249961
Probable space group: P N M A
;
_chemical_formula_sum "Si O2"
_cell_formula_units_Z 64
_cell_length_a 19.125372
_cell_length_b 8.947726
_cell_length_c 23.421585
_cell_angle_alpha 90.000000
_cell_angle_beta 90.000000
_cell_angle_gamma 90.000000
_cell_volume 4008.102777
_symmetry_space_group_name_H-M "P N M A"
_symmetry_group_IT_number 62
_symmetry_cell_setting 'orthorhombic'
loop_
_space_group_symop_operation_xyz
x,y,z
1/2-x,-y,1/2+z
1/2+x,1/2-y,1/2-z
-x,1/2+y,-z
-x,-y,-z
1/2+x,y,1/2-z
1/2-x,1/2+y,1/2+z
x,1/2-y,z
loop_
_atom_site_type_symbol
_atom_site_label
_atom_site_fract_x
_atom_site_fract_y
_atom_site_fract_z
Si Si1 0.498719 0.072430 0.746348
Si Si2 0.145761 0.074230 0.940659
Si Si3 0.004138 0.072735 0.884445
Si Si4 0.257818 0.926208 0.338507
Si Si5 0.638013 0.925268 0.440742
Si Si6 0.639915 0.073126 0.225085
Si Si7 0.349510 0.923732 0.234571
Si Si8 0.783376 0.423835 0.829025
O O1 0.488023 0.250000 0.751759
O O2 0.497596 0.018388 0.680579
O O3 0.572186 0.013473 0.773593
O O4 0.438406 0.989237 0.781361
O O5 0.137753 0.250000 0.947662
O O6 0.211548 0.034126 0.900510
O O7 0.074282 0.007607 0.913613
O O8 0.161452 0.004409 0.001718
O O9 0.006925 0.250000 0.884406
O O10 0.937439 0.014307 0.920066
O O11 0.245213 0.750000 0.330903
O O12 0.312700 0.987904 0.291434
O O13 0.184607 0.010413 0.328354
O O14 0.634758 0.750000 0.451865
O O15 0.696160 0.966390 0.393310
O O16 0.639412 0.250000 0.222901
O O17 0.671035 0.019013 0.285249
O O18 0.359438 0.750000 0.245918
O O19 0.299498 0.956686 0.180062
O O20 0.800523 0.250000 0.816493
#
# Coordination Sequence:
#
# PCOD8249961 Si02
#       8
#     8   8   8   8   8   8   8   8
#     4  10  16  29  50  69  91 122 156 189 229 278
#     4  10  19  31  48  68  92 123 165 201 224 261
#     4   9  16  28  45  67  93 125 161 193 221 262
#     4   9  17  32  50  67  88 121 159 195 232 273
#     4  10  19  30  45  65  95 130 159 187 228 274
#     4  11  21  30  44  69  97 121 150 191 237 281
#     4   8  14  26  50  72  84 110 157 199 228 267
#     4   9  17  32  50  67  89 123 162 195 229 276
#
# _framework density 15.967655000000001
#
# number of rings (size 3 to 8) (size 9 to 14) (size 15 to 20)
#    0.000    2.500    2.500    2.250    0.000    1.000 
#    0.000    3.125    0.000    0.000    0.000    0.875 
#    0.000    0.000    0.000    0.000    0.000    0.000 
#
# Total GULP energy -793361.216493 kJ/mol
# GULP energy per Si atom -12396.269008 kJ/mol
# Density = 1.593131 g / cm^3
# Si number density = 15.967655 Si / 1000 Ang^3
#
#
#
# Elastic Constant Matrix: (Units=GPa)
#
#
# Indices 1 2 3 4 5 6 
#
# 1 129.6758 38.5553 59.5865 0.0000 0.0000 0.0000
# 2 38.5553 45.9807 30.1926 0.0000 0.0000 0.0000
# 3 59.5865 30.1926 93.3942 0.0000 0.0000 0.0000
# 4 0.0000 0.0000 0.0000 22.0850 0.0000 0.0000
# 5 0.0000 0.0000 0.0000 0.0000 25.2852 0.0000
# 6 0.0000 0.0000 0.0000 0.0000 0.0000 9.6975
#
#
#
# Elastic Compliance Matrix: (Units=1/GPa)
#
#
# Indices 1 2 3 4 5 6 
#
# 1 0.012288 -0.006545 -0.005724 0.000000 0.000000 0.000000
# 2 -0.006545 0.031095 -0.005877 0.000000 0.000000 0.000000
# 3 -0.005724 -0.005877 0.016259 0.000000 0.000000 0.000000
# 4 0.000000 0.000000 0.000000 0.045280 0.000000 0.000000
# 5 0.000000 0.000000 0.000000 0.000000 0.039549 0.000000
# 6 0.000000 0.000000 0.000000 0.000000 0.000000 0.103119
#
#
# Mechanical properties :
#
#
# Convention : Reuss Voigt Hill
#
# Bulk Modulus (GPa) = 42.82499 58.41328 50.61913
# Shear Modulus (GPa) = 17.14304 20.79463 18.96883
#
# Velocity S-wave (km/s) = 3.28015 3.61265 3.45041
# Velocity P-wave (km/s) = 6.42059 7.35278 6.90244
#
# Compressibility (1/GPa) = 0.02335085
#
# Stress axis : x y z
#
# Youngs Moduli (GPa) = 81.38326 32.15944 61.50439
#
# Poissons Ratio (x) = 0.21048 0.35204
# Poissons Ratio (y) = 0.53264 0.36145
# Poissons Ratio (z) = 0.46582 0.18900
#
# Static dielectric constant tensor:
#      x y z
#    x 3.304790 0.000000 0.000000 
#    y 0.000000 2.716270 0.000000 
#    z 0.000000 0.000000 2.891960 
# 
# 
# High freq. dielectric constant tensor:
#      x y z
#    x 1.616160 0.000000 0.000000 
#    y 0.000000 1.584930 0.000000 
#    z 0.000000 0.000000 1.587490 
# 
# From -- ./inp_files/30060.got.cif
#   From: 2010.03.12/outbox.cif.g09.slc.cpg/sg62_16_cif.got.tgz:30060.got - 2010.04.10 19:12:36.
