data_PCOD8249881
_publ_section_title
;
Structure prediction by ZEFSAII (Michael W. Deem and Ramdas Pophale) SiO2 
 PCOD8249881
Probable space group: P B C A
;
_chemical_formula_sum "Si O2"
_cell_formula_units_Z 56
_cell_length_a 11.274799
_cell_length_b 10.284591
_cell_length_c 19.597242
_cell_angle_alpha 90.000000
_cell_angle_beta 90.000000
_cell_angle_gamma 90.000000
_cell_volume 2272.431439
_symmetry_space_group_name_H-M "P B C A"
_symmetry_group_IT_number 61
_symmetry_cell_setting 'orthorhombic'
loop_
_space_group_symop_operation_xyz
x,y,z
1/2-x,-y,1/2+z
1/2+x,1/2-y,-z
-x,1/2+y,1/2-z
-x,-y,-z
1/2+x,y,1/2-z
1/2-x,1/2+y,z
x,1/2-y,1/2+z
loop_
_atom_site_type_symbol
_atom_site_label
_atom_site_fract_x
_atom_site_fract_y
_atom_site_fract_z
Si Si1 0.812701 0.428805 0.440448
Si Si2 0.483845 0.652176 0.105923
Si Si3 0.981099 0.750870 0.538007
Si Si4 0.307584 0.525343 0.917102
Si Si5 0.833434 0.969041 0.312729
Si Si6 0.828870 0.701628 0.266813
Si Si7 0.080099 0.049166 0.355932
O O1 0.901575 0.544222 0.426337
O O2 0.759037 0.452662 0.515071
O O3 0.707171 0.421749 0.387151
O O4 0.889370 0.297012 0.437354
O O5 0.609337 0.581653 0.120763
O O6 0.434464 0.704560 0.177022
O O7 0.486299 0.761248 0.045202
O O8 0.874871 0.658296 0.565498
O O9 0.966085 0.890491 0.572967
O O10 0.189972 0.549208 0.870861
O O11 0.776660 0.105707 0.290151
O O12 0.975945 0.975715 0.315461
O O13 0.790262 0.853714 0.261423
O O14 0.877129 0.665248 0.193150
#
# Coordination Sequence:
#
# PCOD8249881 Si02
#       7
#     8   8   8   8   8   8   8
#     4   8  17  41  70  91 129 182 223 277 338 416
#     4   8  18  41  67  93 129 185 223 274 341 415
#     4   9  19  41  68  97 134 175 230 276 348 406
#     4   9  20  39  67  99 134 174 226 279 343 408
#     4  11  26  47  69  99 137 185 232 280 349 413
#     4  11  27  45  70  94 141 188 231 281 350 414
#     4  12  27  38  66 107 133 175 229 299 333 411
#
# _framework density 24.643208999999999
#
# number of rings (size 3 to 8) (size 9 to 14) (size 15 to 20)
#    0.000    2.286    0.000    2.571    6.000    5.143 
#    7.714    0.000    0.000    0.000    0.000    0.000 
#    0.000    0.000    0.000    0.000    0.000    0.000 
#
# Total GULP energy -694119.822789 kJ/mol
# GULP energy per Si atom -12394.996836 kJ/mol
# Density = 2.458712 g / cm^3
# Si number density = 24.643209 Si / 1000 Ang^3
#
#
#
# Elastic Constant Matrix: (Units=GPa)
#
#
# Indices 1 2 3 4 5 6 
#
# 1 117.5396 23.0273 18.1021 0.0000 0.0000 0.0000
# 2 23.0273 63.5796 -20.9912 0.0000 0.0000 0.0000
# 3 18.1021 -20.9912 30.6184 0.0000 0.0000 0.0000
# 4 0.0000 0.0000 0.0000 28.7382 0.0000 0.0000
# 5 0.0000 0.0000 0.0000 0.0000 27.8228 0.0000
# 6 0.0000 0.0000 0.0000 0.0000 0.0000 20.0031
#
#
#
# Elastic Compliance Matrix: (Units=1/GPa)
#
#
# Indices 1 2 3 4 5 6 
#
# 1 0.012299 -0.008861 -0.013346 0.000000 0.000000 0.000000
# 2 -0.008861 0.026714 0.023553 0.000000 0.000000 0.000000
# 3 -0.013346 0.023553 0.056698 0.000000 0.000000 0.000000
# 4 0.000000 0.000000 0.000000 0.034797 0.000000 0.000000
# 5 0.000000 0.000000 0.000000 0.000000 0.035942 0.000000
# 6 0.000000 0.000000 0.000000 0.000000 0.000000 0.049992
#
#
# Mechanical properties :
#
#
# Convention : Reuss Voigt Hill
#
# Bulk Modulus (GPa) = 10.16234 28.00154 19.08194
# Shear Modulus (GPa) = 20.27981 28.08614 24.18298
#
# Velocity S-wave (km/s) = 2.87180 3.37962 3.13601
# Velocity P-wave (km/s) = 3.88961 5.15913 4.56868
#
# Compressibility (1/GPa) = 0.09840257
#
# Stress axis : x y z
#
# Youngs Moduli (GPa) = 81.30650 37.43393 17.63732
#
# Poissons Ratio (x) = 0.33170 0.23539
# Poissons Ratio (y) = 0.72045 -0.41541
# Poissons Ratio (z) = 1.08514 -0.88168
#
# Static dielectric constant tensor:
#      x y z
#    x 4.579080 0.000000 0.000000 
#    y 0.000000 4.136000 0.000000 
#    z 0.000000 0.000000 4.902450 
# 
# 
# High freq. dielectric constant tensor:
#      x y z
#    x 1.977290 0.000000 0.000000 
#    y 0.000000 1.963130 0.000000 
#    z 0.000000 0.000000 1.979020 
# 
# From -- ./inp_files/10299.got.cif
#   From: 2010.03.12/outbox.cif.g09.slc.cpg/sg61_6_cif.got.tgz:10299.got - 2010.04.10 19:05:03.
