data_PCOD8249282
_publ_section_title
;
Structure prediction by ZEFSAII (Michael W. Deem and Ramdas Pophale) SiO2 
 PCOD8249282
Probable space group: P B C A
;
_chemical_formula_sum "Si O2"
_cell_formula_units_Z 56
_cell_length_a 28.771179
_cell_length_b 5.554794
_cell_length_c 13.418339
_cell_angle_alpha 90.000000
_cell_angle_beta 90.000000
_cell_angle_gamma 90.000000
_cell_volume 2144.491733
_symmetry_space_group_name_H-M "P B C A"
_symmetry_group_IT_number 61
_symmetry_cell_setting 'orthorhombic'
loop_
_space_group_symop_operation_xyz
x,y,z
1/2-x,-y,1/2+z
1/2+x,1/2-y,-z
-x,1/2+y,1/2-z
-x,-y,-z
1/2+x,y,1/2-z
1/2-x,1/2+y,z
x,1/2-y,1/2+z
loop_
_atom_site_type_symbol
_atom_site_label
_atom_site_fract_x
_atom_site_fract_y
_atom_site_fract_z
Si Si1 0.447831 0.527635 0.404215
Si Si2 0.729844 0.881457 0.124266
Si Si3 0.634208 0.469470 0.329566
Si Si4 0.101355 0.405711 0.540013
Si Si5 0.541151 0.711079 0.398409
Si Si6 0.869168 0.210343 0.134764
Si Si7 0.729775 0.868728 0.892355
O O1 0.415154 0.721616 0.456723
O O2 0.491143 0.655479 0.345061
O O3 0.468594 0.341724 0.484711
O O4 0.414425 0.369040 0.331763
O O5 0.749384 0.629028 0.172546
O O6 0.674730 0.887343 0.140853
O O7 0.743481 0.875482 0.008196
O O8 0.638310 0.204863 0.380133
O O9 0.582059 0.544877 0.358126
O O10 0.636717 0.482833 0.209535
O O11 0.674233 0.638580 0.375003
O O12 0.057841 0.510933 0.604432
O O13 0.127182 0.619380 0.479407
O O14 0.750024 0.619860 0.843712
#
# Coordination Sequence:
#
# PCOD8249282 Si02
#       7
#     8   8   8   8   8   8   8
#     4   9  19  39  67  95 130 173 230 290 363 431
#     4  10  23  42  71 101 137 186 241 304 369 437
#     4  11  25  42  65 101 142 189 240 300 364 434
#     4  10  21  40  68  98 138 185 234 299 357 442
#     4   9  19  39  67  95 129 174 232 287 361 434
#     4  11  25  42  65 102 144 188 241 303 368 437
#     4  10  23  42  71 102 137 187 245 303 369 439
#
# _framework density 26.113413000000001
#
# number of rings (size 3 to 8) (size 9 to 14) (size 15 to 20)
#    0.000    2.000    0.000    3.000   10.000    3.429 
#    2.571    0.000    0.000    0.000    0.000    0.000 
#    0.000    0.000    0.000    0.000    0.000    0.000 
#
# Total GULP energy -693888.053863 kJ/mol
# GULP energy per Si atom -12390.858105 kJ/mol
# Density = 2.605398 g / cm^3
# Si number density = 26.113413 Si / 1000 Ang^3
#
#
#
# Elastic Constant Matrix: (Units=GPa)
#
#
# Indices 1 2 3 4 5 6 
#
# 1 152.8025 56.2426 21.2633 0.0000 0.0000 0.0000
# 2 56.2426 140.4995 37.7811 0.0000 0.0000 0.0000
# 3 21.2633 37.7811 30.6935 0.0000 0.0000 0.0000
# 4 0.0000 0.0000 0.0000 19.5897 0.0000 0.0000
# 5 0.0000 0.0000 0.0000 0.0000 10.2288 0.0000
# 6 0.0000 0.0000 0.0000 0.0000 0.0000 40.4191
#
#
#
# Elastic Compliance Matrix: (Units=1/GPa)
#
#
# Indices 1 2 3 4 5 6 
#
# 1 0.007785 -0.002490 -0.002328 0.000000 0.000000 0.000000
# 2 -0.002490 0.011436 -0.012351 0.000000 0.000000 0.000000
# 3 -0.002328 -0.012351 0.049396 0.000000 0.000000 0.000000
# 4 0.000000 0.000000 0.000000 0.051047 0.000000 0.000000
# 5 0.000000 0.000000 0.000000 0.000000 0.097763 0.000000
# 6 0.000000 0.000000 0.000000 0.000000 0.000000 0.024741
#
#
# Mechanical properties :
#
#
# Convention : Reuss Voigt Hill
#
# Bulk Modulus (GPa) = 29.17310 61.61884 45.39597
# Shear Modulus (GPa) = 17.36523 27.96143 22.66333
#
# Velocity S-wave (km/s) = 2.58154 3.27581 2.94918
# Velocity P-wave (km/s) = 4.48127 6.16082 5.38691
#
# Compressibility (1/GPa) = 0.03427815
#
# Stress axis : x y z
#
# Youngs Moduli (GPa) = 128.45278 87.44563 20.24469
#
# Poissons Ratio (x) = 0.21778 0.04712
# Poissons Ratio (y) = 0.31991 0.25004
# Poissons Ratio (z) = 0.29898 1.08005
#
# Static dielectric constant tensor:
#      x y z
#    x 4.803350 0.000000 0.000000 
#    y 0.000000 5.076930 0.000000 
#    z 0.000000 0.000000 4.369020 
# 
# 
# High freq. dielectric constant tensor:
#      x y z
#    x 2.047940 0.000000 0.000000 
#    y 0.000000 2.046100 0.000000 
#    z 0.000000 0.000000 2.016590 
# 
# From -- ./inp_files/8644.got.cif
#   From: 2010.03.12/outbox.cif.g09.slc.cpg/sg61_5_cif.got.tgz:8644.got - 2010.04.10 19:05:03.
