data_PCOD8249833
_publ_section_title
;
Structure prediction by ZEFSAII (Michael W. Deem and Ramdas Pophale) SiO2 
 PCOD8249833
Probable space group: P B C A
;
_chemical_formula_sum "Si O2"
_cell_formula_units_Z 48
_cell_length_a 17.447057
_cell_length_b 8.747816
_cell_length_c 13.747543
_cell_angle_alpha 90.000000
_cell_angle_beta 90.000000
_cell_angle_gamma 90.000000
_cell_volume 2098.200114
_symmetry_space_group_name_H-M "P B C A"
_symmetry_group_IT_number 61
_symmetry_cell_setting 'orthorhombic'
loop_
_space_group_symop_operation_xyz
x,y,z
1/2-x,-y,1/2+z
1/2+x,1/2-y,-z
-x,1/2+y,1/2-z
-x,-y,-z
1/2+x,y,1/2-z
1/2-x,1/2+y,z
x,1/2-y,1/2+z
loop_
_atom_site_type_symbol
_atom_site_label
_atom_site_fract_x
_atom_site_fract_y
_atom_site_fract_z
Si Si1 0.287629 0.720928 0.705778
Si Si2 0.672299 0.848414 0.127599
Si Si3 0.931149 0.920590 0.729920
Si Si4 0.729070 0.962102 0.926005
Si Si5 0.493053 0.861469 0.380911
Si Si6 0.621042 0.936386 0.520792
O O1 0.244042 0.648283 0.798367
O O2 0.357883 0.827042 0.733778
O O3 0.318666 0.586440 0.635853
O O4 0.226100 0.810858 0.639653
O O5 0.597876 0.935257 0.167552
O O6 0.692861 0.939815 0.030643
O O7 0.655419 0.672097 0.104493
O O8 0.984848 0.802006 0.671430
O O9 0.981641 0.994647 0.814612
O O10 0.817056 0.013808 0.940801
O O11 0.555117 0.840117 0.465948
O O12 0.411768 0.910883 0.427712
#
# Coordination Sequence:
#
# PCOD8249833 Si02
#       6
#     8   8   8   8   8   8
#     4  12  25  45  72 107 140 177 230 296 354 414
#     4  12  26  44  73 105 138 179 233 294 357 412
#     4  12  26  46  68 103 141 185 241 279 356 419
#     4  12  25  43  74 106 141 178 228 299 361 412
#     4  11  26  43  69  93 142 190 229 286 336 426
#     4  11  24  45  65  99 139 181 236 284 347 416
#
# _framework density 22.876750999999999
#
# number of rings (size 3 to 8) (size 9 to 14) (size 15 to 20)
#    0.000    0.333    5.000    3.000    4.667    2.000 
#    0.000    0.000    0.000    0.000    0.000    0.000 
#    0.000    0.000    0.000    0.000    0.000    0.000 
#
# Total GULP energy -595321.862801 kJ/mol
# GULP energy per Si atom -12402.538808 kJ/mol
# Density = 2.282468 g / cm^3
# Si number density = 22.876751 Si / 1000 Ang^3
#
#
#
# Elastic Constant Matrix: (Units=GPa)
#
#
# Indices 1 2 3 4 5 6 
#
# 1 49.1884 -2.0757 6.9505 0.0000 0.0000 0.0000
# 2 -2.0757 72.6745 17.0762 0.0000 0.0000 0.0000
# 3 6.9505 17.0762 100.5223 0.0000 0.0000 0.0000
# 4 0.0000 0.0000 0.0000 53.5254 0.0000 0.0000
# 5 0.0000 0.0000 0.0000 0.0000 21.7852 0.0000
# 6 0.0000 0.0000 0.0000 0.0000 0.0000 42.4241
#
#
#
# Elastic Compliance Matrix: (Units=1/GPa)
#
#
# Indices 1 2 3 4 5 6 
#
# 1 0.020595 0.000961 -0.001587 0.000000 0.000000 0.000000
# 2 0.000961 0.014377 -0.002509 0.000000 0.000000 0.000000
# 3 -0.001587 -0.002509 0.010484 0.000000 0.000000 0.000000
# 4 0.000000 0.000000 0.000000 0.018683 0.000000 0.000000
# 5 0.000000 0.000000 0.000000 0.000000 0.045903 0.000000
# 6 0.000000 0.000000 0.000000 0.000000 0.000000 0.023572
#
#
# Mechanical properties :
#
#
# Convention : Reuss Voigt Hill
#
# Bulk Modulus (GPa) = 25.51929 29.58747 27.55338
# Shear Modulus (GPa) = 32.69161 36.90922 34.80042
#
# Velocity S-wave (km/s) = 3.78436 4.02107 3.90450
# Velocity P-wave (km/s) = 5.50222 5.87538 5.69186
#
# Compressibility (1/GPa) = 0.03918604
#
# Stress axis : x y z
#
# Youngs Moduli (GPa) = 48.55587 69.55592 95.38377
#
# Poissons Ratio (x) = -0.06686 0.15140
# Poissons Ratio (y) = -0.04667 0.23929
# Poissons Ratio (z) = 0.07707 0.17450
#
# Static dielectric constant tensor:
#      x y z
#    x 4.024040 0.000000 0.000000 
#    y 0.000000 4.190060 0.000000 
#    z 0.000000 0.000000 4.304600 
# 
# 
# High freq. dielectric constant tensor:
#      x y z
#    x 1.888580 0.000000 0.000000 
#    y 0.000000 1.911890 0.000000 
#    z 0.000000 0.000000 1.920580 
# 
# From -- ./inp_files/8113.got.cif
#   From: 2010.03.12/outbox.cif.g09.slc.cpg/sg61_5_cif.got.tgz:8113.got - 2010.04.10 19:05:03.
