data_PCOD8249125
_publ_section_title
;
Structure prediction by ZEFSAII (Michael W. Deem and Ramdas Pophale) SiO2 
 PCOD8249125
Probable space group: P B C A
;
_chemical_formula_sum "Si O2"
_cell_formula_units_Z 48
_cell_length_a 12.064313
_cell_length_b 20.833884
_cell_length_c 8.739728
_cell_angle_alpha 90.000000
_cell_angle_beta 90.000000
_cell_angle_gamma 90.000000
_cell_volume 2196.700023
_symmetry_space_group_name_H-M "P B C A"
_symmetry_group_IT_number 61
_symmetry_cell_setting 'orthorhombic'
loop_
_space_group_symop_operation_xyz
x,y,z
1/2-x,-y,1/2+z
1/2+x,1/2-y,-z
-x,1/2+y,1/2-z
-x,-y,-z
1/2+x,y,1/2-z
1/2-x,1/2+y,z
x,1/2-y,1/2+z
loop_
_atom_site_type_symbol
_atom_site_label
_atom_site_fract_x
_atom_site_fract_y
_atom_site_fract_z
Si Si1 0.295969 0.562848 0.139894
Si Si2 0.940818 0.860592 0.354545
Si Si3 0.958941 0.231156 0.134199
Si Si4 0.247620 0.433674 0.992865
Si Si5 0.498850 0.106785 0.526028
Si Si6 0.127091 0.667562 0.061945
O O1 0.299259 0.561661 0.322190
O O2 0.239103 0.627405 0.074994
O O3 0.230096 0.501357 0.077420
O O4 0.420971 0.561961 0.075500
O O5 0.819033 0.879849 0.412034
O O6 0.972005 0.901470 0.204306
O O7 0.946704 0.783598 0.319155
O O8 0.030025 0.877150 0.488496
O O9 0.910340 0.191207 0.272810
O O10 0.858480 0.270116 0.048901
O O11 0.014917 0.181287 0.017872
O O12 0.374878 0.414265 0.990063
#
# Coordination Sequence:
#
# PCOD8249125 Si02
#       6
#     8   8   8   8   8   8
#     4  12  28  46  73 106 146 199 248 307 372 432
#     4  10  24  44  74 103 140 190 239 301 374 435
#     4  10  20  45  69 110 135 186 238 300 369 436
#     4  12  28  48  72 102 149 194 249 303 368 447
#     4  12  25  47  71 105 149 184 249 301 369 442
#     4  10  22  46  72 106 141 186 240 306 370 442
#
# _framework density 21.850957000000001
#
# number of rings (size 3 to 8) (size 9 to 14) (size 15 to 20)
#    1.000    0.000    3.333    2.500    4.667    2.000 
#    3.000    0.000    0.000    0.000    0.000    0.000 
#    0.000    0.000    0.000    0.000    0.000    0.000 
#
# Total GULP energy -595080.093571 kJ/mol
# GULP energy per Si atom -12397.501949 kJ/mol
# Density = 2.180122 g / cm^3
# Si number density = 21.850957 Si / 1000 Ang^3
#
#
#
# Elastic Constant Matrix: (Units=GPa)
#
#
# Indices 1 2 3 4 5 6 
#
# 1 99.7365 16.4443 51.7993 0.0000 0.0000 0.0000
# 2 16.4443 74.0712 33.5535 0.0000 0.0000 0.0000
# 3 51.7993 33.5535 152.9568 0.0000 0.0000 0.0000
# 4 0.0000 0.0000 0.0000 34.3517 0.0000 0.0000
# 5 0.0000 0.0000 0.0000 0.0000 27.6147 0.0000
# 6 0.0000 0.0000 0.0000 0.0000 0.0000 27.5228
#
#
#
# Elastic Compliance Matrix: (Units=1/GPa)
#
#
# Indices 1 2 3 4 5 6 
#
# 1 0.012224 -0.000931 -0.003935 0.000000 0.000000 0.000000
# 2 -0.000931 0.015061 -0.002989 0.000000 0.000000 0.000000
# 3 -0.003935 -0.002989 0.008526 0.000000 0.000000 0.000000
# 4 0.000000 0.000000 0.000000 0.029111 0.000000 0.000000
# 5 0.000000 0.000000 0.000000 0.000000 0.036213 0.000000
# 6 0.000000 0.000000 0.000000 0.000000 0.000000 0.036333
#
#
# Mechanical properties :
#
#
# Convention : Reuss Voigt Hill
#
# Bulk Modulus (GPa) = 49.74900 58.92873 54.33886
# Shear Modulus (GPa) = 31.27385 32.89568 32.08477
#
# Velocity S-wave (km/s) = 3.78727 3.88423 3.83606
# Velocity P-wave (km/s) = 6.47622 6.86610 6.67401
#
# Compressibility (1/GPa) = 0.02010091
#
# Stress axis : x y z
#
# Youngs Moduli (GPa) = 81.80748 66.39657 117.28667
#
# Poissons Ratio (x) = 0.06182 0.46157
# Poissons Ratio (y) = 0.07617 0.35052
# Poissons Ratio (z) = 0.32194 0.19843
#
# Static dielectric constant tensor:
#      x y z
#    x 3.581030 0.000000 0.000000 
#    y 0.000000 4.032110 0.000000 
#    z 0.000000 0.000000 4.063130 
# 
# 
# High freq. dielectric constant tensor:
#      x y z
#    x 1.836850 0.000000 0.000000 
#    y 0.000000 1.860740 0.000000 
#    z 0.000000 0.000000 1.876780 
# 
# From -- ./inp_files/2288.got.cif
#   From: 2010.03.12/outbox.cif.g09.slc.cpg/sg61_2_cif.got.tgz:2288.got - 2010.04.10 19:05:03.
