data_PCOD8249228
_publ_section_title
;
Structure prediction by ZEFSAII (Michael W. Deem and Ramdas Pophale) SiO2 
 PCOD8249228
Probable space group: P B C A
;
_chemical_formula_sum "Si O2"
_cell_formula_units_Z 48
_cell_length_a 16.293427
_cell_length_b 8.329659
_cell_length_c 16.520259
_cell_angle_alpha 90.000000
_cell_angle_beta 90.000000
_cell_angle_gamma 90.000000
_cell_volume 2242.107924
_symmetry_space_group_name_H-M "P B C A"
_symmetry_group_IT_number 61
_symmetry_cell_setting 'orthorhombic'
loop_
_space_group_symop_operation_xyz
x,y,z
1/2-x,-y,1/2+z
1/2+x,1/2-y,-z
-x,1/2+y,1/2-z
-x,-y,-z
1/2+x,y,1/2-z
1/2-x,1/2+y,z
x,1/2-y,1/2+z
loop_
_atom_site_type_symbol
_atom_site_label
_atom_site_fract_x
_atom_site_fract_y
_atom_site_fract_z
Si Si1 0.289504 0.032202 0.601165
Si Si2 0.364811 0.368076 0.565771
Si Si3 0.482390 0.750982 0.347179
Si Si4 0.839692 0.922566 0.069158
Si Si5 0.098641 0.515873 0.744716
Si Si6 0.331763 0.212298 0.891272
O O1 0.190090 0.017581 0.597135
O O2 0.330485 0.933962 0.527349
O O3 0.309431 0.217927 0.591961
O O4 0.325784 0.968847 0.686009
O O5 0.453198 0.366575 0.607945
O O6 0.375758 0.370240 0.468784
O O7 0.421961 0.823073 0.414433
O O8 0.432982 0.650147 0.281269
O O9 0.526537 0.901305 0.305949
O O10 0.764890 0.824028 0.108044
O O11 0.844701 0.097133 0.110242
O O12 0.127350 0.640972 0.811995
#
# Coordination Sequence:
#
# PCOD8249228 Si02
#       6
#     8   8   8   8   8   8
#     4   9  21  40  61  83 114 156 198 234 292 359
#     4   9  21  40  61  85 114 156 198 237 292 359
#     4  11  24  38  58  89 122 154 197 250 299 342
#     4  10  21  41  63  84 117 159 198 238 291 361
#     4  11  24  38  58  91 121 155 197 248 300 341
#     4  10  21  39  63  86 116 157 198 238 292 358
#
# _framework density 21.408425000000001
#
# number of rings (size 3 to 8) (size 9 to 14) (size 15 to 20)
#    0.000    2.000    0.000    2.000    0.000   17.333 
#    0.000    0.000    0.000    0.000    0.000    0.000 
#    0.000    0.000    0.000    0.000    0.000    0.000 
#
# Total GULP energy -595359.642515 kJ/mol
# GULP energy per Si atom -12403.325886 kJ/mol
# Density = 2.135970 g / cm^3
# Si number density = 21.408425 Si / 1000 Ang^3
#
#
#
# Elastic Constant Matrix: (Units=GPa)
#
#
# Indices 1 2 3 4 5 6 
#
# 1 66.4468 15.8480 28.0103 0.0000 0.0000 0.0000
# 2 15.8480 38.2175 10.2608 0.0000 0.0000 0.0000
# 3 28.0103 10.2608 90.3282 0.0000 0.0000 0.0000
# 4 0.0000 0.0000 0.0000 31.5965 0.0000 0.0000
# 5 0.0000 0.0000 0.0000 0.0000 35.3298 0.0000
# 6 0.0000 0.0000 0.0000 0.0000 0.0000 36.4351
#
#
#
# Elastic Compliance Matrix: (Units=1/GPa)
#
#
# Indices 1 2 3 4 5 6 
#
# 1 0.018716 -0.006398 -0.005077 0.000000 0.000000 0.000000
# 2 -0.006398 0.029176 -0.001330 0.000000 0.000000 0.000000
# 3 -0.005077 -0.001330 0.012796 0.000000 0.000000 0.000000
# 4 0.000000 0.000000 0.000000 0.031649 0.000000 0.000000
# 5 0.000000 0.000000 0.000000 0.000000 0.028305 0.000000
# 6 0.000000 0.000000 0.000000 0.000000 0.000000 0.027446
#
#
# Mechanical properties :
#
#
# Convention : Reuss Voigt Hill
#
# Bulk Modulus (GPa) = 28.50795 33.69230 31.10013
# Shear Modulus (GPa) = 26.97002 30.06382 28.51692
#
# Velocity S-wave (km/s) = 3.55320 3.75146 3.65367
# Velocity P-wave (km/s) = 5.49352 5.87679 5.68838
#
# Compressibility (1/GPa) = 0.03507793
#
# Stress axis : x y z
#
# Youngs Moduli (GPa) = 53.43102 34.27439 78.14833
#
# Poissons Ratio (x) = 0.21929 0.39675
# Poissons Ratio (y) = 0.34185 0.10396
# Poissons Ratio (z) = 0.27126 0.04560
#
# Static dielectric constant tensor:
#      x y z
#    x 3.925760 0.000000 0.000000 
#    y 0.000000 3.778260 0.000000 
#    z 0.000000 0.000000 4.030380 
# 
# 
# High freq. dielectric constant tensor:
#      x y z
#    x 1.839910 0.000000 0.000000 
#    y 0.000000 1.835600 0.000000 
#    z 0.000000 0.000000 1.846010 
# 
# From -- ./inp_files/8104.got.cif
#   From: 2010.03.12/outbox.cif.g09.slc.cpg/sg61_5_cif.got.tgz:8104.got - 2010.04.10 19:05:03.
