data_PCOD8249322
_publ_section_title
;
Structure prediction by ZEFSAII (Michael W. Deem and Ramdas Pophale) SiO2 
 PCOD8249322
Probable space group: P B C A
;
_chemical_formula_sum "Si O2"
_cell_formula_units_Z 56
_cell_length_a 18.324610
_cell_length_b 4.775082
_cell_length_c 20.432717
_cell_angle_alpha 90.000000
_cell_angle_beta 90.000000
_cell_angle_gamma 90.000000
_cell_volume 1787.893701
_symmetry_space_group_name_H-M "P B C A"
_symmetry_group_IT_number 61
_symmetry_cell_setting 'orthorhombic'
loop_
_space_group_symop_operation_xyz
x,y,z
1/2-x,-y,1/2+z
1/2+x,1/2-y,-z
-x,1/2+y,1/2-z
-x,-y,-z
1/2+x,y,1/2-z
1/2-x,1/2+y,z
x,1/2-y,1/2+z
loop_
_atom_site_type_symbol
_atom_site_label
_atom_site_fract_x
_atom_site_fract_y
_atom_site_fract_z
Si Si1 0.298618 0.251211 0.332648
Si Si2 0.801269 0.090591 0.304990
Si Si3 0.698296 0.851757 0.525662
Si Si4 0.401198 0.578760 0.532893
Si Si5 0.451941 0.712458 0.260750
Si Si6 0.967096 0.697246 0.096038
Si Si7 0.896406 0.505636 0.366790
O O1 0.221746 0.077583 0.330474
O O2 0.340268 0.146131 0.266629
O O3 0.338240 0.182772 0.401594
O O4 0.772931 0.775615 0.313690
O O5 0.858753 0.196905 0.360106
O O6 0.773721 0.669606 0.516466
O O7 0.637682 0.726899 0.475448
O O8 0.480039 0.546332 0.567668
O O9 0.408531 0.744697 0.462594
O O10 0.356570 0.797030 0.579266
O O11 0.523942 0.533665 0.243290
O O12 0.425738 0.621710 0.334931
O O13 0.390764 0.665006 0.204347
O O14 0.019140 0.961123 0.112414
#
# Coordination Sequence:
#
# PCOD8249322 Si02
#       7
#     8   8   8   8   8   8   8
#     4   8  16  36  58  87 126 165 216 261 316 390
#     4  10  23  39  65  97 134 175 220 280 341 400
#     4  10  23  42  66  99 134 177 225 276 337 411
#     4  11  24  43  70  95 140 178 227 282 344 404
#     4  10  21  42  67  94 127 168 217 274 325 391
#     4  10  24  45  66  99 134 181 231 276 342 405
#     4  11  24  41  69  95 140 174 232 279 343 405
#
# _framework density 31.321770999999998
#
# number of rings (size 3 to 8) (size 9 to 14) (size 15 to 20)
#    0.000    2.000    1.429    0.429    6.000    1.143 
#    0.000    0.000    3.143    0.000    0.000    0.000 
#    0.000    0.000    0.000    0.000    0.000    0.000 
#
# Total GULP energy -694127.792585 kJ/mol
# GULP energy per Si atom -12395.139153 kJ/mol
# Density = 3.125048 g / cm^3
# Si number density = 31.321771 Si / 1000 Ang^3
#
#
#
# Elastic Constant Matrix: (Units=GPa)
#
#
# Indices 1 2 3 4 5 6 
#
# 1 58.3319 -25.3355 11.0744 0.0000 0.0000 0.0000
# 2 -25.3355 56.4307 -10.6857 0.0000 0.0000 0.0000
# 3 11.0744 -10.6857 191.2070 0.0000 0.0000 0.0000
# 4 0.0000 0.0000 0.0000 49.4036 0.0000 0.0000
# 5 0.0000 0.0000 0.0000 0.0000 40.7657 0.0000
# 6 0.0000 0.0000 0.0000 0.0000 0.0000 6.4210
#
#
#
# Elastic Compliance Matrix: (Units=1/GPa)
#
#
# Indices 1 2 3 4 5 6 
#
# 1 0.021391 0.009469 -0.000710 0.000000 0.000000 0.000000
# 2 0.009469 0.022102 0.000687 0.000000 0.000000 0.000000
# 3 -0.000710 0.000687 0.005309 0.000000 0.000000 0.000000
# 4 0.000000 0.000000 0.000000 0.020241 0.000000 0.000000
# 5 0.000000 0.000000 0.000000 0.000000 0.024530 0.000000
# 6 0.000000 0.000000 0.000000 0.000000 0.000000 0.155739
#
#
# Mechanical properties :
#
#
# Convention : Reuss Voigt Hill
#
# Bulk Modulus (GPa) = 14.77203 28.45291 21.61247
# Shear Modulus (GPa) = 19.76398 41.37915 30.57157
#
# Velocity S-wave (km/s) = 2.51469 3.63864 3.12757
# Velocity P-wave (km/s) = 3.62740 5.17269 4.46737
#
# Compressibility (1/GPa) = 0.06769549
#
# Stress axis : x y z
#
# Youngs Moduli (GPa) = 46.74884 45.24408 188.34453
#
# Poissons Ratio (x) = -0.42843 0.13367
# Poissons Ratio (y) = -0.44268 -0.12934
# Poissons Ratio (z) = 0.03318 -0.03107
#
# Static dielectric constant tensor:
#      x y z
#    x 4.979940 0.000000 0.000000 
#    y 0.000000 5.697320 0.000000 
#    z 0.000000 0.000000 6.573630 
# 
# 
# High freq. dielectric constant tensor:
#      x y z
#    x 2.265640 0.000000 0.000000 
#    y 0.000000 2.295430 0.000000 
#    z 0.000000 0.000000 2.318660 
# 
# From -- ./inp_files/10631.got.cif
#   From: 2010.03.12/outbox.cif.g09.slc.cpg/sg61_6_cif.got.tgz:10631.got - 2010.04.10 19:05:03.
