data_PCOD8249419
_publ_section_title
;
Structure prediction by ZEFSAII (Michael W. Deem and Ramdas Pophale) SiO2 
 PCOD8249419
Probable space group: P B C A
;
_chemical_formula_sum "Si O2"
_cell_formula_units_Z 64
_cell_length_a 17.598525
_cell_length_b 12.245742
_cell_length_c 14.051626
_cell_angle_alpha 90.000000
_cell_angle_beta 90.000000
_cell_angle_gamma 90.000000
_cell_volume 3028.223718
_symmetry_space_group_name_H-M "P B C A"
_symmetry_group_IT_number 61
_symmetry_cell_setting 'orthorhombic'
loop_
_space_group_symop_operation_xyz
x,y,z
1/2-x,-y,1/2+z
1/2+x,1/2-y,-z
-x,1/2+y,1/2-z
-x,-y,-z
1/2+x,y,1/2-z
1/2-x,1/2+y,z
x,1/2-y,1/2+z
loop_
_atom_site_type_symbol
_atom_site_label
_atom_site_fract_x
_atom_site_fract_y
_atom_site_fract_z
Si Si1 0.626629 0.895120 0.745855
Si Si2 0.879725 0.628007 0.650590
Si Si3 0.540762 0.170815 0.242497
Si Si4 0.242324 0.028901 0.150642
Si Si5 0.383336 0.831326 0.561252
Si Si6 0.158731 0.483135 0.847183
Si Si7 0.209414 0.711192 0.872735
Si Si8 0.220889 0.347706 0.019714
O O1 0.548317 0.838494 0.775583
O O2 0.670833 0.927800 0.842965
O O3 0.678982 0.807508 0.692743
O O4 0.611309 0.003866 0.684001
O O5 0.931378 0.708784 0.713768
O O6 0.912302 0.630552 0.542355
O O7 0.793188 0.670701 0.661118
O O8 0.555373 0.150855 0.355470
O O9 0.580122 0.077267 0.177601
O O10 0.193673 0.103770 0.082351
O O11 0.213378 0.027593 0.257596
O O12 0.240035 0.907001 0.108390
O O13 0.358206 0.704969 0.555312
O O14 0.148719 0.611750 0.871091
O O15 0.201417 0.431715 0.936205
O O16 0.219767 0.757888 0.979582
#
# Coordination Sequence:
#
# PCOD8249419 Si02
#       8
#     8   8   8   8   8   8   8   8
#     4  12  25  40  68 101 138 183 221 279 358 407
#     4  11  22  45  69  94 140 178 230 295 333 400
#     4  11  25  44  64  99 143 183 224 273 356 424
#     4  11  22  38  66 101 124 172 238 276 336 401
#     4  10  22  40  69  93 127 180 229 278 335 400
#     4  11  22  42  66  94 135 177 219 289 337 400
#     4  11  20  40  69  96 130 175 232 281 336 396
#     4  11  20  39  68  98 128 171 230 290 336 389
#
# _framework density 21.134502999999999
#
# number of rings (size 3 to 8) (size 9 to 14) (size 15 to 20)
#    0.000    1.000    5.000    3.750    3.500    0.500 
#    0.000    4.375    0.000    0.000    0.000    0.000 
#    0.000    0.000    0.000    0.000    0.000    0.000 
#
# Total GULP energy -793414.537713 kJ/mol
# GULP energy per Si atom -12397.102152 kJ/mol
# Density = 2.108640 g / cm^3
# Si number density = 21.134503 Si / 1000 Ang^3
#
#
#
# Elastic Constant Matrix: (Units=GPa)
#
#
# Indices 1 2 3 4 5 6 
#
# 1 69.4926 12.0851 11.2618 0.0000 0.0000 0.0000
# 2 12.0851 113.8056 9.0113 0.0000 0.0000 0.0000
# 3 11.2618 9.0113 29.6099 0.0000 0.0000 0.0000
# 4 0.0000 0.0000 0.0000 38.7747 0.0000 0.0000
# 5 0.0000 0.0000 0.0000 0.0000 18.2341 0.0000
# 6 0.0000 0.0000 0.0000 0.0000 0.0000 24.9616
#
#
#
# Elastic Compliance Matrix: (Units=1/GPa)
#
#
# Indices 1 2 3 4 5 6 
#
# 1 0.015496 -0.001208 -0.005526 0.000000 0.000000 0.000000
# 2 -0.001208 0.009098 -0.002309 0.000000 0.000000 0.000000
# 3 -0.005526 -0.002309 0.036577 0.000000 0.000000 0.000000
# 4 0.000000 0.000000 0.000000 0.025790 0.000000 0.000000
# 5 0.000000 0.000000 0.000000 0.000000 0.054842 0.000000
# 6 0.000000 0.000000 0.000000 0.000000 0.000000 0.040062
#
#
# Mechanical properties :
#
#
# Convention : Reuss Voigt Hill
#
# Bulk Modulus (GPa) = 23.21040 30.84714 27.02877
# Shear Modulus (GPa) = 23.33041 28.43074 25.88057
#
# Velocity S-wave (km/s) = 3.32611 3.67171 3.50317
# Velocity P-wave (km/s) = 5.07511 5.70987 5.40182
#
# Compressibility (1/GPa) = 0.04308413
#
# Stress axis : x y z
#
# Youngs Moduli (GPa) = 64.53439 109.91365 27.33950
#
# Poissons Ratio (x) = 0.13277 0.15108
# Poissons Ratio (y) = 0.07795 0.06314
# Poissons Ratio (z) = 0.35662 0.25384
#
# Static dielectric constant tensor:
#      x y z
#    x 3.542760 0.000000 0.000000 
#    y 0.000000 4.249000 0.000000 
#    z 0.000000 0.000000 3.991750 
# 
# 
# High freq. dielectric constant tensor:
#      x y z
#    x 1.791450 0.000000 0.000000 
#    y 0.000000 1.847290 0.000000 
#    z 0.000000 0.000000 1.833880 
# 
# From -- ./inp_files/8227.got.cif
#   From: 2010.03.12/outbox.cif.g09.slc.cpg/sg61_5_cif.got.tgz:8227.got - 2010.04.10 19:05:03.
