data_PCOD8249852
_publ_section_title
;
Structure prediction by ZEFSAII (Michael W. Deem and Ramdas Pophale) SiO2 
 PCOD8249852
Probable space group: P B C A
;
_chemical_formula_sum "Si O2"
_cell_formula_units_Z 64
_cell_length_a 18.098816
_cell_length_b 11.157635
_cell_length_c 14.316402
_cell_angle_alpha 90.000000
_cell_angle_beta 90.000000
_cell_angle_gamma 90.000000
_cell_volume 2891.053974
_symmetry_space_group_name_H-M "P B C A"
_symmetry_group_IT_number 61
_symmetry_cell_setting 'orthorhombic'
loop_
_space_group_symop_operation_xyz
x,y,z
1/2-x,-y,1/2+z
1/2+x,1/2-y,-z
-x,1/2+y,1/2-z
-x,-y,-z
1/2+x,y,1/2-z
1/2-x,1/2+y,z
x,1/2-y,1/2+z
loop_
_atom_site_type_symbol
_atom_site_label
_atom_site_fract_x
_atom_site_fract_y
_atom_site_fract_z
Si Si1 0.858987 0.928078 0.643111
Si Si2 0.847946 0.439792 0.342251
Si Si3 0.378350 0.313256 0.591677
Si Si4 0.993502 0.752479 0.448564
Si Si5 0.121240 0.174523 0.911913
Si Si6 0.746055 0.956651 0.998395
Si Si7 0.512605 0.004126 0.853585
Si Si8 0.498483 0.486643 0.854720
O O1 0.859491 0.783964 0.659505
O O2 0.938580 0.959569 0.591265
O O3 0.839171 0.001638 0.738582
O O4 0.798286 0.951700 0.563645
O O5 0.856198 0.294092 0.336899
O O6 0.779059 0.475287 0.407841
O O7 0.921626 0.481436 0.399822
O O8 0.444934 0.280107 0.523865
O O9 0.305540 0.348160 0.535352
O O10 0.410838 0.430743 0.643127
O O11 0.914356 0.724505 0.493223
O O12 0.027979 0.640190 0.393147
O O13 0.975175 0.857717 0.376238
O O14 0.193716 0.100900 0.934439
O O15 0.062406 0.087917 0.863955
O O16 0.479795 0.981439 0.752225
#
# Coordination Sequence:
#
# PCOD8249852 Si02
#       8
#     8   8   8   8   8   8   8   8
#     4  11  25  45  70 101 142 185 234 296 350 422
#     4  11  25  45  70 101 142 185 234 296 350 422
#     4  12  24  44  72 101 138 186 234 286 355 421
#     4  12  22  42  70 100 138 182 232 286 342 422
#     4  12  24  44  72 101 138 186 234 286 355 421
#     4  12  26  44  68 106 142 190 228 292 364 418
#     4  11  25  41  72 104 134 181 234 291 345 415
#     4  11  25  41  72 104 134 181 234 291 345 415
#
# _framework density 22.137257000000002
#
# number of rings (size 3 to 8) (size 9 to 14) (size 15 to 20)
#    0.000    0.500    5.000    3.000    7.000    2.000 
#    0.000    0.000    0.000    0.000    0.000    0.000 
#    0.000    0.000    0.000    0.000    0.000    0.000 
#
# Total GULP energy -793197.227685 kJ/mol
# GULP energy per Si atom -12393.706683 kJ/mol
# Density = 2.208687 g / cm^3
# Si number density = 22.137257 Si / 1000 Ang^3
#
#
#
# Elastic Constant Matrix: (Units=GPa)
#
#
# Indices 1 2 3 4 5 6 
#
# 1 111.1927 19.9814 17.0916 0.0000 0.0000 0.0000
# 2 19.9814 140.2936 37.2743 0.0000 0.0000 0.0000
# 3 17.0916 37.2743 63.1478 0.0000 0.0000 0.0000
# 4 0.0000 0.0000 0.0000 41.1019 0.0000 0.0000
# 5 0.0000 0.0000 0.0000 0.0000 27.6168 0.0000
# 6 0.0000 0.0000 0.0000 0.0000 0.0000 58.8656
#
#
#
# Elastic Compliance Matrix: (Units=1/GPa)
#
#
# Indices 1 2 3 4 5 6 
#
# 1 0.009457 -0.000791 -0.002093 0.000000 0.000000 0.000000
# 2 -0.000791 0.008520 -0.004815 0.000000 0.000000 0.000000
# 3 -0.002093 -0.004815 0.019244 0.000000 0.000000 0.000000
# 4 0.000000 0.000000 0.000000 0.024330 0.000000 0.000000
# 5 0.000000 0.000000 0.000000 0.000000 0.036210 0.000000
# 6 0.000000 0.000000 0.000000 0.000000 0.000000 0.016988
#
#
# Mechanical properties :
#
#
# Convention : Reuss Voigt Hill
#
# Bulk Modulus (GPa) = 45.82091 51.48096 48.65094
# Shear Modulus (GPa) = 36.38455 41.53599 38.96027
#
# Velocity S-wave (km/s) = 4.05852 4.33632 4.19972
# Velocity P-wave (km/s) = 6.53495 6.95539 6.74844
#
# Compressibility (1/GPa) = 0.02182410
#
# Stress axis : x y z
#
# Youngs Moduli (GPa) = 105.73932 117.37340 51.96313
#
# Poissons Ratio (x) = 0.09283 0.10875
# Poissons Ratio (y) = 0.08363 0.25020
# Poissons Ratio (z) = 0.22130 0.56514
#
# Static dielectric constant tensor:
#      x y z
#    x 4.116210 0.000000 0.000000 
#    y 0.000000 4.301760 0.000000 
#    z 0.000000 0.000000 3.809950 
# 
# 
# High freq. dielectric constant tensor:
#      x y z
#    x 1.879110 0.000000 0.000000 
#    y 0.000000 1.885220 0.000000 
#    z 0.000000 0.000000 1.857500 
# 
# From -- ./inp_files/8213.got.cif
#   From: 2010.03.12/outbox.cif.g09.slc.cpg/sg61_5_cif.got.tgz:8213.got - 2010.04.10 19:05:03.
