data_PCOD8249570
_publ_section_title
;
Structure prediction by ZEFSAII (Michael W. Deem and Ramdas Pophale) SiO2 
 PCOD8249570
Probable space group: P B C A
;
_chemical_formula_sum "Si O2"
_cell_formula_units_Z 64
_cell_length_a 12.994552
_cell_length_b 17.107211
_cell_length_c 13.893319
_cell_angle_alpha 90.000000
_cell_angle_beta 90.000000
_cell_angle_gamma 90.000000
_cell_volume 3088.492357
_symmetry_space_group_name_H-M "P B C A"
_symmetry_group_IT_number 61
_symmetry_cell_setting 'orthorhombic'
loop_
_space_group_symop_operation_xyz
x,y,z
1/2-x,-y,1/2+z
1/2+x,1/2-y,-z
-x,1/2+y,1/2-z
-x,-y,-z
1/2+x,y,1/2-z
1/2-x,1/2+y,z
x,1/2-y,1/2+z
loop_
_atom_site_type_symbol
_atom_site_label
_atom_site_fract_x
_atom_site_fract_y
_atom_site_fract_z
Si Si1 0.990404 0.885114 0.739181
Si Si2 0.541919 0.505015 0.894249
Si Si3 0.597913 0.137318 0.634460
Si Si4 0.633315 0.253826 0.306631
Si Si5 0.472222 0.772914 0.998801
Si Si6 0.337852 0.185583 0.111976
Si Si7 0.419570 0.946649 0.945979
Si Si8 0.765624 0.956755 0.993290
O O1 0.899385 0.821391 0.745547
O O2 0.948750 0.951510 0.666359
O O3 0.094302 0.842001 0.703659
O O4 0.008392 0.931630 0.837870
O O5 0.509268 0.589080 0.849037
O O6 0.664252 0.493372 0.907571
O O7 0.500000 0.500000 0.000000
O O8 0.635513 0.169982 0.737760
O O9 0.589618 0.206756 0.557982
O O10 0.677667 0.076173 0.588218
O O11 0.544049 0.260996 0.387539
O O12 0.746021 0.241805 0.352987
O O13 0.591466 0.767454 0.965173
O O14 0.426142 0.856831 0.975315
O O15 0.300068 0.109899 0.056699
O O16 0.500000 0.000000 0.000000
O O17 0.304863 0.974402 0.966391
#
# Coordination Sequence:
#
# PCOD8249570 Si02
#       8
#     8   8   8   8   8   8   8   8
#     4  11  23  45  72 101 141 180 235 296 353 423
#     4  10  23  44  68  96 140 181 228 295 351 421
#     4  11  24  45  68 106 137 181 236 294 357 422
#     4  12  24  45  72 105 145 182 233 300 359 434
#     4  11  24  46  69 100 144 180 234 302 353 424
#     4  11  23  43  74  99 137 190 231 285 367 416
#     4  11  23  43  69  98 137 187 234 292 352 425
#     4  11  22  46  69  97 141 187 240 286 354 431
#
# _framework density 20.722083999999999
#
# number of rings (size 3 to 8) (size 9 to 14) (size 15 to 20)
#    0.000    1.000    7.500    0.750    1.750    4.000 
#    4.500    0.000    0.000    0.000    0.000    0.000 
#    0.000    0.000    0.000    0.000    0.000    0.000 
#
# Total GULP energy -793386.519752 kJ/mol
# GULP energy per Si atom -12396.664371 kJ/mol
# Density = 2.067492 g / cm^3
# Si number density = 20.722084 Si / 1000 Ang^3
#
#
#
# Elastic Constant Matrix: (Units=GPa)
#
#
# Indices 1 2 3 4 5 6 
#
# 1 117.9009 45.6105 55.6695 0.0000 0.0000 0.0000
# 2 45.6105 100.7981 35.2929 0.0000 0.0000 0.0000
# 3 55.6695 35.2929 114.3721 0.0000 0.0000 0.0000
# 4 0.0000 0.0000 0.0000 44.9772 0.0000 0.0000
# 5 0.0000 0.0000 0.0000 0.0000 38.9787 0.0000
# 6 0.0000 0.0000 0.0000 0.0000 0.0000 40.6316
#
#
#
# Elastic Compliance Matrix: (Units=1/GPa)
#
#
# Indices 1 2 3 4 5 6 
#
# 1 0.012223 -0.003865 -0.004757 0.000000 0.000000 0.000000
# 2 -0.003865 0.012345 -0.001928 0.000000 0.000000 0.000000
# 3 -0.004757 -0.001928 0.011654 0.000000 0.000000 0.000000
# 4 0.000000 0.000000 0.000000 0.022234 0.000000 0.000000
# 5 0.000000 0.000000 0.000000 0.000000 0.025655 0.000000
# 6 0.000000 0.000000 0.000000 0.000000 0.000000 0.024611
#
#
# Mechanical properties :
#
#
# Convention : Reuss Voigt Hill
#
# Bulk Modulus (GPa) = 66.13083 67.35742 66.74413
# Shear Modulus (GPa) = 37.07498 38.01738 37.54618
#
# Velocity S-wave (km/s) = 4.23443 4.28791 4.26125
# Velocity P-wave (km/s) = 7.47594 7.55583 7.51599
#
# Compressibility (1/GPa) = 0.01512154
#
# Stress axis : x y z
#
# Youngs Moduli (GPa) = 81.81306 81.00497 85.81064
#
# Poissons Ratio (x) = 0.31311 0.40817
# Poissons Ratio (y) = 0.31624 0.16544
# Poissons Ratio (z) = 0.38916 0.15617
#
# Static dielectric constant tensor:
#      x y z
#    x 4.269260 0.000000 0.000000 
#    y 0.000000 4.130930 0.000000 
#    z 0.000000 0.000000 4.685660 
# 
# 
# High freq. dielectric constant tensor:
#      x y z
#    x 1.805720 0.000000 0.000000 
#    y 0.000000 1.817080 0.000000 
#    z 0.000000 0.000000 1.816250 
# 
# From -- ./inp_files/7626.got.cif
#   From: 2010.03.12/outbox.cif.g09.slc.cpg/sg61_4_cif.got.tgz:7626.got - 2010.04.10 19:05:03.
