data_PCOD8249761
_publ_section_title
;
Structure prediction by ZEFSAII (Michael W. Deem and Ramdas Pophale) SiO2 
 PCOD8249761
Probable space group: P B C A
;
_chemical_formula_sum "Si O2"
_cell_formula_units_Z 64
_cell_length_a 13.188818
_cell_length_b 22.287163
_cell_length_c 9.281375
_cell_angle_alpha 90.000000
_cell_angle_beta 90.000000
_cell_angle_gamma 90.000000
_cell_volume 2728.179772
_symmetry_space_group_name_H-M "P B C A"
_symmetry_group_IT_number 61
_symmetry_cell_setting 'orthorhombic'
loop_
_space_group_symop_operation_xyz
x,y,z
1/2-x,-y,1/2+z
1/2+x,1/2-y,-z
-x,1/2+y,1/2-z
-x,-y,-z
1/2+x,y,1/2-z
1/2-x,1/2+y,z
x,1/2-y,1/2+z
loop_
_atom_site_type_symbol
_atom_site_label
_atom_site_fract_x
_atom_site_fract_y
_atom_site_fract_z
Si Si1 0.544575 0.817017 0.647257
Si Si2 0.147937 0.427945 0.334510
Si Si3 0.831210 0.585222 0.143803
Si Si4 0.177037 0.159332 0.090818
Si Si5 0.884837 0.443664 0.565271
Si Si6 0.615937 0.781244 0.960249
Si Si7 0.486861 0.619616 0.594067
Si Si8 0.369327 0.039588 0.751702
O O1 0.427029 0.803836 0.610080
O O2 0.563572 0.888880 0.651870
O O3 0.573023 0.787902 0.799864
O O4 0.609601 0.787098 0.517716
O O5 0.161890 0.397939 0.489014
O O6 0.092289 0.492940 0.355099
O O7 0.083785 0.381964 0.235528
O O8 0.254482 0.437449 0.256245
O O9 0.789877 0.636115 0.251681
O O10 0.736860 0.562473 0.050946
O O11 0.876769 0.531700 0.238536
O O12 0.921536 0.610530 0.048233
O O13 0.265628 0.201753 0.031123
O O14 0.922531 0.442186 0.399839
O O15 0.548895 0.818823 0.075348
O O16 0.569901 0.567149 0.612966
#
# Coordination Sequence:
#
# PCOD8249761 Si02
#       8
#     8   8   8   8   8   8   8   8
#     4  12  30  49  77 104 145 199 247 306 366 441
#     4  11  25  42  77 114 147 199 237 306 378 451
#     4  11  23  42  73 110 151 193 238 299 381 442
#     4  12  25  51  77 108 151 190 243 310 377 440
#     4  11  24  45  72 113 155 190 245 302 377 447
#     4  12  30  52  74 110 143 195 255 307 366 442
#     4  12  25  45  73 108 148 195 252 305 366 448
#     4  11  23  40  70 112 155 189 243 299 366 456
#
# _framework density 23.458864999999999
#
# number of rings (size 3 to 8) (size 9 to 14) (size 15 to 20)
#    0.000    0.500    6.250    1.125    5.250    4.000 
#    0.000    0.000    0.000    0.000    0.000    0.000 
#    0.000    0.000    0.000    0.000    0.000    0.000 
#
# Total GULP energy -793762.126893 kJ/mol
# GULP energy per Si atom -12402.533233 kJ/mol
# Density = 2.340547 g / cm^3
# Si number density = 23.458865 Si / 1000 Ang^3
#
#
#
# Elastic Constant Matrix: (Units=GPa)
#
#
# Indices 1 2 3 4 5 6 
#
# 1 108.4550 30.6487 23.6885 0.0000 0.0000 0.0000
# 2 30.6487 75.2891 33.7367 0.0000 0.0000 0.0000
# 3 23.6885 33.7367 117.8330 0.0000 0.0000 0.0000
# 4 0.0000 0.0000 0.0000 39.0663 0.0000 0.0000
# 5 0.0000 0.0000 0.0000 0.0000 36.5499 0.0000
# 6 0.0000 0.0000 0.0000 0.0000 0.0000 34.2486
#
#
#
# Elastic Compliance Matrix: (Units=1/GPa)
#
#
# Indices 1 2 3 4 5 6 
#
# 1 0.010525 -0.003827 -0.001020 0.000000 0.000000 0.000000
# 2 -0.003827 0.016629 -0.003992 0.000000 0.000000 0.000000
# 3 -0.001020 -0.003992 0.009834 0.000000 0.000000 0.000000
# 4 0.000000 0.000000 0.000000 0.025598 0.000000 0.000000
# 5 0.000000 0.000000 0.000000 0.000000 0.027360 0.000000
# 6 0.000000 0.000000 0.000000 0.000000 0.000000 0.029198
#
#
# Mechanical properties :
#
#
# Convention : Reuss Voigt Hill
#
# Bulk Modulus (GPa) = 51.78623 53.08054 52.43338
# Shear Modulus (GPa) = 34.90200 36.20650 35.55425
#
# Velocity S-wave (km/s) = 3.86138 3.93288 3.89729
# Velocity P-wave (km/s) = 6.48102 6.58024 6.53082
#
# Compressibility (1/GPa) = 0.01931015
#
# Stress axis : x y z
#
# Youngs Moduli (GPa) = 95.01371 60.13678 101.68318
#
# Poissons Ratio (x) = 0.23016 0.10372
# Poissons Ratio (y) = 0.36365 0.40587
# Poissons Ratio (z) = 0.09692 0.24004
#
# Static dielectric constant tensor:
#      x y z
#    x 4.359370 0.000000 0.000000 
#    y 0.000000 3.957610 0.000000 
#    z 0.000000 0.000000 4.083170 
# 
# 
# High freq. dielectric constant tensor:
#      x y z
#    x 1.950230 0.000000 0.000000 
#    y 0.000000 1.910080 0.000000 
#    z 0.000000 0.000000 1.931860 
# 
# From -- ./inp_files/3213.got.cif
#   From: 2010.03.12/outbox.cif.g09.slc.cpg/sg61_2_cif.got.tgz:3213.got - 2010.04.10 19:05:03.
