data_PCOD8249131
_publ_section_title
;
Structure prediction by ZEFSAII (Michael W. Deem and Ramdas Pophale) SiO2 
 PCOD8249131
Probable space group: P B C A
;
_chemical_formula_sum "Si O2"
_cell_formula_units_Z 48
_cell_length_a 12.011578
_cell_length_b 15.025751
_cell_length_c 14.833033
_cell_angle_alpha 90.000000
_cell_angle_beta 90.000000
_cell_angle_gamma 90.000000
_cell_volume 2677.110000
_symmetry_space_group_name_H-M "P B C A"
_symmetry_group_IT_number 61
_symmetry_cell_setting 'orthorhombic'
loop_
_space_group_symop_operation_xyz
x,y,z
1/2-x,-y,1/2+z
1/2+x,1/2-y,-z
-x,1/2+y,1/2-z
-x,-y,-z
1/2+x,y,1/2-z
1/2-x,1/2+y,z
x,1/2-y,1/2+z
loop_
_atom_site_type_symbol
_atom_site_label
_atom_site_fract_x
_atom_site_fract_y
_atom_site_fract_z
Si Si1 0.915630 0.503582 0.371592
Si Si2 0.590023 0.375735 0.043952
Si Si3 0.037779 0.326190 0.980494
Si Si4 0.469986 0.533442 0.323959
Si Si5 0.832756 0.410311 0.064421
Si Si6 0.177344 0.048678 0.592272
O O1 0.907660 0.581213 0.445089
O O2 0.945092 0.556236 0.279817
O O3 0.800786 0.446595 0.365403
O O4 0.013275 0.433763 0.390768
O O5 0.544804 0.276872 0.039832
O O6 0.713202 0.368321 0.086883
O O7 0.050828 0.380919 0.887113
O O8 0.129023 0.356738 0.055928
O O9 0.914495 0.337843 0.020995
O O10 0.386986 0.452085 0.346556
O O11 0.595743 0.497365 0.335418
O O12 0.816692 0.490730 0.996654
#
# Coordination Sequence:
#
# PCOD8249131 Si02
#       6
#     8   8   8   8   8   8
#     4  10  21  35  53  80 114 143 170 223 279 318
#     4  10  21  35  54  81 113 140 176 219 278 320
#     4   9  18  36  59  77 105 143 184 219 261 320
#     4   9  18  36  57  76 102 144 188 216 258 320
#     4   8  17  35  56  76 101 143 178 213 266 325
#     4   8  17  35  57  74 103 145 176 213 269 322
#
# _framework density 17.929784000000001
#
# number of rings (size 3 to 8) (size 9 to 14) (size 15 to 20)
#    0.000    3.000    0.000    2.000    4.667    0.000 
#    6.000    0.000    0.000    0.000    0.000    0.000 
#    0.000    0.000    0.000    0.000    0.000    0.000 
#
# Total GULP energy -594915.413438 kJ/mol
# GULP energy per Si atom -12394.071113 kJ/mol
# Density = 1.788897 g / cm^3
# Si number density = 17.929784 Si / 1000 Ang^3
#
#
#
# Elastic Constant Matrix: (Units=GPa)
#
#
# Indices 1 2 3 4 5 6 
#
# 1 139.2396 39.1385 39.9146 0.0000 0.0000 0.0000
# 2 39.1385 101.2859 24.7933 0.0000 0.0000 0.0000
# 3 39.9146 24.7933 82.1395 0.0000 0.0000 0.0000
# 4 0.0000 0.0000 0.0000 9.7713 0.0000 0.0000
# 5 0.0000 0.0000 0.0000 0.0000 18.2385 0.0000
# 6 0.0000 0.0000 0.0000 0.0000 0.0000 21.0669
#
#
#
# Elastic Compliance Matrix: (Units=1/GPa)
#
#
# Indices 1 2 3 4 5 6 
#
# 1 0.008927 -0.002578 -0.003560 0.000000 0.000000 0.000000
# 2 -0.002578 0.011405 -0.002190 0.000000 0.000000 0.000000
# 3 -0.003560 -0.002190 0.014565 0.000000 0.000000 0.000000
# 4 0.000000 0.000000 0.000000 0.102341 0.000000 0.000000
# 5 0.000000 0.000000 0.000000 0.000000 0.054829 0.000000
# 6 0.000000 0.000000 0.000000 0.000000 0.000000 0.047468
#
#
# Mechanical properties :
#
#
# Convention : Reuss Voigt Hill
#
# Bulk Modulus (GPa) = 54.81828 58.92865 56.87346
# Shear Modulus (GPa) = 19.06420 24.40322 21.73371
#
# Velocity S-wave (km/s) = 3.26432 3.69324 3.48538
# Velocity P-wave (km/s) = 6.69686 7.15013 6.92720
#
# Compressibility (1/GPa) = 0.01824209
#
# Stress axis : x y z
#
# Youngs Moduli (GPa) = 112.01971 87.67844 68.65675
#
# Poissons Ratio (x) = 0.22605 0.24440
# Poissons Ratio (y) = 0.28880 0.15034
# Poissons Ratio (z) = 0.39876 0.19200
#
# Static dielectric constant tensor:
#      x y z
#    x 4.319530 0.000000 0.000000 
#    y 0.000000 3.013780 0.000000 
#    z 0.000000 0.000000 3.150410 
# 
# 
# High freq. dielectric constant tensor:
#      x y z
#    x 1.710230 0.000000 0.000000 
#    y 0.000000 1.667660 0.000000 
#    z 0.000000 0.000000 1.678410 
# 
# From -- ./inp_files/5717.got.cif
#   From: 2010.03.12/outbox.cif.g09.slc.cpg/sg61_3_cif.got.tgz:5717.got - 2010.04.10 19:05:03.
