data_PCOD8249136
_publ_section_title
;
Structure prediction by ZEFSAII (Michael W. Deem and Ramdas Pophale) SiO2 
 PCOD8249136
Probable space group: P B C A
;
_chemical_formula_sum "Si O2"
_cell_formula_units_Z 56
_cell_length_a 29.224867
_cell_length_b 16.477079
_cell_length_c 5.192955
_cell_angle_alpha 90.000000
_cell_angle_beta 90.000000
_cell_angle_gamma 90.000000
_cell_volume 2500.617848
_symmetry_space_group_name_H-M "P B C A"
_symmetry_group_IT_number 61
_symmetry_cell_setting 'orthorhombic'
loop_
_space_group_symop_operation_xyz
x,y,z
1/2-x,-y,1/2+z
1/2+x,1/2-y,-z
-x,1/2+y,1/2-z
-x,-y,-z
1/2+x,y,1/2-z
1/2-x,1/2+y,z
x,1/2-y,1/2+z
loop_
_atom_site_type_symbol
_atom_site_label
_atom_site_fract_x
_atom_site_fract_y
_atom_site_fract_z
Si Si1 0.485925 0.602122 0.729488
Si Si2 0.279409 0.981494 0.977004
Si Si3 0.446144 0.951465 0.727150
Si Si4 0.570761 0.701760 0.674950
Si Si5 0.365435 0.061964 0.757356
Si Si6 0.780916 0.796823 0.516250
Si Si7 0.827681 0.202080 0.018886
O O1 0.518070 0.524403 0.762783
O O2 0.448989 0.594222 0.500270
O O3 0.516997 0.680035 0.665435
O O4 0.458251 0.611066 0.997316
O O5 0.297683 0.889481 0.996298
O O6 0.245367 0.990254 0.735933
O O7 0.323232 0.039339 0.942407
O O8 0.394403 0.983131 0.673987
O O9 0.581526 0.773284 0.472182
O O10 0.600225 0.622746 0.594240
O O11 0.344969 0.109091 0.506416
O O12 0.799882 0.747570 0.270666
O O13 0.726456 0.797067 0.517587
O O14 0.846921 0.252319 0.769736
#
# Coordination Sequence:
#
# PCOD8249136 Si02
#       7
#     8   8   8   8   8   8   8
#     4   9  18  36  57  83 119 155 199 232 298 388
#     4  12  26  42  63  94 127 172 229 280 325 386
#     4   9  19  34  58  84 113 159 196 249 304 361
#     4  11  23  39  63  97 134 167 199 254 330 401
#     4  11  24  39  61  94 133 162 215 276 320 376
#     4  10  21  41  62  82 114 166 215 261 323 387
#     4  10  21  35  56  84 122 163 200 252 324 387
#
# _framework density 22.394465
#
# number of rings (size 3 to 8) (size 9 to 14) (size 15 to 20)
#    0.000    1.714    1.429    2.571    4.000    6.857 
#    0.000    0.000    0.000    5.143    0.000    0.000 
#    0.000    0.000    0.000    0.000    0.000    0.000 
#
# Total GULP energy -694371.194930 kJ/mol
# GULP energy per Si atom -12399.485624 kJ/mol
# Density = 2.234349 g / cm^3
# Si number density = 22.394465 Si / 1000 Ang^3
#
#
#
# Elastic Constant Matrix: (Units=GPa)
#
#
# Indices 1 2 3 4 5 6 
#
# 1 54.3286 21.1583 20.5850 0.0000 0.0000 0.0000
# 2 21.1583 86.7725 29.9331 0.0000 0.0000 0.0000
# 3 20.5850 29.9331 126.4876 0.0000 0.0000 0.0000
# 4 0.0000 0.0000 0.0000 29.0419 0.0000 0.0000
# 5 0.0000 0.0000 0.0000 0.0000 19.8030 0.0000
# 6 0.0000 0.0000 0.0000 0.0000 0.0000 40.3546
#
#
#
# Elastic Compliance Matrix: (Units=1/GPa)
#
#
# Indices 1 2 3 4 5 6 
#
# 1 0.020986 -0.004289 -0.002400 0.000000 0.000000 0.000000
# 2 -0.004289 0.013425 -0.002479 0.000000 0.000000 0.000000
# 3 -0.002400 -0.002479 0.008883 0.000000 0.000000 0.000000
# 4 0.000000 0.000000 0.000000 0.034433 0.000000 0.000000
# 5 0.000000 0.000000 0.000000 0.000000 0.050498 0.000000
# 6 0.000000 0.000000 0.000000 0.000000 0.000000 0.024780
#
#
# Mechanical properties :
#
#
# Convention : Reuss Voigt Hill
#
# Bulk Modulus (GPa) = 40.06765 45.66016 42.86391
# Shear Modulus (GPa) = 27.82995 30.90070 29.36533
#
# Velocity S-wave (km/s) = 3.52904 3.71865 3.62508
# Velocity P-wave (km/s) = 5.87674 6.23467 6.05835
#
# Compressibility (1/GPa) = 0.02495779
#
# Stress axis : x y z
#
# Youngs Moduli (GPa) = 47.64980 74.48548 112.57175
#
# Poissons Ratio (x) = 0.31949 0.27021
# Poissons Ratio (y) = 0.20438 0.27907
# Poissons Ratio (z) = 0.11438 0.18465
#
# Static dielectric constant tensor:
#      x y z
#    x 3.978880 0.000000 0.000000 
#    y 0.000000 3.969950 0.000000 
#    z 0.000000 0.000000 4.163670 
# 
# 
# High freq. dielectric constant tensor:
#      x y z
#    x 1.869130 0.000000 0.000000 
#    y 0.000000 1.860550 0.000000 
#    z 0.000000 0.000000 1.886730 
# 
# From -- ./inp_files/1467.got.cif
#   From: 2010.03.12/outbox.cif.g09.slc.cpg/sg61_1_cif.got.tgz:1467.got - 2010.04.10 19:05:03.
