data_PCOD8249221
_publ_section_title
;
Structure prediction by ZEFSAII (Michael W. Deem and Ramdas Pophale) SiO2 
 PCOD8249221
Probable space group: P B C A
;
_chemical_formula_sum "Si O2"
_cell_formula_units_Z 64
_cell_length_a 5.387996
_cell_length_b 22.017657
_cell_length_c 26.079822
_cell_angle_alpha 90.000000
_cell_angle_beta 90.000000
_cell_angle_gamma 90.000000
_cell_volume 3093.876611
_symmetry_space_group_name_H-M "P B C A"
_symmetry_group_IT_number 61
_symmetry_cell_setting 'orthorhombic'
loop_
_space_group_symop_operation_xyz
x,y,z
1/2-x,-y,1/2+z
1/2+x,1/2-y,-z
-x,1/2+y,1/2-z
-x,-y,-z
1/2+x,y,1/2-z
1/2-x,1/2+y,z
x,1/2-y,1/2+z
loop_
_atom_site_type_symbol
_atom_site_label
_atom_site_fract_x
_atom_site_fract_y
_atom_site_fract_z
Si Si1 0.089616 0.278149 0.939401
Si Si2 0.988766 0.912612 0.042104
Si Si3 0.690365 0.304799 0.450631
Si Si4 0.217428 0.135916 0.281596
Si Si5 0.315438 0.591966 0.392965
Si Si6 0.781806 0.723771 0.719529
Si Si7 0.701691 0.835176 0.113752
Si Si8 0.809716 0.539817 0.440728
O O1 0.825459 0.250739 0.920579
O O2 0.155799 0.340322 0.912901
O O3 0.283859 0.226697 0.921654
O O4 0.036672 0.281439 0.000436
O O5 0.122273 0.852217 0.021322
O O6 0.857892 0.893213 0.095548
O O7 0.177457 0.967325 0.053572
O O8 0.791676 0.931157 0.997694
O O9 0.579676 0.346801 0.404153
O O10 0.474611 0.121263 0.252436
O O11 0.201759 0.093494 0.331422
O O12 0.220873 0.206506 0.298615
O O13 0.560553 0.554606 0.409342
O O14 0.063498 0.562310 0.413792
O O15 0.547352 0.709252 0.755465
O O16 0.754871 0.677760 0.672400
#
# Coordination Sequence:
#
# PCOD8249221 Si02
#       8
#     8   8   8   8   8   8   8   8
#     4  11  22  33  55  97 127 164 198 247 319 387
#     4  10  25  42  61  92 127 179 216 259 308 384
#     4  11  22  36  59  89 136 164 207 251 316 388
#     4  10  21  39  62  91 127 160 205 262 328 386
#     4  12  24  40  65  93 126 168 207 269 313 378
#     4  10  23  40  61  93 126 162 209 259 317 388
#     4  11  23  39  64  87 130 174 203 266 320 389
#     4  11  26  42  65  92 130 172 225 257 306 378
#
# _framework density 20.686021
#
# number of rings (size 3 to 8) (size 9 to 14) (size 15 to 20)
#    0.000    1.250    3.750    1.500    8.750    2.000 
#    0.000    0.000    0.000    4.500    0.000    0.000 
#    0.000    0.000    0.000    0.000    0.000    0.000 
#
# Total GULP energy -792856.116121 kJ/mol
# GULP energy per Si atom -12388.376814 kJ/mol
# Density = 2.063894 g / cm^3
# Si number density = 20.686021 Si / 1000 Ang^3
#
#
#
# Elastic Constant Matrix: (Units=GPa)
#
#
# Indices 1 2 3 4 5 6 
#
# 1 98.0048 12.6012 24.6042 0.0000 0.0000 0.0000
# 2 12.6012 45.8986 19.6609 0.0000 0.0000 0.0000
# 3 24.6042 19.6609 109.3371 0.0000 0.0000 0.0000
# 4 0.0000 0.0000 0.0000 27.1098 0.0000 0.0000
# 5 0.0000 0.0000 0.0000 0.0000 31.1736 0.0000
# 6 0.0000 0.0000 0.0000 0.0000 0.0000 13.8855
#
#
#
# Elastic Compliance Matrix: (Units=1/GPa)
#
#
# Indices 1 2 3 4 5 6 
#
# 1 0.011002 -0.002124 -0.002094 0.000000 0.000000 0.000000
# 2 -0.002124 0.024015 -0.003841 0.000000 0.000000 0.000000
# 3 -0.002094 -0.003841 0.010308 0.000000 0.000000 0.000000
# 4 0.000000 0.000000 0.000000 0.036887 0.000000 0.000000
# 5 0.000000 0.000000 0.000000 0.000000 0.032078 0.000000
# 6 0.000000 0.000000 0.000000 0.000000 0.000000 0.072018
#
#
# Mechanical properties :
#
#
# Convention : Reuss Voigt Hill
#
# Bulk Modulus (GPa) = 34.23586 40.77479 37.50533
# Shear Modulus (GPa) = 23.56698 27.52538 25.54618
#
# Velocity S-wave (km/s) = 3.37897 3.65173 3.51800
# Velocity P-wave (km/s) = 5.63998 6.12652 5.88828
#
# Compressibility (1/GPa) = 0.02920914
#
# Stress axis : x y z
#
# Youngs Moduli (GPa) = 90.88981 41.64010 97.01348
#
# Poissons Ratio (x) = 0.08843 0.20315
# Poissons Ratio (y) = 0.19302 0.37258
# Poissons Ratio (z) = 0.19032 0.15992
#
# Static dielectric constant tensor:
#      x y z
#    x 4.109060 0.000000 0.000000 
#    y 0.000000 3.594870 0.000000 
#    z 0.000000 0.000000 3.601880 
# 
# 
# High freq. dielectric constant tensor:
#      x y z
#    x 1.826760 0.000000 0.000000 
#    y 0.000000 1.793820 0.000000 
#    z 0.000000 0.000000 1.796170 
# 
# From -- ./inp_files/11292.got.cif
#   From: 2010.03.12/outbox.cif.g09.slc.cpg/sg61_6_cif.got.tgz:11292.got - 2010.04.10 19:05:03.
