data_PCOD8249792
_publ_section_title
;
Structure prediction by ZEFSAII (Michael W. Deem and Ramdas Pophale) SiO2 
 PCOD8249792
Probable space group: P B C A
;
_chemical_formula_sum "Si O2"
_cell_formula_units_Z 48
_cell_length_a 11.874712
_cell_length_b 16.459833
_cell_length_c 11.142997
_cell_angle_alpha 90.000000
_cell_angle_beta 90.000000
_cell_angle_gamma 90.000000
_cell_volume 2177.963131
_symmetry_space_group_name_H-M "P B C A"
_symmetry_group_IT_number 61
_symmetry_cell_setting 'orthorhombic'
loop_
_space_group_symop_operation_xyz
x,y,z
1/2-x,-y,1/2+z
1/2+x,1/2-y,-z
-x,1/2+y,1/2-z
-x,-y,-z
1/2+x,y,1/2-z
1/2-x,1/2+y,z
x,1/2-y,1/2+z
loop_
_atom_site_type_symbol
_atom_site_label
_atom_site_fract_x
_atom_site_fract_y
_atom_site_fract_z
Si Si1 0.705425 0.108587 0.050336
Si Si2 0.357387 0.581346 0.193219
Si Si3 0.491652 0.430699 0.237076
Si Si4 0.632347 0.961009 0.908400
Si Si5 0.999805 0.172514 0.541052
Si Si6 0.537479 0.644464 0.011849
O O1 0.674827 0.130053 0.186984
O O2 0.837805 0.108356 0.024687
O O3 0.636977 0.174628 0.969125
O O4 0.653670 0.020310 0.020017
O O5 0.381836 0.486576 0.220056
O O6 0.246938 0.587209 0.112823
O O7 0.463837 0.621665 0.127463
O O8 0.592010 0.487342 0.291045
O O9 0.462777 0.355846 0.325906
O O10 0.522324 0.392132 0.107158
O O11 0.539597 0.894615 0.943758
O O12 0.948224 0.258820 0.507628
#
# Coordination Sequence:
#
# PCOD8249792 Si02
#       6
#     8   8   8   8   8   8
#     4  11  24  47  70 102 141 192 241 287 361 436
#     4  12  24  43  74 103 139 187 242 296 344 437
#     4  11  23  46  73 100 140 186 243 285 352 439
#     4  11  23  45  76  99 140 194 243 286 360 435
#     4  11  26  48  70 105 149 189 231 308 375 416
#     4  12  29  44  72 114 144 183 248 304 361 421
#
# _framework density 22.03894
#
# number of rings (size 3 to 8) (size 9 to 14) (size 15 to 20)
#    0.000    0.667    5.000    2.500    7.000    0.000 
#    0.000    0.000    0.000    0.000    0.000    0.000 
#    0.000    0.000    0.000    0.000    0.000    0.000 
#
# Total GULP energy -595127.254899 kJ/mol
# GULP energy per Si atom -12398.484477 kJ/mol
# Density = 2.198878 g / cm^3
# Si number density = 22.038940 Si / 1000 Ang^3
#
#
#
# Elastic Constant Matrix: (Units=GPa)
#
#
# Indices 1 2 3 4 5 6 
#
# 1 122.4017 30.2184 41.0310 0.0000 0.0000 0.0000
# 2 30.2184 106.2447 45.0947 0.0000 0.0000 0.0000
# 3 41.0310 45.0947 130.0361 0.0000 0.0000 0.0000
# 4 0.0000 0.0000 0.0000 26.2330 0.0000 0.0000
# 5 0.0000 0.0000 0.0000 0.0000 34.4605 0.0000
# 6 0.0000 0.0000 0.0000 0.0000 0.0000 19.3798
#
#
#
# Elastic Compliance Matrix: (Units=1/GPa)
#
#
# Indices 1 2 3 4 5 6 
#
# 1 0.009378 -0.001655 -0.002385 0.000000 0.000000 0.000000
# 2 -0.001655 0.011329 -0.003406 0.000000 0.000000 0.000000
# 3 -0.002385 -0.003406 0.009624 0.000000 0.000000 0.000000
# 4 0.000000 0.000000 0.000000 0.038120 0.000000 0.000000
# 5 0.000000 0.000000 0.000000 0.000000 0.029019 0.000000
# 6 0.000000 0.000000 0.000000 0.000000 0.000000 0.051600
#
#
# Mechanical properties :
#
#
# Convention : Reuss Voigt Hill
#
# Bulk Modulus (GPa) = 64.77659 65.70784 65.24221
# Shear Modulus (GPa) = 29.56679 32.17055 30.86867
#
# Velocity S-wave (km/s) = 3.66672 3.82477 3.74658
# Velocity P-wave (km/s) = 6.88347 7.02739 6.95580
#
# Compressibility (1/GPa) = 0.01543768
#
# Stress axis : x y z
#
# Youngs Moduli (GPa) = 106.63326 88.27069 103.90584
#
# Poissons Ratio (x) = 0.14608 0.24783
# Poissons Ratio (y) = 0.17647 0.35395
# Poissons Ratio (z) = 0.25434 0.30069
#
# Static dielectric constant tensor:
#      x y z
#    x 4.079900 0.000000 0.000000 
#    y 0.000000 3.758420 0.000000 
#    z 0.000000 0.000000 4.058630 
# 
# 
# High freq. dielectric constant tensor:
#      x y z
#    x 1.871470 0.000000 0.000000 
#    y 0.000000 1.845920 0.000000 
#    z 0.000000 0.000000 1.876250 
# 
# From -- ./inp_files/5224.got.cif
#   From: 2010.03.12/outbox.cif.g09.slc.cpg/sg61_3_cif.got.tgz:5224.got - 2010.04.10 19:05:03.
