data_PCOD8249309
_publ_section_title
;
Structure prediction by ZEFSAII (Michael W. Deem and Ramdas Pophale) SiO2 
 PCOD8249309
Probable space group: P B C A
;
_chemical_formula_sum "Si O2"
_cell_formula_units_Z 56
_cell_length_a 8.917131
_cell_length_b 21.765400
_cell_length_c 12.921915
_cell_angle_alpha 90.000000
_cell_angle_beta 90.000000
_cell_angle_gamma 90.000000
_cell_volume 2507.948879
_symmetry_space_group_name_H-M "P B C A"
_symmetry_group_IT_number 61
_symmetry_cell_setting 'orthorhombic'
loop_
_space_group_symop_operation_xyz
x,y,z
1/2-x,-y,1/2+z
1/2+x,1/2-y,-z
-x,1/2+y,1/2-z
-x,-y,-z
1/2+x,y,1/2-z
1/2-x,1/2+y,z
x,1/2-y,1/2+z
loop_
_atom_site_type_symbol
_atom_site_label
_atom_site_fract_x
_atom_site_fract_y
_atom_site_fract_z
Si Si1 0.490200 0.469363 0.333426
Si Si2 0.096187 0.337688 0.186840
Si Si3 0.230744 0.847886 0.818022
Si Si4 0.561659 0.424738 0.828232
Si Si5 0.997674 0.672143 0.038282
Si Si6 0.181254 0.553389 0.029200
Si Si7 0.117066 0.735827 0.689263
O O1 0.566227 0.408551 0.285587
O O2 0.447280 0.513441 0.239588
O O3 0.341799 0.455253 0.404947
O O4 0.616926 0.494976 0.410066
O O5 0.270079 0.321079 0.174396
O O6 0.039073 0.294301 0.278169
O O7 0.004822 0.320372 0.084023
O O8 0.339391 0.874888 0.730964
O O9 0.328582 0.833596 0.919382
O O10 0.162967 0.784844 0.776116
O O11 0.102179 0.896752 0.849567
O O12 0.643533 0.439312 0.938449
O O13 0.087985 0.611491 0.071907
O O14 0.087651 0.730794 0.080626
#
# Coordination Sequence:
#
# PCOD8249309 Si02
#       7
#     8   8   8   8   8   8   8
#     4  10  22  41  65  93 142 166 215 271 349 400
#     4  11  28  41  65  97 137 180 209 276 348 402
#     4  12  21  39  68  97 124 166 234 278 319 382
#     4  12  20  39  72  98 123 173 227 282 327 392
#     4  11  23  45  67  96 131 171 227 284 324 390
#     4  10  21  41  68  93 124 176 215 274 335 389
#     4  12  23  44  64  96 133 174 227 268 335 404
#
# _framework density 22.329003
#
# number of rings (size 3 to 8) (size 9 to 14) (size 15 to 20)
#    0.000    0.857    7.143    0.000    4.000    0.000 
#    0.000    3.571    0.000    0.000    0.000    0.000 
#    0.000    0.000    0.000    0.000    0.000    0.000 
#
# Total GULP energy -694453.447360 kJ/mol
# GULP energy per Si atom -12400.954417 kJ/mol
# Density = 2.227818 g / cm^3
# Si number density = 22.329003 Si / 1000 Ang^3
#
#
#
# Elastic Constant Matrix: (Units=GPa)
#
#
# Indices 1 2 3 4 5 6 
#
# 1 96.6146 25.5670 10.3797 0.0000 0.0000 0.0000
# 2 25.5670 101.1565 18.4460 0.0000 0.0000 0.0000
# 3 10.3797 18.4460 34.6675 0.0000 0.0000 0.0000
# 4 0.0000 0.0000 0.0000 28.2466 0.0000 0.0000
# 5 0.0000 0.0000 0.0000 0.0000 32.3864 0.0000
# 6 0.0000 0.0000 0.0000 0.0000 0.0000 33.6129
#
#
#
# Elastic Compliance Matrix: (Units=1/GPa)
#
#
# Indices 1 2 3 4 5 6 
#
# 1 0.011222 -0.002463 -0.002050 0.000000 0.000000 0.000000
# 2 -0.002463 0.011488 -0.005375 0.000000 0.000000 0.000000
# 3 -0.002050 -0.005375 0.032319 0.000000 0.000000 0.000000
# 4 0.000000 0.000000 0.000000 0.035402 0.000000 0.000000
# 5 0.000000 0.000000 0.000000 0.000000 0.030877 0.000000
# 6 0.000000 0.000000 0.000000 0.000000 0.000000 0.029750
#
#
# Mechanical properties :
#
#
# Convention : Reuss Voigt Hill
#
# Bulk Modulus (GPa) = 28.36525 37.91379 33.13952
# Shear Modulus (GPa) = 27.38420 30.71890 29.05155
#
# Velocity S-wave (km/s) = 3.50579 3.71312 3.61095
# Velocity P-wave (km/s) = 5.39614 5.94975 5.67969
#
# Compressibility (1/GPa) = 0.03525440
#
# Stress axis : x y z
#
# Youngs Moduli (GPa) = 89.10827 87.04504 30.94126
#
# Poissons Ratio (x) = 0.21436 0.06342
# Poissons Ratio (y) = 0.21944 0.16632
# Poissons Ratio (z) = 0.18265 0.46790
#
# Static dielectric constant tensor:
#      x y z
#    x 4.091600 0.000000 0.000000 
#    y 0.000000 4.109870 0.000000 
#    z 0.000000 0.000000 3.833490 
# 
# 
# High freq. dielectric constant tensor:
#      x y z
#    x 1.875370 0.000000 0.000000 
#    y 0.000000 1.890040 0.000000 
#    z 0.000000 0.000000 1.860420 
# 
# From -- ./inp_files/7164.got.cif
#   From: 2010.03.12/outbox.cif.g09.slc.cpg/sg61_4_cif.got.tgz:7164.got - 2010.04.10 19:05:03.
