data_PCOD8249472
_publ_section_title
;
Structure prediction by ZEFSAII (Michael W. Deem and Ramdas Pophale) SiO2 
 PCOD8249472
Probable space group: P B C A
;
_chemical_formula_sum "Si O2"
_cell_formula_units_Z 40
_cell_length_a 25.158463
_cell_length_b 5.169060
_cell_length_c 13.809344
_cell_angle_alpha 90.000000
_cell_angle_beta 90.000000
_cell_angle_gamma 90.000000
_cell_volume 1795.844492
_symmetry_space_group_name_H-M "P B C A"
_symmetry_group_IT_number 61
_symmetry_cell_setting 'orthorhombic'
loop_
_space_group_symop_operation_xyz
x,y,z
1/2-x,-y,1/2+z
1/2+x,1/2-y,-z
-x,1/2+y,1/2-z
-x,-y,-z
1/2+x,y,1/2-z
1/2-x,1/2+y,z
x,1/2-y,1/2+z
loop_
_atom_site_type_symbol
_atom_site_label
_atom_site_fract_x
_atom_site_fract_y
_atom_site_fract_z
Si Si1 0.358785 0.893612 0.905668
Si Si2 0.513044 0.243539 0.308821
Si Si3 0.082886 0.600520 0.424936
Si Si4 0.620896 0.330630 0.900132
Si Si5 0.716466 0.368732 0.760226
O O1 0.398955 0.664338 0.869985
O O2 0.302156 0.872299 0.851898
O O3 0.382187 0.171156 0.879225
O O4 0.351730 0.864967 0.022203
O O5 0.488848 0.506845 0.266336
O O6 0.478601 0.161755 0.403604
O O7 0.573026 0.304737 0.342070
O O8 0.094653 0.572490 0.540256
O O9 0.665427 0.426802 0.826527
O O10 0.759376 0.588787 0.782386
#
# Coordination Sequence:
#
# PCOD8249472 Si02
#       5
#     8   8   8   8   8
#     4  10  24  44  69  94 134 172 224 271 329 393
#     4  12  25  40  70 103 140 175 214 264 336 405
#     4  10  22  43  67  98 135 170 216 262 333 399
#     4  10  27  43  72  96 140 172 227 270 334 398
#     4  12  27  45  68  97 132 174 229 285 337 383
#
# _framework density 22.273643
#
# number of rings (size 3 to 8) (size 9 to 14) (size 15 to 20)
#    1.200    0.000    0.000    5.400    5.600    2.400 
#    0.000    0.000    0.000    0.000    0.000    0.000 
#    0.000    0.000    0.000    0.000    0.000    0.000 
#
# Total GULP energy -495834.259749 kJ/mol
# GULP energy per Si atom -12395.856494 kJ/mol
# Density = 2.222295 g / cm^3
# Si number density = 22.273643 Si / 1000 Ang^3
#
#
#
# Elastic Constant Matrix: (Units=GPa)
#
#
# Indices 1 2 3 4 5 6 
#
# 1 108.2785 14.1936 55.5028 0.0000 0.0000 0.0000
# 2 14.1936 116.0333 24.6110 0.0000 0.0000 0.0000
# 3 55.5028 24.6110 107.7032 0.0000 0.0000 0.0000
# 4 0.0000 0.0000 0.0000 16.8269 0.0000 0.0000
# 5 0.0000 0.0000 0.0000 0.0000 43.8901 0.0000
# 6 0.0000 0.0000 0.0000 0.0000 0.0000 29.7682
#
#
#
# Elastic Compliance Matrix: (Units=1/GPa)
#
#
# Indices 1 2 3 4 5 6 
#
# 1 0.012554 -0.000172 -0.006430 0.000000 0.000000 0.000000
# 2 -0.000172 0.009060 -0.001982 0.000000 0.000000 0.000000
# 3 -0.006430 -0.001982 0.013051 0.000000 0.000000 0.000000
# 4 0.000000 0.000000 0.000000 0.059429 0.000000 0.000000
# 5 0.000000 0.000000 0.000000 0.000000 0.022784 0.000000
# 6 0.000000 0.000000 0.000000 0.000000 0.000000 0.033593
#
#
# Mechanical properties :
#
#
# Convention : Reuss Voigt Hill
#
# Bulk Modulus (GPa) = 57.15085 57.84775 57.49930
# Shear Modulus (GPa) = 28.82334 33.94422 31.38378
#
# Velocity S-wave (km/s) = 3.60120 3.90803 3.75775
# Velocity P-wave (km/s) = 6.55788 6.81112 6.68570
#
# Compressibility (1/GPa) = 0.01749755
#
# Stress axis : x y z
#
# Youngs Moduli (GPa) = 79.65550 110.38087 76.62073
#
# Poissons Ratio (x) = 0.01896 0.49269
# Poissons Ratio (y) = 0.01368 0.15184
# Poissons Ratio (z) = 0.51220 0.21874
#
# Static dielectric constant tensor:
#      x y z
#    x 3.784790 0.000000 0.000000 
#    y 0.000000 3.851470 0.000000 
#    z 0.000000 0.000000 3.944080 
# 
# 
# High freq. dielectric constant tensor:
#      x y z
#    x 1.868510 0.000000 0.000000 
#    y 0.000000 1.875720 0.000000 
#    z 0.000000 0.000000 1.873930 
# 
# From -- ./inp_files/8438.got.cif
#   From: 2010.03.12/outbox.cif.g09.slc.cpg/sg61_5_cif.got.tgz:8438.got - 2010.04.10 19:05:03.
