data_PCOD8249216
_publ_section_title
;
Structure prediction by ZEFSAII (Michael W. Deem and Ramdas Pophale) SiO2 
 PCOD8249216
Probable space group: P B C A
;
_chemical_formula_sum "Si O2"
_cell_formula_units_Z 56
_cell_length_a 13.919406
_cell_length_b 9.464301
_cell_length_c 20.924298
_cell_angle_alpha 90.000000
_cell_angle_beta 90.000000
_cell_angle_gamma 90.000000
_cell_volume 2756.513622
_symmetry_space_group_name_H-M "P B C A"
_symmetry_group_IT_number 61
_symmetry_cell_setting 'orthorhombic'
loop_
_space_group_symop_operation_xyz
x,y,z
1/2-x,-y,1/2+z
1/2+x,1/2-y,-z
-x,1/2+y,1/2-z
-x,-y,-z
1/2+x,y,1/2-z
1/2-x,1/2+y,z
x,1/2-y,1/2+z
loop_
_atom_site_type_symbol
_atom_site_label
_atom_site_fract_x
_atom_site_fract_y
_atom_site_fract_z
Si Si1 0.298076 0.107213 0.167834
Si Si2 0.302322 0.670260 0.590302
Si Si3 0.695131 0.525290 0.715415
Si Si4 0.393789 0.400118 0.051530
Si Si5 0.555016 0.843895 0.312701
Si Si6 0.845041 0.733837 0.655155
Si Si7 0.588762 0.307949 0.015043
O O1 0.316924 0.987162 0.115522
O O2 0.268814 0.035307 0.233285
O O3 0.211841 0.214210 0.146740
O O4 0.397681 0.189853 0.177376
O O5 0.206165 0.682415 0.547288
O O6 0.389766 0.702413 0.543083
O O7 0.598225 0.585979 0.748644
O O8 0.750454 0.650027 0.678176
O O9 0.664985 0.400294 0.668221
O O10 0.415501 0.441413 0.126099
O O11 0.475566 0.292378 0.027931
O O12 0.386641 0.534256 0.006396
O O13 0.439780 0.827990 0.308861
O O14 0.851572 0.721481 0.578919
#
# Coordination Sequence:
#
# PCOD8249216 Si02
#       7
#     8   8   8   8   8   8   8
#     4  11  20  38  65  91 117 156 223 256 301 362
#     4  11  19  36  66  91 116 159 205 266 302 363
#     4  12  22  42  63  90 127 170 212 260 315 377
#     4   9  19  38  63  87 122 166 204 257 309 377
#     4  10  22  42  63  93 126 162 222 262 311 379
#     4  11  27  39  64  93 134 168 205 262 327 390
#     4  10  21  39  60  92 129 161 203 250 327 381
#
# _framework density 20.315518000000001
#
# number of rings (size 3 to 8) (size 9 to 14) (size 15 to 20)
#    0.000    1.429    5.714    0.000    4.000    0.000 
#    0.000    7.857    0.000    0.000    0.000    0.000 
#    0.000    0.000    0.000    0.000    0.000    0.000 
#
# Total GULP energy -694301.565949 kJ/mol
# GULP energy per Si atom -12398.242249 kJ/mol
# Density = 2.026928 g / cm^3
# Si number density = 20.315518 Si / 1000 Ang^3
#
#
#
# Elastic Constant Matrix: (Units=GPa)
#
#
# Indices 1 2 3 4 5 6 
#
# 1 57.7457 17.0720 14.5157 0.0000 0.0000 0.0000
# 2 17.0720 102.9158 33.9688 0.0000 0.0000 0.0000
# 3 14.5157 33.9688 65.9971 0.0000 0.0000 0.0000
# 4 0.0000 0.0000 0.0000 37.6726 0.0000 0.0000
# 5 0.0000 0.0000 0.0000 0.0000 32.6061 0.0000
# 6 0.0000 0.0000 0.0000 0.0000 0.0000 26.5693
#
#
#
# Elastic Compliance Matrix: (Units=1/GPa)
#
#
# Indices 1 2 3 4 5 6 
#
# 1 0.018701 -0.002102 -0.003031 0.000000 0.000000 0.000000
# 2 -0.002102 0.011941 -0.005684 0.000000 0.000000 0.000000
# 3 -0.003031 -0.005684 0.018745 0.000000 0.000000 0.000000
# 4 0.000000 0.000000 0.000000 0.026544 0.000000 0.000000
# 5 0.000000 0.000000 0.000000 0.000000 0.030669 0.000000
# 6 0.000000 0.000000 0.000000 0.000000 0.000000 0.037637
#
#
# Mechanical properties :
#
#
# Convention : Reuss Voigt Hill
#
# Bulk Modulus (GPa) = 36.03278 39.75240 37.89259
# Shear Modulus (GPa) = 28.55145 30.10973 29.33059
#
# Velocity S-wave (km/s) = 3.75294 3.85399 3.80380
# Velocity P-wave (km/s) = 6.04603 6.27808 6.16315
#
# Compressibility (1/GPa) = 0.02775251
#
# Stress axis : x y z
#
# Youngs Moduli (GPa) = 53.47410 83.74238 53.34898
#
# Poissons Ratio (x) = 0.17599 0.16172
# Poissons Ratio (y) = 0.11238 0.30324
# Poissons Ratio (z) = 0.16210 0.47599
#
# Static dielectric constant tensor:
#      x y z
#    x 3.728530 0.000000 0.000000 
#    y 0.000000 3.680590 0.000000 
#    z 0.000000 0.000000 3.692550 
# 
# 
# High freq. dielectric constant tensor:
#      x y z
#    x 1.787300 0.000000 0.000000 
#    y 0.000000 1.790380 0.000000 
#    z 0.000000 0.000000 1.790810 
# 
# From -- ./inp_files/10466.got.cif
#   From: 2010.03.12/outbox.cif.g09.slc.cpg/sg61_6_cif.got.tgz:10466.got - 2010.04.10 19:05:03.
