data_PCOD8249843
_publ_section_title
;
Structure prediction by ZEFSAII (Michael W. Deem and Ramdas Pophale) SiO2 
 PCOD8249843
Probable space group: P B C A
;
_chemical_formula_sum "Si O2"
_cell_formula_units_Z 40
_cell_length_a 9.598580
_cell_length_b 14.229524
_cell_length_c 11.233395
_cell_angle_alpha 90.000000
_cell_angle_beta 90.000000
_cell_angle_gamma 90.000000
_cell_volume 1534.293311
_symmetry_space_group_name_H-M "P B C A"
_symmetry_group_IT_number 61
_symmetry_cell_setting 'orthorhombic'
loop_
_space_group_symop_operation_xyz
x,y,z
1/2-x,-y,1/2+z
1/2+x,1/2-y,-z
-x,1/2+y,1/2-z
-x,-y,-z
1/2+x,y,1/2-z
1/2-x,1/2+y,z
x,1/2-y,1/2+z
loop_
_atom_site_type_symbol
_atom_site_label
_atom_site_fract_x
_atom_site_fract_y
_atom_site_fract_z
Si Si1 0.518563 0.802462 0.780201
Si Si2 0.988106 0.090665 0.709821
Si Si3 0.287148 0.655535 0.107869
Si Si4 0.332785 0.847106 0.998368
Si Si5 0.290034 0.982272 0.387508
O O1 0.553656 0.696459 0.742782
O O2 0.659556 0.863629 0.799828
O O3 0.433281 0.853839 0.675746
O O4 0.432141 0.799441 0.901598
O O5 0.077081 0.088825 0.588397
O O6 0.070805 0.038393 0.814589
O O7 0.846470 0.031996 0.694485
O O8 0.256886 0.762788 0.066804
O O9 0.282656 0.587371 0.998008
O O10 0.213458 0.911526 0.938227
#
# Coordination Sequence:
#
# PCOD8249843 Si02
#       5
#     8   8   8   8   8
#     4  11  24  46  78 102 151 194 246 308 381 440
#     4  11  24  48  70 108 151 194 246 314 366 453
#     4  11  26  49  72 112 146 198 248 311 376 451
#     4  11  25  45  77 106 148 200 246 310 379 438
#     4  12  26  48  74 109 155 193 257 310 371 454
#
# _framework density 26.070633000000001
#
# number of rings (size 3 to 8) (size 9 to 14) (size 15 to 20)
#    0.000    0.800    4.000    3.000    2.800    0.000 
#    3.600    4.000    0.000    0.000    0.000    0.000 
#    0.000    0.000    0.000    0.000    0.000    0.000 
#
# Total GULP energy -496339.409705 kJ/mol
# GULP energy per Si atom -12408.485243 kJ/mol
# Density = 2.601130 g / cm^3
# Si number density = 26.070633 Si / 1000 Ang^3
#
#
#
# Elastic Constant Matrix: (Units=GPa)
#
#
# Indices 1 2 3 4 5 6 
#
# 1 106.0286 27.1233 49.4298 0.0000 0.0000 0.0000
# 2 27.1233 64.7520 30.9369 0.0000 0.0000 0.0000
# 3 49.4298 30.9369 112.6331 0.0000 0.0000 0.0000
# 4 0.0000 0.0000 0.0000 -3.4385 0.0000 0.0000
# 5 0.0000 0.0000 0.0000 0.0000 38.0233 0.0000
# 6 0.0000 0.0000 0.0000 0.0000 0.0000 29.7947
#
#
#
# Elastic Compliance Matrix: (Units=1/GPa)
#
#
# Indices 1 2 3 4 5 6 
#
# 1 0.012334 -0.002970 -0.004597 0.000000 0.000000 0.000000
# 2 -0.002970 0.018492 -0.003776 0.000000 0.000000 0.000000
# 3 -0.004597 -0.003776 0.011933 0.000000 0.000000 0.000000
# 4 0.000000 0.000000 0.000000 -0.290826 0.000000 0.000000
# 5 0.000000 0.000000 0.000000 0.000000 0.026300 0.000000
# 6 0.000000 0.000000 0.000000 0.000000 0.000000 0.033563
#
#
# Mechanical properties :
#
#
# Convention : Reuss Voigt Hill
#
# Bulk Modulus (GPa) = 49.81833 55.37708 52.59770
# Shear Modulus (GPa) = -31.48072 24.60416 -3.43828
#
# Velocity S-wave (km/s) = -3.47870 3.07538 -1.14965
# Velocity P-wave (km/s) = 1.73646 5.82219 4.29612
#
# Compressibility (1/GPa) = 0.02007293
#
# Stress axis : x y z
#
# Youngs Moduli (GPa) = 81.07400 54.07865 83.80163
#
# Poissons Ratio (x) = 0.16062 0.38525
# Poissons Ratio (y) = 0.24081 0.31640
# Poissons Ratio (z) = 0.37271 0.20418
#
# Static dielectric constant tensor:
#      x y z
#    x 4.600210 0.000000 0.000000 
#    y 0.000000 4.676510 0.000000 
#    z 0.000000 0.000000 4.988190 
# 
# 
# High freq. dielectric constant tensor:
#      x y z
#    x 2.038940 0.000000 0.000000 
#    y 0.000000 2.052630 0.000000 
#    z 0.000000 0.000000 2.065200 
# 
# From -- ./inp_files/4787.got.cif
#   From: 2010.03.12/outbox.cif.g09.slc.cpg/sg61_3_cif.got.tgz:4787.got - 2010.04.10 19:05:03.
