data_PCOD8249237
_publ_section_title
;
Structure prediction by ZEFSAII (Michael W. Deem and Ramdas Pophale) SiO2 
 PCOD8249237
Probable space group: P B C A
;
_chemical_formula_sum "Si O2"
_cell_formula_units_Z 64
_cell_length_a 8.956685
_cell_length_b 16.541947
_cell_length_c 20.807002
_cell_angle_alpha 90.000000
_cell_angle_beta 90.000000
_cell_angle_gamma 90.000000
_cell_volume 3082.786402
_symmetry_space_group_name_H-M "P B C A"
_symmetry_group_IT_number 61
_symmetry_cell_setting 'orthorhombic'
loop_
_space_group_symop_operation_xyz
x,y,z
1/2-x,-y,1/2+z
1/2+x,1/2-y,-z
-x,1/2+y,1/2-z
-x,-y,-z
1/2+x,y,1/2-z
1/2-x,1/2+y,z
x,1/2-y,1/2+z
loop_
_atom_site_type_symbol
_atom_site_label
_atom_site_fract_x
_atom_site_fract_y
_atom_site_fract_z
Si Si1 0.027644 0.251590 0.922039
Si Si2 0.475751 0.973406 0.712153
Si Si3 0.243142 0.832532 0.012185
Si Si4 0.862362 0.130402 0.122038
Si Si5 0.209369 0.084649 0.738494
Si Si6 0.945148 0.584899 0.889732
Si Si7 0.959004 0.586710 0.151047
Si Si8 0.295442 0.311249 0.351184
O O1 0.983345 0.331953 0.882559
O O2 0.125165 0.191110 0.877731
O O3 0.871089 0.212859 0.941130
O O4 0.133169 0.271843 0.983064
O O5 0.493340 0.917420 0.648682
O O6 0.507689 0.917752 0.774758
O O7 0.313340 0.012245 0.712800
O O8 0.592412 0.047053 0.711285
O O9 0.333307 0.900362 0.051223
O O10 0.145200 0.872779 0.955415
O O11 0.719920 0.083107 0.149836
O O12 0.865146 0.221771 0.148308
O O13 0.127262 0.120318 0.675980
O O14 0.296108 0.154323 0.778057
O O15 0.974695 0.489546 0.887362
O O16 0.102089 0.632535 0.897184
#
# Coordination Sequence:
#
# PCOD8249237 Si02
#       8
#     8   8   8   8   8   8   8   8
#     4  10  23  42  65  88 127 163 213 263 312 372
#     4  11  20  41  61  88 124 159 200 258 311 370
#     4  10  22  42  61  92 124 168 211 258 313 373
#     4  10  22  39  64  88 124 161 206 256 309 370
#     4  11  22  38  65  90 127 156 202 263 318 362
#     4  11  22  40  64  92 124 167 211 251 320 381
#     4   9  20  40  63  90 117 168 201 255 318 371
#     4  10  21  39  64  93 124 162 205 267 315 363
#
# _framework density 20.760439999999999
#
# number of rings (size 3 to 8) (size 9 to 14) (size 15 to 20)
#    0.000    2.000    3.750    1.500    1.750    5.000 
#    9.000    3.125    0.000    0.000    0.000    0.000 
#    0.000    0.000    0.000    0.000    0.000    0.000 
#
# Total GULP energy -793396.591747 kJ/mol
# GULP energy per Si atom -12396.821746 kJ/mol
# Density = 2.071319 g / cm^3
# Si number density = 20.760440 Si / 1000 Ang^3
#
#
#
# Elastic Constant Matrix: (Units=GPa)
#
#
# Indices 1 2 3 4 5 6 
#
# 1 68.3352 47.0526 28.6223 0.0000 0.0000 0.0000
# 2 47.0526 87.3802 67.5579 0.0000 0.0000 0.0000
# 3 28.6223 67.5579 90.8060 0.0000 0.0000 0.0000
# 4 0.0000 0.0000 0.0000 27.6004 0.0000 0.0000
# 5 0.0000 0.0000 0.0000 0.0000 40.4785 0.0000
# 6 0.0000 0.0000 0.0000 0.0000 0.0000 35.6985
#
#
#
# Elastic Compliance Matrix: (Units=1/GPa)
#
#
# Indices 1 2 3 4 5 6 
#
# 1 0.024132 -0.016746 0.004852 0.000000 0.000000 0.000000
# 2 -0.016746 0.038562 -0.023411 0.000000 0.000000 0.000000
# 3 0.004852 -0.023411 0.026900 0.000000 0.000000 0.000000
# 4 0.000000 0.000000 0.000000 0.036231 0.000000 0.000000
# 5 0.000000 0.000000 0.000000 0.000000 0.024704 0.000000
# 6 0.000000 0.000000 0.000000 0.000000 0.000000 0.028012
#
#
# Mechanical properties :
#
#
# Convention : Reuss Voigt Hill
#
# Bulk Modulus (GPa) = 52.67387 59.22077 55.94732
# Shear Modulus (GPa) = 19.57103 27.64139 23.60621
#
# Velocity S-wave (km/s) = 3.07369 3.65286 3.37571
# Velocity P-wave (km/s) = 6.16636 6.81020 6.49626
#
# Compressibility (1/GPa) = 0.01898475
#
# Stress axis : x y z
#
# Youngs Moduli (GPa) = 41.43867 25.93240 37.17451
#
# Poissons Ratio (x) = 0.43427 -0.18039
# Poissons Ratio (y) = 0.69394 0.87028
# Poissons Ratio (z) = -0.20108 0.60710
#
# Static dielectric constant tensor:
#      x y z
#    x 3.711390 0.000000 0.000000 
#    y 0.000000 3.618520 0.000000 
#    z 0.000000 0.000000 3.692550 
# 
# 
# High freq. dielectric constant tensor:
#      x y z
#    x 1.812980 0.000000 0.000000 
#    y 0.000000 1.802650 0.000000 
#    z 0.000000 0.000000 1.805340 
# 
# From -- ./inp_files/10922.got.cif
#   From: 2010.03.12/outbox.cif.g09.slc.cpg/sg61_6_cif.got.tgz:10922.got - 2010.04.10 19:05:03.
