data_PCOD8249769
_publ_section_title
;
Structure prediction by ZEFSAII (Michael W. Deem and Ramdas Pophale) SiO2 
 PCOD8249769
Probable space group: P B C A
;
_chemical_formula_sum "Si O2"
_cell_formula_units_Z 48
_cell_length_a 8.686218
_cell_length_b 12.775876
_cell_length_c 19.469063
_cell_angle_alpha 90.000000
_cell_angle_beta 90.000000
_cell_angle_gamma 90.000000
_cell_volume 2160.560655
_symmetry_space_group_name_H-M "P B C A"
_symmetry_group_IT_number 61
_symmetry_cell_setting 'orthorhombic'
loop_
_space_group_symop_operation_xyz
x,y,z
1/2-x,-y,1/2+z
1/2+x,1/2-y,-z
-x,1/2+y,1/2-z
-x,-y,-z
1/2+x,y,1/2-z
1/2-x,1/2+y,z
x,1/2-y,1/2+z
loop_
_atom_site_type_symbol
_atom_site_label
_atom_site_fract_x
_atom_site_fract_y
_atom_site_fract_z
Si Si1 0.048534 0.990780 0.387906
Si Si2 0.598322 0.218303 0.171165
Si Si3 0.132884 0.186166 0.073226
Si Si4 0.057240 0.775737 0.309721
Si Si5 0.749356 0.013717 0.978820
Si Si6 0.060470 0.783079 0.045065
O O1 0.054697 0.098194 0.344768
O O2 0.882093 0.977209 0.421588
O O3 0.069265 0.895505 0.334465
O O4 0.181490 0.988687 0.445898
O O5 0.778434 0.221045 0.185944
O O6 0.499867 0.268691 0.232176
O O7 0.560388 0.295588 0.107085
O O8 0.117798 0.068313 0.044543
O O9 0.317152 0.198175 0.070933
O O10 0.066212 0.206079 0.148154
O O11 0.036286 0.260693 0.020427
O O12 0.841902 0.120184 0.980639
#
# Coordination Sequence:
#
# PCOD8249769 Si02
#       6
#     8   8   8   8   8   8
#     4  11  24  47  73 108 145 185 244 304 360 433
#     4  12  28  48  72 105 146 198 242 303 370 442
#     4  12  23  41  70 105 145 188 242 295 359 425
#     4  12  28  48  72 105 146 198 242 303 370 442
#     4  11  23  41  75 108 142 187 237 300 360 421
#     4  12  23  41  70 105 145 188 242 295 359 425
#
# _framework density 22.216455
#
# number of rings (size 3 to 8) (size 9 to 14) (size 15 to 20)
#    0.000    0.333    3.333    6.500    0.000    4.000 
#    0.000    0.000    0.000    0.000    0.000    0.000 
#    0.000    0.000    0.000    0.000    0.000    0.000 
#
# Total GULP energy -595158.106564 kJ/mol
# GULP energy per Si atom -12399.127220 kJ/mol
# Density = 2.216589 g / cm^3
# Si number density = 22.216455 Si / 1000 Ang^3
#
#
#
# Elastic Constant Matrix: (Units=GPa)
#
#
# Indices 1 2 3 4 5 6 
#
# 1 86.7644 7.3880 13.7226 0.0000 0.0000 0.0000
# 2 7.3880 91.6547 27.6541 0.0000 0.0000 0.0000
# 3 13.7226 27.6541 93.4090 0.0000 0.0000 0.0000
# 4 0.0000 0.0000 0.0000 39.3143 0.0000 0.0000
# 5 0.0000 0.0000 0.0000 0.0000 39.0738 0.0000
# 6 0.0000 0.0000 0.0000 0.0000 0.0000 35.9135
#
#
#
# Elastic Compliance Matrix: (Units=1/GPa)
#
#
# Indices 1 2 3 4 5 6 
#
# 1 0.011818 -0.000471 -0.001597 0.000000 0.000000 0.000000
# 2 -0.000471 0.011999 -0.003483 0.000000 0.000000 0.000000
# 3 -0.001597 -0.003483 0.011971 0.000000 0.000000 0.000000
# 4 0.000000 0.000000 0.000000 0.025436 0.000000 0.000000
# 5 0.000000 0.000000 0.000000 0.000000 0.025593 0.000000
# 6 0.000000 0.000000 0.000000 0.000000 0.000000 0.027845
#
#
# Mechanical properties :
#
#
# Convention : Reuss Voigt Hill
#
# Bulk Modulus (GPa) = 40.50697 41.03972 40.77335
# Shear Modulus (GPa) = 37.31531 37.73121 37.52326
#
# Velocity S-wave (km/s) = 4.10277 4.12557 4.11418
# Velocity P-wave (km/s) = 6.38091 6.41923 6.40010
#
# Compressibility (1/GPa) = 0.02468711
#
# Stress axis : x y z
#
# Youngs Moduli (GPa) = 84.61598 83.33712 83.53221
#
# Poissons Ratio (x) = 0.03924 0.13338
# Poissons Ratio (y) = 0.03984 0.29097
# Poissons Ratio (z) = 0.13511 0.29029
#
# Static dielectric constant tensor:
#      x y z
#    x 4.459790 0.000000 0.000000 
#    y 0.000000 4.054030 0.000000 
#    z 0.000000 0.000000 3.989410 
# 
# 
# High freq. dielectric constant tensor:
#      x y z
#    x 1.899300 0.000000 0.000000 
#    y 0.000000 1.877400 0.000000 
#    z 0.000000 0.000000 1.868950 
# 
# From -- ./inp_files/8908.got.cif
#   From: 2010.03.12/outbox.cif.g09.slc.cpg/sg61_5_cif.got.tgz:8908.got - 2010.04.10 19:05:03.
