data_PCOD8249091
_publ_section_title
;
Structure prediction by ZEFSAII (Michael W. Deem and Ramdas Pophale) SiO2 
 PCOD8249091
Probable space group: P B C A
;
_chemical_formula_sum "Si O2"
_cell_formula_units_Z 64
_cell_length_a 24.745218
_cell_length_b 8.161072
_cell_length_c 14.862692
_cell_angle_alpha 90.000000
_cell_angle_beta 90.000000
_cell_angle_gamma 90.000000
_cell_volume 3001.483578
_symmetry_space_group_name_H-M "P B C A"
_symmetry_group_IT_number 61
_symmetry_cell_setting 'orthorhombic'
loop_
_space_group_symop_operation_xyz
x,y,z
1/2-x,-y,1/2+z
1/2+x,1/2-y,-z
-x,1/2+y,1/2-z
-x,-y,-z
1/2+x,y,1/2-z
1/2-x,1/2+y,z
x,1/2-y,1/2+z
loop_
_atom_site_type_symbol
_atom_site_label
_atom_site_fract_x
_atom_site_fract_y
_atom_site_fract_z
Si Si1 0.937408 0.745579 0.987411
Si Si2 0.231031 0.095100 0.837863
Si Si3 0.686814 0.796026 0.564649
Si Si4 0.676013 0.109860 0.246383
Si Si5 0.600411 0.971486 0.108965
Si Si6 0.475497 0.272632 0.140373
Si Si7 0.127432 0.972936 0.081523
Si Si8 0.014939 0.407232 0.179445
O O1 0.951008 0.719247 0.881767
O O2 0.899856 0.906868 0.992384
O O3 0.905689 0.583711 0.020297
O O4 0.991190 0.773512 0.047135
O O5 0.256442 0.196442 0.923762
O O6 0.198042 0.208342 0.769493
O O7 0.190696 0.955631 0.872064
O O8 0.280071 0.025104 0.780153
O O9 0.637517 0.684147 0.593960
O O10 0.672677 0.855686 0.464032
O O11 0.622785 0.089645 0.186197
O O12 0.660016 0.086027 0.349329
O O13 0.544384 0.897783 0.138997
O O14 0.418906 0.366000 0.129707
O O15 0.513843 0.353643 0.216447
O O16 0.460684 0.089087 0.170940
#
# Coordination Sequence:
#
# PCOD8249091 Si02
#       8
#     8   8   8   8   8   8   8   8
#     4  11  24  39  62  92 133 175 209 258 305 364
#     4   9  21  43  63  89 115 165 195 264 334 368
#     4  10  21  39  68  88 121 159 209 254 321 383
#     4  10  21  40  62  87 126 152 209 258 313 380
#     4  10  20  41  62  89 127 162 208 258 304 370
#     4  11  23  41  61  91 134 171 213 258 310 362
#     4  12  23  39  60  97 122 165 217 257 301 384
#     4  11  22  40  62  89 130 175 208 257 309 361
#
# _framework density 21.322789
#
# number of rings (size 3 to 8) (size 9 to 14) (size 15 to 20)
#    0.000    1.500    1.250    4.875    1.750    2.000 
#    2.250    2.500    0.000    0.000    0.000    0.000 
#    0.000    0.000    0.000    0.000    0.000    0.000 
#
# Total GULP energy -793574.399465 kJ/mol
# GULP energy per Si atom -12399.599992 kJ/mol
# Density = 2.127426 g / cm^3
# Si number density = 21.322789 Si / 1000 Ang^3
#
#
#
# Elastic Constant Matrix: (Units=GPa)
#
#
# Indices 1 2 3 4 5 6 
#
# 1 58.8783 40.5502 20.2561 0.0000 0.0000 0.0000
# 2 40.5502 107.4496 34.4119 0.0000 0.0000 0.0000
# 3 20.2561 34.4119 89.9370 0.0000 0.0000 0.0000
# 4 0.0000 0.0000 0.0000 32.4700 0.0000 0.0000
# 5 0.0000 0.0000 0.0000 0.0000 22.6058 0.0000
# 6 0.0000 0.0000 0.0000 0.0000 0.0000 31.7865
#
#
#
# Elastic Compliance Matrix: (Units=1/GPa)
#
#
# Indices 1 2 3 4 5 6 
#
# 1 0.023307 -0.008108 -0.002147 0.000000 0.000000 0.000000
# 2 -0.008108 0.013427 -0.003311 0.000000 0.000000 0.000000
# 3 -0.002147 -0.003311 0.012869 0.000000 0.000000 0.000000
# 4 0.000000 0.000000 0.000000 0.030798 0.000000 0.000000
# 5 0.000000 0.000000 0.000000 0.000000 0.044236 0.000000
# 6 0.000000 0.000000 0.000000 0.000000 0.000000 0.031460
#
#
# Mechanical properties :
#
#
# Convention : Reuss Voigt Hill
#
# Bulk Modulus (GPa) = 44.50262 49.63347 47.06804
# Shear Modulus (GPa) = 26.21633 28.10890 27.16261
#
# Velocity S-wave (km/s) = 3.51022 3.63472 3.57301
# Velocity P-wave (km/s) = 6.11107 6.39864 6.25651
#
# Compressibility (1/GPa) = 0.02247059
#
# Stress axis : x y z
#
# Youngs Moduli (GPa) = 42.90546 74.47603 77.70345
#
# Poissons Ratio (x) = 0.60387 0.16683
# Poissons Ratio (y) = 0.34789 0.25730
# Poissons Ratio (z) = 0.09212 0.24662
#
# Static dielectric constant tensor:
#      x y z
#    x 3.890970 0.000000 0.000000 
#    y 0.000000 4.043020 0.000000 
#    z 0.000000 0.000000 3.781580 
# 
# 
# High freq. dielectric constant tensor:
#      x y z
#    x 1.832880 0.000000 0.000000 
#    y 0.000000 1.851560 0.000000 
#    z 0.000000 0.000000 1.825060 
# 
# From -- ./inp_files/8511.got.cif
#   From: 2010.03.12/outbox.cif.g09.slc.cpg/sg61_5_cif.got.tgz:8511.got - 2010.04.10 19:05:03.
