data_PCOD8249278
_publ_section_title
;
Structure prediction by ZEFSAII (Michael W. Deem and Ramdas Pophale) SiO2 
 PCOD8249278
Probable space group: P B C A
;
_chemical_formula_sum "Si O2"
_cell_formula_units_Z 64
_cell_length_a 8.055378
_cell_length_b 24.505759
_cell_length_c 14.660675
_cell_angle_alpha 90.000000
_cell_angle_beta 90.000000
_cell_angle_gamma 90.000000
_cell_volume 2894.063454
_symmetry_space_group_name_H-M "P B C A"
_symmetry_group_IT_number 61
_symmetry_cell_setting 'orthorhombic'
loop_
_space_group_symop_operation_xyz
x,y,z
1/2-x,-y,1/2+z
1/2+x,1/2-y,-z
-x,1/2+y,1/2-z
-x,-y,-z
1/2+x,y,1/2-z
1/2-x,1/2+y,z
x,1/2-y,1/2+z
loop_
_atom_site_type_symbol
_atom_site_label
_atom_site_fract_x
_atom_site_fract_y
_atom_site_fract_z
Si Si1 0.265724 0.911597 0.957134
Si Si2 0.894858 0.890401 0.929253
Si Si3 0.677425 0.061475 0.841161
Si Si4 0.672243 0.199822 0.116018
Si Si5 0.042900 0.841546 0.767049
Si Si6 0.133565 0.178371 0.887718
Si Si7 0.910599 0.367499 0.240461
Si Si8 0.587167 0.942029 0.845694
O O1 0.296219 0.845511 0.962623
O O2 0.402557 0.936192 0.888268
O O3 0.074323 0.921411 0.925855
O O4 0.286887 0.941474 0.052104
O O5 0.736701 0.930434 0.918296
O O6 0.896148 0.848446 0.843020
O O7 0.874044 0.860445 0.025418
O O8 0.557819 0.112724 0.824042
O O9 0.839540 0.076180 0.782710
O O10 0.605987 0.003496 0.809244
O O11 0.507102 0.186418 0.172577
O O12 0.819119 0.196958 0.189420
O O13 0.651762 0.259945 0.074246
O O14 0.107738 0.902509 0.741563
O O15 0.289809 0.166047 0.824135
O O16 0.971018 0.170700 0.824480
#
# Coordination Sequence:
#
# PCOD8249278 Si02
#       8
#     8   8   8   8   8   8   8   8
#     4  10  23  44  62 101 137 161 229 285 312 416
#     4  11  23  43  68  98 137 166 229 273 326 410
#     4  11  23  44  64  98 128 179 219 276 340 395
#     4  10  21  40  67  91 132 172 216 273 342 384
#     4  10  21  42  61 101 129 164 226 278 313 415
#     4  11  22  45  65  98 128 185 214 277 346 389
#     4  10  24  42  66  90 139 165 232 274 321 422
#     4  11  24  42  72  94 135 180 213 278 350 384
#
# _framework density 22.114234
#
# number of rings (size 3 to 8) (size 9 to 14) (size 15 to 20)
#    0.000    1.500    2.500    1.875    1.750    0.500 
#   20.250    0.000    0.000    0.000    0.000    0.000 
#    0.000    0.000    0.000    0.000    0.000    0.000 
#
# Total GULP energy -793237.147520 kJ/mol
# GULP energy per Si atom -12394.330430 kJ/mol
# Density = 2.206390 g / cm^3
# Si number density = 22.114234 Si / 1000 Ang^3
#
#
#
# Elastic Constant Matrix: (Units=GPa)
#
#
# Indices 1 2 3 4 5 6 
#
# 1 90.8858 17.2704 12.0743 0.0000 0.0000 0.0000
# 2 17.2704 88.7913 7.5700 0.0000 0.0000 0.0000
# 3 12.0743 7.5700 70.6554 0.0000 0.0000 0.0000
# 4 0.0000 0.0000 0.0000 23.0333 0.0000 0.0000
# 5 0.0000 0.0000 0.0000 0.0000 24.3474 0.0000
# 6 0.0000 0.0000 0.0000 0.0000 0.0000 23.4546
#
#
#
# Elastic Compliance Matrix: (Units=1/GPa)
#
#
# Indices 1 2 3 4 5 6 
#
# 1 0.011639 -0.002114 -0.001762 0.000000 0.000000 0.000000
# 2 -0.002114 0.011750 -0.000898 0.000000 0.000000 0.000000
# 3 -0.001762 -0.000898 0.014551 0.000000 0.000000 0.000000
# 4 0.000000 0.000000 0.000000 0.043415 0.000000 0.000000
# 5 0.000000 0.000000 0.000000 0.000000 0.041072 0.000000
# 6 0.000000 0.000000 0.000000 0.000000 0.000000 0.042636
#
#
# Mechanical properties :
#
#
# Convention : Reuss Voigt Hill
#
# Bulk Modulus (GPa) = 35.22148 36.01796 35.61972
# Shear Modulus (GPa) = 27.16307 28.39493 27.77900
#
# Velocity S-wave (km/s) = 3.50852 3.58720 3.54808
# Velocity P-wave (km/s) = 5.68987 5.78618 5.73823
#
# Compressibility (1/GPa) = 0.02839177
#
# Stress axis : x y z
#
# Youngs Moduli (GPa) = 85.92111 85.10649 68.72587
#
# Poissons Ratio (x) = 0.17987 0.12113
# Poissons Ratio (y) = 0.18159 0.06170
# Poissons Ratio (z) = 0.15143 0.07640
#
# Static dielectric constant tensor:
#      x y z
#    x 4.222410 0.000000 0.000000 
#    y 0.000000 3.697640 0.000000 
#    z 0.000000 0.000000 3.880490 
# 
# 
# High freq. dielectric constant tensor:
#      x y z
#    x 1.883590 0.000000 0.000000 
#    y 0.000000 1.848440 0.000000 
#    z 0.000000 0.000000 1.868090 
# 
# From -- ./inp_files/4353.got.cif
#   From: 2010.03.12/outbox.cif.g09.slc.cpg/sg61_3_cif.got.tgz:4353.got - 2010.04.10 19:05:03.
