data_PCOD8249288
_publ_section_title
;
Structure prediction by ZEFSAII (Michael W. Deem and Ramdas Pophale) SiO2 
 PCOD8249288
Probable space group: P B C A
;
_chemical_formula_sum "Si O2"
_cell_formula_units_Z 48
_cell_length_a 16.355957
_cell_length_b 13.972844
_cell_length_c 9.789749
_cell_angle_alpha 90.000000
_cell_angle_beta 90.000000
_cell_angle_gamma 90.000000
_cell_volume 2237.341753
_symmetry_space_group_name_H-M "P B C A"
_symmetry_group_IT_number 61
_symmetry_cell_setting 'orthorhombic'
loop_
_space_group_symop_operation_xyz
x,y,z
1/2-x,-y,1/2+z
1/2+x,1/2-y,-z
-x,1/2+y,1/2-z
-x,-y,-z
1/2+x,y,1/2-z
1/2-x,1/2+y,z
x,1/2-y,1/2+z
loop_
_atom_site_type_symbol
_atom_site_label
_atom_site_fract_x
_atom_site_fract_y
_atom_site_fract_z
Si Si1 0.507148 0.433216 0.129400
Si Si2 0.162968 0.159499 0.792506
Si Si3 0.676379 0.172639 0.024972
Si Si4 0.545059 0.451180 0.623510
Si Si5 0.433196 0.225484 0.122242
Si Si6 0.675782 0.770155 0.126006
O O1 0.602891 0.429799 0.176807
O O2 0.451526 0.477452 0.248887
O O3 0.473685 0.328309 0.097541
O O4 0.500000 0.500000 0.000000
O O5 0.156930 0.188361 0.634072
O O6 0.259082 0.144772 0.834066
O O7 0.129194 0.245576 0.887742
O O8 0.638195 0.072396 0.077070
O O9 0.773511 0.181170 0.056738
O O10 0.500000 0.500000 0.500000
O O11 0.498714 0.353640 0.664932
O O12 0.365542 0.229235 0.239374
O O13 0.390551 0.191015 0.980998
#
# Coordination Sequence:
#
# PCOD8249288 Si02
#       6
#     8   8   8   8   8   8
#     4  12  27  42  67 102 134 180 228 269 336 402
#     4  10  21  43  67  93 133 175 218 262 345 389
#     4  10  21  42  68  92 132 178 214 263 349 386
#     4  12  25  42  69  98 133 178 224 276 333 395
#     4  12  23  44  67 101 133 165 230 284 318 401
#     4  10  21  40  72  93 129 182 206 276 349 382
#
# _framework density 21.454029999999999
#
# number of rings (size 3 to 8) (size 9 to 14) (size 15 to 20)
#    1.000    0.000    5.000    2.000    2.333    0.000 
#    0.000   10.000    0.000    0.000    0.000    0.000 
#    0.000    0.000    0.000    0.000    0.000    0.000 
#
# Total GULP energy -594821.028453 kJ/mol
# GULP energy per Si atom -12392.104759 kJ/mol
# Density = 2.140520 g / cm^3
# Si number density = 21.454030 Si / 1000 Ang^3
#
#
#
# Elastic Constant Matrix: (Units=GPa)
#
#
# Indices 1 2 3 4 5 6 
#
# 1 75.8264 15.4498 14.8618 0.0000 0.0000 0.0000
# 2 15.4498 61.6049 18.0433 0.0000 0.0000 0.0000
# 3 14.8618 18.0433 142.5728 0.0000 0.0000 0.0000
# 4 0.0000 0.0000 0.0000 34.9973 0.0000 0.0000
# 5 0.0000 0.0000 0.0000 0.0000 36.9970 0.0000
# 6 0.0000 0.0000 0.0000 0.0000 0.0000 27.7521
#
#
#
# Elastic Compliance Matrix: (Units=1/GPa)
#
#
# Indices 1 2 3 4 5 6 
#
# 1 0.014050 -0.003214 -0.001058 0.000000 0.000000 0.000000
# 2 -0.003214 0.017592 -0.001891 0.000000 0.000000 0.000000
# 3 -0.001058 -0.001891 0.007364 0.000000 0.000000 0.000000
# 4 0.000000 0.000000 0.000000 0.028574 0.000000 0.000000
# 5 0.000000 0.000000 0.000000 0.000000 0.027029 0.000000
# 6 0.000000 0.000000 0.000000 0.000000 0.000000 0.036033
#
#
# Mechanical properties :
#
#
# Convention : Reuss Voigt Hill
#
# Bulk Modulus (GPa) = 37.48114 41.85709 39.66912
# Shear Modulus (GPa) = 32.92469 35.39258 34.15864
#
# Velocity S-wave (km/s) = 3.92173 4.06605 3.99454
# Velocity P-wave (km/s) = 6.16563 6.44951 6.30916
#
# Compressibility (1/GPa) = 0.02668008
#
# Stress axis : x y z
#
# Youngs Moduli (GPa) = 71.17353 56.84270 135.80316
#
# Poissons Ratio (x) = 0.18268 0.14366
# Poissons Ratio (y) = 0.22874 0.25686
# Poissons Ratio (z) = 0.07529 0.10751
#
# Static dielectric constant tensor:
#      x y z
#    x 4.055650 0.000000 0.000000 
#    y 0.000000 3.587300 0.000000 
#    z 0.000000 0.000000 3.743850 
# 
# 
# High freq. dielectric constant tensor:
#      x y z
#    x 1.850280 0.000000 0.000000 
#    y 0.000000 1.811390 0.000000 
#    z 0.000000 0.000000 1.856760 
# 
# From -- ./inp_files/3449.got.cif
#   From: 2010.03.12/outbox.cif.g09.slc.cpg/sg61_2_cif.got.tgz:3449.got - 2010.04.10 19:05:03.
