data_PCOD8249031
_publ_section_title
;
Structure prediction by ZEFSAII (Michael W. Deem and Ramdas Pophale) SiO2 
 PCOD8249031
Probable space group: P B C A
;
_chemical_formula_sum "Si O2"
_cell_formula_units_Z 56
_cell_length_a 11.987744
_cell_length_b 20.038047
_cell_length_c 10.253167
_cell_angle_alpha 90.000000
_cell_angle_beta 90.000000
_cell_angle_gamma 90.000000
_cell_volume 2462.923270
_symmetry_space_group_name_H-M "P B C A"
_symmetry_group_IT_number 61
_symmetry_cell_setting 'orthorhombic'
loop_
_space_group_symop_operation_xyz
x,y,z
1/2-x,-y,1/2+z
1/2+x,1/2-y,-z
-x,1/2+y,1/2-z
-x,-y,-z
1/2+x,y,1/2-z
1/2-x,1/2+y,z
x,1/2-y,1/2+z
loop_
_atom_site_type_symbol
_atom_site_label
_atom_site_fract_x
_atom_site_fract_y
_atom_site_fract_z
Si Si1 0.575902 0.750095 0.940522
Si Si2 0.749842 0.363004 0.410130
Si Si3 0.081349 0.530119 0.681333
Si Si4 0.704406 0.445315 0.647583
Si Si5 0.072588 0.266086 0.190781
Si Si6 0.370724 0.555404 0.943540
Si Si7 0.764210 0.650421 0.377047
O O1 0.658777 0.688323 0.966863
O O2 0.485580 0.730718 0.831255
O O3 0.646394 0.813213 0.891987
O O4 0.518125 0.769925 0.075844
O O5 0.811072 0.421465 0.330258
O O6 0.680578 0.393208 0.532058
O O7 0.660224 0.327279 0.317258
O O8 0.094805 0.490472 0.818826
O O9 0.073189 0.470239 0.577035
O O10 0.966958 0.572507 0.664799
O O11 0.801107 0.494656 0.608962
O O12 0.752378 0.409273 0.775732
O O13 0.139227 0.197509 0.178493
O O14 0.300670 0.621729 0.980377
#
# Coordination Sequence:
#
# PCOD8249031 Si02
#       7
#     8   8   8   8   8   8   8
#     4  11  24  41  66  95 127 172 217 267 326 382
#     4  10  22  39  61  94 129 162 216 272 319 383
#     4   9  19  35  59  87 120 164 206 255 318 379
#     4  10  20  38  63  91 125 166 211 264 323 388
#     4  11  24  41  65  93 126 169 214 268 325 381
#     4   9  19  36  59  87 119 160 209 257 313 382
#     4  10  22  40  63  92 128 166 213 265 322 388
#
# _framework density 22.737209
#
# number of rings (size 3 to 8) (size 9 to 14) (size 15 to 20)
#    0.000    2.000    0.000    2.571    0.000   12.571 
#    0.000    0.000    0.000    8.571    0.000    0.000 
#    0.000    0.000    0.000    0.000    0.000    0.000 
#
# Total GULP energy -694245.241166 kJ/mol
# GULP energy per Si atom -12397.236449 kJ/mol
# Density = 2.268546 g / cm^3
# Si number density = 22.737209 Si / 1000 Ang^3
#
#
#
# Elastic Constant Matrix: (Units=GPa)
#
#
# Indices 1 2 3 4 5 6 
#
# 1 83.0912 32.3356 18.7524 0.0000 0.0000 0.0000
# 2 32.3356 92.0674 28.4195 0.0000 0.0000 0.0000
# 3 18.7524 28.4195 63.7842 0.0000 0.0000 0.0000
# 4 0.0000 0.0000 0.0000 39.9675 0.0000 0.0000
# 5 0.0000 0.0000 0.0000 0.0000 27.5198 0.0000
# 6 0.0000 0.0000 0.0000 0.0000 0.0000 26.6377
#
#
#
# Elastic Compliance Matrix: (Units=1/GPa)
#
#
# Indices 1 2 3 4 5 6 
#
# 1 0.014217 -0.004294 -0.002267 0.000000 0.000000 0.000000
# 2 -0.004294 0.013890 -0.004927 0.000000 0.000000 0.000000
# 3 -0.002267 -0.004927 0.018539 0.000000 0.000000 0.000000
# 4 0.000000 0.000000 0.000000 0.025020 0.000000 0.000000
# 5 0.000000 0.000000 0.000000 0.000000 0.036337 0.000000
# 6 0.000000 0.000000 0.000000 0.000000 0.000000 0.037541
#
#
# Mechanical properties :
#
#
# Convention : Reuss Voigt Hill
#
# Bulk Modulus (GPa) = 42.24222 44.21751 43.22987
# Shear Modulus (GPa) = 28.34291 29.45404 28.89847
#
# Velocity S-wave (km/s) = 3.53447 3.60309 3.56894
# Velocity P-wave (km/s) = 5.93931 6.06622 6.00310
#
# Compressibility (1/GPa) = 0.02367300
#
# Stress axis : x y z
#
# Youngs Moduli (GPa) = 70.33592 71.99228 53.93923
#
# Poissons Ratio (x) = 0.30911 0.12227
# Poissons Ratio (y) = 0.30200 0.26574
# Poissons Ratio (z) = 0.15944 0.35468
#
# Static dielectric constant tensor:
#      x y z
#    x 4.108300 0.000000 0.000000 
#    y 0.000000 4.324980 0.000000 
#    z 0.000000 0.000000 4.356080 
# 
# 
# High freq. dielectric constant tensor:
#      x y z
#    x 1.889530 0.000000 0.000000 
#    y 0.000000 1.912900 0.000000 
#    z 0.000000 0.000000 1.887450 
# 
# From -- ./inp_files/5371.got.cif
#   From: 2010.03.12/outbox.cif.g09.slc.cpg/sg61_3_cif.got.tgz:5371.got - 2010.04.10 19:05:03.
