data_PCOD8249092
_publ_section_title
;
Structure prediction by ZEFSAII (Michael W. Deem and Ramdas Pophale) SiO2 
 PCOD8249092
Probable space group: P B C A
;
_chemical_formula_sum "Si O2"
_cell_formula_units_Z 64
_cell_length_a 9.866279
_cell_length_b 10.961864
_cell_length_c 27.499118
_cell_angle_alpha 90.000000
_cell_angle_beta 90.000000
_cell_angle_gamma 90.000000
_cell_volume 2974.106845
_symmetry_space_group_name_H-M "P B C A"
_symmetry_group_IT_number 61
_symmetry_cell_setting 'orthorhombic'
loop_
_space_group_symop_operation_xyz
x,y,z
1/2-x,-y,1/2+z
1/2+x,1/2-y,-z
-x,1/2+y,1/2-z
-x,-y,-z
1/2+x,y,1/2-z
1/2-x,1/2+y,z
x,1/2-y,1/2+z
loop_
_atom_site_type_symbol
_atom_site_label
_atom_site_fract_x
_atom_site_fract_y
_atom_site_fract_z
Si Si1 0.744013 0.313360 0.699797
Si Si2 0.843115 0.178256 0.451303
Si Si3 0.054312 0.007919 0.924361
Si Si4 0.037790 0.186744 0.012367
Si Si5 0.710105 0.561843 0.641137
Si Si6 0.941026 0.306047 0.788614
Si Si7 0.851937 0.135305 0.865224
Si Si8 0.091093 0.001050 0.627297
O O1 0.750238 0.439384 0.670182
O O2 0.762001 0.190119 0.668098
O O3 0.860091 0.323895 0.739425
O O4 0.598483 0.307902 0.725838
O O5 0.695279 0.206497 0.473998
O O6 0.958611 0.192341 0.493472
O O7 0.876464 0.264500 0.406187
O O8 0.860160 0.045922 0.426226
O O9 0.201153 0.052768 0.907409
O O10 0.943141 0.019836 0.881128
O O11 0.044565 0.866387 0.940965
O O12 0.016731 0.090328 0.969837
O O13 0.556017 0.560395 0.623398
O O14 0.905649 0.176216 0.812515
O O15 0.902618 0.406203 0.828633
O O16 0.694134 0.107735 0.859034
#
# Coordination Sequence:
#
# PCOD8249092 Si02
#       8
#     8   8   8   8   8   8   8   8
#     4  11  26  44  67 100 129 173 217 267 324 389
#     4  10  22  38  61  92 126 166 215 275 323 390
#     4  10  21  41  63  85 126 172 210 266 329 388
#     4  10  22  38  61  91 123 168 220 264 331 385
#     4  11  26  44  67  97 135 171 219 266 330 387
#     4  10  24  42  64  93 131 166 211 270 323 386
#     4  10  20  41  64  85 126 167 213 260 332 382
#     4  10  23  42  62  93 131 169 215 272 322 390
#
# _framework density 21.519065999999999
#
# number of rings (size 3 to 8) (size 9 to 14) (size 15 to 20)
#    0.000    1.750    2.500    0.000    7.000    4.000 
#    0.000    1.250    0.000    0.000    0.000    0.000 
#    0.000    0.000    0.000    0.000    0.000    0.000 
#
# Total GULP energy -793153.731484 kJ/mol
# GULP energy per Si atom -12393.027054 kJ/mol
# Density = 2.147009 g / cm^3
# Si number density = 21.519066 Si / 1000 Ang^3
#
#
#
# Elastic Constant Matrix: (Units=GPa)
#
#
# Indices 1 2 3 4 5 6 
#
# 1 104.8000 -2.4057 10.1815 0.0000 0.0000 0.0000
# 2 -2.4057 55.9590 -2.2087 0.0000 0.0000 0.0000
# 3 10.1815 -2.2087 19.9759 0.0000 0.0000 0.0000
# 4 0.0000 0.0000 0.0000 5.0880 0.0000 0.0000
# 5 0.0000 0.0000 0.0000 0.0000 33.5514 0.0000
# 6 0.0000 0.0000 0.0000 0.0000 0.0000 35.3591
#
#
#
# Elastic Compliance Matrix: (Units=1/GPa)
#
#
# Indices 1 2 3 4 5 6 
#
# 1 0.010042 0.000231 -0.005093 0.000000 0.000000 0.000000
# 2 0.000231 0.017954 0.001868 0.000000 0.000000 0.000000
# 3 -0.005093 0.001868 0.052863 0.000000 0.000000 0.000000
# 4 0.000000 0.000000 0.000000 0.196542 0.000000 0.000000
# 5 0.000000 0.000000 0.000000 0.000000 0.029805 0.000000
# 6 0.000000 0.000000 0.000000 0.000000 0.000000 0.028281
#
#
# Mechanical properties :
#
#
# Convention : Reuss Voigt Hill
#
# Bulk Modulus (GPa) = 13.35659 21.31877 17.33768
# Shear Modulus (GPa) = 13.64509 26.47757 20.06133
#
# Velocity S-wave (km/s) = 2.52085 3.51155 3.05660
# Velocity P-wave (km/s) = 3.83318 5.13514 4.53117
#
# Compressibility (1/GPa) = 0.07486940
#
# Stress axis : x y z
#
# Youngs Moduli (GPa) = 99.58122 55.69838 18.91699
#
# Poissons Ratio (x) = -0.01285 0.09634
# Poissons Ratio (y) = -0.02297 -0.03533
# Poissons Ratio (z) = 0.50715 -0.10402
#
# Static dielectric constant tensor:
#      x y z
#    x 3.936340 0.000000 0.000000 
#    y 0.000000 3.955710 0.000000 
#    z 0.000000 0.000000 3.959520 
# 
# 
# High freq. dielectric constant tensor:
#      x y z
#    x 1.858170 0.000000 0.000000 
#    y 0.000000 1.834420 0.000000 
#    z 0.000000 0.000000 1.841000 
# 
# From -- ./inp_files/11745.got.cif
#   From: 2010.03.12/outbox.cif.g09.slc.cpg/sg61_6_cif.got.tgz:11745.got - 2010.04.10 19:05:03.
