data_PCOD8249957
_publ_section_title
;
Structure prediction by ZEFSAII (Michael W. Deem and Ramdas Pophale) SiO2 
 PCOD8249957
Probable space group: P N M A
;
_chemical_formula_sum "Si O2"
_cell_formula_units_Z 64
_cell_length_a 5.240231
_cell_length_b 23.618670
_cell_length_c 32.896035
_cell_angle_alpha 90.000000
_cell_angle_beta 90.000000
_cell_angle_gamma 90.000000
_cell_volume 4071.452996
_symmetry_space_group_name_H-M "P N M A"
_symmetry_group_IT_number 62
_symmetry_cell_setting 'orthorhombic'
loop_
_space_group_symop_operation_xyz
x,y,z
1/2-x,-y,1/2+z
1/2+x,1/2-y,1/2-z
-x,1/2+y,-z
-x,-y,-z
1/2+x,y,1/2-z
1/2-x,1/2+y,1/2+z
x,1/2-y,z
loop_
_atom_site_type_symbol
_atom_site_label
_atom_site_fract_x
_atom_site_fract_y
_atom_site_fract_z
Si Si1 0.209044 0.090015 0.855442
Si Si2 0.744241 0.314648 0.970029
Si Si3 0.788216 0.002221 0.271568
Si Si4 0.262215 0.523660 0.550774
Si Si5 0.761651 0.927685 0.512353
Si Si6 0.295225 0.980180 0.137438
Si Si7 0.750593 0.813786 0.082064
Si Si8 0.728472 0.379095 0.736979
O O1 0.427344 0.047050 0.869774
O O2 0.239486 0.148861 0.878046
O O3 0.252941 0.101749 0.808627
O O4 0.928752 0.066082 0.863542
O O5 0.728228 0.250000 0.986952
O O6 0.494444 0.330258 0.944336
O O7 0.995422 0.323028 0.943540
O O8 0.757978 0.360029 0.006291
O O9 0.538063 0.029074 0.250058
O O10 0.787003 0.014887 0.319989
O O11 0.791454 0.934410 0.266156
O O12 0.252708 0.460804 0.530863
O O13 0.529272 0.553289 0.540648
O O14 0.246354 0.521825 0.599524
O O15 0.029403 0.560631 0.534041
O O16 0.727073 0.750000 0.097866
O O17 0.473289 0.343320 0.747368
#
# Coordination Sequence:
#
# PCOD8249957 Si02
#       8
#     8   8   8   8   8   8   8   8
#     4  12  19  28  48  62  87 116 146 196 226 273
#     4  10  20  36  55  69  87 117 157 197 233 272
#     4  10  16  29  41  61  87 110 145 200 211 245
#     4  10  21  30  46  67  96 128 143 179 225 289
#     4  10  19  35  46  65  97 120 149 182 229 271
#     4  12  20  29  46  70  86 116 162 176 222 272
#     4  10  21  33  46  69  88 105 144 199 246 272
#     4  10  16  28  40  61  79 110 145 189 225 252
#
# _framework density 15.719204
#
# number of rings (size 3 to 8) (size 9 to 14) (size 15 to 20)
#    0.000    1.500    5.000    3.750    0.000    2.000 
#    0.000    0.000    0.000    0.750    0.000    0.000 
#    0.000    0.000    0.000    0.000    0.000   12.500 
#
# Total GULP energy -793398.982309 kJ/mol
# GULP energy per Si atom -12396.859099 kJ/mol
# Density = 1.568343 g / cm^3
# Si number density = 15.719204 Si / 1000 Ang^3
#
#
#
# Elastic Constant Matrix: (Units=GPa)
#
#
# Indices 1 2 3 4 5 6 
#
# 1 100.2200 6.9494 9.1681 0.0000 0.0000 0.0000
# 2 6.9494 45.8008 22.5157 0.0000 0.0000 0.0000
# 3 9.1681 22.5157 86.6986 0.0000 0.0000 0.0000
# 4 0.0000 0.0000 0.0000 -7.0898 0.0000 0.0000
# 5 0.0000 0.0000 0.0000 0.0000 20.7602 0.0000
# 6 0.0000 0.0000 0.0000 0.0000 0.0000 12.7524
#
#
#
# Elastic Compliance Matrix: (Units=1/GPa)
#
#
# Indices 1 2 3 4 5 6 
#
# 1 0.010129 -0.001158 -0.000770 0.000000 0.000000 0.000000
# 2 -0.001158 0.025162 -0.006412 0.000000 0.000000 0.000000
# 3 -0.000770 -0.006412 0.013281 0.000000 0.000000 0.000000
# 4 0.000000 0.000000 0.000000 -0.141047 0.000000 0.000000
# 5 0.000000 0.000000 0.000000 0.000000 0.048169 0.000000
# 6 0.000000 0.000000 0.000000 0.000000 0.000000 0.078417
#
#
# Mechanical properties :
#
#
# Convention : Reuss Voigt Hill
#
# Bulk Modulus (GPa) = 31.35752 34.44287 32.90020
# Shear Modulus (GPa) = 81.40533 18.22364 49.81448
#
# Velocity S-wave (km/s) = 7.20414 3.40858 5.63551
# Velocity P-wave (km/s) = 9.44412 6.11965 7.95743
#
# Compressibility (1/GPa) = 0.03189028
#
# Stress axis : x y z
#
# Youngs Moduli (GPa) = 98.72816 39.74317 75.29622
#
# Poissons Ratio (x) = 0.04603 0.05800
# Poissons Ratio (y) = 0.11434 0.48280
# Poissons Ratio (z) = 0.07605 0.25483
#
# Static dielectric constant tensor:
#      x y z
#    x 3.834370 0.000000 0.000000 
#    y 0.000000 2.582480 0.000000 
#    z 0.000000 0.000000 2.948470 
# 
# 
# High freq. dielectric constant tensor:
#      x y z
#    x 1.643430 0.000000 0.000000 
#    y 0.000000 1.537580 0.000000 
#    z 0.000000 0.000000 1.597770 
# 
# From -- ./inp_files/30581.got.cif
#   From: 2010.03.12/outbox.cif.g09.slc.cpg/sg62_16_cif.got.tgz:30581.got - 2010.04.10 19:12:36.
