data_PCOD8249965
_publ_section_title
;
Structure prediction by ZEFSAII (Michael W. Deem and Ramdas Pophale) SiO2 
 PCOD8249965
Probable space group: P N M A
;
_chemical_formula_sum "Si O2"
_cell_formula_units_Z 56
_cell_length_a 8.436845
_cell_length_b 17.617640
_cell_length_c 18.953591
_cell_angle_alpha 90.000000
_cell_angle_beta 90.000000
_cell_angle_gamma 90.000000
_cell_volume 2817.210553
_symmetry_space_group_name_H-M "P N M A"
_symmetry_group_IT_number 62
_symmetry_cell_setting 'orthorhombic'
loop_
_space_group_symop_operation_xyz
x,y,z
1/2-x,-y,1/2+z
1/2+x,1/2-y,1/2-z
-x,1/2+y,-z
-x,-y,-z
1/2+x,y,1/2-z
1/2-x,1/2+y,1/2+z
x,1/2-y,z
loop_
_atom_site_type_symbol
_atom_site_label
_atom_site_fract_x
_atom_site_fract_y
_atom_site_fract_z
Si Si1 0.835245 0.021699 0.463966
Si Si2 0.123541 0.894218 0.344322
Si Si3 0.182564 0.663573 0.970495
Si Si4 0.447927 0.166614 0.998388
Si Si5 0.833853 0.013913 0.098546
Si Si6 0.868602 0.084671 0.890393
Si Si7 0.681367 0.337659 0.776391
O O1 0.853034 0.111351 0.447387
O O2 0.687759 0.009350 0.516783
O O3 0.791919 0.968046 0.398375
O O4 0.000000 0.000000 0.500000
O O5 0.095508 0.852147 0.417941
O O6 0.268127 0.851487 0.304377
O O7 0.967890 0.890369 0.296009
O O8 0.180560 0.981877 0.357800
O O9 0.133870 0.750000 0.950237
O O10 0.152856 0.606651 0.903244
O O11 0.365383 0.658169 0.992285
O O12 0.089264 0.635438 0.040509
O O13 0.388606 0.250000 0.017477
O O14 0.990200 0.973384 0.128485
O O15 0.832299 0.140463 0.825489
O O16 0.635587 0.250000 0.788840
#
# Coordination Sequence:
#
# PCOD8249965 Si02
#       7
#     8   8   8   8   8   8   8
#     4  10  16  30  50  73 102 140 177 222 265 322
#     4  11  23  37  54  76 109 146 188 226 265 328
#     4  10  18  32  56  82 109 144 182 226 278 324
#     4  10  18  31  52  79 109 142 179 225 275 316
#     4  10  21  35  51  80 108 147 187 225 275 329
#     4  11  20  34  53  78 115 150 183 221 271 328
#     4  12  23  37  56  79 109 149 188 224 268 324
#
# _framework density 19.877818000000001
#
# number of rings (size 3 to 8) (size 9 to 14) (size 15 to 20)
#    0.000    1.429    4.286    5.143    0.000    0.000 
#    0.000   11.429    0.000    0.000    0.000    5.000 
#    0.000    0.000    0.000    0.000    0.000    0.000 
#
# Total GULP energy -693828.936657 kJ/mol
# GULP energy per Si atom -12389.802440 kJ/mol
# Density = 1.983258 g / cm^3
# Si number density = 19.877818 Si / 1000 Ang^3
#
#
#
# Elastic Constant Matrix: (Units=GPa)
#
#
# Indices 1 2 3 4 5 6 
#
# 1 56.4088 34.0851 9.9798 0.0000 0.0000 0.0000
# 2 34.0851 152.4957 28.2415 0.0000 0.0000 0.0000
# 3 9.9798 28.2415 39.5619 0.0000 0.0000 0.0000
# 4 0.0000 0.0000 0.0000 24.5100 0.0000 0.0000
# 5 0.0000 0.0000 0.0000 0.0000 25.4940 0.0000
# 6 0.0000 0.0000 0.0000 0.0000 0.0000 26.9185
#
#
#
# Elastic Compliance Matrix: (Units=1/GPa)
#
#
# Indices 1 2 3 4 5 6 
#
# 1 0.020662 -0.004209 -0.002207 0.000000 0.000000 0.000000
# 2 -0.004209 0.008414 -0.004945 0.000000 0.000000 0.000000
# 3 -0.002207 -0.004945 0.029363 0.000000 0.000000 0.000000
# 4 0.000000 0.000000 0.000000 0.040800 0.000000 0.000000
# 5 0.000000 0.000000 0.000000 0.000000 0.039225 0.000000
# 6 0.000000 0.000000 0.000000 0.000000 0.000000 0.037149
#
#
# Mechanical properties :
#
#
# Convention : Reuss Voigt Hill
#
# Bulk Modulus (GPa) = 27.99797 43.67547 35.83672
# Shear Modulus (GPa) = 23.78220 27.12850 25.45535
#
# Velocity S-wave (km/s) = 3.46268 3.69828 3.58242
# Velocity P-wave (km/s) = 5.48657 6.34476 5.93121
#
# Compressibility (1/GPa) = 0.03571688
#
# Stress axis : x y z
#
# Youngs Moduli (GPa) = 48.39850 118.84717 34.05599
#
# Poissons Ratio (x) = 0.50028 0.07517
# Poissons Ratio (y) = 0.20373 0.16839
# Poissons Ratio (z) = 0.10682 0.58766
#
# Static dielectric constant tensor:
#      x y z
#    x 3.622710 0.000000 0.000000 
#    y 0.000000 4.293780 0.000000 
#    z 0.000000 0.000000 3.423210 
# 
# 
# High freq. dielectric constant tensor:
#      x y z
#    x 1.781310 0.000000 0.000000 
#    y 0.000000 1.777810 0.000000 
#    z 0.000000 0.000000 1.719580 
# 
# From -- ./inp_files/26103.got.cif
#   From: 2010.03.12/outbox.cif.g09.slc.cpg/sg62_14_cif.got.tgz:26103.got - 2010.04.10 19:12:36.
