data_PCOD8249524
_publ_section_title
;
Structure prediction by ZEFSAII (Michael W. Deem and Ramdas Pophale) SiO2 
 PCOD8249524
Probable space group: P B C A
;
_chemical_formula_sum "Si O2"
_cell_formula_units_Z 48
_cell_length_a 9.742633
_cell_length_b 10.898585
_cell_length_c 21.484405
_cell_angle_alpha 90.000000
_cell_angle_beta 90.000000
_cell_angle_gamma 90.000000
_cell_volume 2281.233757
_symmetry_space_group_name_H-M "P B C A"
_symmetry_group_IT_number 61
_symmetry_cell_setting 'orthorhombic'
loop_
_space_group_symop_operation_xyz
x,y,z
1/2-x,-y,1/2+z
1/2+x,1/2-y,-z
-x,1/2+y,1/2-z
-x,-y,-z
1/2+x,y,1/2-z
1/2-x,1/2+y,z
x,1/2-y,1/2+z
loop_
_atom_site_type_symbol
_atom_site_label
_atom_site_fract_x
_atom_site_fract_y
_atom_site_fract_z
Si Si1 0.598880 0.932640 0.227613
Si Si2 0.181588 0.546554 0.190821
Si Si3 0.752782 0.789446 0.130387
Si Si4 0.453044 0.279857 0.159862
Si Si5 0.657655 0.956013 0.565371
Si Si6 0.642987 0.535352 0.925772
O O1 0.648920 0.816533 0.186957
O O2 0.536695 0.894138 0.293607
O O3 0.729888 0.017922 0.247010
O O4 0.474210 0.996417 0.191784
O O5 0.162236 0.691854 0.188287
O O6 0.247670 0.507758 0.125427
O O7 0.697398 0.679857 0.088120
O O8 0.893627 0.728260 0.154890
O O9 0.776303 0.924360 0.098789
O O10 0.402825 0.326285 0.092200
O O11 0.709344 0.964529 0.494029
O O12 0.493464 0.952056 0.572594
#
# Coordination Sequence:
#
# PCOD8249524 Si02
#       6
#     8   8   8   8   8   8
#     4  11  24  41  62 101 133 174 220 277 340 391
#     4  11  24  41  68  96 134 174 227 275 332 404
#     4  11  23  43  68 100 133 179 221 280 334 398
#     4  10  23  40  66  92 134 175 226 272 332 403
#     4  10  23  44  70  94 140 174 224 275 336 395
#     4   9  23  45  63  98 130 182 217 275 336 397
#
# _framework density 21.041246000000001
#
# number of rings (size 3 to 8) (size 9 to 14) (size 15 to 20)
#    0.000    1.667    1.667    1.000    7.000    2.667 
#    6.000    1.667    0.000    0.000    0.000    0.000 
#    0.000    0.000    0.000    0.000    0.000    0.000 
#
# Total GULP energy -594666.234330 kJ/mol
# GULP energy per Si atom -12388.879882 kJ/mol
# Density = 2.099335 g / cm^3
# Si number density = 21.041246 Si / 1000 Ang^3
#
#
#
# Elastic Constant Matrix: (Units=GPa)
#
#
# Indices 1 2 3 4 5 6 
#
# 1 115.3796 40.1494 45.8148 0.0000 0.0000 0.0000
# 2 40.1494 96.6210 38.3386 0.0000 0.0000 0.0000
# 3 45.8148 38.3386 110.6014 0.0000 0.0000 0.0000
# 4 0.0000 0.0000 0.0000 28.8699 0.0000 0.0000
# 5 0.0000 0.0000 0.0000 0.0000 31.0464 0.0000
# 6 0.0000 0.0000 0.0000 0.0000 0.0000 27.1910
#
#
#
# Elastic Compliance Matrix: (Units=1/GPa)
#
#
# Indices 1 2 3 4 5 6 
#
# 1 0.011194 -0.003260 -0.003507 0.000000 0.000000 0.000000
# 2 -0.003260 0.012950 -0.003138 0.000000 0.000000 0.000000
# 3 -0.003507 -0.003138 0.011582 0.000000 0.000000 0.000000
# 4 0.000000 0.000000 0.000000 0.034638 0.000000 0.000000
# 5 0.000000 0.000000 0.000000 0.000000 0.032210 0.000000
# 6 0.000000 0.000000 0.000000 0.000000 0.000000 0.036777
#
#
# Mechanical properties :
#
#
# Convention : Reuss Voigt Hill
#
# Bulk Modulus (GPa) = 62.83359 63.46753 63.15056
# Shear Modulus (GPa) = 30.40139 30.64141 30.52140
#
# Velocity S-wave (km/s) = 3.80524 3.82023 3.81274
# Velocity P-wave (km/s) = 7.01665 7.04895 7.03282
#
# Compressibility (1/GPa) = 0.01591506
#
# Stress axis : x y z
#
# Youngs Moduli (GPa) = 89.33408 77.22201 86.34053
#
# Poissons Ratio (x) = 0.25174 0.30278
# Poissons Ratio (y) = 0.29123 0.27098
# Poissons Ratio (z) = 0.31328 0.24236
#
# Static dielectric constant tensor:
#      x y z
#    x 3.861980 0.000000 0.000000 
#    y 0.000000 3.661120 0.000000 
#    z 0.000000 0.000000 3.848790 
# 
# 
# High freq. dielectric constant tensor:
#      x y z
#    x 1.828870 0.000000 0.000000 
#    y 0.000000 1.818670 0.000000 
#    z 0.000000 0.000000 1.829260 
# 
# From -- ./inp_files/10830.got.cif
#   From: 2010.03.12/outbox.cif.g09.slc.cpg/sg61_6_cif.got.tgz:10830.got - 2010.04.10 19:05:03.
