data_PCOD8249315
_publ_section_title
;
Structure prediction by ZEFSAII (Michael W. Deem and Ramdas Pophale) SiO2 
 PCOD8249315
Probable space group: P B C A
;
_chemical_formula_sum "Si O2"
_cell_formula_units_Z 64
_cell_length_a 24.955587
_cell_length_b 8.853900
_cell_length_c 13.836980
_cell_angle_alpha 90.000000
_cell_angle_beta 90.000000
_cell_angle_gamma 90.000000
_cell_volume 3057.339839
_symmetry_space_group_name_H-M "P B C A"
_symmetry_group_IT_number 61
_symmetry_cell_setting 'orthorhombic'
loop_
_space_group_symop_operation_xyz
x,y,z
1/2-x,-y,1/2+z
1/2+x,1/2-y,-z
-x,1/2+y,1/2-z
-x,-y,-z
1/2+x,y,1/2-z
1/2-x,1/2+y,z
x,1/2-y,1/2+z
loop_
_atom_site_type_symbol
_atom_site_label
_atom_site_fract_x
_atom_site_fract_y
_atom_site_fract_z
Si Si1 0.792108 0.386844 0.092617
Si Si2 0.088218 0.841663 0.375150
Si Si3 0.366322 0.797861 0.216972
Si Si4 0.689253 0.930364 0.886996
Si Si5 0.940361 0.055975 0.228236
Si Si6 0.579873 0.783322 0.914313
Si Si7 0.260589 0.848011 0.790467
Si Si8 0.058804 0.481645 0.690833
O O1 0.855081 0.411168 0.099891
O O2 0.766111 0.479801 0.179515
O O3 0.771918 0.220458 0.118805
O O4 0.775403 0.442430 0.985123
O O5 0.096790 0.680699 0.322960
O O6 0.057324 0.819237 0.477762
O O7 0.059637 0.956563 0.301314
O O8 0.318739 0.730292 0.281437
O O9 0.401386 0.660200 0.172081
O O10 0.337943 0.907925 0.138394
O O11 0.408659 0.897143 0.279766
O O12 0.643549 0.807367 0.907281
O O13 0.727259 0.853439 0.807941
O O14 0.950038 0.104443 0.339927
O O15 0.996907 0.060497 0.173030
O O16 0.572215 0.607962 0.888141
#
# Coordination Sequence:
#
# PCOD8249315 Si02
#       8
#     8   8   8   8   8   8   8   8
#     4  11  24  41  63  93 124 172 209 251 317 380
#     4  10  21  42  62  86 127 165 207 253 319 379
#     4  11  22  40  63  93 127 164 208 268 307 375
#     4  10  24  43  62  92 132 166 208 256 318 379
#     4  10  22  41  63  90 125 162 209 265 320 372
#     4   9  21  41  63  86 123 169 202 259 317 369
#     4  12  23  40  63  90 129 166 209 259 309 379
#     4  11  21  40  67  92 119 164 218 260 319 374
#
# _framework density 20.933230999999999
#
# number of rings (size 3 to 8) (size 9 to 14) (size 15 to 20)
#    0.000    1.500    2.500    3.750    1.750    1.000 
#    4.500    1.250    0.000    0.000    0.000    0.000 
#    0.000    0.000    0.000    0.000    0.000    0.000 
#
# Total GULP energy -793199.701023 kJ/mol
# GULP energy per Si atom -12393.745328 kJ/mol
# Density = 2.088559 g / cm^3
# Si number density = 20.933231 Si / 1000 Ang^3
#
#
#
# Elastic Constant Matrix: (Units=GPa)
#
#
# Indices 1 2 3 4 5 6 
#
# 1 76.1785 22.4350 20.0263 0.0000 0.0000 0.0000
# 2 22.4350 96.1346 28.5857 0.0000 0.0000 0.0000
# 3 20.0263 28.5857 118.8768 0.0000 0.0000 0.0000
# 4 0.0000 0.0000 0.0000 24.0774 0.0000 0.0000
# 5 0.0000 0.0000 0.0000 0.0000 22.7630 0.0000
# 6 0.0000 0.0000 0.0000 0.0000 0.0000 30.7097
#
#
#
# Elastic Compliance Matrix: (Units=1/GPa)
#
#
# Indices 1 2 3 4 5 6 
#
# 1 0.014424 -0.002847 -0.001745 0.000000 0.000000 0.000000
# 2 -0.002847 0.011765 -0.002349 0.000000 0.000000 0.000000
# 3 -0.001745 -0.002349 0.009271 0.000000 0.000000 0.000000
# 4 0.000000 0.000000 0.000000 0.041533 0.000000 0.000000
# 5 0.000000 0.000000 0.000000 0.000000 0.043931 0.000000
# 6 0.000000 0.000000 0.000000 0.000000 0.000000 0.032563
#
#
# Mechanical properties :
#
#
# Convention : Reuss Voigt Hill
#
# Bulk Modulus (GPa) = 46.34655 48.14266 47.24460
# Shear Modulus (GPa) = 28.64287 30.18621 29.41454
#
# Velocity S-wave (km/s) = 3.70306 3.80152 3.75261
# Velocity P-wave (km/s) = 6.36175 6.50514 6.43384
#
# Compressibility (1/GPa) = 0.02157658
#
# Stress axis : x y z
#
# Youngs Moduli (GPa) = 69.32683 84.99667 107.86265
#
# Poissons Ratio (x) = 0.24201 0.18825
# Poissons Ratio (y) = 0.19739 0.25342
# Poissons Ratio (z) = 0.12100 0.19970
#
# Static dielectric constant tensor:
#      x y z
#    x 3.678500 0.000000 0.000000 
#    y 0.000000 3.802830 0.000000 
#    z 0.000000 0.000000 3.989980 
# 
# 
# High freq. dielectric constant tensor:
#      x y z
#    x 1.815700 0.000000 0.000000 
#    y 0.000000 1.824900 0.000000 
#    z 0.000000 0.000000 1.810570 
# 
# From -- ./inp_files/8510.got.cif
#   From: 2010.03.12/outbox.cif.g09.slc.cpg/sg61_5_cif.got.tgz:8510.got - 2010.04.10 19:05:03.
