data_PCOD8249887
_publ_section_title
;
Structure prediction by ZEFSAII (Michael W. Deem and Ramdas Pophale) SiO2 
 PCOD8249887
Probable space group: P B C A
;
_chemical_formula_sum "Si O2"
_cell_formula_units_Z 40
_cell_length_a 17.799357
_cell_length_b 10.641839
_cell_length_c 8.377980
_cell_angle_alpha 90.000000
_cell_angle_beta 90.000000
_cell_angle_gamma 90.000000
_cell_volume 1586.939307
_symmetry_space_group_name_H-M "P B C A"
_symmetry_group_IT_number 61
_symmetry_cell_setting 'orthorhombic'
loop_
_space_group_symop_operation_xyz
x,y,z
1/2-x,-y,1/2+z
1/2+x,1/2-y,-z
-x,1/2+y,1/2-z
-x,-y,-z
1/2+x,y,1/2-z
1/2-x,1/2+y,z
x,1/2-y,1/2+z
loop_
_atom_site_type_symbol
_atom_site_label
_atom_site_fract_x
_atom_site_fract_y
_atom_site_fract_z
Si Si1 0.099200 0.881917 0.443204
Si Si2 0.786188 0.324217 0.562645
Si Si3 0.708537 0.009672 0.286696
Si Si4 0.638464 0.310137 0.024092
Si Si5 0.561369 0.405360 0.335634
O O1 0.132471 0.740242 0.464528
O O2 0.027653 0.877228 0.326350
O O3 0.166855 0.960034 0.368247
O O4 0.076019 0.950226 0.609153
O O5 0.764278 0.398756 0.401681
O O6 0.782447 0.415195 0.719703
O O7 0.721164 0.221314 0.591522
O O8 0.648130 0.098073 0.374417
O O9 0.593764 0.384045 0.160489
O O10 0.594548 0.186527 0.970788
#
# Coordination Sequence:
#
# PCOD8249887 Si02
#       5
#     8   8   8   8   8
#     4  11  27  51  76 114 154 205 260 324 389 476
#     4  12  27  48  78 111 153 202 261 326 385 468
#     4  12  27  47  75 113 149 200 265 318 391 456
#     4  12  25  49  77 106 157 201 249 326 385 468
#     4  11  26  51  76 112 162 200 259 318 400 469
#
# _framework density 25.205750999999999
#
# number of rings (size 3 to 8) (size 9 to 14) (size 15 to 20)
#    0.000    0.400    4.000    2.400    5.600    2.400 
#    3.600    0.000    0.000    0.000    0.000    0.000 
#    0.000    0.000    0.000    0.000    0.000    0.000 
#
# Total GULP energy -496123.289946 kJ/mol
# GULP energy per Si atom -12403.082249 kJ/mol
# Density = 2.514838 g / cm^3
# Si number density = 25.205751 Si / 1000 Ang^3
#
#
#
# Elastic Constant Matrix: (Units=GPa)
#
#
# Indices 1 2 3 4 5 6 
#
# 1 124.4269 49.4387 19.8688 0.0000 0.0000 0.0000
# 2 49.4387 112.0900 42.7489 0.0000 0.0000 0.0000
# 3 19.8688 42.7489 97.4324 0.0000 0.0000 0.0000
# 4 0.0000 0.0000 0.0000 41.4732 0.0000 0.0000
# 5 0.0000 0.0000 0.0000 0.0000 34.9279 0.0000
# 6 0.0000 0.0000 0.0000 0.0000 0.0000 46.7131
#
#
#
# Elastic Compliance Matrix: (Units=1/GPa)
#
#
# Indices 1 2 3 4 5 6 
#
# 1 0.009746 -0.004252 -0.000122 0.000000 0.000000 0.000000
# 2 -0.004252 0.012569 -0.004648 0.000000 0.000000 0.000000
# 3 -0.000122 -0.004648 0.012328 0.000000 0.000000 0.000000
# 4 0.000000 0.000000 0.000000 0.024112 0.000000 0.000000
# 5 0.000000 0.000000 0.000000 0.000000 0.028630 0.000000
# 6 0.000000 0.000000 0.000000 0.000000 0.000000 0.021407
#
#
# Mechanical properties :
#
#
# Convention : Reuss Voigt Hill
#
# Bulk Modulus (GPa) = 60.24273 62.00692 61.12482
# Shear Modulus (GPa) = 37.77325 39.41570 38.59448
#
# Velocity S-wave (km/s) = 3.87537 3.95873 3.91727
# Velocity P-wave (km/s) = 6.63151 6.74901 6.69052
#
# Compressibility (1/GPa) = 0.01659951
#
# Stress axis : x y z
#
# Youngs Moduli (GPa) = 102.60867 79.55827 81.11875
#
# Poissons Ratio (x) = 0.33829 0.00988
# Poissons Ratio (y) = 0.43630 0.37702
# Poissons Ratio (z) = 0.01250 0.36977
#
# Static dielectric constant tensor:
#      x y z
#    x 4.693370 0.000000 0.000000 
#    y 0.000000 4.914320 0.000000 
#    z 0.000000 0.000000 4.356600 
# 
# 
# High freq. dielectric constant tensor:
#      x y z
#    x 1.999270 0.000000 0.000000 
#    y 0.000000 2.015650 0.000000 
#    z 0.000000 0.000000 2.005180 
# 
# From -- ./inp_files/3311.got.cif
#   From: 2010.03.12/outbox.cif.g09.slc.cpg/sg61_2_cif.got.tgz:3311.got - 2010.04.10 19:05:03.
