data_PCOD8249370
_publ_section_title
;
Structure prediction by ZEFSAII (Michael W. Deem and Ramdas Pophale) SiO2 
 PCOD8249370
Probable space group: P B C A
;
_chemical_formula_sum "Si O2"
_cell_formula_units_Z 64
_cell_length_a 14.882773
_cell_length_b 14.141468
_cell_length_c 15.852896
_cell_angle_alpha 90.000000
_cell_angle_beta 90.000000
_cell_angle_gamma 90.000000
_cell_volume 3336.467996
_symmetry_space_group_name_H-M "P B C A"
_symmetry_group_IT_number 61
_symmetry_cell_setting 'orthorhombic'
loop_
_space_group_symop_operation_xyz
x,y,z
1/2-x,-y,1/2+z
1/2+x,1/2-y,-z
-x,1/2+y,1/2-z
-x,-y,-z
1/2+x,y,1/2-z
1/2-x,1/2+y,z
x,1/2-y,1/2+z
loop_
_atom_site_type_symbol
_atom_site_label
_atom_site_fract_x
_atom_site_fract_y
_atom_site_fract_z
Si Si1 0.823165 0.440951 0.440571
Si Si2 0.192008 0.948144 0.443350
Si Si3 0.115927 0.118269 0.152266
Si Si4 0.431999 0.342169 0.559912
Si Si5 0.561730 0.674907 0.057758
Si Si6 0.725553 0.759136 0.346886
Si Si7 0.271558 0.254752 0.351692
Si Si8 0.886269 0.885532 0.651941
O O1 0.771093 0.493371 0.514516
O O2 0.850365 0.513302 0.367699
O O3 0.911642 0.398449 0.484463
O O4 0.764604 0.357933 0.396926
O O5 0.118088 0.930078 0.515856
O O6 0.230707 0.850901 0.405408
O O7 0.152153 0.010713 0.367808
O O8 0.190776 0.194536 0.125104
O O9 0.095633 0.124003 0.250041
O O10 0.024157 0.136300 0.104638
O O11 0.463608 0.273438 0.485388
O O12 0.366494 0.291950 0.626964
O O13 0.519171 0.377959 0.606635
O O14 0.643136 0.690739 0.123474
O O15 0.724483 0.777803 0.247197
O O16 0.182127 0.196923 0.376818
#
# Coordination Sequence:
#
# PCOD8249370 Si02
#       8
#     8   8   8   8   8   8   8   8
#     4  11  22  39  64  90 120 158 202 250 296 352
#     4  11  22  39  64  90 120 158 202 250 296 352
#     4  11  23  40  63  88 123 162 198 244 304 358
#     4  10  22  38  64  89 120 156 199 251 292 356
#     4  10  22  38  64  89 120 156 199 251 292 356
#     4  10  22  41  60  87 123 158 198 247 297 354
#     4  10  22  41  60  87 123 158 198 247 297 354
#     4  11  23  40  63  88 123 162 198 244 304 358
#
# _framework density 19.181961000000001
#
# number of rings (size 3 to 8) (size 9 to 14) (size 15 to 20)
#    0.000    1.500    2.500    2.250    3.500    0.000 
#    0.000    0.000    0.000    0.000    0.000    0.000 
#    0.000    0.000    0.000    0.000    0.000    0.000 
#
# Total GULP energy -793772.720527 kJ/mol
# GULP energy per Si atom -12402.698758 kJ/mol
# Density = 1.913830 g / cm^3
# Si number density = 19.181961 Si / 1000 Ang^3
#
#
#
# Elastic Constant Matrix: (Units=GPa)
#
#
# Indices 1 2 3 4 5 6 
#
# 1 85.8163 41.8668 33.8527 0.0000 0.0000 0.0000
# 2 41.8668 105.0649 36.2307 0.0000 0.0000 0.0000
# 3 33.8527 36.2307 75.4429 0.0000 0.0000 0.0000
# 4 0.0000 0.0000 0.0000 37.1184 0.0000 0.0000
# 5 0.0000 0.0000 0.0000 0.0000 35.7754 0.0000
# 6 0.0000 0.0000 0.0000 0.0000 0.0000 20.9901
#
#
#
# Elastic Compliance Matrix: (Units=1/GPa)
#
#
# Indices 1 2 3 4 5 6 
#
# 1 0.015837 -0.004626 -0.004884 0.000000 0.000000 0.000000
# 2 -0.004626 0.012758 -0.004051 0.000000 0.000000 0.000000
# 3 -0.004884 -0.004051 0.017392 0.000000 0.000000 0.000000
# 4 0.000000 0.000000 0.000000 0.026941 0.000000 0.000000
# 5 0.000000 0.000000 0.000000 0.000000 0.027952 0.000000
# 6 0.000000 0.000000 0.000000 0.000000 0.000000 0.047641
#
#
# Mechanical properties :
#
#
# Convention : Reuss Voigt Hill
#
# Bulk Modulus (GPa) = 53.01243 54.46938 53.74091
# Shear Modulus (GPa) = 27.48255 29.06839 28.27547
#
# Velocity S-wave (km/s) = 3.78925 3.89704 3.84352
# Velocity P-wave (km/s) = 6.84406 6.97904 6.91188
#
# Compressibility (1/GPa) = 0.01886350
#
# Stress axis : x y z
#
# Youngs Moduli (GPa) = 63.14475 78.37939 57.49648
#
# Poissons Ratio (x) = 0.36261 0.28084
# Poissons Ratio (y) = 0.29213 0.23293
# Poissons Ratio (z) = 0.30843 0.31753
#
# Static dielectric constant tensor:
#      x y z
#    x 3.439390 0.000000 0.000000 
#    y 0.000000 3.681860 0.000000 
#    z 0.000000 0.000000 3.683690 
# 
# 
# High freq. dielectric constant tensor:
#      x y z
#    x 1.744720 0.000000 0.000000 
#    y 0.000000 1.755130 0.000000 
#    z 0.000000 0.000000 1.757370 
# 
# From -- ./inp_files/9281.got.cif
#   From: 2010.03.12/outbox.cif.g09.slc.cpg/sg61_5_cif.got.tgz:9281.got - 2010.04.10 19:05:03.
