data_PCOD8249262
_publ_section_title
;
Structure prediction by ZEFSAII (Michael W. Deem and Ramdas Pophale) SiO2 
 PCOD8249262
Probable space group: P B C A
;
_chemical_formula_sum "Si O2"
_cell_formula_units_Z 40
_cell_length_a 5.702848
_cell_length_b 13.150133
_cell_length_c 23.576400
_cell_angle_alpha 90.000000
_cell_angle_beta 90.000000
_cell_angle_gamma 90.000000
_cell_volume 1768.069909
_symmetry_space_group_name_H-M "P B C A"
_symmetry_group_IT_number 61
_symmetry_cell_setting 'orthorhombic'
loop_
_space_group_symop_operation_xyz
x,y,z
1/2-x,-y,1/2+z
1/2+x,1/2-y,-z
-x,1/2+y,1/2-z
-x,-y,-z
1/2+x,y,1/2-z
1/2-x,1/2+y,z
x,1/2-y,1/2+z
loop_
_atom_site_type_symbol
_atom_site_label
_atom_site_fract_x
_atom_site_fract_y
_atom_site_fract_z
Si Si1 0.521255 0.113644 0.782231
Si Si2 0.357790 0.154565 0.059999
Si Si3 0.973457 0.297912 0.640963
Si Si4 0.327087 0.838252 0.438489
Si Si5 0.675896 0.020599 0.126335
O O1 0.767989 0.096603 0.749569
O O2 0.528280 0.229350 0.804525
O O3 0.515999 0.032977 0.833443
O O4 0.198746 0.146266 0.115773
O O5 0.437262 0.272686 0.057663
O O6 0.559116 0.071601 0.070806
O O7 0.237688 0.124783 0.001285
O O8 0.874119 0.231228 0.589021
O O9 0.802499 0.389014 0.661154
O O10 0.360407 0.936986 0.398185
#
# Coordination Sequence:
#
# PCOD8249262 Si02
#       5
#     8   8   8   8   8
#     4  11  28  49  73  97 136 182 234 300 362 406
#     4  11  21  40  66  96 142 182 222 280 343 427
#     4  10  24  42  67  98 134 178 231 284 342 424
#     4  10  21  40  62  98 139 183 219 270 349 414
#     4  10  25  41  67 101 132 175 239 287 344 419
#
# _framework density 22.623542
#
# number of rings (size 3 to 8) (size 9 to 14) (size 15 to 20)
#    0.000    1.600    2.000    0.600   11.200    4.000 
#    0.000    0.000    0.000    0.000    0.000    0.000 
#    0.000    0.000    0.000    0.000    0.000    0.000 
#
# Total GULP energy -495735.022087 kJ/mol
# GULP energy per Si atom -12393.375552 kJ/mol
# Density = 2.257205 g / cm^3
# Si number density = 22.623542 Si / 1000 Ang^3
#
#
#
# Elastic Constant Matrix: (Units=GPa)
#
#
# Indices 1 2 3 4 5 6 
#
# 1 68.5517 8.1492 14.0210 0.0000 0.0000 0.0000
# 2 8.1492 112.6233 26.3597 0.0000 0.0000 0.0000
# 3 14.0210 26.3597 71.5827 0.0000 0.0000 0.0000
# 4 0.0000 0.0000 0.0000 32.3463 0.0000 0.0000
# 5 0.0000 0.0000 0.0000 0.0000 33.9229 0.0000
# 6 0.0000 0.0000 0.0000 0.0000 0.0000 25.8070
#
#
#
# Elastic Compliance Matrix: (Units=1/GPa)
#
#
# Indices 1 2 3 4 5 6 
#
# 1 0.015216 -0.000441 -0.002818 0.000000 0.000000 0.000000
# 2 -0.000441 0.009729 -0.003496 0.000000 0.000000 0.000000
# 3 -0.002818 -0.003496 0.015809 0.000000 0.000000 0.000000
# 4 0.000000 0.000000 0.000000 0.030915 0.000000 0.000000
# 5 0.000000 0.000000 0.000000 0.000000 0.029479 0.000000
# 6 0.000000 0.000000 0.000000 0.000000 0.000000 0.038749
#
#
# Mechanical properties :
#
#
# Convention : Reuss Voigt Hill
#
# Bulk Modulus (GPa) = 36.70572 38.86863 37.78717
# Shear Modulus (GPa) = 30.77097 32.03043 31.40070
#
# Velocity S-wave (km/s) = 3.69200 3.76680 3.72958
# Velocity P-wave (km/s) = 5.86807 6.01134 5.94014
#
# Compressibility (1/GPa) = 0.02724371
#
# Stress axis : x y z
#
# Youngs Moduli (GPa) = 65.71875 102.78112 63.25399
#
# Poissons Ratio (x) = 0.04538 0.17824
# Poissons Ratio (y) = 0.02901 0.22115
# Poissons Ratio (z) = 0.18519 0.35935
#
# Static dielectric constant tensor:
#      x y z
#    x 3.898820 0.000000 0.000000 
#    y 0.000000 4.236210 0.000000 
#    z 0.000000 0.000000 3.875510 
# 
# 
# High freq. dielectric constant tensor:
#      x y z
#    x 1.877730 0.000000 0.000000 
#    y 0.000000 1.906770 0.000000 
#    z 0.000000 0.000000 1.880730 
# 
# From -- ./inp_files/214.got.cif
#   From: 2010.03.12/outbox.cif.g09.slc.cpg/sg61_1_cif.got.tgz:214.got - 2010.04.10 19:05:03.
