data_PCOD8249360
_publ_section_title
;
Structure prediction by ZEFSAII (Michael W. Deem and Ramdas Pophale) SiO2 
 PCOD8249360
Probable space group: P B C A
;
_chemical_formula_sum "Si O2"
_cell_formula_units_Z 64
_cell_length_a 9.004032
_cell_length_b 15.119072
_cell_length_c 21.455925
_cell_angle_alpha 90.000000
_cell_angle_beta 90.000000
_cell_angle_gamma 90.000000
_cell_volume 2920.851029
_symmetry_space_group_name_H-M "P B C A"
_symmetry_group_IT_number 61
_symmetry_cell_setting 'orthorhombic'
loop_
_space_group_symop_operation_xyz
x,y,z
1/2-x,-y,1/2+z
1/2+x,1/2-y,-z
-x,1/2+y,1/2-z
-x,-y,-z
1/2+x,y,1/2-z
1/2-x,1/2+y,z
x,1/2-y,1/2+z
loop_
_atom_site_type_symbol
_atom_site_label
_atom_site_fract_x
_atom_site_fract_y
_atom_site_fract_z
Si Si1 0.557330 0.418861 0.374752
Si Si2 0.683916 0.232477 0.576362
Si Si3 0.480450 0.188530 0.986452
Si Si4 0.999941 0.386065 0.887638
Si Si5 0.388035 0.879827 0.311251
Si Si6 0.813874 0.034667 0.785625
Si Si7 0.991669 0.234905 0.713180
Si Si8 0.229850 0.841747 0.718373
O O1 0.578860 0.376151 0.442727
O O2 0.461762 0.510049 0.378353
O O3 0.719015 0.442731 0.347373
O O4 0.467376 0.350154 0.330999
O O5 0.853769 0.232161 0.555589
O O6 0.581212 0.231407 0.514015
O O7 0.649729 0.325207 0.612955
O O8 0.652464 0.144511 0.617627
O O9 0.420111 0.129459 0.044723
O O10 0.893674 0.351729 0.833879
O O11 0.512169 0.957119 0.303589
O O12 0.240833 0.901050 0.270282
O O13 0.468970 0.793965 0.283363
O O14 0.790202 0.936374 0.759448
O O15 0.839998 0.291819 0.720645
O O16 0.131498 0.290527 0.687515
#
# Coordination Sequence:
#
# PCOD8249360 Si02
#       8
#     8   8   8   8   8   8   8   8
#     4  10  22  37  67  90 122 176 214 257 331 388
#     4  10  24  39  69  93 129 167 226 272 322 393
#     4  10  23  40  66  95 122 171 223 275 323 387
#     4   9  22  42  63  90 129 169 215 265 326 397
#     4  11  22  40  61  95 127 171 211 263 327 398
#     4  10  24  39  65  90 133 167 208 267 333 395
#     4  11  22  35  67  90 127 162 213 260 320 397
#     4  11  22  41  62  98 125 167 210 269 329 386
#
# _framework density 21.911421000000001
#
# number of rings (size 3 to 8) (size 9 to 14) (size 15 to 20)
#    0.750    1.000    1.250    2.625    8.750    0.000 
#    0.000    0.000    2.750    3.750    0.000    0.000 
#    0.000    0.000    0.000    0.000    0.000    0.000 
#
# Total GULP energy -793028.917418 kJ/mol
# GULP energy per Si atom -12391.076835 kJ/mol
# Density = 2.186155 g / cm^3
# Si number density = 21.911421 Si / 1000 Ang^3
#
#
#
# Elastic Constant Matrix: (Units=GPa)
#
#
# Indices 1 2 3 4 5 6 
#
# 1 77.7027 27.3108 14.8731 0.0000 0.0000 0.0000
# 2 27.3108 108.0924 31.2256 0.0000 0.0000 0.0000
# 3 14.8731 31.2256 59.0323 0.0000 0.0000 0.0000
# 4 0.0000 0.0000 0.0000 32.8689 0.0000 0.0000
# 5 0.0000 0.0000 0.0000 0.0000 31.1545 0.0000
# 6 0.0000 0.0000 0.0000 0.0000 0.0000 24.3133
#
#
#
# Elastic Compliance Matrix: (Units=1/GPa)
#
#
# Indices 1 2 3 4 5 6 
#
# 1 0.014321 -0.003041 -0.002000 0.000000 0.000000 0.000000
# 2 -0.003041 0.011566 -0.005352 0.000000 0.000000 0.000000
# 3 -0.002000 -0.005352 0.020274 0.000000 0.000000 0.000000
# 4 0.000000 0.000000 0.000000 0.030424 0.000000 0.000000
# 5 0.000000 0.000000 0.000000 0.000000 0.032098 0.000000
# 6 0.000000 0.000000 0.000000 0.000000 0.000000 0.041130
#
#
# Mechanical properties :
#
#
# Convention : Reuss Voigt Hill
#
# Bulk Modulus (GPa) = 39.40578 43.51627 41.46102
# Shear Modulus (GPa) = 27.92422 29.09519 28.50971
#
# Velocity S-wave (km/s) = 3.57377 3.64793 3.61104
# Velocity P-wave (km/s) = 5.92049 6.13566 6.02904
#
# Compressibility (1/GPa) = 0.02537699
#
# Stress axis : x y z
#
# Youngs Moduli (GPa) = 69.82714 86.46347 49.32308
#
# Poissons Ratio (x) = 0.26291 0.09864
# Poissons Ratio (y) = 0.21232 0.26396
# Poissons Ratio (z) = 0.13964 0.46272
#
# Static dielectric constant tensor:
#      x y z
#    x 3.810290 0.000000 0.000000 
#    y 0.000000 4.044720 0.000000 
#    z 0.000000 0.000000 4.011430 
# 
# 
# High freq. dielectric constant tensor:
#      x y z
#    x 1.853150 0.000000 0.000000 
#    y 0.000000 1.858780 0.000000 
#    z 0.000000 0.000000 1.855410 
# 
# From -- ./inp_files/10918.got.cif
#   From: 2010.03.12/outbox.cif.g09.slc.cpg/sg61_6_cif.got.tgz:10918.got - 2010.04.10 19:05:03.
