data_PCOD8249605
_publ_section_title
;
Structure prediction by ZEFSAII (Michael W. Deem and Ramdas Pophale) SiO2 
 PCOD8249605
Probable space group: P B C A
;
_chemical_formula_sum "Si O2"
_cell_formula_units_Z 64
_cell_length_a 15.455182
_cell_length_b 17.002804
_cell_length_c 11.901058
_cell_angle_alpha 90.000000
_cell_angle_beta 90.000000
_cell_angle_gamma 90.000000
_cell_volume 3127.377044
_symmetry_space_group_name_H-M "P B C A"
_symmetry_group_IT_number 61
_symmetry_cell_setting 'orthorhombic'
loop_
_space_group_symop_operation_xyz
x,y,z
1/2-x,-y,1/2+z
1/2+x,1/2-y,-z
-x,1/2+y,1/2-z
-x,-y,-z
1/2+x,y,1/2-z
1/2-x,1/2+y,z
x,1/2-y,1/2+z
loop_
_atom_site_type_symbol
_atom_site_label
_atom_site_fract_x
_atom_site_fract_y
_atom_site_fract_z
Si Si1 0.600881 0.519601 0.501356
Si Si2 0.365920 0.988440 0.247226
Si Si3 0.025612 0.927429 0.926173
Si Si4 0.646334 0.158411 0.375170
Si Si5 0.791892 0.334813 0.055126
Si Si6 0.211331 0.075748 0.338492
Si Si7 0.299702 0.673703 0.712494
Si Si8 0.815563 0.333295 0.496178
O O1 0.500000 0.500000 0.500000
O O2 0.638893 0.524516 0.376584
O O3 0.631305 0.600729 0.560183
O O4 0.640027 0.448509 0.571753
O O5 0.372796 0.893170 0.239100
O O6 0.444107 0.033961 0.308371
O O7 0.277620 0.004129 0.316097
O O8 0.951066 0.862684 0.909985
O O9 0.097835 0.883207 0.998227
O O10 0.000000 0.000000 0.000000
O O11 0.709227 0.140388 0.479862
O O12 0.668498 0.098299 0.277481
O O13 0.651439 0.248042 0.330595
O O14 0.759026 0.311561 0.178614
O O15 0.835971 0.259291 0.996475
O O16 0.260178 0.150150 0.391389
O O17 0.236137 0.641533 0.615429
#
# Coordination Sequence:
#
# PCOD8249605 Si02
#       8
#     8   8   8   8   8   8   8   8
#     4  12  25  39  64 103 135 170 225 288 339 402
#     4  11  23  41  67  97 130 178 223 277 338 410
#     4  11  26  43  67 101 135 175 229 283 343 404
#     4  11  24  43  68  98 135 179 224 282 343 412
#     4  11  23  44  68  94 132 184 219 268 354 409
#     4  11  21  41  68  92 137 173 224 274 340 410
#     4  11  22  41  73  94 129 182 228 269 338 420
#     4  10  24  42  64  95 131 175 219 277 334 403
#
# _framework density 20.464435000000002
#
# number of rings (size 3 to 8) (size 9 to 14) (size 15 to 20)
#    0.000    1.000    5.000    1.500    3.500    2.000 
#    0.000    2.500    0.000    0.000    0.000    0.000 
#    0.000    0.000    0.000    0.000    0.000    0.000 
#
# Total GULP energy -793531.128756 kJ/mol
# GULP energy per Si atom -12398.923887 kJ/mol
# Density = 2.041786 g / cm^3
# Si number density = 20.464435 Si / 1000 Ang^3
#
#
#
# Elastic Constant Matrix: (Units=GPa)
#
#
# Indices 1 2 3 4 5 6 
#
# 1 130.2487 64.2859 44.2065 0.0000 0.0000 0.0000
# 2 64.2859 120.9478 26.6267 0.0000 0.0000 0.0000
# 3 44.2065 26.6267 119.3043 0.0000 0.0000 0.0000
# 4 0.0000 0.0000 0.0000 36.0506 0.0000 0.0000
# 5 0.0000 0.0000 0.0000 0.0000 27.3634 0.0000
# 6 0.0000 0.0000 0.0000 0.0000 0.0000 33.3148
#
#
#
# Elastic Compliance Matrix: (Units=1/GPa)
#
#
# Indices 1 2 3 4 5 6 
#
# 1 0.011348 -0.005370 -0.003007 0.000000 0.000000 0.000000
# 2 -0.005370 0.011236 -0.000518 0.000000 0.000000 0.000000
# 3 -0.003007 -0.000518 0.009612 0.000000 0.000000 0.000000
# 4 0.000000 0.000000 0.000000 0.027739 0.000000 0.000000
# 5 0.000000 0.000000 0.000000 0.000000 0.036545 0.000000
# 6 0.000000 0.000000 0.000000 0.000000 0.000000 0.030017
#
#
# Mechanical properties :
#
#
# Convention : Reuss Voigt Hill
#
# Bulk Modulus (GPa) = 69.40915 71.19323 70.30119
# Shear Modulus (GPa) = 33.53711 35.03786 34.28749
#
# Velocity S-wave (km/s) = 4.05260 4.14228 4.09769
# Velocity P-wave (km/s) = 7.47587 7.59884 7.53761
#
# Compressibility (1/GPa) = 0.01440732
#
# Stress axis : x y z
#
# Youngs Moduli (GPa) = 88.11753 88.99704 104.04146
#
# Poissons Ratio (x) = 0.47792 0.31280
# Poissons Ratio (y) = 0.47319 0.05389
# Poissons Ratio (z) = 0.26493 0.04610
#
# Static dielectric constant tensor:
#      x y z
#    x 2.619600 0.000000 0.000000 
#    y 0.000000 3.722450 0.000000 
#    z 0.000000 0.000000 3.899770 
# 
# 
# High freq. dielectric constant tensor:
#      x y z
#    x 1.781380 0.000000 0.000000 
#    y 0.000000 1.810190 0.000000 
#    z 0.000000 0.000000 1.817910 
# 
# From -- ./inp_files/5979.got.cif
#   From: 2010.03.12/outbox.cif.g09.slc.cpg/sg61_3_cif.got.tgz:5979.got - 2010.04.10 19:05:03.
