data_PCOD8249983
_publ_section_title
;
Structure prediction by ZEFSAII (Michael W. Deem and Ramdas Pophale) SiO2 
 PCOD8249983
Probable space group: P N M A
;
_chemical_formula_sum "Si O2"
_cell_formula_units_Z 56
_cell_length_a 9.579681
_cell_length_b 13.396794
_cell_length_c 29.015659
_cell_angle_alpha 90.000000
_cell_angle_beta 90.000000
_cell_angle_gamma 90.000000
_cell_volume 3723.783005
_symmetry_space_group_name_H-M "P N M A"
_symmetry_group_IT_number 62
_symmetry_cell_setting 'orthorhombic'
loop_
_space_group_symop_operation_xyz
x,y,z
1/2-x,-y,1/2+z
1/2+x,1/2-y,1/2-z
-x,1/2+y,-z
-x,-y,-z
1/2+x,y,1/2-z
1/2-x,1/2+y,1/2+z
x,1/2-y,z
loop_
_atom_site_type_symbol
_atom_site_label
_atom_site_fract_x
_atom_site_fract_y
_atom_site_fract_z
Si Si1 0.616728 0.631642 0.633264
Si Si2 0.402867 0.135952 0.511400
Si Si3 0.327165 0.866774 0.942449
Si Si4 0.590934 0.446852 0.432919
Si Si5 0.736531 0.131701 0.224818
Si Si6 0.434412 0.368785 0.195938
Si Si7 0.883148 0.131551 0.408335
O O1 0.592860 0.750000 0.629059
O O2 0.739168 0.590151 0.600315
O O3 0.474777 0.576619 0.617195
O O4 0.655655 0.599371 0.684765
O O5 0.407863 0.250000 0.528802
O O6 0.249989 0.107867 0.490442
O O7 0.518796 0.122242 0.471692
O O8 0.431035 0.063397 0.554413
O O9 0.331065 0.750000 0.934175
O O10 0.485936 0.905313 0.939601
O O11 0.753416 0.423042 0.431178
O O12 0.723637 0.250000 0.225345
O O13 0.805071 0.092958 0.272511
O O14 0.581577 0.087405 0.215674
O O15 0.442781 0.250000 0.197103
O O16 0.408411 0.405555 0.144000
O O17 0.859993 0.250000 0.409744
#
# Coordination Sequence:
#
# PCOD8249983 Si02
#       7
#     8   8   8   8   8   8   8
#     4   9  15  26  40  56  83 116 141 164 199 244
#     4   9  18  33  45  58  82 108 137 174 213 252
#     4   8  14  26  42  54  75 110 137 162 204 242
#     4  10  19  27  44  66  79 105 143 174 207 245
#     4   9  16  25  36  53  81 118 147 164 193 235
#     4   9  17  25  35  55  83 116 144 165 193 232
#     4  10  17  26  39  61  87 109 141 175 197 233
#
# _framework density 15.03847
#
# number of rings (size 3 to 8) (size 9 to 14) (size 15 to 20)
#    0.000    2.857    1.429    2.143    2.000    0.571 
#    0.000    0.000    0.000    0.000    0.000    0.000 
#    0.000    1.143    0.000    0.000    0.000    0.286 
#
# Total GULP energy -693991.557264 kJ/mol
# GULP energy per Si atom -12392.706380 kJ/mol
# Density = 1.500424 g / cm^3
# Si number density = 15.038470 Si / 1000 Ang^3
#
#
#
# Elastic Constant Matrix: (Units=GPa)
#
#
# Indices 1 2 3 4 5 6 
#
# 1 104.3694 18.9358 25.5472 0.0000 0.0000 0.0000
# 2 18.9358 36.2253 20.5594 0.0000 0.0000 0.0000
# 3 25.5472 20.5594 42.8799 0.0000 0.0000 0.0000
# 4 0.0000 0.0000 0.0000 10.8066 0.0000 0.0000
# 5 0.0000 0.0000 0.0000 0.0000 20.3470 0.0000
# 6 0.0000 0.0000 0.0000 0.0000 0.0000 9.1833
#
#
#
# Elastic Compliance Matrix: (Units=1/GPa)
#
#
# Indices 1 2 3 4 5 6 
#
# 1 0.011435 -0.002900 -0.005422 0.000000 0.000000 0.000000
# 2 -0.002900 0.038661 -0.016809 0.000000 0.000000 0.000000
# 3 -0.005422 -0.016809 0.034611 0.000000 0.000000 0.000000
# 4 0.000000 0.000000 0.000000 0.092536 0.000000 0.000000
# 5 0.000000 0.000000 0.000000 0.000000 0.049147 0.000000
# 6 0.000000 0.000000 0.000000 0.000000 0.000000 0.108894
#
#
# Mechanical properties :
#
#
# Convention : Reuss Voigt Hill
#
# Bulk Modulus (GPa) = 29.03239 34.83993 31.93616
# Shear Modulus (GPa) = 12.59363 15.96284 14.27824
#
# Velocity S-wave (km/s) = 2.89697 3.26155 3.08465
# Velocity P-wave (km/s) = 5.52605 6.11565 5.82831
#
# Compressibility (1/GPa) = 0.03444429
#
# Stress axis : x y z
#
# Youngs Moduli (GPa) = 87.45305 25.86617 28.89287
#
# Poissons Ratio (x) = 0.07501 0.15666
# Poissons Ratio (y) = 0.25360 0.48565
# Poissons Ratio (z) = 0.47419 0.43478
#
# Static dielectric constant tensor:
#      x y z
#    x 3.202930 0.000000 0.000000 
#    y 0.000000 2.360770 0.000000 
#    z 0.000000 0.000000 2.881380 
# 
# 
# High freq. dielectric constant tensor:
#      x y z
#    x 1.593760 0.000000 0.000000 
#    y 0.000000 1.499640 0.000000 
#    z 0.000000 0.000000 1.567160 
# 
# From -- ./inp_files/32281.got.cif
#   From: 2010.03.12/outbox.cif.g09.slc.cpg/sg62_17_cif.got.tgz:32281.got - 2010.04.10 19:12:36.
