data_PCOD8249531
_publ_section_title
;
Structure prediction by ZEFSAII (Michael W. Deem and Ramdas Pophale) SiO2 
 PCOD8249531
Probable space group: P B C A
;
_chemical_formula_sum "Si O2"
_cell_formula_units_Z 40
_cell_length_a 20.606767
_cell_length_b 9.446599
_cell_length_c 9.164338
_cell_angle_alpha 90.000000
_cell_angle_beta 90.000000
_cell_angle_gamma 90.000000
_cell_volume 1783.965451
_symmetry_space_group_name_H-M "P B C A"
_symmetry_group_IT_number 61
_symmetry_cell_setting 'orthorhombic'
loop_
_space_group_symop_operation_xyz
x,y,z
1/2-x,-y,1/2+z
1/2+x,1/2-y,-z
-x,1/2+y,1/2-z
-x,-y,-z
1/2+x,y,1/2-z
1/2-x,1/2+y,z
x,1/2-y,1/2+z
loop_
_atom_site_type_symbol
_atom_site_label
_atom_site_fract_x
_atom_site_fract_y
_atom_site_fract_z
Si Si1 0.998401 0.852064 0.080437
Si Si2 0.716467 0.721076 0.747448
Si Si3 0.862377 0.163315 0.007570
Si Si4 0.669846 0.480078 0.256687
Si Si5 0.545091 0.395420 0.408635
O O1 0.069170 0.780741 0.052980
O O2 0.987305 0.862351 0.252453
O O3 0.946922 0.748458 0.002366
O O4 0.000000 0.000000 0.000000
O O5 0.673284 0.711564 0.599967
O O6 0.683074 0.625011 0.870917
O O7 0.788921 0.661727 0.725322
O O8 0.717140 0.887535 0.796895
O O9 0.869724 0.021377 0.107979
O O10 0.617578 0.455697 0.384858
O O11 0.500000 0.500000 0.500000
#
# Coordination Sequence:
#
# PCOD8249531 Si02
#       5
#     8   8   8   8   8
#     4  12  23  45  74 102 144 191 235 303 364 432
#     4  10  23  41  69  95 141 183 240 290 360 428
#     4  10  23  43  67  99 140 180 239 285 366 416
#     4  10  25  43  68 104 143 185 240 298 360 435
#     4  12  26  47  72 112 144 187 249 302 371 444
#
# _framework density 22.421958
#
# number of rings (size 3 to 8) (size 9 to 14) (size 15 to 20)
#    1.200    0.000    2.000    3.600    2.800    3.200 
#    0.000    0.000    0.000    0.000    0.000    0.000 
#    0.000    0.000    0.000    0.000    0.000    0.000 
#
# Total GULP energy -495704.881985 kJ/mol
# GULP energy per Si atom -12392.622050 kJ/mol
# Density = 2.237093 g / cm^3
# Si number density = 22.421958 Si / 1000 Ang^3
#
#
#
# Elastic Constant Matrix: (Units=GPa)
#
#
# Indices 1 2 3 4 5 6 
#
# 1 112.1692 43.6637 38.2247 0.0000 0.0000 0.0000
# 2 43.6637 115.8442 36.9877 0.0000 0.0000 0.0000
# 3 38.2247 36.9877 145.2674 0.0000 0.0000 0.0000
# 4 0.0000 0.0000 0.0000 37.8975 0.0000 0.0000
# 5 0.0000 0.0000 0.0000 0.0000 40.5326 0.0000
# 6 0.0000 0.0000 0.0000 0.0000 0.0000 41.3864
#
#
#
# Elastic Compliance Matrix: (Units=1/GPa)
#
#
# Indices 1 2 3 4 5 6 
#
# 1 0.010954 -0.003492 -0.001993 0.000000 0.000000 0.000000
# 2 -0.003492 0.010510 -0.001757 0.000000 0.000000 0.000000
# 3 -0.001993 -0.001757 0.007856 0.000000 0.000000 0.000000
# 4 0.000000 0.000000 0.000000 0.026387 0.000000 0.000000
# 5 0.000000 0.000000 0.000000 0.000000 0.024672 0.000000
# 6 0.000000 0.000000 0.000000 0.000000 0.000000 0.024163
#
#
# Mechanical properties :
#
#
# Convention : Reuss Voigt Hill
#
# Bulk Modulus (GPa) = 67.41163 67.89257 67.65210
# Shear Modulus (GPa) = 40.33253 40.92362 40.62808
#
# Velocity S-wave (km/s) = 4.24582 4.27682 4.26135
# Velocity P-wave (km/s) = 7.35977 7.39821 7.37902
#
# Compressibility (1/GPa) = 0.01483424
#
# Stress axis : x y z
#
# Youngs Moduli (GPa) = 91.29309 95.15138 127.29663
#
# Poissons Ratio (x) = 0.33230 0.25371
# Poissons Ratio (y) = 0.31882 0.22366
# Poissons Ratio (z) = 0.18196 0.16718
#
# Static dielectric constant tensor:
#      x y z
#    x 3.987920 0.000000 0.000000 
#    y 0.000000 3.780850 0.000000 
#    z 0.000000 0.000000 4.117650 
# 
# 
# High freq. dielectric constant tensor:
#      x y z
#    x 1.877840 0.000000 0.000000 
#    y 0.000000 1.870290 0.000000 
#    z 0.000000 0.000000 1.891640 
# 
# From -- ./inp_files/4410.got.cif
#   From: 2010.03.12/outbox.cif.g09.slc.cpg/sg61_3_cif.got.tgz:4410.got - 2010.04.10 19:05:03.
