data_PCOD8249678
_publ_section_title
;
Structure prediction by ZEFSAII (Michael W. Deem and Ramdas Pophale) SiO2 
 PCOD8249678
Probable space group: P B C A
;
_chemical_formula_sum "Si O2"
_cell_formula_units_Z 48
_cell_length_a 20.902178
_cell_length_b 8.811965
_cell_length_c 11.902482
_cell_angle_alpha 90.000000
_cell_angle_beta 90.000000
_cell_angle_gamma 90.000000
_cell_volume 2192.309363
_symmetry_space_group_name_H-M "P B C A"
_symmetry_group_IT_number 61
_symmetry_cell_setting 'orthorhombic'
loop_
_space_group_symop_operation_xyz
x,y,z
1/2-x,-y,1/2+z
1/2+x,1/2-y,-z
-x,1/2+y,1/2-z
-x,-y,-z
1/2+x,y,1/2-z
1/2-x,1/2+y,z
x,1/2-y,1/2+z
loop_
_atom_site_type_symbol
_atom_site_label
_atom_site_fract_x
_atom_site_fract_y
_atom_site_fract_z
Si Si1 0.330090 0.504472 0.739510
Si Si2 0.620136 0.933983 0.160919
Si Si3 0.655033 0.155374 0.986964
Si Si4 0.584713 0.452553 0.897909
Si Si5 0.753235 0.256168 0.151781
Si Si6 0.559468 0.871871 0.618092
O O1 0.337726 0.525623 0.606950
O O2 0.277623 0.376301 0.765961
O O3 0.307194 0.664492 0.789542
O O4 0.398640 0.460868 0.790397
O O5 0.689793 0.871437 0.126573
O O6 0.566749 0.808898 0.132283
O O7 0.610082 0.084118 0.085352
O O8 0.620853 0.975176 0.292220
O O9 0.726229 0.191294 0.034129
O O10 0.621390 0.305461 0.941297
O O11 0.513700 0.410205 0.858634
O O12 0.582710 0.579820 0.994365
#
# Coordination Sequence:
#
# PCOD8249678 Si02
#       6
#     8   8   8   8   8   8
#     4  11  25  43  69 102 141 185 234 303 354 433
#     4  11  27  45  71 106 144 191 235 303 365 429
#     4  12  26  44  71 106 145 192 242 297 366 433
#     4  11  26  48  75 103 146 192 244 303 356 442
#     4  11  24  44  67 104 139 186 239 290 368 433
#     4  10  26  48  73 106 142 187 251 297 366 431
#
# _framework density 21.894718999999998
#
# number of rings (size 3 to 8) (size 9 to 14) (size 15 to 20)
#    0.000    1.000    3.333    1.000    9.333    3.333 
#    0.000    0.000    0.000    0.000    0.000    0.000 
#    0.000    0.000    0.000    0.000    0.000    0.000 
#
# Total GULP energy -595411.930151 kJ/mol
# GULP energy per Si atom -12404.415211 kJ/mol
# Density = 2.184489 g / cm^3
# Si number density = 21.894719 Si / 1000 Ang^3
#
#
#
# Elastic Constant Matrix: (Units=GPa)
#
#
# Indices 1 2 3 4 5 6 
#
# 1 90.9045 36.7116 42.1970 0.0000 0.0000 0.0000
# 2 36.7116 114.2209 59.8939 0.0000 0.0000 0.0000
# 3 42.1970 59.8939 137.4941 0.0000 0.0000 0.0000
# 4 0.0000 0.0000 0.0000 45.4499 0.0000 0.0000
# 5 0.0000 0.0000 0.0000 0.0000 29.9518 0.0000
# 6 0.0000 0.0000 0.0000 0.0000 0.0000 30.0404
#
#
#
# Elastic Compliance Matrix: (Units=1/GPa)
#
#
# Indices 1 2 3 4 5 6 
#
# 1 0.013488 -0.002805 -0.002917 0.000000 0.000000 0.000000
# 2 -0.002805 0.011930 -0.004336 0.000000 0.000000 0.000000
# 3 -0.002917 -0.004336 0.010057 0.000000 0.000000 0.000000
# 4 0.000000 0.000000 0.000000 0.022002 0.000000 0.000000
# 5 0.000000 0.000000 0.000000 0.000000 0.033387 0.000000
# 6 0.000000 0.000000 0.000000 0.000000 0.000000 0.033289
#
#
# Mechanical properties :
#
#
# Convention : Reuss Voigt Hill
#
# Bulk Modulus (GPa) = 65.11340 68.91385 67.01362
# Shear Modulus (GPa) = 33.46955 34.67620 34.07288
#
# Velocity S-wave (km/s) = 3.91405 3.98398 3.94917
# Velocity P-wave (km/s) = 7.08733 7.25990 7.17414
#
# Compressibility (1/GPa) = 0.01535782
#
# Stress axis : x y z
#
# Youngs Moduli (GPa) = 74.14175 83.82027 99.43125
#
# Poissons Ratio (x) = 0.23514 0.29008
# Poissons Ratio (y) = 0.20799 0.43114
# Poissons Ratio (z) = 0.21630 0.36345
#
# Static dielectric constant tensor:
#      x y z
#    x 3.940040 0.000000 0.000000 
#    y 0.000000 4.161760 0.000000 
#    z 0.000000 0.000000 4.014390 
# 
# 
# High freq. dielectric constant tensor:
#      x y z
#    x 1.855650 0.000000 0.000000 
#    y 0.000000 1.877680 0.000000 
#    z 0.000000 0.000000 1.865200 
# 
# From -- ./inp_files/6595.got.cif
#   From: 2010.03.12/outbox.cif.g09.slc.cpg/sg61_4_cif.got.tgz:6595.got - 2010.04.10 19:05:03.
