data_PCOD8249484
_publ_section_title
;
Structure prediction by ZEFSAII (Michael W. Deem and Ramdas Pophale) SiO2 
 PCOD8249484
Probable space group: P B C A
;
_chemical_formula_sum "Si O2"
_cell_formula_units_Z 64
_cell_length_a 28.622019
_cell_length_b 12.081200
_cell_length_c 8.995026
_cell_angle_alpha 90.000000
_cell_angle_beta 90.000000
_cell_angle_gamma 90.000000
_cell_volume 3110.375072
_symmetry_space_group_name_H-M "P B C A"
_symmetry_group_IT_number 61
_symmetry_cell_setting 'orthorhombic'
loop_
_space_group_symop_operation_xyz
x,y,z
1/2-x,-y,1/2+z
1/2+x,1/2-y,-z
-x,1/2+y,1/2-z
-x,-y,-z
1/2+x,y,1/2-z
1/2-x,1/2+y,z
x,1/2-y,1/2+z
loop_
_atom_site_type_symbol
_atom_site_label
_atom_site_fract_x
_atom_site_fract_y
_atom_site_fract_z
Si Si1 0.337453 0.780311 0.700754
Si Si2 0.971904 0.854481 0.115251
Si Si3 0.330457 0.376854 0.991250
Si Si4 0.070031 0.950666 0.067991
Si Si5 0.382191 0.977071 0.858744
Si Si6 0.571098 0.328115 0.423203
Si Si7 0.190147 0.842160 0.327286
Si Si8 0.208140 0.115301 0.922790
O O1 0.345412 0.881065 0.814712
O O2 0.386932 0.748363 0.632013
O O3 0.301766 0.818961 0.574284
O O4 0.315670 0.676096 0.784091
O O5 0.964260 0.856956 0.291598
O O6 0.026424 0.868503 0.080887
O O7 0.956550 0.736362 0.051723
O O8 0.940754 0.951278 0.045902
O O9 0.386410 0.380485 0.007490
O O10 0.306883 0.350324 0.149368
O O11 0.312356 0.492890 0.929655
O O12 0.316424 0.285259 0.871513
O O13 0.080914 0.004310 0.227089
O O14 0.353189 0.087964 0.892388
O O15 0.409857 0.942476 0.006944
O O16 0.236702 0.891578 0.399505
#
# Coordination Sequence:
#
# PCOD8249484 Si02
#       8
#     8   8   8   8   8   8   8   8
#     4  12  21  41  69  98 132 171 213 284 333 387
#     4  11  22  37  67  98 126 167 224 279 321 421
#     4  11  25  47  64  92 140 176 215 274 336 400
#     4  10  22  44  62  89 134 175 212 273 349 379
#     4  11  23  43  65  93 138 172 215 279 332 394
#     4  12  21  39  67 100 125 168 226 270 344 386
#     4  11  27  43  66  95 134 179 224 266 332 401
#     4  12  25  42  71  99 131 174 228 277 329 395
#
# _framework density 20.576297
#
# number of rings (size 3 to 8) (size 9 to 14) (size 15 to 20)
#    0.000    0.750    6.250    1.500    1.750    6.500 
#    0.000    1.250    0.000    0.000    0.000    0.000 
#    0.000    0.000    0.000    0.000    0.000    0.000 
#
# Total GULP energy -794028.194141 kJ/mol
# GULP energy per Si atom -12406.690533 kJ/mol
# Density = 2.052946 g / cm^3
# Si number density = 20.576297 Si / 1000 Ang^3
#
#
#
# Elastic Constant Matrix: (Units=GPa)
#
#
# Indices 1 2 3 4 5 6 
#
# 1 98.2313 38.3558 39.6396 0.0000 0.0000 0.0000
# 2 38.3558 127.6541 57.3263 0.0000 0.0000 0.0000
# 3 39.6396 57.3263 90.1268 0.0000 0.0000 0.0000
# 4 0.0000 0.0000 0.0000 39.5109 0.0000 0.0000
# 5 0.0000 0.0000 0.0000 0.0000 22.9825 0.0000
# 6 0.0000 0.0000 0.0000 0.0000 0.0000 22.0544
#
#
#
# Elastic Compliance Matrix: (Units=1/GPa)
#
#
# Indices 1 2 3 4 5 6 
#
# 1 0.012674 -0.001827 -0.004412 0.000000 0.000000 0.000000
# 2 -0.001827 0.011229 -0.006339 0.000000 0.000000 0.000000
# 3 -0.004412 -0.006339 0.017068 0.000000 0.000000 0.000000
# 4 0.000000 0.000000 0.000000 0.025309 0.000000 0.000000
# 5 0.000000 0.000000 0.000000 0.000000 0.043511 0.000000
# 6 0.000000 0.000000 0.000000 0.000000 0.000000 0.045342
#
#
# Mechanical properties :
#
#
# Convention : Reuss Voigt Hill
#
# Bulk Modulus (GPa) = 63.23076 65.18396 64.20736
# Shear Modulus (GPa) = 26.94509 28.95559 27.95034
#
# Velocity S-wave (km/s) = 3.62266 3.75538 3.68961
# Velocity P-wave (km/s) = 6.94945 7.10997 7.03017
#
# Compressibility (1/GPa) = 0.01581509
#
# Stress axis : x y z
#
# Youngs Moduli (GPa) = 78.90284 89.05316 58.58834
#
# Poissons Ratio (x) = 0.16266 0.25852
# Poissons Ratio (y) = 0.14412 0.37140
# Poissons Ratio (z) = 0.34815 0.56452
#
# Static dielectric constant tensor:
#      x y z
#    x 3.768780 0.000000 0.000000 
#    y 0.000000 3.706710 0.000000 
#    z 0.000000 0.000000 3.808610 
# 
# 
# High freq. dielectric constant tensor:
#      x y z
#    x 1.808720 0.000000 0.000000 
#    y 0.000000 1.805380 0.000000 
#    z 0.000000 0.000000 1.809760 
# 
# From -- ./inp_files/4623.got.cif
#   From: 2010.03.12/outbox.cif.g09.slc.cpg/sg61_3_cif.got.tgz:4623.got - 2010.04.10 19:05:03.
