data_PCOD8249449
_publ_section_title
;
Structure prediction by ZEFSAII (Michael W. Deem and Ramdas Pophale) SiO2 
 PCOD8249449
Probable space group: P B C A
;
_chemical_formula_sum "Si O2"
_cell_formula_units_Z 48
_cell_length_a 15.449093
_cell_length_b 28.491558
_cell_length_c 4.974648
_cell_angle_alpha 90.000000
_cell_angle_beta 90.000000
_cell_angle_gamma 90.000000
_cell_volume 2189.684489
_symmetry_space_group_name_H-M "P B C A"
_symmetry_group_IT_number 61
_symmetry_cell_setting 'orthorhombic'
loop_
_space_group_symop_operation_xyz
x,y,z
1/2-x,-y,1/2+z
1/2+x,1/2-y,-z
-x,1/2+y,1/2-z
-x,-y,-z
1/2+x,y,1/2-z
1/2-x,1/2+y,z
x,1/2-y,1/2+z
loop_
_atom_site_type_symbol
_atom_site_label
_atom_site_fract_x
_atom_site_fract_y
_atom_site_fract_z
Si Si1 0.606194 0.645224 0.690040
Si Si2 0.100170 0.091231 0.162422
Si Si3 0.589893 0.348266 0.350195
Si Si4 0.756835 0.781163 0.272650
Si Si5 0.092059 0.916238 0.795295
Si Si6 0.198579 0.002623 0.992448
O O1 0.511225 0.667111 0.613643
O O2 0.678065 0.685240 0.692916
O O3 0.634397 0.604949 0.476326
O O4 0.603847 0.623529 0.983572
O O5 0.130959 0.131563 0.371635
O O6 0.007696 0.073254 0.267146
O O7 0.093037 0.109966 0.862301
O O8 0.162431 0.046762 0.159149
O O9 0.649357 0.305890 0.244931
O O10 0.750547 0.763356 0.577203
O O11 0.129817 0.965766 0.882249
O O12 0.245610 0.022502 0.725855
#
# Coordination Sequence:
#
# PCOD8249449 Si02
#       6
#     8   8   8   8   8   8
#     4  10  23  42  67  92 125 170 212 260 320 382
#     4  10  22  42  63  89 127 173 213 258 311 371
#     4  10  23  42  67  92 125 170 212 260 320 382
#     4  12  26  42  66  98 126 162 206 268 332 388
#     4  10  22  42  63  89 127 173 213 258 311 371
#     4  12  25  36  59 100 130 168 216 264 315 368
#
# _framework density 21.920967000000001
#
# number of rings (size 3 to 8) (size 9 to 14) (size 15 to 20)
#    0.000    1.333    0.000    4.500    7.000    1.333 
#    0.000    6.667    0.000    0.000    0.000    0.000 
#    0.000    0.000    0.000    0.000    0.000    0.000 
#
# Total GULP energy -595223.306801 kJ/mol
# GULP energy per Si atom -12400.485558 kJ/mol
# Density = 2.187107 g / cm^3
# Si number density = 21.920967 Si / 1000 Ang^3
#
#
#
# Elastic Constant Matrix: (Units=GPa)
#
#
# Indices 1 2 3 4 5 6 
#
# 1 74.5619 29.1129 25.4283 0.0000 0.0000 0.0000
# 2 29.1129 52.0667 13.2220 0.0000 0.0000 0.0000
# 3 25.4283 13.2220 107.1536 0.0000 0.0000 0.0000
# 4 0.0000 0.0000 0.0000 43.6097 0.0000 0.0000
# 5 0.0000 0.0000 0.0000 0.0000 29.3084 0.0000
# 6 0.0000 0.0000 0.0000 0.0000 0.0000 21.8369
#
#
#
# Elastic Compliance Matrix: (Units=1/GPa)
#
#
# Indices 1 2 3 4 5 6 
#
# 1 0.018132 -0.009339 -0.003151 0.000000 0.000000 0.000000
# 2 -0.009339 0.024637 -0.000824 0.000000 0.000000 0.000000
# 3 -0.003151 -0.000824 0.010182 0.000000 0.000000 0.000000
# 4 0.000000 0.000000 0.000000 0.022931 0.000000 0.000000
# 5 0.000000 0.000000 0.000000 0.000000 0.034120 0.000000
# 6 0.000000 0.000000 0.000000 0.000000 0.000000 0.045794
#
#
# Mechanical properties :
#
#
# Convention : Reuss Voigt Hill
#
# Bulk Modulus (GPa) = 37.98689 41.03428 39.51059
# Shear Modulus (GPa) = 26.15102 30.01894 28.08498
#
# Velocity S-wave (km/s) = 3.45768 3.70458 3.58326
# Velocity P-wave (km/s) = 5.77126 6.08756 5.93152
#
# Compressibility (1/GPa) = 0.02632487
#
# Stress axis : x y z
#
# Youngs Moduli (GPa) = 55.14975 40.58930 98.21515
#
# Poissons Ratio (x) = 0.37905 0.30944
# Poissons Ratio (y) = 0.51502 0.08092
# Poissons Ratio (z) = 0.17376 0.03344
#
# Static dielectric constant tensor:
#      x y z
#    x 4.160440 0.000000 0.000000 
#    y 0.000000 3.586270 0.000000 
#    z 0.000000 0.000000 4.225500 
# 
# 
# High freq. dielectric constant tensor:
#      x y z
#    x 1.866930 0.000000 0.000000 
#    y 0.000000 1.843230 0.000000 
#    z 0.000000 0.000000 1.885180 
# 
# From -- ./inp_files/544.got.cif
#   From: 2010.03.12/outbox.cif.g09.slc.cpg/sg61_1_cif.got.tgz:544.got - 2010.04.10 19:05:03.
