data_PCOD8249660
_publ_section_title
;
Structure prediction by ZEFSAII (Michael W. Deem and Ramdas Pophale) SiO2 
 PCOD8249660
Probable space group: P B C A
;
_chemical_formula_sum "Si O2"
_cell_formula_units_Z 32
_cell_length_a 12.462084
_cell_length_b 9.437395
_cell_length_c 12.533467
_cell_angle_alpha 90.000000
_cell_angle_beta 90.000000
_cell_angle_gamma 90.000000
_cell_volume 1474.056156
_symmetry_space_group_name_H-M "P B C A"
_symmetry_group_IT_number 61
_symmetry_cell_setting 'orthorhombic'
loop_
_space_group_symop_operation_xyz
x,y,z
1/2-x,-y,1/2+z
1/2+x,1/2-y,-z
-x,1/2+y,1/2-z
-x,-y,-z
1/2+x,y,1/2-z
1/2-x,1/2+y,z
x,1/2-y,1/2+z
loop_
_atom_site_type_symbol
_atom_site_label
_atom_site_fract_x
_atom_site_fract_y
_atom_site_fract_z
Si Si1 0.274721 0.144156 0.539082
Si Si2 0.093865 0.072818 0.693956
Si Si3 0.164854 0.127781 0.915105
Si Si4 0.535719 0.757571 0.832999
O O1 0.157654 0.111202 0.587378
O O2 0.257886 0.259338 0.444912
O O3 0.346243 0.208968 0.633244
O O4 0.330919 0.003131 0.496177
O O5 0.178466 0.069824 0.793852
O O6 0.000493 0.188278 0.719499
O O7 0.032493 0.925425 0.679928
O O8 0.049060 0.206574 0.923945
#
# Coordination Sequence:
#
# PCOD8249660 Si02
#       4
#     8   8   8   8
#     4  12  23  48  72 104 144 185 237 297 352 416
#     4  10  26  44  71 104 143 189 234 290 355 421
#     4  10  27  43  72 106 138 187 239 288 353 423
#     4  10  25  46  70 102 143 188 235 294 348 424
#
# _framework density 21.708805000000002
#
# number of rings (size 3 to 8) (size 9 to 14) (size 15 to 20)
#    1.500    0.000    2.500    0.750    7.000    3.000 
#    0.000    0.000    0.000    0.000    0.000    0.000 
#    0.000    0.000    0.000    0.000    0.000    0.000 
#
# Total GULP energy -396627.712121 kJ/mol
# GULP energy per Si atom -12394.616004 kJ/mol
# Density = 2.165940 g / cm^3
# Si number density = 21.708805 Si / 1000 Ang^3
#
#
#
# Elastic Constant Matrix: (Units=GPa)
#
#
# Indices 1 2 3 4 5 6 
#
# 1 63.9124 34.6852 12.1062 0.0000 0.0000 0.0000
# 2 34.6852 85.9434 16.0504 0.0000 0.0000 0.0000
# 3 12.1062 16.0504 64.2747 0.0000 0.0000 0.0000
# 4 0.0000 0.0000 0.0000 37.2664 0.0000 0.0000
# 5 0.0000 0.0000 0.0000 0.0000 46.7053 0.0000
# 6 0.0000 0.0000 0.0000 0.0000 0.0000 35.2783
#
#
#
# Elastic Compliance Matrix: (Units=1/GPa)
#
#
# Indices 1 2 3 4 5 6 
#
# 1 0.020244 -0.007823 -0.001860 0.000000 0.000000 0.000000
# 2 -0.007823 0.015228 -0.002329 0.000000 0.000000 0.000000
# 3 -0.001860 -0.002329 0.016490 0.000000 0.000000 0.000000
# 4 0.000000 0.000000 0.000000 0.026834 0.000000 0.000000
# 5 0.000000 0.000000 0.000000 0.000000 0.021411 0.000000
# 6 0.000000 0.000000 0.000000 0.000000 0.000000 0.028346
#
#
# Mechanical properties :
#
#
# Convention : Reuss Voigt Hill
#
# Bulk Modulus (GPa) = 35.79246 37.75713 36.77480
# Shear Modulus (GPa) = 30.88542 33.93592 32.41067
#
# Velocity S-wave (km/s) = 3.77598 3.95806 3.86809
# Velocity P-wave (km/s) = 5.96104 6.19021 6.07670
#
# Compressibility (1/GPa) = 0.02793884
#
# Stress axis : x y z
#
# Youngs Moduli (GPa) = 49.39702 65.66970 60.64244
#
# Poissons Ratio (x) = 0.51373 0.11276
# Poissons Ratio (y) = 0.38643 0.14125
# Poissons Ratio (z) = 0.09185 0.15296
#
# Static dielectric constant tensor:
#      x y z
#    x 3.593580 0.000000 0.000000 
#    y 0.000000 3.887330 0.000000 
#    z 0.000000 0.000000 3.627400 
# 
# 
# High freq. dielectric constant tensor:
#      x y z
#    x 1.839590 0.000000 0.000000 
#    y 0.000000 1.864500 0.000000 
#    z 0.000000 0.000000 1.838480 
# 
# From -- ./inp_files/1992.got.cif
#   From: 2010.03.12/outbox.cif.g09.slc.cpg/sg61_1_cif.got.tgz:1992.got - 2010.04.10 19:05:03.
