data_PCOD8249085
_publ_section_title
;
Structure prediction by ZEFSAII (Michael W. Deem and Ramdas Pophale) SiO2 
 PCOD8249085
Probable space group: P B C A
;
_chemical_formula_sum "Si O2"
_cell_formula_units_Z 64
_cell_length_a 22.849058
_cell_length_b 11.708077
_cell_length_c 10.658337
_cell_angle_alpha 90.000000
_cell_angle_beta 90.000000
_cell_angle_gamma 90.000000
_cell_volume 2851.302651
_symmetry_space_group_name_H-M "P B C A"
_symmetry_group_IT_number 61
_symmetry_cell_setting 'orthorhombic'
loop_
_space_group_symop_operation_xyz
x,y,z
1/2-x,-y,1/2+z
1/2+x,1/2-y,-z
-x,1/2+y,1/2-z
-x,-y,-z
1/2+x,y,1/2-z
1/2-x,1/2+y,z
x,1/2-y,1/2+z
loop_
_atom_site_type_symbol
_atom_site_label
_atom_site_fract_x
_atom_site_fract_y
_atom_site_fract_z
Si Si1 0.773768 0.961718 0.989236
Si Si2 0.413779 0.575056 0.334891
Si Si3 0.175644 0.290901 0.691433
Si Si4 0.602010 0.640743 0.780939
Si Si5 0.526183 0.664898 0.191608
Si Si6 0.430637 0.748016 0.543332
Si Si7 0.233390 0.890322 0.251120
Si Si8 0.901194 0.001668 0.027595
O O1 0.731235 0.952557 0.111056
O O2 0.832058 0.021005 0.045107
O O3 0.790422 0.837885 0.931318
O O4 0.747511 0.032720 0.869946
O O5 0.349146 0.603066 0.274275
O O6 0.413953 0.437006 0.341464
O O7 0.469052 0.615943 0.255709
O O8 0.420263 0.633173 0.467325
O O9 0.115466 0.226736 0.655522
O O10 0.217834 0.208036 0.768838
O O11 0.567074 0.759297 0.781775
O O12 0.671121 0.667778 0.779224
O O13 0.580976 0.562976 0.897649
O O14 0.564515 0.560877 0.140297
O O15 0.498737 0.747403 0.084283
O O16 0.416372 0.867208 0.471861
#
# Coordination Sequence:
#
# PCOD8249085 Si02
#       8
#     8   8   8   8   8   8   8   8
#     4  10  23  42  65  98 130 180 220 274 341 401
#     4  11  22  41  65  94 134 168 223 280 336 401
#     4  10  20  40  67  94 123 176 225 268 332 410
#     4  11  24  43  62  97 135 170 215 288 338 386
#     4  11  23  37  66  94 126 177 217 273 335 411
#     4  10  21  38  67  94 123 176 219 275 337 402
#     4  11  24  41  68  98 137 174 223 283 336 411
#     4  10  20  44  65  92 129 176 224 265 341 415
#
# _framework density 22.445882000000001
#
# number of rings (size 3 to 8) (size 9 to 14) (size 15 to 20)
#    0.000    1.500    5.000    2.625    3.500    4.500 
#    0.000    1.250    0.000    0.000    0.000    0.000 
#    0.000    0.000    0.000    0.000    0.000    0.000 
#
# Total GULP energy -792931.344541 kJ/mol
# GULP energy per Si atom -12389.552258 kJ/mol
# Density = 2.239479 g / cm^3
# Si number density = 22.445882 Si / 1000 Ang^3
#
#
#
# Elastic Constant Matrix: (Units=GPa)
#
#
# Indices 1 2 3 4 5 6 
#
# 1 80.1732 25.5779 14.4341 0.0000 0.0000 0.0000
# 2 25.5779 52.9742 0.8101 0.0000 0.0000 0.0000
# 3 14.4341 0.8101 55.3409 0.0000 0.0000 0.0000
# 4 0.0000 0.0000 0.0000 36.2535 0.0000 0.0000
# 5 0.0000 0.0000 0.0000 0.0000 26.1031 0.0000
# 6 0.0000 0.0000 0.0000 0.0000 0.0000 32.1577
#
#
#
# Elastic Compliance Matrix: (Units=1/GPa)
#
#
# Indices 1 2 3 4 5 6 
#
# 1 0.015562 -0.007454 -0.003950 0.000000 0.000000 0.000000
# 2 -0.007454 0.022451 0.001615 0.000000 0.000000 0.000000
# 3 -0.003950 0.001615 0.019076 0.000000 0.000000 0.000000
# 4 0.000000 0.000000 0.000000 0.027584 0.000000 0.000000
# 5 0.000000 0.000000 0.000000 0.000000 0.038310 0.000000
# 6 0.000000 0.000000 0.000000 0.000000 0.000000 0.031097
#
#
# Mechanical properties :
#
#
# Convention : Reuss Voigt Hill
#
# Bulk Modulus (GPa) = 26.65687 30.01472 28.33580
# Shear Modulus (GPa) = 26.85862 28.74727 27.80294
#
# Velocity S-wave (km/s) = 3.46294 3.58262 3.52329
# Velocity P-wave (km/s) = 5.28120 5.52401 5.40397
#
# Compressibility (1/GPa) = 0.03751378
#
# Stress axis : x y z
#
# Youngs Moduli (GPa) = 64.25896 44.54099 52.42085
#
# Poissons Ratio (x) = 0.33199 0.20705
# Poissons Ratio (y) = 0.47896 -0.08468
# Poissons Ratio (z) = 0.25381 -0.07195
#
# Static dielectric constant tensor:
#      x y z
#    x 4.130960 0.000000 0.000000 
#    y 0.000000 3.919750 0.000000 
#    z 0.000000 0.000000 3.963850 
# 
# 
# High freq. dielectric constant tensor:
#      x y z
#    x 1.891810 0.000000 0.000000 
#    y 0.000000 1.866820 0.000000 
#    z 0.000000 0.000000 1.864020 
# 
# From -- ./inp_files/6628.got.cif
#   From: 2010.03.12/outbox.cif.g09.slc.cpg/sg61_4_cif.got.tgz:6628.got - 2010.04.10 19:05:03.
