data_PCOD8249465
_publ_section_title
;
Structure prediction by ZEFSAII (Michael W. Deem and Ramdas Pophale) SiO2 
 PCOD8249465
Probable space group: P B C A
;
_chemical_formula_sum "Si O2"
_cell_formula_units_Z 64
_cell_length_a 21.292989
_cell_length_b 9.081649
_cell_length_c 15.625765
_cell_angle_alpha 90.000000
_cell_angle_beta 90.000000
_cell_angle_gamma 90.000000
_cell_volume 3021.639374
_symmetry_space_group_name_H-M "P B C A"
_symmetry_group_IT_number 61
_symmetry_cell_setting 'orthorhombic'
loop_
_space_group_symop_operation_xyz
x,y,z
1/2-x,-y,1/2+z
1/2+x,1/2-y,-z
-x,1/2+y,1/2-z
-x,-y,-z
1/2+x,y,1/2-z
1/2-x,1/2+y,z
x,1/2-y,1/2+z
loop_
_atom_site_type_symbol
_atom_site_label
_atom_site_fract_x
_atom_site_fract_y
_atom_site_fract_z
Si Si1 0.374633 0.195034 0.095012
Si Si2 0.068309 0.991188 0.270006
Si Si3 0.114825 0.456980 0.419188
Si Si4 0.236947 0.630332 0.202236
Si Si5 0.264895 0.623315 0.822741
Si Si6 0.151848 0.015641 0.104604
Si Si7 0.358202 0.302429 0.408076
Si Si8 0.491778 0.785820 0.333851
O O1 0.335018 0.107391 0.167661
O O2 0.335018 0.345054 0.085197
O O3 0.445622 0.224945 0.121662
O O4 0.375015 0.124184 0.000077
O O5 0.104335 0.032577 0.183318
O O6 0.048610 0.144616 0.310388
O O7 0.111081 0.899738 0.334244
O O8 0.009235 0.885385 0.248550
O O9 0.165782 0.368038 0.362905
O O10 0.123515 0.414372 0.518515
O O11 0.118735 0.632867 0.401761
O O12 0.046357 0.394101 0.396361
O O13 0.247404 0.542801 0.291042
O O14 0.255736 0.793299 0.232341
O O15 0.282112 0.590704 0.124067
O O16 0.216351 0.681378 0.894073
#
# Coordination Sequence:
#
# PCOD8249465 Si02
#       8
#     8   8   8   8   8   8   8   8
#     4  10  24  42  65  94 136 173 217 278 339 398
#     4  11  23  43  67  91 133 174 227 282 330 409
#     4  11  25  41  68  96 132 177 224 274 344 403
#     4  12  21  43  67  97 131 171 217 274 337 403
#     4  12  23  39  70  96 131 169 221 272 341 400
#     4  10  22  43  64  94 129 171 220 278 335 400
#     4  11  23  44  65  95 134 172 223 286 337 396
#     4  11  25  43  66  99 128 182 229 271 338 413
#
# _framework density 21.180555999999999
#
# number of rings (size 3 to 8) (size 9 to 14) (size 15 to 20)
#    0.000    1.000    3.750    3.000    1.750    6.000 
#    2.250    0.000    0.000    0.000    0.000    0.000 
#    0.000    0.000    0.000    0.000    0.000    0.000 
#
# Total GULP energy -793388.208175 kJ/mol
# GULP energy per Si atom -12396.690753 kJ/mol
# Density = 2.113235 g / cm^3
# Si number density = 21.180556 Si / 1000 Ang^3
#
#
#
# Elastic Constant Matrix: (Units=GPa)
#
#
# Indices 1 2 3 4 5 6 
#
# 1 112.8932 43.8646 49.2134 0.0000 0.0000 0.0000
# 2 43.8646 65.1611 33.9090 0.0000 0.0000 0.0000
# 3 49.2134 33.9090 129.9519 0.0000 0.0000 0.0000
# 4 0.0000 0.0000 0.0000 18.3726 0.0000 0.0000
# 5 0.0000 0.0000 0.0000 0.0000 28.4351 0.0000
# 6 0.0000 0.0000 0.0000 0.0000 0.0000 38.0212
#
#
#
# Elastic Compliance Matrix: (Units=1/GPa)
#
#
# Indices 1 2 3 4 5 6 
#
# 1 0.012959 -0.007139 -0.003045 0.000000 0.000000 0.000000
# 2 -0.007139 0.021691 -0.002956 0.000000 0.000000 0.000000
# 3 -0.003045 -0.002956 0.009620 0.000000 0.000000 0.000000
# 4 0.000000 0.000000 0.000000 0.054429 0.000000 0.000000
# 5 0.000000 0.000000 0.000000 0.000000 0.035168 0.000000
# 6 0.000000 0.000000 0.000000 0.000000 0.000000 0.026301
#
#
# Mechanical properties :
#
#
# Convention : Reuss Voigt Hill
#
# Bulk Modulus (GPa) = 55.58931 62.44225 59.01578
# Shear Modulus (GPa) = 25.98152 29.03375 27.50763
#
# Velocity S-wave (km/s) = 3.50618 3.70641 3.60769
# Velocity P-wave (km/s) = 6.53403 6.91821 6.72886
#
# Compressibility (1/GPa) = 0.01798907
#
# Stress axis : x y z
#
# Youngs Moduli (GPa) = 77.16516 46.10220 103.95403
#
# Poissons Ratio (x) = 0.32914 0.31652
# Poissons Ratio (y) = 0.55090 0.30731
# Poissons Ratio (z) = 0.23495 0.13629
#
# Static dielectric constant tensor:
#      x y z
#    x 3.827270 0.000000 0.000000 
#    y 0.000000 3.855040 0.000000 
#    z 0.000000 0.000000 3.983390 
# 
# 
# High freq. dielectric constant tensor:
#      x y z
#    x 1.832010 0.000000 0.000000 
#    y 0.000000 1.823130 0.000000 
#    z 0.000000 0.000000 1.839360 
# 
# From -- ./inp_files/8523.got.cif
#   From: 2010.03.12/outbox.cif.g09.slc.cpg/sg61_5_cif.got.tgz:8523.got - 2010.04.10 19:05:03.
