data_PCOD8249561
_publ_section_title
;
Structure prediction by ZEFSAII (Michael W. Deem and Ramdas Pophale) SiO2 
 PCOD8249561
Probable space group: P B C A
;
_chemical_formula_sum "Si O2"
_cell_formula_units_Z 40
_cell_length_a 16.470851
_cell_length_b 9.451362
_cell_length_c 11.696261
_cell_angle_alpha 90.000000
_cell_angle_beta 90.000000
_cell_angle_gamma 90.000000
_cell_volume 1820.780053
_symmetry_space_group_name_H-M "P B C A"
_symmetry_group_IT_number 61
_symmetry_cell_setting 'orthorhombic'
loop_
_space_group_symop_operation_xyz
x,y,z
1/2-x,-y,1/2+z
1/2+x,1/2-y,-z
-x,1/2+y,1/2-z
-x,-y,-z
1/2+x,y,1/2-z
1/2-x,1/2+y,z
x,1/2-y,1/2+z
loop_
_atom_site_type_symbol
_atom_site_label
_atom_site_fract_x
_atom_site_fract_y
_atom_site_fract_z
Si Si1 0.922408 0.915201 0.541413
Si Si2 0.856289 0.422551 0.258785
Si Si3 0.820309 0.225652 0.072326
Si Si4 0.023991 0.849163 0.047702
Si Si5 0.236734 0.991127 0.547385
O O1 0.852611 0.936355 0.445006
O O2 0.944492 0.749914 0.558404
O O3 0.886499 0.970549 0.661491
O O4 0.000000 0.000000 0.500000
O O5 0.814944 0.283592 0.201345
O O6 0.933529 0.370191 0.330131
O O7 0.787466 0.495590 0.336301
O O8 0.915146 0.228476 0.039337
O O9 0.770952 0.326527 0.984295
O O10 0.784336 0.069051 0.057546
O O11 0.000000 0.000000 0.000000
#
# Coordination Sequence:
#
# PCOD8249561 Si02
#       5
#     8   8   8   8   8
#     4  11  23  47  71 102 143 186 236 300 348 417
#     4  10  24  45  72 101 141 189 230 287 369 413
#     4  10  23  46  65 104 140 178 236 289 339 430
#     4  11  25  44  70 102 147 180 242 293 344 427
#     4  10  23  43  70  98 143 178 237 281 350 425
#
# _framework density 21.968606000000001
#
# number of rings (size 3 to 8) (size 9 to 14) (size 15 to 20)
#    0.000    1.600    4.000    0.000    8.400    6.400 
#    3.600    0.000    0.000    0.000    0.000    0.000 
#    0.000    0.000    0.000    0.000    0.000    0.000 
#
# Total GULP energy -495891.367745 kJ/mol
# GULP energy per Si atom -12397.284194 kJ/mol
# Density = 2.191860 g / cm^3
# Si number density = 21.968606 Si / 1000 Ang^3
#
#
#
# Elastic Constant Matrix: (Units=GPa)
#
#
# Indices 1 2 3 4 5 6 
#
# 1 111.0828 31.2959 40.0756 0.0000 0.0000 0.0000
# 2 31.2959 102.3777 30.8659 0.0000 0.0000 0.0000
# 3 40.0756 30.8659 113.2444 0.0000 0.0000 0.0000
# 4 0.0000 0.0000 0.0000 27.4106 0.0000 0.0000
# 5 0.0000 0.0000 0.0000 0.0000 48.2118 0.0000
# 6 0.0000 0.0000 0.0000 0.0000 0.0000 46.3072
#
#
#
# Elastic Compliance Matrix: (Units=1/GPa)
#
#
# Indices 1 2 3 4 5 6 
#
# 1 0.010813 -0.002344 -0.003188 0.000000 0.000000 0.000000
# 2 -0.002344 0.011151 -0.002210 0.000000 0.000000 0.000000
# 3 -0.003188 -0.002210 0.010561 0.000000 0.000000 0.000000
# 4 0.000000 0.000000 0.000000 0.036482 0.000000 0.000000
# 5 0.000000 0.000000 0.000000 0.000000 0.020742 0.000000
# 6 0.000000 0.000000 0.000000 0.000000 0.000000 0.021595
#
#
# Mechanical properties :
#
#
# Convention : Reuss Voigt Hill
#
# Bulk Modulus (GPa) = 58.68141 59.01998 58.85069
# Shear Modulus (GPa) = 37.73409 39.35043 38.54226
#
# Velocity S-wave (km/s) = 4.14893 4.23686 4.19313
# Velocity P-wave (km/s) = 7.05131 7.13152 7.09153
#
# Compressibility (1/GPa) = 0.01704117
#
# Stress axis : x y z
#
# Youngs Moduli (GPa) = 92.48347 89.68160 94.69060
#
# Poissons Ratio (x) = 0.21025 0.30183
# Poissons Ratio (y) = 0.21681 0.20922
# Poissons Ratio (z) = 0.29479 0.19816
#
# Static dielectric constant tensor:
#      x y z
#    x 4.395460 0.000000 0.000000 
#    y 0.000000 4.136430 0.000000 
#    z 0.000000 0.000000 3.778770 
# 
# 
# High freq. dielectric constant tensor:
#      x y z
#    x 1.876330 0.000000 0.000000 
#    y 0.000000 1.873680 0.000000 
#    z 0.000000 0.000000 1.848810 
# 
# From -- ./inp_files/6090.got.cif
#   From: 2010.03.12/outbox.cif.g09.slc.cpg/sg61_4_cif.got.tgz:6090.got - 2010.04.10 19:05:03.
