data_PCOD8249405
_publ_section_title
;
Structure prediction by ZEFSAII (Michael W. Deem and Ramdas Pophale) SiO2 
 PCOD8249405
Probable space group: P B C A
;
_chemical_formula_sum "Si O2"
_cell_formula_units_Z 40
_cell_length_a 13.919815
_cell_length_b 14.095301
_cell_length_c 9.386778
_cell_angle_alpha 90.000000
_cell_angle_beta 90.000000
_cell_angle_gamma 90.000000
_cell_volume 1841.723224
_symmetry_space_group_name_H-M "P B C A"
_symmetry_group_IT_number 61
_symmetry_cell_setting 'orthorhombic'
loop_
_space_group_symop_operation_xyz
x,y,z
1/2-x,-y,1/2+z
1/2+x,1/2-y,-z
-x,1/2+y,1/2-z
-x,-y,-z
1/2+x,y,1/2-z
1/2-x,1/2+y,z
x,1/2-y,1/2+z
loop_
_atom_site_type_symbol
_atom_site_label
_atom_site_fract_x
_atom_site_fract_y
_atom_site_fract_z
Si Si1 0.880927 0.751851 0.082874
Si Si2 0.991206 0.301602 0.156814
Si Si3 0.275956 0.918546 0.549855
Si Si4 0.302933 0.285511 0.772577
Si Si5 0.328330 0.077605 0.766059
O O1 0.958066 0.689155 0.996519
O O2 0.861125 0.846780 0.991366
O O3 0.926315 0.778409 0.232576
O O4 0.782640 0.692622 0.113801
O O5 0.908451 0.218208 0.153355
O O6 0.940442 0.402035 0.195756
O O7 0.197354 0.860979 0.644191
O O8 0.225089 0.959816 0.408758
O O9 0.322036 0.003435 0.638921
O O10 0.280225 0.177682 0.716280
#
# Coordination Sequence:
#
# PCOD8249405 Si02
#       5
#     8   8   8   8   8
#     4  11  21  39  69  94 132 172 225 267 336 389
#     4  10  22  40  64 100 125 174 220 269 329 390
#     4  11  21  44  65  99 128 183 214 273 331 391
#     4   9  22  42  69  91 132 174 220 273 328 383
#     4   9  24  39  67  99 130 173 224 264 336 388
#
# _framework density 21.718789999999998
#
# number of rings (size 3 to 8) (size 9 to 14) (size 15 to 20)
#    1.200    0.800    2.000    1.200    0.000    5.600 
#    0.000    3.000    0.000    0.000    0.000    0.000 
#    0.000    0.000    0.000    0.000    0.000    0.000 
#
# Total GULP energy -495634.515266 kJ/mol
# GULP energy per Si atom -12390.862882 kJ/mol
# Density = 2.166936 g / cm^3
# Si number density = 21.718790 Si / 1000 Ang^3
#
#
#
# Elastic Constant Matrix: (Units=GPa)
#
#
# Indices 1 2 3 4 5 6 
#
# 1 96.0236 -11.9096 13.8988 0.0000 0.0000 0.0000
# 2 -11.9096 27.3635 1.9987 0.0000 0.0000 0.0000
# 3 13.8988 1.9987 69.0460 0.0000 0.0000 0.0000
# 4 0.0000 0.0000 0.0000 33.6018 0.0000 0.0000
# 5 0.0000 0.0000 0.0000 0.0000 25.2856 0.0000
# 6 0.0000 0.0000 0.0000 0.0000 0.0000 18.1164
#
#
#
# Elastic Compliance Matrix: (Units=1/GPa)
#
#
# Indices 1 2 3 4 5 6 
#
# 1 0.011406 0.005143 -0.002445 0.000000 0.000000 0.000000
# 2 0.005143 0.038941 -0.002162 0.000000 0.000000 0.000000
# 3 -0.002445 -0.002162 0.015038 0.000000 0.000000 0.000000
# 4 0.000000 0.000000 0.000000 0.029760 0.000000 0.000000
# 5 0.000000 0.000000 0.000000 0.000000 0.039548 0.000000
# 6 0.000000 0.000000 0.000000 0.000000 0.000000 0.055198
#
#
# Mechanical properties :
#
#
# Convention : Reuss Voigt Hill
#
# Bulk Modulus (GPa) = 15.04755 22.26765 18.65760
# Shear Modulus (GPa) = 23.69972 27.96378 25.83175
#
# Velocity S-wave (km/s) = 3.30693 3.59212 3.45247
# Velocity P-wave (km/s) = 4.63944 5.24208 4.94994
#
# Compressibility (1/GPa) = 0.06645599
#
# Stress axis : x y z
#
# Youngs Moduli (GPa) = 87.67445 25.67966 66.49896
#
# Poissons Ratio (x) = -0.13207 0.16258
# Poissons Ratio (y) = -0.45089 0.14380
# Poissons Ratio (z) = 0.21435 0.05553
#
# Static dielectric constant tensor:
#      x y z
#    x 3.922300 0.000000 0.000000 
#    y 0.000000 3.487780 0.000000 
#    z 0.000000 0.000000 3.887670 
# 
# 
# High freq. dielectric constant tensor:
#      x y z
#    x 1.854540 0.000000 0.000000 
#    y 0.000000 1.810400 0.000000 
#    z 0.000000 0.000000 1.859250 
# 
# From -- ./inp_files/2734.got.cif
#   From: 2010.03.12/outbox.cif.g09.slc.cpg/sg61_2_cif.got.tgz:2734.got - 2010.04.10 19:05:03.
