data_PCOD8249579
_publ_section_title
;
Structure prediction by ZEFSAII (Michael W. Deem and Ramdas Pophale) SiO2 
 PCOD8249579
Probable space group: P B C A
;
_chemical_formula_sum "Si O2"
_cell_formula_units_Z 40
_cell_length_a 9.497771
_cell_length_b 22.169040
_cell_length_c 7.534148
_cell_angle_alpha 90.000000
_cell_angle_beta 90.000000
_cell_angle_gamma 90.000000
_cell_volume 1586.363571
_symmetry_space_group_name_H-M "P B C A"
_symmetry_group_IT_number 61
_symmetry_cell_setting 'orthorhombic'
loop_
_space_group_symop_operation_xyz
x,y,z
1/2-x,-y,1/2+z
1/2+x,1/2-y,-z
-x,1/2+y,1/2-z
-x,-y,-z
1/2+x,y,1/2-z
1/2-x,1/2+y,z
x,1/2-y,1/2+z
loop_
_atom_site_type_symbol
_atom_site_label
_atom_site_fract_x
_atom_site_fract_y
_atom_site_fract_z
Si Si1 0.605917 0.303166 0.601713
Si Si2 0.544924 0.454845 0.229474
Si Si3 0.279408 0.989537 0.600543
Si Si4 0.632054 0.174978 0.704232
Si Si5 0.191731 0.854959 0.616179
O O1 0.553739 0.233622 0.622402
O O2 0.672925 0.314407 0.408667
O O3 0.727393 0.312669 0.745731
O O4 0.475036 0.347229 0.638827
O O5 0.639306 0.467700 0.406043
O O6 0.388507 0.481884 0.246444
O O7 0.531486 0.383736 0.186641
O O8 0.637656 0.491571 0.084046
O O9 0.233332 0.923113 0.658804
O O10 0.772296 0.163077 0.587175
#
# Coordination Sequence:
#
# PCOD8249579 Si02
#       5
#     8   8   8   8   8
#     4  12  27  46  76 101 151 189 243 306 356 441
#     4  10  24  42  71  98 142 180 237 293 357 424
#     4  10  23  45  66 103 136 180 233 296 349 428
#     4  11  27  45  70 108 144 195 240 295 366 431
#     4  11  27  48  73 111 141 194 246 296 373 426
#
# _framework density 25.214901000000001
#
# number of rings (size 3 to 8) (size 9 to 14) (size 15 to 20)
#    0.000    1.200    2.000    1.200   11.200    2.400 
#    0.000    0.000    0.000    0.000    0.000    0.000 
#    0.000    0.000    0.000    0.000    0.000    0.000 
#
# Total GULP energy -496008.290160 kJ/mol
# GULP energy per Si atom -12400.207254 kJ/mol
# Density = 2.515751 g / cm^3
# Si number density = 25.214901 Si / 1000 Ang^3
#
#
#
# Elastic Constant Matrix: (Units=GPa)
#
#
# Indices 1 2 3 4 5 6 
#
# 1 96.6239 12.1813 37.0139 0.0000 0.0000 0.0000
# 2 12.1813 121.1833 29.6793 0.0000 0.0000 0.0000
# 3 37.0139 29.6793 127.0423 0.0000 0.0000 0.0000
# 4 0.0000 0.0000 0.0000 25.4153 0.0000 0.0000
# 5 0.0000 0.0000 0.0000 0.0000 27.8815 0.0000
# 6 0.0000 0.0000 0.0000 0.0000 0.0000 30.4171
#
#
#
# Elastic Compliance Matrix: (Units=1/GPa)
#
#
# Indices 1 2 3 4 5 6 
#
# 1 0.011664 -0.000361 -0.003314 0.000000 0.000000 0.000000
# 2 -0.000361 0.008764 -0.001942 0.000000 0.000000 0.000000
# 3 -0.003314 -0.001942 0.009291 0.000000 0.000000 0.000000
# 4 0.000000 0.000000 0.000000 0.039346 0.000000 0.000000
# 5 0.000000 0.000000 0.000000 0.000000 0.035866 0.000000
# 6 0.000000 0.000000 0.000000 0.000000 0.000000 0.032876
#
#
# Mechanical properties :
#
#
# Convention : Reuss Voigt Hill
#
# Bulk Modulus (GPa) = 54.09913 55.84426 54.97170
# Shear Modulus (GPa) = 32.21572 34.47446 33.34509
#
# Velocity S-wave (km/s) = 3.57830 3.70161 3.64048
# Velocity P-wave (km/s) = 6.21080 6.36118 6.28644
#
# Compressibility (1/GPa) = 0.01848458
#
# Stress axis : x y z
#
# Youngs Moduli (GPa) = 85.73057 114.10416 107.63420
#
# Poissons Ratio (x) = 0.04117 0.35672
# Poissons Ratio (y) = 0.03093 0.20906
# Poissons Ratio (z) = 0.28412 0.22162
#
# Static dielectric constant tensor:
#      x y z
#    x 4.334160 0.000000 0.000000 
#    y 0.000000 4.693850 0.000000 
#    z 0.000000 0.000000 4.607680 
# 
# 
# High freq. dielectric constant tensor:
#      x y z
#    x 1.989950 0.000000 0.000000 
#    y 0.000000 2.020400 0.000000 
#    z 0.000000 0.000000 2.008870 
# 
# From -- ./inp_files/1774.got.cif
#   From: 2010.03.12/outbox.cif.g09.slc.cpg/sg61_1_cif.got.tgz:1774.got - 2010.04.10 19:05:03.
