data_PCOD8249795
_publ_section_title
;
Structure prediction by ZEFSAII (Michael W. Deem and Ramdas Pophale) SiO2 
 PCOD8249795
Probable space group: P B C A
;
_chemical_formula_sum "Si O2"
_cell_formula_units_Z 64
_cell_length_a 14.350149
_cell_length_b 17.761555
_cell_length_c 12.209971
_cell_angle_alpha 90.000000
_cell_angle_beta 90.000000
_cell_angle_gamma 90.000000
_cell_volume 3112.089139
_symmetry_space_group_name_H-M "P B C A"
_symmetry_group_IT_number 61
_symmetry_cell_setting 'orthorhombic'
loop_
_space_group_symop_operation_xyz
x,y,z
1/2-x,-y,1/2+z
1/2+x,1/2-y,-z
-x,1/2+y,1/2-z
-x,-y,-z
1/2+x,y,1/2-z
1/2-x,1/2+y,z
x,1/2-y,1/2+z
loop_
_atom_site_type_symbol
_atom_site_label
_atom_site_fract_x
_atom_site_fract_y
_atom_site_fract_z
Si Si1 0.443165 0.474671 0.393225
Si Si2 0.401622 0.933312 0.263187
Si Si3 0.984166 0.912259 0.013286
Si Si4 0.685153 0.145047 0.393292
Si Si5 0.820379 0.331788 0.097192
Si Si6 0.240563 0.051748 0.304449
Si Si7 0.287145 0.690825 0.678686
Si Si8 0.829792 0.332405 0.534235
O O1 0.500000 0.500000 0.500000
O O2 0.516278 0.481359 0.293153
O O3 0.406017 0.389731 0.408897
O O4 0.354592 0.527227 0.365468
O O5 0.438327 0.893410 0.371465
O O6 0.375647 0.864670 0.182513
O O7 0.313155 0.983572 0.298159
O O8 0.921053 0.876714 0.918351
O O9 0.082647 0.874015 0.013061
O O10 0.000000 0.000000 0.000000
O O11 0.744189 0.148422 0.504793
O O12 0.724725 0.077488 0.319866
O O13 0.683949 0.221649 0.321962
O O14 0.776008 0.331442 0.217673
O O15 0.861567 0.249278 0.075881
O O16 0.283270 0.121966 0.367963
O O17 0.240899 0.672950 0.564462
#
# Coordination Sequence:
#
# PCOD8249795 Si02
#       8
#     8   8   8   8   8   8   8   8
#     4  12  26  45  71 108 139 185 237 291 355 421
#     4  12  25  43  72  99 140 182 229 292 351 418
#     4  12  24  42  67 104 135 178 235 284 345 419
#     4  11  25  43  71  98 138 185 230 289 351 420
#     4  11  23  50  67  97 140 182 231 288 350 423
#     4  12  24  45  70 103 142 179 231 291 349 418
#     4  11  23  46  70  94 136 182 230 281 356 418
#     4  11  26  43  70  99 134 183 226 285 348 415
#
# _framework density 20.564964
#
# number of rings (size 3 to 8) (size 9 to 14) (size 15 to 20)
#    0.000    0.500    5.000    3.000    3.500    0.000 
#    2.250    0.000    0.000    0.000    0.000    0.000 
#    0.000    0.000    0.000    0.000    0.000    0.000 
#
# Total GULP energy -793736.051002 kJ/mol
# GULP energy per Si atom -12402.125797 kJ/mol
# Density = 2.051816 g / cm^3
# Si number density = 20.564964 Si / 1000 Ang^3
#
#
#
# Elastic Constant Matrix: (Units=GPa)
#
#
# Indices 1 2 3 4 5 6 
#
# 1 93.6904 37.9157 13.8702 0.0000 0.0000 0.0000
# 2 37.9157 100.2132 22.9484 0.0000 0.0000 0.0000
# 3 13.8702 22.9484 83.5321 0.0000 0.0000 0.0000
# 4 0.0000 0.0000 0.0000 38.9391 0.0000 0.0000
# 5 0.0000 0.0000 0.0000 0.0000 34.7654 0.0000
# 6 0.0000 0.0000 0.0000 0.0000 0.0000 37.3713
#
#
#
# Elastic Compliance Matrix: (Units=1/GPa)
#
#
# Indices 1 2 3 4 5 6 
#
# 1 0.012658 -0.004597 -0.000839 0.000000 0.000000 0.000000
# 2 -0.004597 0.012318 -0.002621 0.000000 0.000000 0.000000
# 3 -0.000839 -0.002621 0.012831 0.000000 0.000000 0.000000
# 4 0.000000 0.000000 0.000000 0.025681 0.000000 0.000000
# 5 0.000000 0.000000 0.000000 0.000000 0.028764 0.000000
# 6 0.000000 0.000000 0.000000 0.000000 0.000000 0.026759
#
#
# Mechanical properties :
#
#
# Convention : Reuss Voigt Hill
#
# Bulk Modulus (GPa) = 46.09686 47.43382 46.76534
# Shear Modulus (GPa) = 35.12334 35.72858 35.42596
#
# Velocity S-wave (km/s) = 4.13718 4.17268 4.15497
# Velocity P-wave (km/s) = 6.72946 6.80664 6.76816
#
# Compressibility (1/GPa) = 0.02169345
#
# Stress axis : x y z
#
# Youngs Moduli (GPa) = 79.00117 81.18085 77.93783
#
# Poissons Ratio (x) = 0.37319 0.06538
# Poissons Ratio (y) = 0.36317 0.20426
# Poissons Ratio (z) = 0.06627 0.21276
#
# Static dielectric constant tensor:
#      x y z
#    x 3.827150 0.000000 0.000000 
#    y 0.000000 4.025560 0.000000 
#    z 0.000000 0.000000 3.850260 
# 
# 
# High freq. dielectric constant tensor:
#      x y z
#    x 1.808050 0.000000 0.000000 
#    y 0.000000 1.816720 0.000000 
#    z 0.000000 0.000000 1.819010 
# 
# From -- ./inp_files/5977.got.cif
#   From: 2010.03.12/outbox.cif.g09.slc.cpg/sg61_3_cif.got.tgz:5977.got - 2010.04.10 19:05:03.
