data_PCOD8249001
_publ_section_title
;
Structure prediction by ZEFSAII (Michael W. Deem and Ramdas Pophale) SiO2 
 PCOD8249001
Probable space group: P B C A
;
_chemical_formula_sum "Si O2"
_cell_formula_units_Z 40
_cell_length_a 25.003390
_cell_length_b 4.973709
_cell_length_c 13.252747
_cell_angle_alpha 90.000000
_cell_angle_beta 90.000000
_cell_angle_gamma 90.000000
_cell_volume 1648.106129
_symmetry_space_group_name_H-M "P B C A"
_symmetry_group_IT_number 61
_symmetry_cell_setting 'orthorhombic'
loop_
_space_group_symop_operation_xyz
x,y,z
1/2-x,-y,1/2+z
1/2+x,1/2-y,-z
-x,1/2+y,1/2-z
-x,-y,-z
1/2+x,y,1/2-z
1/2-x,1/2+y,z
x,1/2-y,1/2+z
loop_
_atom_site_type_symbol
_atom_site_label
_atom_site_fract_x
_atom_site_fract_y
_atom_site_fract_z
Si Si1 0.586015 0.970367 0.082697
Si Si2 0.638354 0.478268 0.997327
Si Si3 0.625933 0.716544 0.790934
Si Si4 0.513753 0.951677 0.811521
Si Si5 0.785165 0.499383 0.674323
O O1 0.619530 0.173061 0.013266
O O2 0.523721 0.059385 0.088509
O O3 0.591121 0.672287 0.037612
O O4 0.609645 0.972342 0.197018
O O5 0.691937 0.538021 0.061142
O O6 0.650122 0.530378 0.879584
O O7 0.574577 0.875003 0.836676
O O8 0.669497 0.936922 0.757169
O O9 0.488449 0.756857 0.727396
O O10 0.765495 0.803618 0.689465
#
# Coordination Sequence:
#
# PCOD8249001 Si02
#       5
#     8   8   8   8   8
#     4  10  22  41  62  95 135 164 202 256 307 373
#     4  11  24  41  65  94 125 166 213 256 313 380
#     4  10  24  42  67  94 127 169 211 257 314 377
#     4  10  20  37  63  92 129 170 204 247 309 375
#     4  11  24  43  63  87 122 159 206 267 315 359
#
# _framework density 24.270281000000001
#
# number of rings (size 3 to 8) (size 9 to 14) (size 15 to 20)
#    0.000    1.600    0.000    6.000    0.000   12.800 
#    0.000    0.000    0.000    0.000    0.000    0.000 
#    0.000    0.000    0.000    0.000    0.000    0.000 
#
# Total GULP energy -496079.439241 kJ/mol
# GULP energy per Si atom -12401.985981 kJ/mol
# Density = 2.421504 g / cm^3
# Si number density = 24.270281 Si / 1000 Ang^3
#
#
#
# Elastic Constant Matrix: (Units=GPa)
#
#
# Indices 1 2 3 4 5 6 
#
# 1 84.8705 -0.1142 -1.2047 0.0000 0.0000 0.0000
# 2 -0.1142 73.0978 -1.6987 0.0000 0.0000 0.0000
# 3 -1.2047 -1.6987 67.8491 0.0000 0.0000 0.0000
# 4 0.0000 0.0000 0.0000 22.5939 0.0000 0.0000
# 5 0.0000 0.0000 0.0000 0.0000 14.0821 0.0000
# 6 0.0000 0.0000 0.0000 0.0000 0.0000 26.0359
#
#
#
# Elastic Compliance Matrix: (Units=1/GPa)
#
#
# Indices 1 2 3 4 5 6 
#
# 1 0.011786 0.000023 0.000210 0.000000 0.000000 0.000000
# 2 0.000023 0.013688 0.000343 0.000000 0.000000 0.000000
# 3 0.000210 0.000343 0.014751 0.000000 0.000000 0.000000
# 4 0.000000 0.000000 0.000000 0.044260 0.000000 0.000000
# 5 0.000000 0.000000 0.000000 0.000000 0.071012 0.000000
# 6 0.000000 0.000000 0.000000 0.000000 0.000000 0.038409
#
#
# Mechanical properties :
#
#
# Convention : Reuss Voigt Hill
#
# Bulk Modulus (GPa) = 24.16781 24.42027 24.29404
# Shear Modulus (GPa) = 24.20777 27.79804 26.00290
#
# Velocity S-wave (km/s) = 3.16163 3.38798 3.27676
# Velocity P-wave (km/s) = 4.82776 5.03867 4.93434
#
# Compressibility (1/GPa) = 0.04137735
#
# Stress axis : x y z
#
# Youngs Moduli (GPa) = 84.84880 73.05506 67.79245
#
# Poissons Ratio (x) = -0.00170 -0.01423
# Poissons Ratio (y) = -0.00198 -0.02326
# Poissons Ratio (z) = -0.01780 -0.02507
#
# Static dielectric constant tensor:
#      x y z
#    x 4.450100 0.000000 0.000000 
#    y 0.000000 4.165050 0.000000 
#    z 0.000000 0.000000 4.271780 
# 
# 
# High freq. dielectric constant tensor:
#      x y z
#    x 1.959010 0.000000 0.000000 
#    y 0.000000 1.965980 0.000000 
#    z 0.000000 0.000000 1.956080 
# 
# From -- ./inp_files/8443.got.cif
#   From: 2010.03.12/outbox.cif.g09.slc.cpg/sg61_5_cif.got.tgz:8443.got - 2010.04.10 19:05:03.
