data_PCOD8249708
_publ_section_title
;
Structure prediction by ZEFSAII (Michael W. Deem and Ramdas Pophale) SiO2 
 PCOD8249708
Probable space group: P B C A
;
_chemical_formula_sum "Si O2"
_cell_formula_units_Z 64
_cell_length_a 11.133921
_cell_length_b 9.353126
_cell_length_c 29.570549
_cell_angle_alpha 90.000000
_cell_angle_beta 90.000000
_cell_angle_gamma 90.000000
_cell_volume 3079.387255
_symmetry_space_group_name_H-M "P B C A"
_symmetry_group_IT_number 61
_symmetry_cell_setting 'orthorhombic'
loop_
_space_group_symop_operation_xyz
x,y,z
1/2-x,-y,1/2+z
1/2+x,1/2-y,-z
-x,1/2+y,1/2-z
-x,-y,-z
1/2+x,y,1/2-z
1/2-x,1/2+y,z
x,1/2-y,1/2+z
loop_
_atom_site_type_symbol
_atom_site_label
_atom_site_fract_x
_atom_site_fract_y
_atom_site_fract_z
Si Si1 0.010959 0.178385 0.652387
Si Si2 0.379209 0.056068 0.557640
Si Si3 0.649440 0.306497 0.178035
Si Si4 0.927863 0.118804 0.316090
Si Si5 0.644342 0.621450 0.214241
Si Si6 0.150768 0.991339 0.954339
Si Si7 0.800969 0.297236 0.090633
Si Si8 0.256031 0.801039 0.610401
O O1 0.145373 0.211293 0.637460
O O2 0.956192 0.306197 0.682391
O O3 0.932648 0.153044 0.606938
O O4 0.006765 0.034619 0.682096
O O5 0.352069 0.068944 0.504671
O O6 0.318962 0.913708 0.577333
O O7 0.522681 0.048850 0.563436
O O8 0.328493 0.196940 0.581415
O O9 0.516077 0.247838 0.171249
O O10 0.646895 0.453339 0.205464
O O11 0.725839 0.189676 0.205483
O O12 0.705208 0.332418 0.129288
O O13 0.881488 0.149715 0.266262
O O14 0.821031 0.115748 0.352349
O O15 0.253203 0.113854 0.952433
O O16 0.195184 0.868987 0.920490
#
# Coordination Sequence:
#
# PCOD8249708 Si02
#       8
#     8   8   8   8   8   8   8   8
#     4  11  24  45  63  97 133 174 219 281 325 400
#     4  11  25  45  65 100 136 169 224 271 340 404
#     4  11  24  43  66  99 129 173 221 280 328 403
#     4  12  26  41  69  93 131 181 224 267 338 399
#     4  11  26  42  67  94 137 168 226 282 326 392
#     4  11  23  42  72  97 130 174 216 280 331 407
#     4  11  21  42  69  93 129 169 219 271 337 389
#     4  12  25  44  67  93 138 176 214 278 336 402
#
# _framework density 20.783356000000001
#
# number of rings (size 3 to 8) (size 9 to 14) (size 15 to 20)
#    0.000    0.750    2.500    6.000    5.250    0.000 
#    0.000    0.625    0.000    0.000    0.000    0.000 
#    0.000    0.000    0.000    0.000    0.000    0.000 
#
# Total GULP energy -793923.901239 kJ/mol
# GULP energy per Si atom -12405.060957 kJ/mol
# Density = 2.073605 g / cm^3
# Si number density = 20.783356 Si / 1000 Ang^3
#
#
#
# Elastic Constant Matrix: (Units=GPa)
#
#
# Indices 1 2 3 4 5 6 
#
# 1 93.7180 33.6009 34.8620 0.0000 0.0000 0.0000
# 2 33.6009 90.6880 20.5985 0.0000 0.0000 0.0000
# 3 34.8620 20.5985 45.6538 0.0000 0.0000 0.0000
# 4 0.0000 0.0000 0.0000 27.2976 0.0000 0.0000
# 5 0.0000 0.0000 0.0000 0.0000 27.2525 0.0000
# 6 0.0000 0.0000 0.0000 0.0000 0.0000 35.9774
#
#
#
# Elastic Compliance Matrix: (Units=1/GPa)
#
#
# Indices 1 2 3 4 5 6 
#
# 1 0.015830 -0.003476 -0.010520 0.000000 0.000000 0.000000
# 2 -0.003476 0.013049 -0.003233 0.000000 0.000000 0.000000
# 3 -0.010520 -0.003233 0.031396 0.000000 0.000000 0.000000
# 4 0.000000 0.000000 0.000000 0.036633 0.000000 0.000000
# 5 0.000000 0.000000 0.000000 0.000000 0.036694 0.000000
# 6 0.000000 0.000000 0.000000 0.000000 0.000000 0.027795
#
#
# Mechanical properties :
#
#
# Convention : Reuss Voigt Hill
#
# Bulk Modulus (GPa) = 38.73421 45.35363 42.04392
# Shear Modulus (GPa) = 24.45468 27.50540 25.98004
#
# Velocity S-wave (km/s) = 3.43395 3.64185 3.53943
# Velocity P-wave (km/s) = 5.86518 6.28916 6.08086
#
# Compressibility (1/GPa) = 0.02581697
#
# Stress axis : x y z
#
# Youngs Moduli (GPa) = 63.17280 76.63399 31.85144
#
# Poissons Ratio (x) = 0.26636 0.33506
# Poissons Ratio (y) = 0.21957 0.10299
# Poissons Ratio (z) = 0.66455 0.24779
#
# Static dielectric constant tensor:
#      x y z
#    x 3.870180 0.000000 0.000000 
#    y 0.000000 3.743000 0.000000 
#    z 0.000000 0.000000 3.739020 
# 
# 
# High freq. dielectric constant tensor:
#      x y z
#    x 1.822750 0.000000 0.000000 
#    y 0.000000 1.823920 0.000000 
#    z 0.000000 0.000000 1.818510 
# 
# From -- ./inp_files/11777.got.cif
#   From: 2010.03.12/outbox.cif.g09.slc.cpg/sg61_6_cif.got.tgz:11777.got - 2010.04.10 19:05:03.
