data_PCOD8249058
_publ_section_title
;
Structure prediction by ZEFSAII (Michael W. Deem and Ramdas Pophale) SiO2 
 PCOD8249058
Probable space group: P B C A
;
_chemical_formula_sum "Si O2"
_cell_formula_units_Z 48
_cell_length_a 14.898979
_cell_length_b 11.867622
_cell_length_c 13.683417
_cell_angle_alpha 90.000000
_cell_angle_beta 90.000000
_cell_angle_gamma 90.000000
_cell_volume 2419.439548
_symmetry_space_group_name_H-M "P B C A"
_symmetry_group_IT_number 61
_symmetry_cell_setting 'orthorhombic'
loop_
_space_group_symop_operation_xyz
x,y,z
1/2-x,-y,1/2+z
1/2+x,1/2-y,-z
-x,1/2+y,1/2-z
-x,-y,-z
1/2+x,y,1/2-z
1/2-x,1/2+y,z
x,1/2-y,1/2+z
loop_
_atom_site_type_symbol
_atom_site_label
_atom_site_fract_x
_atom_site_fract_y
_atom_site_fract_z
Si Si1 0.635201 0.047407 0.457002
Si Si2 0.645875 0.958933 0.667135
Si Si3 0.406105 0.193972 0.622233
Si Si4 0.978948 0.213715 0.074189
Si Si5 0.569262 0.327041 0.260261
Si Si6 0.237205 0.177528 0.200658
O O1 0.547891 0.123919 0.472268
O O2 0.710860 0.116388 0.399862
O O3 0.672528 0.016262 0.564254
O O4 0.608675 0.938543 0.394405
O O5 0.581479 0.852108 0.652639
O O6 0.736171 0.915753 0.719009
O O7 0.596544 0.044762 0.740712
O O8 0.419870 0.257167 0.517438
O O9 0.495236 0.215788 0.684442
O O10 0.319780 0.240909 0.677415
O O11 0.028281 0.316406 0.129762
O O12 0.655729 0.246748 0.251990
#
# Coordination Sequence:
#
# PCOD8249058 Si02
#       6
#     8   8   8   8   8   8
#     4  10  21  40  62  87 120 166 204 237 310 376
#     4  11  20  40  64  84 122 164 200 247 304 361
#     4  11  20  42  63  86 123 162 202 251 305 357
#     4  10  20  39  65  86 116 164 204 244 302 371
#     4  11  22  40  64  91 122 161 207 247 306 361
#     4  11  25  38  59  98 123 153 209 259 292 361
#
# _framework density 19.839306000000001
#
# number of rings (size 3 to 8) (size 9 to 14) (size 15 to 20)
#    0.000    1.333    5.000    2.000    0.000    2.667 
#    6.000    0.833    0.000    0.000    0.000    0.000 
#    0.000    0.000    0.000    0.000    0.000    0.000 
#
# Total GULP energy -595208.868437 kJ/mol
# GULP energy per Si atom -12400.184759 kJ/mol
# Density = 1.979415 g / cm^3
# Si number density = 19.839306 Si / 1000 Ang^3
#
#
#
# Elastic Constant Matrix: (Units=GPa)
#
#
# Indices 1 2 3 4 5 6 
#
# 1 105.3221 36.5665 34.7132 0.0000 0.0000 0.0000
# 2 36.5665 47.2325 42.7706 0.0000 0.0000 0.0000
# 3 34.7132 42.7706 74.4872 0.0000 0.0000 0.0000
# 4 0.0000 0.0000 0.0000 37.6216 0.0000 0.0000
# 5 0.0000 0.0000 0.0000 0.0000 25.4277 0.0000
# 6 0.0000 0.0000 0.0000 0.0000 0.0000 18.2700
#
#
#
# Elastic Compliance Matrix: (Units=1/GPa)
#
#
# Indices 1 2 3 4 5 6 
#
# 1 0.012997 -0.009535 -0.000582 0.000000 0.000000 0.000000
# 2 -0.009535 0.051099 -0.024898 0.000000 0.000000 0.000000
# 3 -0.000582 -0.024898 0.027993 0.000000 0.000000 0.000000
# 4 0.000000 0.000000 0.000000 0.026580 0.000000 0.000000
# 5 0.000000 0.000000 0.000000 0.000000 0.039327 0.000000
# 6 0.000000 0.000000 0.000000 0.000000 0.000000 0.054735
#
#
# Mechanical properties :
#
#
# Convention : Reuss Voigt Hill
#
# Bulk Modulus (GPa) = 45.33174 50.57137 47.95155
# Shear Modulus (GPa) = 17.23467 23.79664 20.51565
#
# Velocity S-wave (km/s) = 2.95059 3.46709 3.21922
# Velocity P-wave (km/s) = 5.87427 6.44775 6.16768
#
# Compressibility (1/GPa) = 0.02205960
#
# Stress axis : x y z
#
# Youngs Moduli (GPa) = 76.94143 19.56980 35.72383
#
# Poissons Ratio (x) = 0.18660 0.02079
# Poissons Ratio (y) = 0.73363 0.88944
# Poissons Ratio (z) = 0.04478 0.48724
#
# Static dielectric constant tensor:
#      x y z
#    x 3.656270 0.000000 0.000000 
#    y 0.000000 3.492650 0.000000 
#    z 0.000000 0.000000 3.678610 
# 
# 
# High freq. dielectric constant tensor:
#      x y z
#    x 1.776800 0.000000 0.000000 
#    y 0.000000 1.757220 0.000000 
#    z 0.000000 0.000000 1.781890 
# 
# From -- ./inp_files/5766.got.cif
#   From: 2010.03.12/outbox.cif.g09.slc.cpg/sg61_3_cif.got.tgz:5766.got - 2010.04.10 19:05:03.
