data_PCOD8249904
_publ_section_title
;
Structure prediction by ZEFSAII (Michael W. Deem and Ramdas Pophale) SiO2 
 PCOD8249904
Probable space group: P B C A
;
_chemical_formula_sum "Si O2"
_cell_formula_units_Z 48
_cell_length_a 13.152374
_cell_length_b 16.995697
_cell_length_c 9.554606
_cell_angle_alpha 90.000000
_cell_angle_beta 90.000000
_cell_angle_gamma 90.000000
_cell_volume 2135.777036
_symmetry_space_group_name_H-M "P B C A"
_symmetry_group_IT_number 61
_symmetry_cell_setting 'orthorhombic'
loop_
_space_group_symop_operation_xyz
x,y,z
1/2-x,-y,1/2+z
1/2+x,1/2-y,-z
-x,1/2+y,1/2-z
-x,-y,-z
1/2+x,y,1/2-z
1/2-x,1/2+y,z
x,1/2-y,1/2+z
loop_
_atom_site_type_symbol
_atom_site_label
_atom_site_fract_x
_atom_site_fract_y
_atom_site_fract_z
Si Si1 0.177611 0.680811 0.371933
Si Si2 0.399570 0.839442 0.956117
Si Si3 0.908264 0.088814 0.370316
Si Si4 0.363128 0.582784 0.738280
Si Si5 0.492893 0.327497 0.094384
Si Si6 0.159531 0.645285 0.838456
O O1 0.285417 0.641564 0.407628
O O2 0.149198 0.658406 0.213131
O O3 0.084283 0.651507 0.469027
O O4 0.202521 0.772413 0.396268
O O5 0.470072 0.898928 0.866358
O O6 0.446157 0.752830 0.934021
O O7 0.405689 0.858167 0.120511
O O8 0.876470 0.091809 0.532616
O O9 0.881038 0.006906 0.300640
O O10 0.421970 0.604163 0.883416
O O11 0.243168 0.595644 0.755461
O O12 0.430506 0.326726 0.238074
#
# Coordination Sequence:
#
# PCOD8249904 Si02
#       6
#     8   8   8   8   8   8
#     4  12  25  45  76 112 141 194 256 304 360 454
#     4  12  25  45  75 105 146 197 243 301 374 438
#     4  12  29  47  75 110 153 194 243 315 382 435
#     4  12  28  46  77 109 153 196 245 315 378 441
#     4  12  24  45  77 107 143 193 255 295 367 454
#     4  12  24  46  74 107 144 196 251 303 364 452
#
# _framework density 22.474257000000001
#
# number of rings (size 3 to 8) (size 9 to 14) (size 15 to 20)
#    0.000    0.000    8.333    0.500    2.333    2.000 
#    0.000    0.000    0.000    0.000    0.000    0.000 
#    0.000    0.000    0.000    0.000    0.000    0.000 
#
# Total GULP energy -595109.334385 kJ/mol
# GULP energy per Si atom -12398.111133 kJ/mol
# Density = 2.242310 g / cm^3
# Si number density = 22.474257 Si / 1000 Ang^3
#
#
#
# Elastic Constant Matrix: (Units=GPa)
#
#
# Indices 1 2 3 4 5 6 
#
# 1 127.5597 24.9932 36.5951 0.0000 0.0000 0.0000
# 2 24.9932 95.5615 28.2043 0.0000 0.0000 0.0000
# 3 36.5951 28.2043 90.0056 0.0000 0.0000 0.0000
# 4 0.0000 0.0000 0.0000 37.7146 0.0000 0.0000
# 5 0.0000 0.0000 0.0000 0.0000 40.7000 0.0000
# 6 0.0000 0.0000 0.0000 0.0000 0.0000 24.2590
#
#
#
# Elastic Compliance Matrix: (Units=1/GPa)
#
#
# Indices 1 2 3 4 5 6 
#
# 1 0.009044 -0.001411 -0.003235 0.000000 0.000000 0.000000
# 2 -0.001411 0.011751 -0.003109 0.000000 0.000000 0.000000
# 3 -0.003235 -0.003109 0.013400 0.000000 0.000000 0.000000
# 4 0.000000 0.000000 0.000000 0.026515 0.000000 0.000000
# 5 0.000000 0.000000 0.000000 0.000000 0.024570 0.000000
# 6 0.000000 0.000000 0.000000 0.000000 0.000000 0.041222
#
#
# Mechanical properties :
#
#
# Convention : Reuss Voigt Hill
#
# Bulk Modulus (GPa) = 53.51623 54.74575 54.13099
# Shear Modulus (GPa) = 33.72930 35.42369 34.57649
#
# Velocity S-wave (km/s) = 3.87822 3.97443 3.92662
# Velocity P-wave (km/s) = 6.62707 6.74342 6.68549
#
# Compressibility (1/GPa) = 0.01868592
#
# Stress axis : x y z
#
# Youngs Moduli (GPa) = 110.57115 85.09981 74.62711
#
# Poissons Ratio (x) = 0.12004 0.24143
# Poissons Ratio (y) = 0.15596 0.23200
# Poissons Ratio (z) = 0.35771 0.26456
#
# Static dielectric constant tensor:
#      x y z
#    x 4.385990 0.000000 0.000000 
#    y 0.000000 3.789680 0.000000 
#    z 0.000000 0.000000 4.121590 
# 
# 
# High freq. dielectric constant tensor:
#      x y z
#    x 1.909270 0.000000 0.000000 
#    y 0.000000 1.870220 0.000000 
#    z 0.000000 0.000000 1.884970 
# 
# From -- ./inp_files/2848.got.cif
#   From: 2010.03.12/outbox.cif.g09.slc.cpg/sg61_2_cif.got.tgz:2848.got - 2010.04.10 19:05:03.
