data_PCOD8249328
_publ_section_title
;
Structure prediction by ZEFSAII (Michael W. Deem and Ramdas Pophale) SiO2 
 PCOD8249328
Probable space group: P B C A
;
_chemical_formula_sum "Si O2"
_cell_formula_units_Z 48
_cell_length_a 11.542842
_cell_length_b 7.714007
_cell_length_c 21.479174
_cell_angle_alpha 90.000000
_cell_angle_beta 90.000000
_cell_angle_gamma 90.000000
_cell_volume 1912.539246
_symmetry_space_group_name_H-M "P B C A"
_symmetry_group_IT_number 61
_symmetry_cell_setting 'orthorhombic'
loop_
_space_group_symop_operation_xyz
x,y,z
1/2-x,-y,1/2+z
1/2+x,1/2-y,-z
-x,1/2+y,1/2-z
-x,-y,-z
1/2+x,y,1/2-z
1/2-x,1/2+y,z
x,1/2-y,1/2+z
loop_
_atom_site_type_symbol
_atom_site_label
_atom_site_fract_x
_atom_site_fract_y
_atom_site_fract_z
Si Si1 0.777931 0.003263 0.959185
Si Si2 0.920301 0.180997 0.414995
Si Si3 0.616823 0.315707 0.845657
Si Si4 0.864201 0.179461 0.160284
Si Si5 0.165500 0.675256 0.705013
Si Si6 0.659467 0.347066 0.089230
O O1 0.638727 0.999952 0.939075
O O2 0.852217 0.881412 0.913907
O O3 0.829849 0.193819 0.951520
O O4 0.799659 0.954288 0.030122
O O5 0.910861 0.203868 0.340554
O O6 0.054828 0.216359 0.431181
O O7 0.489232 0.230861 0.849183
O O8 0.703501 0.166830 0.822191
O O9 0.619591 0.477501 0.795590
O O10 0.826402 0.228171 0.229394
O O11 0.768865 0.239114 0.111531
O O12 0.880505 0.973934 0.145882
#
# Coordination Sequence:
#
# PCOD8249328 Si02
#       6
#     8   8   8   8   8   8
#     4  10  21  42  73  94 136 180 231 277 346 399
#     4  10  22  44  70  98 132 184 232 283 335 409
#     4  10  23  44  70  98 129 184 226 283 331 405
#     4  12  26  43  67 104 141 181 225 287 346 401
#     4  10  22  43  70  94 132 176 235 270 344 395
#     4  12  25  44  66 105 142 181 224 287 347 403
#
# _framework density 25.097525999999998
#
# number of rings (size 3 to 8) (size 9 to 14) (size 15 to 20)
#    0.000    1.333    3.333    2.500    4.667    1.333 
#   12.000    1.667    0.000    0.000    0.000    0.000 
#    0.000    0.000    0.000    0.000    0.000    0.000 
#
# Total GULP energy -594816.047849 kJ/mol
# GULP energy per Si atom -12392.000997 kJ/mol
# Density = 2.504040 g / cm^3
# Si number density = 25.097526 Si / 1000 Ang^3
#
#
#
# Elastic Constant Matrix: (Units=GPa)
#
#
# Indices 1 2 3 4 5 6 
#
# 1 154.1040 12.2193 14.9677 0.0000 0.0000 0.0000
# 2 12.2193 27.6570 17.2554 0.0000 0.0000 0.0000
# 3 14.9677 17.2554 115.0356 0.0000 0.0000 0.0000
# 4 0.0000 0.0000 0.0000 16.5391 0.0000 0.0000
# 5 0.0000 0.0000 0.0000 0.0000 21.7565 0.0000
# 6 0.0000 0.0000 0.0000 0.0000 0.0000 25.5191
#
#
#
# Elastic Compliance Matrix: (Units=1/GPa)
#
#
# Indices 1 2 3 4 5 6 
#
# 1 0.006748 -0.002685 -0.000475 0.000000 0.000000 0.000000
# 2 -0.002685 0.040959 -0.005795 0.000000 0.000000 0.000000
# 3 -0.000475 -0.005795 0.009624 0.000000 0.000000 0.000000
# 4 0.000000 0.000000 0.000000 0.060463 0.000000 0.000000
# 5 0.000000 0.000000 0.000000 0.000000 0.045963 0.000000
# 6 0.000000 0.000000 0.000000 0.000000 0.000000 0.039186
#
#
# Mechanical properties :
#
#
# Convention : Reuss Voigt Hill
#
# Bulk Modulus (GPa) = 25.36688 42.85349 34.11018
# Shear Modulus (GPa) = 21.36815 29.58656 25.47736
#
# Velocity S-wave (km/s) = 2.92105 3.43718 3.18957
# Velocity P-wave (km/s) = 4.63745 5.73273 5.21393
#
# Compressibility (1/GPa) = 0.03942149
#
# Stress axis : x y z
#
# Youngs Moduli (GPa) = 148.18806 24.41482 103.90709
#
# Poissons Ratio (x) = 0.06555 0.04939
# Poissons Ratio (y) = 0.39787 0.60209
# Poissons Ratio (z) = 0.07043 0.14147
#
# Static dielectric constant tensor:
#      x y z
#    x 4.665740 0.000000 0.000000 
#    y 0.000000 4.881170 0.000000 
#    z 0.000000 0.000000 4.399100 
# 
# 
# High freq. dielectric constant tensor:
#      x y z
#    x 2.005030 0.000000 0.000000 
#    y 0.000000 1.987950 0.000000 
#    z 0.000000 0.000000 1.999200 
# 
# From -- ./inp_files/10969.got.cif
#   From: 2010.03.12/outbox.cif.g09.slc.cpg/sg61_6_cif.got.tgz:10969.got - 2010.04.10 19:05:03.
