data_PCOD8249856
_publ_section_title
;
Structure prediction by ZEFSAII (Michael W. Deem and Ramdas Pophale) SiO2 
 PCOD8249856
Probable space group: P B C A
;
_chemical_formula_sum "Si O2"
_cell_formula_units_Z 40
_cell_length_a 5.144319
_cell_length_b 13.685581
_cell_length_c 22.130996
_cell_angle_alpha 90.000000
_cell_angle_beta 90.000000
_cell_angle_gamma 90.000000
_cell_volume 1558.088387
_symmetry_space_group_name_H-M "P B C A"
_symmetry_group_IT_number 61
_symmetry_cell_setting 'orthorhombic'
loop_
_space_group_symop_operation_xyz
x,y,z
1/2-x,-y,1/2+z
1/2+x,1/2-y,-z
-x,1/2+y,1/2-z
-x,-y,-z
1/2+x,y,1/2-z
1/2-x,1/2+y,z
x,1/2-y,1/2+z
loop_
_atom_site_type_symbol
_atom_site_label
_atom_site_fract_x
_atom_site_fract_y
_atom_site_fract_z
Si Si1 0.502021 0.059074 0.081828
Si Si2 0.861345 0.662148 0.783142
Si Si3 0.505733 0.352290 0.975595
Si Si4 0.891785 0.070163 0.283315
Si Si5 0.345515 0.842430 0.080538
O O1 0.788064 0.091282 0.062914
O O2 0.435814 0.102081 0.147672
O O3 0.286126 0.098783 0.035020
O O4 0.507966 0.942115 0.081491
O O5 0.130948 0.705900 0.758194
O O6 0.877113 0.545977 0.778203
O O7 0.800267 0.695222 0.851510
O O8 0.494223 0.238699 0.956617
O O9 0.432205 0.358672 0.046803
O O10 0.620346 0.113610 0.259111
#
# Coordination Sequence:
#
# PCOD8249856 Si02
#       5
#     8   8   8   8   8
#     4  11  25  44  69 100 137 181 228 278 339 404
#     4   9  20  38  65  95 126 173 221 267 335 396
#     4  12  26  44  69 104 135 179 231 271 342 408
#     4   9  17  35  62  92 129 174 221 274 332 390
#     4  11  26  47  71  99 142 177 222 288 332 398
#
# _framework density 25.672485999999999
#
# number of rings (size 3 to 8) (size 9 to 14) (size 15 to 20)
#    0.000    1.600    0.000    3.600    0.000   12.800 
#    0.000    6.000    0.000    0.000    0.000    0.000 
#    0.000    0.000    0.000    0.000    0.000    0.000 
#
# Total GULP energy -496150.690976 kJ/mol
# GULP energy per Si atom -12403.767274 kJ/mol
# Density = 2.561405 g / cm^3
# Si number density = 25.672486 Si / 1000 Ang^3
#
#
#
# Elastic Constant Matrix: (Units=GPa)
#
#
# Indices 1 2 3 4 5 6 
#
# 1 88.2521 0.5754 9.7678 0.0000 0.0000 0.0000
# 2 0.5754 73.8730 -14.9458 0.0000 0.0000 0.0000
# 3 9.7678 -14.9458 165.6083 0.0000 0.0000 0.0000
# 4 0.0000 0.0000 0.0000 -1.8082 0.0000 0.0000
# 5 0.0000 0.0000 0.0000 0.0000 30.9855 0.0000
# 6 0.0000 0.0000 0.0000 0.0000 0.0000 37.9790
#
#
#
# Elastic Compliance Matrix: (Units=1/GPa)
#
#
# Indices 1 2 3 4 5 6 
#
# 1 0.011409 -0.000229 -0.000694 0.000000 0.000000 0.000000
# 2 -0.000229 0.013793 0.001258 0.000000 0.000000 0.000000
# 3 -0.000694 0.001258 0.006193 0.000000 0.000000 0.000000
# 4 0.000000 0.000000 0.000000 -0.553038 0.000000 0.000000
# 5 0.000000 0.000000 0.000000 0.000000 0.032273 0.000000
# 6 0.000000 0.000000 0.000000 0.000000 0.000000 0.026330
#
#
# Mechanical properties :
#
#
# Convention : Reuss Voigt Hill
#
# Bulk Modulus (GPa) = 31.18534 35.39202 33.28868
# Shear Modulus (GPa) = -11.03701 35.58700 12.27499
#
# Velocity S-wave (km/s) = -2.07569 3.72720 2.18901
# Velocity P-wave (km/s) = 2.53557 5.68670 4.40271
#
# Compressibility (1/GPa) = 0.03206635
#
# Stress axis : x y z
#
# Youngs Moduli (GPa) = 87.64668 72.49992 161.47743
#
# Poissons Ratio (x) = 0.01662 0.11201
# Poissons Ratio (y) = 0.02009 -0.20319
# Poissons Ratio (z) = 0.06079 -0.09123
#
# Static dielectric constant tensor:
#      x y z
#    x 4.573500 0.000000 0.000000 
#    y 0.000000 4.606850 0.000000 
#    z 0.000000 0.000000 4.901070 
# 
# 
# High freq. dielectric constant tensor:
#      x y z
#    x 2.025140 0.000000 0.000000 
#    y 0.000000 2.037510 0.000000 
#    z 0.000000 0.000000 2.033100 
# 
# From -- ./inp_files/10714.got.cif
#   From: 2010.03.12/outbox.cif.g09.slc.cpg/sg61_6_cif.got.tgz:10714.got - 2010.04.10 19:05:03.
