data_PCOD8249630
_publ_section_title
;
Structure prediction by ZEFSAII (Michael W. Deem and Ramdas Pophale) SiO2 
 PCOD8249630
Probable space group: P B C A
;
_chemical_formula_sum "Si O2"
_cell_formula_units_Z 64
_cell_length_a 31.828615
_cell_length_b 11.127762
_cell_length_c 7.539872
_cell_angle_alpha 90.000000
_cell_angle_beta 90.000000
_cell_angle_gamma 90.000000
_cell_volume 2670.481309
_symmetry_space_group_name_H-M "P B C A"
_symmetry_group_IT_number 61
_symmetry_cell_setting 'orthorhombic'
loop_
_space_group_symop_operation_xyz
x,y,z
1/2-x,-y,1/2+z
1/2+x,1/2-y,-z
-x,1/2+y,1/2-z
-x,-y,-z
1/2+x,y,1/2-z
1/2-x,1/2+y,z
x,1/2-y,1/2+z
loop_
_atom_site_type_symbol
_atom_site_label
_atom_site_fract_x
_atom_site_fract_y
_atom_site_fract_z
Si Si1 0.528827 0.435116 0.789047
Si Si2 0.781503 0.123788 0.048492
Si Si3 0.116865 0.382563 0.285431
Si Si4 0.300108 0.955168 0.123645
Si Si5 0.435797 0.091501 0.251356
Si Si6 0.065179 0.266150 0.000591
Si Si7 0.579874 0.852590 0.151025
Si Si8 0.676904 0.635952 0.685336
O O1 0.480215 0.474183 0.788807
O O2 0.539173 0.355394 0.960958
O O3 0.537555 0.348769 0.623914
O O4 0.557880 0.554181 0.786687
O O5 0.810770 0.087224 0.881036
O O6 0.734690 0.130810 0.965070
O O7 0.782092 0.024585 0.203942
O O8 0.794719 0.249163 0.135815
O O9 0.162144 0.372562 0.195263
O O10 0.103820 0.519433 0.340651
O O11 0.076511 0.350070 0.163840
O O12 0.111832 0.280997 0.436185
O O13 0.317435 0.041126 0.970959
O O14 0.441128 0.222758 0.335533
O O15 0.425598 0.096656 0.044013
O O16 0.628295 0.832098 0.201269
#
# Coordination Sequence:
#
# PCOD8249630 Si02
#       8
#     8   8   8   8   8   8   8   8
#     4  11  24  43  67 100 143 189 247 297 363 431
#     4  12  26  44  76 105 145 188 233 306 367 450
#     4  11  25  47  69  99 140 184 239 295 365 446
#     4  12  25  47  71 109 141 186 240 303 369 444
#     4  12  25  41  69 102 140 188 243 303 360 430
#     4  10  24  45  67  97 140 192 234 300 358 436
#     4  12  26  44  70 103 141 192 238 308 367 430
#     4  12  24  47  72 107 149 186 247 301 373 447
#
# _framework density 23.965720000000001
#
# number of rings (size 3 to 8) (size 9 to 14) (size 15 to 20)
#    0.000    0.500    5.000    2.625    7.000    1.500 
#    0.000    0.000    0.000    0.000    0.000    0.000 
#    0.000    0.000    0.000    0.000    0.000    0.000 
#
# Total GULP energy -793354.705216 kJ/mol
# GULP energy per Si atom -12396.167269 kJ/mol
# Density = 2.391117 g / cm^3
# Si number density = 23.965720 Si / 1000 Ang^3
#
#
#
# Elastic Constant Matrix: (Units=GPa)
#
#
# Indices 1 2 3 4 5 6 
#
# 1 130.6182 30.4905 1.5898 0.0000 0.0000 0.0000
# 2 30.4905 71.5542 5.0817 0.0000 0.0000 0.0000
# 3 1.5898 5.0817 61.6708 0.0000 0.0000 0.0000
# 4 0.0000 0.0000 0.0000 35.7046 0.0000 0.0000
# 5 0.0000 0.0000 0.0000 0.0000 34.9307 0.0000
# 6 0.0000 0.0000 0.0000 0.0000 0.0000 38.4914
#
#
#
# Elastic Compliance Matrix: (Units=1/GPa)
#
#
# Indices 1 2 3 4 5 6 
#
# 1 0.008502 -0.003628 0.000080 0.000000 0.000000 0.000000
# 2 -0.003628 0.015606 -0.001192 0.000000 0.000000 0.000000
# 3 0.000080 -0.001192 0.016311 0.000000 0.000000 0.000000
# 4 0.000000 0.000000 0.000000 0.028008 0.000000 0.000000
# 5 0.000000 0.000000 0.000000 0.000000 0.028628 0.000000
# 6 0.000000 0.000000 0.000000 0.000000 0.000000 0.025980
#
#
# Mechanical properties :
#
#
# Convention : Reuss Voigt Hill
#
# Bulk Modulus (GPa) = 32.32342 37.57415 34.94878
# Shear Modulus (GPa) = 35.00672 36.93741 35.97206
#
# Velocity S-wave (km/s) = 3.82606 3.93015 3.87845
# Velocity P-wave (km/s) = 5.74760 6.02554 5.88821
#
# Compressibility (1/GPa) = 0.03093732
#
# Stress axis : x y z
#
# Youngs Moduli (GPa) = 117.62025 64.07685 61.30708
#
# Poissons Ratio (x) = 0.23250 -0.00489
# Poissons Ratio (y) = 0.42678 0.07310
# Poissons Ratio (z) = -0.00939 0.07641
#
# Static dielectric constant tensor:
#      x y z
#    x 4.244800 0.000000 0.000000 
#    y 0.000000 4.394080 0.000000 
#    z 0.000000 0.000000 4.676810 
# 
# 
# High freq. dielectric constant tensor:
#      x y z
#    x 1.949630 0.000000 0.000000 
#    y 0.000000 1.951010 0.000000 
#    z 0.000000 0.000000 1.965390 
# 
# From -- ./inp_files/4651.got.cif
#   From: 2010.03.12/outbox.cif.g09.slc.cpg/sg61_3_cif.got.tgz:4651.got - 2010.04.10 19:05:03.
