data_PCOD8249723
_publ_section_title
;
Structure prediction by ZEFSAII (Michael W. Deem and Ramdas Pophale) SiO2 
 PCOD8249723
Probable space group: P B C A
;
_chemical_formula_sum "Si O2"
_cell_formula_units_Z 48
_cell_length_a 17.783372
_cell_length_b 13.693888
_cell_length_c 9.524481
_cell_angle_alpha 90.000000
_cell_angle_beta 90.000000
_cell_angle_gamma 90.000000
_cell_volume 2319.434991
_symmetry_space_group_name_H-M "P B C A"
_symmetry_group_IT_number 61
_symmetry_cell_setting 'orthorhombic'
loop_
_space_group_symop_operation_xyz
x,y,z
1/2-x,-y,1/2+z
1/2+x,1/2-y,-z
-x,1/2+y,1/2-z
-x,-y,-z
1/2+x,y,1/2-z
1/2-x,1/2+y,z
x,1/2-y,1/2+z
loop_
_atom_site_type_symbol
_atom_site_label
_atom_site_fract_x
_atom_site_fract_y
_atom_site_fract_z
Si Si1 0.320699 0.465285 0.343775
Si Si2 0.322907 0.536074 0.657796
Si Si3 0.801147 0.246320 0.097309
Si Si4 0.586466 0.927452 0.628478
Si Si5 0.412349 0.569693 0.126336
Si Si6 0.197528 0.256816 0.658566
O O1 0.307714 0.507275 0.498116
O O2 0.249595 0.493938 0.248446
O O3 0.332396 0.349325 0.347109
O O4 0.393355 0.513844 0.271223
O O5 0.392749 0.476023 0.721930
O O6 0.340812 0.650760 0.667597
O O7 0.869827 0.172277 0.101367
O O8 0.730090 0.210586 0.190428
O O9 0.770780 0.256016 0.940131
O O10 0.499119 0.900891 0.629267
O O11 0.607857 0.002339 0.505576
O O12 0.365228 0.668471 0.106649
#
# Coordination Sequence:
#
# PCOD8249723 Si02
#       6
#     8   8   8   8   8   8
#     4  11  22  39  64  90 119 155 201 250 299 360
#     4  11  22  39  64  90 119 155 201 250 299 360
#     4  11  22  38  63  90 116 155 204 250 298 358
#     4  11  24  41  60  86 123 162 199 248 309 365
#     4  11  24  41  60  86 123 162 199 248 309 365
#     4  11  22  38  63  90 116 155 204 250 298 358
#
# _framework density 20.694694999999999
#
# number of rings (size 3 to 8) (size 9 to 14) (size 15 to 20)
#    0.000    1.000    0.000   10.000    0.000    2.000 
#    0.000    8.333    0.000    0.000    0.000    0.000 
#    0.000    0.000    0.000    0.000    0.000    0.000 
#
# Total GULP energy -595567.412959 kJ/mol
# GULP energy per Si atom -12407.654437 kJ/mol
# Density = 2.064759 g / cm^3
# Si number density = 20.694695 Si / 1000 Ang^3
#
#
#
# Elastic Constant Matrix: (Units=GPa)
#
#
# Indices 1 2 3 4 5 6 
#
# 1 99.2132 71.1121 41.7125 0.0000 0.0000 0.0000
# 2 71.1121 116.1644 35.0033 0.0000 0.0000 0.0000
# 3 41.7125 35.0033 130.4414 0.0000 0.0000 0.0000
# 4 0.0000 0.0000 0.0000 34.4717 0.0000 0.0000
# 5 0.0000 0.0000 0.0000 0.0000 21.3595 0.0000
# 6 0.0000 0.0000 0.0000 0.0000 0.0000 33.9615
#
#
#
# Elastic Compliance Matrix: (Units=1/GPa)
#
#
# Indices 1 2 3 4 5 6 
#
# 1 0.019139 -0.010741 -0.003238 0.000000 0.000000 0.000000
# 2 -0.010741 0.015393 -0.000696 0.000000 0.000000 0.000000
# 3 -0.003238 -0.000696 0.008889 0.000000 0.000000 0.000000
# 4 0.000000 0.000000 0.000000 0.029009 0.000000 0.000000
# 5 0.000000 0.000000 0.000000 0.000000 0.046818 0.000000
# 6 0.000000 0.000000 0.000000 0.000000 0.000000 0.029445
#
#
# Mechanical properties :
#
#
# Convention : Reuss Voigt Hill
#
# Bulk Modulus (GPa) = 71.06644 71.27500 71.17072
# Shear Modulus (GPa) = 27.36229 31.15795 29.26012
#
# Velocity S-wave (km/s) = 3.64014 3.88442 3.76426
# Velocity P-wave (km/s) = 7.21681 7.39150 7.30468
#
# Compressibility (1/GPa) = 0.01407134
#
# Stress axis : x y z
#
# Youngs Moduli (GPa) = 52.24877 64.96322 112.50426
#
# Poissons Ratio (x) = 0.69775 0.36430
# Poissons Ratio (y) = 0.56119 0.07831
# Poissons Ratio (z) = 0.16919 0.04522
#
# Static dielectric constant tensor:
#      x y z
#    x 3.515260 0.000000 0.000000 
#    y 0.000000 3.910840 0.000000 
#    z 0.000000 0.000000 3.963290 
# 
# 
# High freq. dielectric constant tensor:
#      x y z
#    x 1.787080 0.000000 0.000000 
#    y 0.000000 1.829780 0.000000 
#    z 0.000000 0.000000 1.825330 
# 
# From -- ./inp_files/3468.got.cif
#   From: 2010.03.12/outbox.cif.g09.slc.cpg/sg61_2_cif.got.tgz:3468.got - 2010.04.10 19:05:03.
