data_PCOD8249430
_publ_section_title
;
Structure prediction by ZEFSAII (Michael W. Deem and Ramdas Pophale) SiO2 
 PCOD8249430
Probable space group: P B C A
;
_chemical_formula_sum "Si O2"
_cell_formula_units_Z 64
_cell_length_a 13.533253
_cell_length_b 16.957183
_cell_length_c 13.164101
_cell_angle_alpha 90.000000
_cell_angle_beta 90.000000
_cell_angle_gamma 90.000000
_cell_volume 3020.974877
_symmetry_space_group_name_H-M "P B C A"
_symmetry_group_IT_number 61
_symmetry_cell_setting 'orthorhombic'
loop_
_space_group_symop_operation_xyz
x,y,z
1/2-x,-y,1/2+z
1/2+x,1/2-y,-z
-x,1/2+y,1/2-z
-x,-y,-z
1/2+x,y,1/2-z
1/2-x,1/2+y,z
x,1/2-y,1/2+z
loop_
_atom_site_type_symbol
_atom_site_label
_atom_site_fract_x
_atom_site_fract_y
_atom_site_fract_z
Si Si1 0.365800 0.982160 0.774960
Si Si2 0.564290 0.290679 0.358369
Si Si3 0.912046 0.194991 0.472879
Si Si4 0.215042 0.257721 0.471052
Si Si5 0.699656 0.543883 0.382792
Si Si6 0.921195 0.685414 0.178258
Si Si7 0.219564 0.059495 0.919298
Si Si8 0.566427 0.445877 0.243413
O O1 0.284936 0.942281 0.700708
O O2 0.418116 0.909259 0.832825
O O3 0.314375 0.046459 0.847162
O O4 0.453301 0.031200 0.721579
O O5 0.467288 0.319303 0.419510
O O6 0.652509 0.278420 0.436928
O O7 0.555716 0.209169 0.294763
O O8 0.584153 0.354506 0.269989
O O9 0.829229 0.261088 0.499307
O O10 0.853776 0.121518 0.425236
O O11 0.991905 0.223636 0.390838
O O12 0.183718 0.216959 0.364961
O O13 0.203384 0.351007 0.454597
O O14 0.758062 0.506725 0.480031
O O15 0.612574 0.489694 0.340985
O O16 0.122225 0.030730 0.860415
#
# Coordination Sequence:
#
# PCOD8249430 Si02
#       8
#     8   8   8   8   8   8   8   8
#     4  11  24  41  70  97 132 174 226 280 334 407
#     4  11  24  40  68  95 134 180 219 281 341 405
#     4  10  22  41  66  94 124 180 221 272 333 406
#     4  10  22  43  61  96 135 168 223 273 337 394
#     4  10  22  41  63  94 133 169 226 270 333 394
#     4  11  22  42  65  97 130 173 219 280 339 401
#     4  10  22  42  66  95 131 181 217 279 336 401
#     4  11  22  42  64 100 132 175 225 274 335 410
#
# _framework density 21.185214999999999
#
# number of rings (size 3 to 8) (size 9 to 14) (size 15 to 20)
#    0.000    1.500    2.500    3.000    3.500    3.500 
#    4.500    0.000    0.000    0.000    0.000    0.000 
#    0.000    0.000    0.000    0.000    0.000    0.000 
#
# Total GULP energy -792942.569442 kJ/mol
# GULP energy per Si atom -12389.727648 kJ/mol
# Density = 2.113700 g / cm^3
# Si number density = 21.185215 Si / 1000 Ang^3
#
#
#
# Elastic Constant Matrix: (Units=GPa)
#
#
# Indices 1 2 3 4 5 6 
#
# 1 123.2802 22.7478 30.3655 0.0000 0.0000 0.0000
# 2 22.7478 55.1220 2.3542 0.0000 0.0000 0.0000
# 3 30.3655 2.3542 84.3277 0.0000 0.0000 0.0000
# 4 0.0000 0.0000 0.0000 25.1454 0.0000 0.0000
# 5 0.0000 0.0000 0.0000 0.0000 35.3636 0.0000
# 6 0.0000 0.0000 0.0000 0.0000 0.0000 27.9017
#
#
#
# Elastic Compliance Matrix: (Units=1/GPa)
#
#
# Indices 1 2 3 4 5 6 
#
# 1 0.009649 -0.003838 -0.003367 0.000000 0.000000 0.000000
# 2 -0.003838 0.019690 0.000832 0.000000 0.000000 0.000000
# 3 -0.003367 0.000832 0.013048 0.000000 0.000000 0.000000
# 4 0.000000 0.000000 0.000000 0.039769 0.000000 0.000000
# 5 0.000000 0.000000 0.000000 0.000000 0.028278 0.000000
# 6 0.000000 0.000000 0.000000 0.000000 0.000000 0.035840
#
#
# Mechanical properties :
#
#
# Convention : Reuss Voigt Hill
#
# Bulk Modulus (GPa) = 33.73757 41.51832 37.62795
# Shear Modulus (GPa) = 29.60325 31.49963 30.55144
#
# Velocity S-wave (km/s) = 3.74218 3.86018 3.80163
# Velocity P-wave (km/s) = 5.88485 6.28556 6.08850
#
# Compressibility (1/GPa) = 0.02964054
#
# Stress axis : x y z
#
# Youngs Moduli (GPa) = 103.63459 50.78722 76.64108
#
# Poissons Ratio (x) = 0.19493 0.25808
# Poissons Ratio (y) = 0.39778 -0.06380
# Poissons Ratio (z) = 0.34898 -0.04228
#
# Static dielectric constant tensor:
#      x y z
#    x 4.239470 0.000000 0.000000 
#    y 0.000000 3.547320 0.000000 
#    z 0.000000 0.000000 4.108950 
# 
# 
# High freq. dielectric constant tensor:
#      x y z
#    x 1.843140 0.000000 0.000000 
#    y 0.000000 1.804580 0.000000 
#    z 0.000000 0.000000 1.838270 
# 
# From -- ./inp_files/7627.got.cif
#   From: 2010.03.12/outbox.cif.g09.slc.cpg/sg61_4_cif.got.tgz:7627.got - 2010.04.10 19:05:03.
