data_PCOD8249928
_publ_section_title
;
Structure prediction by ZEFSAII (Michael W. Deem and Ramdas Pophale) SiO2 
 PCOD8249928
Probable space group: P B C A
;
_chemical_formula_sum "Si O2"
_cell_formula_units_Z 32
_cell_length_a 9.528676
_cell_length_b 13.179429
_cell_length_c 10.918429
_cell_angle_alpha 90.000000
_cell_angle_beta 90.000000
_cell_angle_gamma 90.000000
_cell_volume 1371.163706
_symmetry_space_group_name_H-M "P B C A"
_symmetry_group_IT_number 61
_symmetry_cell_setting 'orthorhombic'
loop_
_space_group_symop_operation_xyz
x,y,z
1/2-x,-y,1/2+z
1/2+x,1/2-y,-z
-x,1/2+y,1/2-z
-x,-y,-z
1/2+x,y,1/2-z
1/2-x,1/2+y,z
x,1/2-y,1/2+z
loop_
_atom_site_type_symbol
_atom_site_label
_atom_site_fract_x
_atom_site_fract_y
_atom_site_fract_z
Si Si1 0.887833 0.084622 0.475288
Si Si2 0.892426 0.490984 0.384674
Si Si3 0.334225 0.309010 0.285452
Si Si4 0.059633 0.174695 0.274145
O O1 0.760300 0.036522 0.403181
O O2 0.809682 0.120857 0.598075
O O3 0.970003 0.173826 0.401599
O O4 0.000000 0.000000 0.500000
O O5 0.865015 0.376008 0.337432
O O6 0.950487 0.559317 0.273511
O O7 0.000000 0.500000 0.500000
O O8 0.212601 0.224490 0.278302
O O9 0.475403 0.247906 0.316958
#
# Coordination Sequence:
#
# PCOD8249928 Si02
#       4
#     8   8   8   8
#     4  12  27  48  79 109 154 200 254 316 381 458
#     4  12  29  51  79 112 154 199 256 322 382 458
#     4  12  28  49  77 110 154 201 253 312 388 452
#     4  12  28  49  75 117 152 200 256 312 381 463
#
# _framework density 23.33784
#
# number of rings (size 3 to 8) (size 9 to 14) (size 15 to 20)
#    0.000    0.000    5.000    3.000   14.000    0.000 
#    0.000    0.000    0.000    0.000    0.000    0.000 
#    0.000    0.000    0.000    0.000    0.000    0.000 
#
# Total GULP energy -396477.643600 kJ/mol
# GULP energy per Si atom -12389.926362 kJ/mol
# Density = 2.328472 g / cm^3
# Si number density = 23.337840 Si / 1000 Ang^3
#
#
#
# Elastic Constant Matrix: (Units=GPa)
#
#
# Indices 1 2 3 4 5 6 
#
# 1 102.8887 37.1925 38.5706 0.0000 0.0000 0.0000
# 2 37.1925 111.0604 34.9196 0.0000 0.0000 0.0000
# 3 38.5706 34.9196 99.4575 0.0000 0.0000 0.0000
# 4 0.0000 0.0000 0.0000 39.1531 0.0000 0.0000
# 5 0.0000 0.0000 0.0000 0.0000 36.1076 0.0000
# 6 0.0000 0.0000 0.0000 0.0000 0.0000 48.1390
#
#
#
# Elastic Compliance Matrix: (Units=1/GPa)
#
#
# Indices 1 2 3 4 5 6 
#
# 1 0.012155 -0.002910 -0.003692 0.000000 0.000000 0.000000
# 2 -0.002910 0.010818 -0.002670 0.000000 0.000000 0.000000
# 3 -0.003692 -0.002670 0.012424 0.000000 0.000000 0.000000
# 4 0.000000 0.000000 0.000000 0.025541 0.000000 0.000000
# 5 0.000000 0.000000 0.000000 0.000000 0.027695 0.000000
# 6 0.000000 0.000000 0.000000 0.000000 0.000000 0.020773
#
#
# Mechanical properties :
#
#
# Convention : Reuss Voigt Hill
#
# Bulk Modulus (GPa) = 59.33512 59.41912 59.37712
# Shear Modulus (GPa) = 37.43430 38.19484 37.81457
#
# Velocity S-wave (km/s) = 4.00936 4.04989 4.02968
# Velocity P-wave (km/s) = 6.84930 6.88364 6.86649
#
# Compressibility (1/GPa) = 0.01685342
#
# Stress axis : x y z
#
# Youngs Moduli (GPa) = 82.26933 92.43899 80.49039
#
# Poissons Ratio (x) = 0.26897 0.29720
# Poissons Ratio (y) = 0.23938 0.21489
# Poissons Ratio (z) = 0.30377 0.24679
#
# Static dielectric constant tensor:
#      x y z
#    x 4.178220 0.000000 0.000000 
#    y 0.000000 4.377840 0.000000 
#    z 0.000000 0.000000 4.608130 
# 
# 
# High freq. dielectric constant tensor:
#      x y z
#    x 1.944380 0.000000 0.000000 
#    y 0.000000 1.938080 0.000000 
#    z 0.000000 0.000000 1.920780 
# 
# From -- ./inp_files/2496.got.cif
#   From: 2010.03.12/outbox.cif.g09.slc.cpg/sg61_2_cif.got.tgz:2496.got - 2010.04.10 19:05:03.
