data_PCOD8249954
_publ_section_title
;
Structure prediction by ZEFSAII (Michael W. Deem and Ramdas Pophale) SiO2 
 PCOD8249954
Probable space group: P N M A
;
_chemical_formula_sum "Si O2"
_cell_formula_units_Z 64
_cell_length_a 19.370842
_cell_length_b 8.950739
_cell_length_c 23.390720
_cell_angle_alpha 90.000000
_cell_angle_beta 90.000000
_cell_angle_gamma 90.000000
_cell_volume 4055.561415
_symmetry_space_group_name_H-M "P N M A"
_symmetry_group_IT_number 62
_symmetry_cell_setting 'orthorhombic'
loop_
_space_group_symop_operation_xyz
x,y,z
1/2-x,-y,1/2+z
1/2+x,1/2-y,1/2-z
-x,1/2+y,-z
-x,-y,-z
1/2+x,y,1/2-z
1/2-x,1/2+y,1/2+z
x,1/2-y,z
loop_
_atom_site_type_symbol
_atom_site_label
_atom_site_fract_x
_atom_site_fract_y
_atom_site_fract_z
Si Si1 0.785681 0.927507 0.668691
Si Si2 0.635739 0.073886 0.278546
Si Si3 0.995435 0.927457 0.380160
Si Si4 0.491175 0.072903 0.242393
Si Si5 0.625379 0.072865 0.064696
Si Si6 0.341602 0.073202 0.265442
Si Si7 0.738208 0.926149 0.847132
Si Si8 0.647678 0.425307 0.935855
O O1 0.785912 0.750000 0.669342
O O2 0.835770 0.990537 0.718434
O O3 0.814032 0.983438 0.607675
O O4 0.707502 0.985891 0.682736
O O5 0.644688 0.250000 0.275555
O O6 0.554957 0.029606 0.284577
O O7 0.683423 0.018936 0.331546
O O8 0.001140 0.750000 0.377696
O O9 0.922675 0.980840 0.406275
O O10 0.003829 0.994241 0.317548
O O11 0.054294 0.991025 0.421261
O O12 0.488886 0.250000 0.231190
O O13 0.420267 0.014290 0.271629
O O14 0.612959 0.250000 0.069429
O O15 0.648695 0.024372 0.001699
O O16 0.341378 0.250000 0.266985
O O17 0.311570 0.020657 0.204464
O O18 0.734664 0.750000 0.855989
O O19 0.713987 0.002269 0.905487
O O20 0.655209 0.250000 0.930117
#
# Coordination Sequence:
#
# PCOD8249954 Si02
#       8
#     8   8   8   8   8   8   8   8
#     4   8  13  24  42  64  84 102 136 184 215 238
#     4   8  14  24  43  67  85 104 138 178 209 248
#     4  11  21  30  39  60  93 116 142 180 207 242
#     4  10  16  27  47  66  85 114 144 168 209 264
#     4  10  19  32  48  60  80 119 155 178 209 249
#     4   8  14  23  42  68  85 102 137 179 215 251
#     4   9  16  28  45  64  84 109 142 178 214 248
#     4  10  21  32  42  61  87 117 150 179 209 251
#
# _framework density 15.780798000000001
#
# number of rings (size 3 to 8) (size 9 to 14) (size 15 to 20)
#    0.000    2.750    2.500    2.250    0.000    1.000 
#    0.000    0.625    0.000    0.750    0.000    0.875 
#    0.000    0.000    0.000    0.000    0.000    0.000 
#
# Total GULP energy -793031.092007 kJ/mol
# GULP energy per Si atom -12391.110813 kJ/mol
# Density = 1.574488 g / cm^3
# Si number density = 15.780798 Si / 1000 Ang^3
#
#
#
# Elastic Constant Matrix: (Units=GPa)
#
#
# Indices 1 2 3 4 5 6 
#
# 1 114.1785 13.9502 43.6270 0.0000 0.0000 0.0000
# 2 13.9502 17.7490 13.9880 0.0000 0.0000 0.0000
# 3 43.6270 13.9880 69.6460 0.0000 0.0000 0.0000
# 4 0.0000 0.0000 0.0000 16.8997 0.0000 0.0000
# 5 0.0000 0.0000 0.0000 0.0000 25.3741 0.0000
# 6 0.0000 0.0000 0.0000 0.0000 0.0000 12.1562
#
#
#
# Elastic Compliance Matrix: (Units=1/GPa)
#
#
# Indices 1 2 3 4 5 6 
#
# 1 0.011758 -0.004083 -0.006545 0.000000 0.000000 0.000000
# 2 -0.004083 0.068354 -0.011171 0.000000 0.000000 0.000000
# 3 -0.006545 -0.011171 0.020702 0.000000 0.000000 0.000000
# 4 0.000000 0.000000 0.000000 0.059173 0.000000 0.000000
# 5 0.000000 0.000000 0.000000 0.000000 0.039410 0.000000
# 6 0.000000 0.000000 0.000000 0.000000 0.000000 0.082263
#
#
# Mechanical properties :
#
#
# Convention : Reuss Voigt Hill
#
# Bulk Modulus (GPa) = 17.47771 38.30042 27.88907
# Shear Modulus (GPa) = 14.52094 19.55322 17.03708
#
# Velocity S-wave (km/s) = 3.03671 3.52383 3.28930
# Velocity P-wave (km/s) = 4.83682 6.39371 5.66897
#
# Compressibility (1/GPa) = 0.05721574
#
# Stress axis : x y z
#
# Youngs Moduli (GPa) = 85.04855 14.62967 48.30464
#
# Poissons Ratio (x) = 0.05973 0.31617
# Poissons Ratio (y) = 0.34726 0.53960
# Poissons Ratio (z) = 0.55666 0.16343
#
# Static dielectric constant tensor:
#      x y z
#    x 3.539450 0.000000 0.000000 
#    y 0.000000 2.656680 0.000000 
#    z 0.000000 0.000000 2.992700 
# 
# 
# High freq. dielectric constant tensor:
#      x y z
#    x 1.611110 0.000000 0.000000 
#    y 0.000000 1.571340 0.000000 
#    z 0.000000 0.000000 1.579430 
# 
# From -- ./inp_files/27875.got.cif
#   From: 2010.03.12/outbox.cif.g09.slc.cpg/sg62_14_cif.got.tgz:27875.got - 2010.04.10 19:12:36.
