data_PCOD8249428
_publ_section_title
;
Structure prediction by ZEFSAII (Michael W. Deem and Ramdas Pophale) SiO2 
 PCOD8249428
Probable space group: P B C A
;
_chemical_formula_sum "Si O2"
_cell_formula_units_Z 64
_cell_length_a 15.510115
_cell_length_b 11.845869
_cell_length_c 16.096618
_cell_angle_alpha 90.000000
_cell_angle_beta 90.000000
_cell_angle_gamma 90.000000
_cell_volume 2957.444349
_symmetry_space_group_name_H-M "P B C A"
_symmetry_group_IT_number 61
_symmetry_cell_setting 'orthorhombic'
loop_
_space_group_symop_operation_xyz
x,y,z
1/2-x,-y,1/2+z
1/2+x,1/2-y,-z
-x,1/2+y,1/2-z
-x,-y,-z
1/2+x,y,1/2-z
1/2-x,1/2+y,z
x,1/2-y,1/2+z
loop_
_atom_site_type_symbol
_atom_site_label
_atom_site_fract_x
_atom_site_fract_y
_atom_site_fract_z
Si Si1 0.502989 0.074873 0.829551
Si Si2 0.823384 0.241241 0.484073
Si Si3 0.626622 0.489264 0.461944
Si Si4 0.482353 0.200456 0.419630
Si Si5 0.087661 0.430374 0.700017
Si Si6 0.358708 0.696206 0.768497
Si Si7 0.774412 0.108531 0.844812
Si Si8 0.867505 0.771306 0.545661
O O1 0.462675 0.193166 0.859331
O O2 0.575054 0.100729 0.760450
O O3 0.537598 0.010382 0.910923
O O4 0.436947 0.990136 0.786092
O O5 0.857991 0.114896 0.491008
O O6 0.819744 0.283952 0.388941
O O7 0.729580 0.239777 0.522998
O O8 0.892270 0.321678 0.532376
O O9 0.698023 0.435126 0.402702
O O10 0.621496 0.407725 0.542908
O O11 0.506930 0.091821 0.362683
O O12 0.562797 0.219245 0.482183
O O13 0.131144 0.309804 0.715496
O O14 0.158188 0.508239 0.657611
O O15 0.262862 0.648305 0.745252
O O16 0.379801 0.720124 0.863671
#
# Coordination Sequence:
#
# PCOD8249428 Si02
#       8
#     8   8   8   8   8   8   8   8
#     4   9  22  40  62  87 126 170 217 259 335 398
#     4  11  23  40  67  93 126 169 222 268 329 410
#     4   9  20  41  62  86 120 176 213 260 333 406
#     4  10  24  42  64  96 132 169 226 277 332 408
#     4  11  23  42  65  91 134 168 211 282 334 389
#     4  10  23  42  62  95 129 168 220 276 320 402
#     4  10  22  41  63  91 126 176 210 263 348 389
#     4  10  23  41  62  94 133 167 219 285 330 393
#
# _framework density 21.640305000000001
#
# number of rings (size 3 to 8) (size 9 to 14) (size 15 to 20)
#    0.000    2.000    0.000    3.750    7.000    2.500 
#    9.000    0.000    0.000    0.000    0.000    0.000 
#    0.000    0.000    0.000    0.000    0.000    0.000 
#
# Total GULP energy -793305.314628 kJ/mol
# GULP energy per Si atom -12395.395541 kJ/mol
# Density = 2.159105 g / cm^3
# Si number density = 21.640305 Si / 1000 Ang^3
#
#
#
# Elastic Constant Matrix: (Units=GPa)
#
#
# Indices 1 2 3 4 5 6 
#
# 1 64.0579 -3.8807 10.4848 0.0000 0.0000 0.0000
# 2 -3.8807 63.7948 10.0781 0.0000 0.0000 0.0000
# 3 10.4848 10.0781 88.5302 0.0000 0.0000 0.0000
# 4 0.0000 0.0000 0.0000 20.5032 0.0000 0.0000
# 5 0.0000 0.0000 0.0000 0.0000 22.2492 0.0000
# 6 0.0000 0.0000 0.0000 0.0000 0.0000 26.4586
#
#
#
# Elastic Compliance Matrix: (Units=1/GPa)
#
#
# Indices 1 2 3 4 5 6 
#
# 1 0.016024 0.001298 -0.002046 0.000000 0.000000 0.000000
# 2 0.001298 0.016067 -0.001983 0.000000 0.000000 0.000000
# 3 -0.002046 -0.001983 0.011764 0.000000 0.000000 0.000000
# 4 0.000000 0.000000 0.000000 0.048773 0.000000 0.000000
# 5 0.000000 0.000000 0.000000 0.000000 0.044946 0.000000
# 6 0.000000 0.000000 0.000000 0.000000 0.000000 0.037795
#
#
# Mechanical properties :
#
#
# Convention : Reuss Voigt Hill
#
# Bulk Modulus (GPa) = 26.04541 27.74970 26.89755
# Shear Modulus (GPa) = 25.82276 27.15557 26.48917
#
# Velocity S-wave (km/s) = 3.45812 3.54624 3.50246
# Velocity P-wave (km/s) = 5.29212 5.44232 5.36774
#
# Compressibility (1/GPa) = 0.03839448
#
# Stress axis : x y z
#
# Youngs Moduli (GPa) = 62.40512 62.23765 85.00828
#
# Poissons Ratio (x) = -0.08078 0.17389
# Poissons Ratio (y) = -0.08100 0.16856
# Poissons Ratio (z) = 0.12765 0.12341
#
# Static dielectric constant tensor:
#      x y z
#    x 4.035590 0.000000 0.000000 
#    y 0.000000 3.855320 0.000000 
#    z 0.000000 0.000000 3.940300 
# 
# 
# High freq. dielectric constant tensor:
#      x y z
#    x 1.851900 0.000000 0.000000 
#    y 0.000000 1.846410 0.000000 
#    z 0.000000 0.000000 1.849770 
# 
# From -- ./inp_files/8232.got.cif
#   From: 2010.03.12/outbox.cif.g09.slc.cpg/sg61_5_cif.got.tgz:8232.got - 2010.04.10 19:05:03.
