data_PCOD8249106
_publ_section_title
;
Structure prediction by ZEFSAII (Michael W. Deem and Ramdas Pophale) SiO2 
 PCOD8249106
Probable space group: P B C A
;
_chemical_formula_sum "Si O2"
_cell_formula_units_Z 40
_cell_length_a 13.370502
_cell_length_b 17.363828
_cell_length_c 8.619641
_cell_angle_alpha 90.000000
_cell_angle_beta 90.000000
_cell_angle_gamma 90.000000
_cell_volume 2001.162550
_symmetry_space_group_name_H-M "P B C A"
_symmetry_group_IT_number 61
_symmetry_cell_setting 'orthorhombic'
loop_
_space_group_symop_operation_xyz
x,y,z
1/2-x,-y,1/2+z
1/2+x,1/2-y,-z
-x,1/2+y,1/2-z
-x,-y,-z
1/2+x,y,1/2-z
1/2-x,1/2+y,z
x,1/2-y,1/2+z
loop_
_atom_site_type_symbol
_atom_site_label
_atom_site_fract_x
_atom_site_fract_y
_atom_site_fract_z
Si Si1 0.330396 0.936455 0.820464
Si Si2 0.750433 0.923912 0.358575
Si Si3 0.842885 0.690502 0.636757
Si Si4 0.044259 0.317080 0.676997
Si Si5 0.317049 0.316188 0.897166
O O1 0.434697 0.892591 0.783682
O O2 0.320223 0.010112 0.710658
O O3 0.322801 0.957551 0.004172
O O4 0.242224 0.874239 0.780857
O O5 0.817380 0.889542 0.221072
O O6 0.680972 0.856023 0.431470
O O7 0.910671 0.740219 0.751229
O O8 0.907530 0.667306 0.489220
O O9 0.741745 0.735529 0.588706
O O10 0.926719 0.302614 0.666985
#
# Coordination Sequence:
#
# PCOD8249106 Si02
#       5
#     8   8   8   8   8
#     4   9  21  39  59  85 119 156 195 243 292 354
#     4  10  20  42  59  86 122 158 193 246 303 341
#     4  11  21  39  60  88 124 153 197 256 290 354
#     4  11  21  37  61  87 119 156 203 242 298 357
#     4   9  23  37  61  88 116 157 202 237 306 345
#
# _framework density 19.988382000000001
#
# number of rings (size 3 to 8) (size 9 to 14) (size 15 to 20)
#    1.200    0.800    2.000    1.200    2.800    0.800 
#    0.000    1.000    0.000    0.000    0.000    0.000 
#    0.000    0.000    0.000    0.000    0.000    0.000 
#
# Total GULP energy -495782.165758 kJ/mol
# GULP energy per Si atom -12394.554144 kJ/mol
# Density = 1.994289 g / cm^3
# Si number density = 19.988382 Si / 1000 Ang^3
#
#
#
# Elastic Constant Matrix: (Units=GPa)
#
#
# Indices 1 2 3 4 5 6 
#
# 1 96.7673 13.8507 5.4147 0.0000 0.0000 0.0000
# 2 13.8507 33.9340 6.9682 0.0000 0.0000 0.0000
# 3 5.4147 6.9682 64.6647 0.0000 0.0000 0.0000
# 4 0.0000 0.0000 0.0000 32.2564 0.0000 0.0000
# 5 0.0000 0.0000 0.0000 0.0000 20.7770 0.0000
# 6 0.0000 0.0000 0.0000 0.0000 0.0000 13.0410
#
#
#
# Elastic Compliance Matrix: (Units=1/GPa)
#
#
# Indices 1 2 3 4 5 6 
#
# 1 0.010988 -0.004393 -0.000447 0.000000 0.000000 0.000000
# 2 -0.004393 0.031892 -0.003069 0.000000 0.000000 0.000000
# 3 -0.000447 -0.003069 0.015832 0.000000 0.000000 0.000000
# 4 0.000000 0.000000 0.000000 0.031002 0.000000 0.000000
# 5 0.000000 0.000000 0.000000 0.000000 0.048130 0.000000
# 6 0.000000 0.000000 0.000000 0.000000 0.000000 0.076681
#
#
# Mechanical properties :
#
#
# Convention : Reuss Voigt Hill
#
# Bulk Modulus (GPa) = 23.31253 27.53702 25.42477
# Shear Modulus (GPa) = 20.43805 24.49035 22.46420
#
# Velocity S-wave (km/s) = 3.20112 3.50412 3.35604
# Velocity P-wave (km/s) = 5.03500 5.49348 5.26923
#
# Compressibility (1/GPa) = 0.04289539
#
# Stress axis : x y z
#
# Youngs Moduli (GPa) = 91.00939 31.35554 63.16129
#
# Poissons Ratio (x) = 0.13775 0.02821
# Poissons Ratio (y) = 0.39982 0.19383
# Poissons Ratio (z) = 0.04065 0.09622
#
# Static dielectric constant tensor:
#      x y z
#    x 3.282520 0.000000 0.000000 
#    y 0.000000 3.420990 0.000000 
#    z 0.000000 0.000000 3.694700 
# 
# 
# High freq. dielectric constant tensor:
#      x y z
#    x 1.751340 0.000000 0.000000 
#    y 0.000000 1.772920 0.000000 
#    z 0.000000 0.000000 1.785680 
# 
# From -- ./inp_files/2136.got.cif
#   From: 2010.03.12/outbox.cif.g09.slc.cpg/sg61_2_cif.got.tgz:2136.got - 2010.04.10 19:05:03.
