data_PCOD8249024
_publ_section_title
;
Structure prediction by ZEFSAII (Michael W. Deem and Ramdas Pophale) SiO2 
 PCOD8249024
Probable space group: P B C A
;
_chemical_formula_sum "Si O2"
_cell_formula_units_Z 56
_cell_length_a 5.002847
_cell_length_b 15.040322
_cell_length_c 34.688997
_cell_angle_alpha 90.000000
_cell_angle_beta 90.000000
_cell_angle_gamma 90.000000
_cell_volume 2610.153799
_symmetry_space_group_name_H-M "P B C A"
_symmetry_group_IT_number 61
_symmetry_cell_setting 'orthorhombic'
loop_
_space_group_symop_operation_xyz
x,y,z
1/2-x,-y,1/2+z
1/2+x,1/2-y,-z
-x,1/2+y,1/2-z
-x,-y,-z
1/2+x,y,1/2-z
1/2-x,1/2+y,z
x,1/2-y,1/2+z
loop_
_atom_site_type_symbol
_atom_site_label
_atom_site_fract_x
_atom_site_fract_y
_atom_site_fract_z
Si Si1 0.957396 0.651407 0.728822
Si Si2 0.680479 0.193959 0.500326
Si Si3 0.720573 0.946405 0.848196
Si Si4 0.285923 0.314392 0.582199
Si Si5 0.720162 0.064739 0.652066
Si Si6 0.784958 0.192548 0.582662
Si Si7 0.960350 0.360130 0.771305
O O1 0.245550 0.610583 0.740022
O O2 0.998744 0.755791 0.733342
O O3 0.850304 0.631828 0.686389
O O4 0.367488 0.217756 0.503738
O O5 0.724963 0.141343 0.460023
O O6 0.777530 0.145959 0.539926
O O7 0.711212 0.894464 0.888031
O O8 0.640594 0.879748 0.814096
O O9 0.522775 0.030215 0.846458
O O10 0.022108 0.981316 0.844904
O O11 0.580095 0.273972 0.582920
O O12 0.072917 0.236042 0.592235
O O13 0.692923 0.118388 0.612582
O O14 0.747089 0.401167 0.740460
#
# Coordination Sequence:
#
# PCOD8249024 Si02
#       7
#     8   8   8   8   8   8   8
#     4  10  22  40  61  82 107 146 194 236 277 331
#     4   8  16  32  58  86 106 140 194 240 274 322
#     4  12  25  38  56  87 122 152 186 232 292 347
#     4  10  20  38  62  84 112 151 195 236 278 335
#     4  12  25  38  56  87 122 152 186 232 292 347
#     4  10  20  38  62  84 112 151 195 236 278 335
#     4  10  22  40  61  82 107 146 194 236 277 331
#
# _framework density 21.454675999999999
#
# number of rings (size 3 to 8) (size 9 to 14) (size 15 to 20)
#    0.000    1.714    0.000    4.286    0.000    6.857 
#    0.000    1.429    0.000    0.000    0.000    0.000 
#    0.000    0.000    0.000    0.000    0.000    0.000 
#
# Total GULP energy -693998.882879 kJ/mol
# GULP energy per Si atom -12392.837194 kJ/mol
# Density = 2.140584 g / cm^3
# Si number density = 21.454676 Si / 1000 Ang^3
#
#
#
# Elastic Constant Matrix: (Units=GPa)
#
#
# Indices 1 2 3 4 5 6 
#
# 1 104.7087 23.3594 36.9211 0.0000 0.0000 0.0000
# 2 23.3594 22.4681 23.7593 0.0000 0.0000 0.0000
# 3 36.9211 23.7593 155.4969 0.0000 0.0000 0.0000
# 4 0.0000 0.0000 0.0000 14.5447 0.0000 0.0000
# 5 0.0000 0.0000 0.0000 0.0000 29.4846 0.0000
# 6 0.0000 0.0000 0.0000 0.0000 0.0000 23.8773
#
#
#
# Elastic Compliance Matrix: (Units=1/GPa)
#
#
# Indices 1 2 3 4 5 6 
#
# 1 0.012614 -0.011864 -0.001182 0.000000 0.000000 0.000000
# 2 -0.011864 0.064244 -0.006999 0.000000 0.000000 0.000000
# 3 -0.001182 -0.006999 0.007781 0.000000 0.000000 0.000000
# 4 0.000000 0.000000 0.000000 0.068754 0.000000 0.000000
# 5 0.000000 0.000000 0.000000 0.000000 0.033916 0.000000
# 6 0.000000 0.000000 0.000000 0.000000 0.000000 0.041881
#
#
# Mechanical properties :
#
#
# Convention : Reuss Voigt Hill
#
# Bulk Modulus (GPa) = 22.44780 50.08369 36.26574
# Shear Modulus (GPa) = 17.59758 26.82357 22.21057
#
# Velocity S-wave (km/s) = 2.86706 3.53971 3.22099
# Velocity P-wave (km/s) = 4.63094 6.33251 5.54736
#
# Compressibility (1/GPa) = 0.04454780
#
# Stress axis : x y z
#
# Youngs Moduli (GPa) = 79.27735 15.56568 128.51563
#
# Poissons Ratio (x) = 0.18467 0.15194
# Poissons Ratio (y) = 0.94056 0.89950
# Poissons Ratio (z) = 0.09373 0.10895
#
# Static dielectric constant tensor:
#      x y z
#    x 4.397880 0.000000 0.000000 
#    y 0.000000 3.349460 0.000000 
#    z 0.000000 0.000000 4.226870 
# 
# 
# High freq. dielectric constant tensor:
#      x y z
#    x 1.869980 0.000000 0.000000 
#    y 0.000000 1.792060 0.000000 
#    z 0.000000 0.000000 1.862110 
# 
# From -- ./inp_files/609.got.cif
#   From: 2010.03.12/outbox.cif.g09.slc.cpg/sg61_1_cif.got.tgz:609.got - 2010.04.10 19:05:03.
