data_PCOD8249101
_publ_section_title
;
Structure prediction by ZEFSAII (Michael W. Deem and Ramdas Pophale) SiO2 
 PCOD8249101
Probable space group: P B C A
;
_chemical_formula_sum "Si O2"
_cell_formula_units_Z 64
_cell_length_a 11.483854
_cell_length_b 9.000900
_cell_length_c 25.804351
_cell_angle_alpha 90.000000
_cell_angle_beta 90.000000
_cell_angle_gamma 90.000000
_cell_volume 2667.267295
_symmetry_space_group_name_H-M "P B C A"
_symmetry_group_IT_number 61
_symmetry_cell_setting 'orthorhombic'
loop_
_space_group_symop_operation_xyz
x,y,z
1/2-x,-y,1/2+z
1/2+x,1/2-y,-z
-x,1/2+y,1/2-z
-x,-y,-z
1/2+x,y,1/2-z
1/2-x,1/2+y,z
x,1/2-y,1/2+z
loop_
_atom_site_type_symbol
_atom_site_label
_atom_site_fract_x
_atom_site_fract_y
_atom_site_fract_z
Si Si1 0.880034 0.611037 0.853749
Si Si2 0.068861 0.012517 0.417290
Si Si3 0.242998 0.731963 0.288436
Si Si4 0.685544 0.982581 0.280739
Si Si5 0.092907 0.669804 0.010229
Si Si6 0.449722 0.928312 0.626132
Si Si7 0.190307 0.017243 0.860666
Si Si8 0.276741 0.053863 0.552869
O O1 0.817433 0.548583 0.802240
O O2 0.784942 0.634944 0.899093
O O3 0.979310 0.492075 0.869255
O O4 0.947293 0.766218 0.847803
O O5 0.057902 0.856362 0.449968
O O6 0.199272 0.028254 0.395736
O O7 0.022844 0.149347 0.453608
O O8 0.323025 0.647218 0.245435
O O9 0.158925 0.853482 0.261290
O O10 0.308608 0.817691 0.335717
O O11 0.170612 0.598369 0.313534
O O12 0.595282 0.964527 0.327496
O O13 0.154066 0.827246 0.017803
O O14 0.183368 0.534091 0.018962
O O15 0.573559 0.992200 0.606226
O O16 0.368510 0.935417 0.575567
#
# Coordination Sequence:
#
# PCOD8249101 Si02
#       8
#     8   8   8   8   8   8   8   8
#     4  10  20  41  68  96 128 171 219 280 317 376
#     4  10  24  44  67  93 135 174 210 266 337 383
#     4  10  23  44  61  95 131 172 219 264 326 389
#     4  10  21  42  68  95 127 168 229 268 316 385
#     4  10  22  44  71  96 127 172 220 269 321 394
#     4  11  22  38  69  98 134 172 218 269 330 385
#     4  11  25  43  60  95 140 171 211 265 335 399
#     4  10  21  40  68 101 125 165 227 271 320 380
#
# _framework density 23.994596000000001
#
# number of rings (size 3 to 8) (size 9 to 14) (size 15 to 20)
#    0.000    1.750    2.500    0.750    1.750    3.000 
#   13.500    1.250    0.000    0.000    0.000    0.000 
#    0.000    0.000    0.000    0.000    0.000    0.000 
#
# Total GULP energy -793079.844123 kJ/mol
# GULP energy per Si atom -12391.872564 kJ/mol
# Density = 2.393998 g / cm^3
# Si number density = 23.994596 Si / 1000 Ang^3
#
#
#
# Elastic Constant Matrix: (Units=GPa)
#
#
# Indices 1 2 3 4 5 6 
#
# 1 127.4960 14.9690 24.2836 0.0000 0.0000 0.0000
# 2 14.9690 91.7904 9.2921 0.0000 0.0000 0.0000
# 3 24.2836 9.2921 61.6432 0.0000 0.0000 0.0000
# 4 0.0000 0.0000 0.0000 27.1984 0.0000 0.0000
# 5 0.0000 0.0000 0.0000 0.0000 21.9132 0.0000
# 6 0.0000 0.0000 0.0000 0.0000 0.0000 22.3317
#
#
#
# Elastic Compliance Matrix: (Units=1/GPa)
#
#
# Indices 1 2 3 4 5 6 
#
# 1 0.008583 -0.001074 -0.003219 0.000000 0.000000 0.000000
# 2 -0.001074 0.011198 -0.001265 0.000000 0.000000 0.000000
# 3 -0.003219 -0.001265 0.017681 0.000000 0.000000 0.000000
# 4 0.000000 0.000000 0.000000 0.036767 0.000000 0.000000
# 5 0.000000 0.000000 0.000000 0.000000 0.045635 0.000000
# 6 0.000000 0.000000 0.000000 0.000000 0.000000 0.044779
#
#
# Mechanical properties :
#
#
# Convention : Reuss Voigt Hill
#
# Bulk Modulus (GPa) = 37.95687 42.00210 39.97949
# Shear Modulus (GPa) = 27.09443 29.78099 28.43771
#
# Velocity S-wave (km/s) = 3.36399 3.52682 3.44637
# Velocity P-wave (km/s) = 5.56254 5.84187 5.70391
#
# Compressibility (1/GPa) = 0.02634569
#
# Stress axis : x y z
#
# Youngs Moduli (GPa) = 116.51502 89.30527 56.55717
#
# Poissons Ratio (x) = 0.09589 0.18207
# Poissons Ratio (y) = 0.12511 0.07154
# Poissons Ratio (z) = 0.37508 0.11297
#
# Static dielectric constant tensor:
#      x y z
#    x 4.125140 0.000000 0.000000 
#    y 0.000000 4.082810 0.000000 
#    z 0.000000 0.000000 4.261260 
# 
# 
# High freq. dielectric constant tensor:
#      x y z
#    x 1.935380 0.000000 0.000000 
#    y 0.000000 1.940670 0.000000 
#    z 0.000000 0.000000 1.950260 
# 
# From -- ./inp_files/11779.got.cif
#   From: 2010.03.12/outbox.cif.g09.slc.cpg/sg61_6_cif.got.tgz:11779.got - 2010.04.10 19:05:03.
