data_PCOD8249127
_publ_section_title
;
Structure prediction by ZEFSAII (Michael W. Deem and Ramdas Pophale) SiO2 
 PCOD8249127
Probable space group: P B C A
;
_chemical_formula_sum "Si O2"
_cell_formula_units_Z 64
_cell_length_a 18.546214
_cell_length_b 11.705696
_cell_length_c 14.166314
_cell_angle_alpha 90.000000
_cell_angle_beta 90.000000
_cell_angle_gamma 90.000000
_cell_volume 3075.454964
_symmetry_space_group_name_H-M "P B C A"
_symmetry_group_IT_number 61
_symmetry_cell_setting 'orthorhombic'
loop_
_space_group_symop_operation_xyz
x,y,z
1/2-x,-y,1/2+z
1/2+x,1/2-y,-z
-x,1/2+y,1/2-z
-x,-y,-z
1/2+x,y,1/2-z
1/2-x,1/2+y,z
x,1/2-y,1/2+z
loop_
_atom_site_type_symbol
_atom_site_label
_atom_site_fract_x
_atom_site_fract_y
_atom_site_fract_z
Si Si1 0.707536 0.053031 0.878288
Si Si2 0.068031 0.583588 0.183539
Si Si3 0.629986 0.650219 0.134013
Si Si4 0.297050 0.363125 0.297479
Si Si5 0.581633 0.004318 0.134048
Si Si6 0.382780 0.792067 0.988324
Si Si7 0.453761 0.308717 0.497974
Si Si8 0.298115 0.563253 0.963254
O O1 0.746089 0.114793 0.790683
O O2 0.643511 0.977703 0.836902
O O3 0.675941 0.153782 0.942205
O O4 0.765470 0.976592 0.936148
O O5 0.066914 0.622730 0.291825
O O6 0.998487 0.503106 0.176252
O O7 0.057015 0.689922 0.111235
O O8 0.685047 0.728904 0.194485
O O9 0.595022 0.709824 0.043874
O O10 0.668679 0.540281 0.094728
O O11 0.368740 0.441563 0.288464
O O12 0.266501 0.391975 0.400190
O O13 0.613247 0.129740 0.107083
O O14 0.575553 0.931658 0.037193
O O15 0.358218 0.662255 0.970801
O O16 0.463119 0.788921 0.031752
#
# Coordination Sequence:
#
# PCOD8249127 Si02
#       8
#     8   8   8   8   8   8   8   8
#     4  12  23  41  70  98 132 176 229 269 337 403
#     4  11  21  43  72  98 128 178 232 271 327 405
#     4  11  26  44  62 101 140 171 219 284 341 389
#     4  11  25  43  68  96 137 178 219 271 339 404
#     4  10  20  46  72  94 129 182 231 269 326 404
#     4  11  22  42  70  96 129 181 225 274 337 400
#     4  10  21  44  72  94 134 179 227 276 330 404
#     4  12  26  42  65 100 140 170 214 291 333 395
#
# _framework density 20.809929
#
# number of rings (size 3 to 8) (size 9 to 14) (size 15 to 20)
#    0.000    1.000    5.000    2.250    3.500    1.500 
#   13.500    0.000    0.000    0.000    0.000    0.000 
#    0.000    0.000    0.000    0.000    0.000    0.000 
#
# Total GULP energy -793450.379465 kJ/mol
# GULP energy per Si atom -12397.662179 kJ/mol
# Density = 2.076256 g / cm^3
# Si number density = 20.809929 Si / 1000 Ang^3
#
#
#
# Elastic Constant Matrix: (Units=GPa)
#
#
# Indices 1 2 3 4 5 6 
#
# 1 113.4743 46.9550 37.3501 0.0000 0.0000 0.0000
# 2 46.9550 84.7072 21.1512 0.0000 0.0000 0.0000
# 3 37.3501 21.1512 63.9529 0.0000 0.0000 0.0000
# 4 0.0000 0.0000 0.0000 20.8848 0.0000 0.0000
# 5 0.0000 0.0000 0.0000 0.0000 16.4528 0.0000
# 6 0.0000 0.0000 0.0000 0.0000 0.0000 12.3157
#
#
#
# Elastic Compliance Matrix: (Units=1/GPa)
#
#
# Indices 1 2 3 4 5 6 
#
# 1 0.013114 -0.005839 -0.005728 0.000000 0.000000 0.000000
# 2 -0.005839 0.015468 -0.001706 0.000000 0.000000 0.000000
# 3 -0.005728 -0.001706 0.019546 0.000000 0.000000 0.000000
# 4 0.000000 0.000000 0.000000 0.047882 0.000000 0.000000
# 5 0.000000 0.000000 0.000000 0.000000 0.060780 0.000000
# 6 0.000000 0.000000 0.000000 0.000000 0.000000 0.081197
#
#
# Mechanical properties :
#
#
# Convention : Reuss Voigt Hill
#
# Bulk Modulus (GPa) = 46.33297 52.56077 49.44687
# Shear Modulus (GPa) = 18.40090 20.37587 19.38839
#
# Velocity S-wave (km/s) = 2.97684 3.13252 3.05567
# Velocity P-wave (km/s) = 5.84197 6.19645 6.02182
#
# Compressibility (1/GPa) = 0.02158290
#
# Stress axis : x y z
#
# Youngs Moduli (GPa) = 76.25382 64.64946 51.16209
#
# Poissons Ratio (x) = 0.37750 0.29304
# Poissons Ratio (y) = 0.44526 0.08726
# Poissons Ratio (z) = 0.43676 0.11026
#
# Static dielectric constant tensor:
#      x y z
#    x 3.910130 0.000000 0.000000 
#    y 0.000000 3.873950 0.000000 
#    z 0.000000 0.000000 3.771980 
# 
# 
# High freq. dielectric constant tensor:
#      x y z
#    x 1.829630 0.000000 0.000000 
#    y 0.000000 1.810310 0.000000 
#    z 0.000000 0.000000 1.804630 
# 
# From -- ./inp_files/8218.got.cif
#   From: 2010.03.12/outbox.cif.g09.slc.cpg/sg61_5_cif.got.tgz:8218.got - 2010.04.10 19:05:03.
