data_PCOD8249653
_publ_section_title
;
Structure prediction by ZEFSAII (Michael W. Deem and Ramdas Pophale) SiO2 
 PCOD8249653
Probable space group: P B C A
;
_chemical_formula_sum "Si O2"
_cell_formula_units_Z 40
_cell_length_a 18.433888
_cell_length_b 10.398699
_cell_length_c 9.221039
_cell_angle_alpha 90.000000
_cell_angle_beta 90.000000
_cell_angle_gamma 90.000000
_cell_volume 1767.566698
_symmetry_space_group_name_H-M "P B C A"
_symmetry_group_IT_number 61
_symmetry_cell_setting 'orthorhombic'
loop_
_space_group_symop_operation_xyz
x,y,z
1/2-x,-y,1/2+z
1/2+x,1/2-y,-z
-x,1/2+y,1/2-z
-x,-y,-z
1/2+x,y,1/2-z
1/2-x,1/2+y,z
x,1/2-y,1/2+z
loop_
_atom_site_type_symbol
_atom_site_label
_atom_site_fract_x
_atom_site_fract_y
_atom_site_fract_z
Si Si1 0.601949 0.080466 0.909062
Si Si2 0.272921 0.727917 0.458114
Si Si3 0.187571 0.998054 0.854828
Si Si4 0.944034 0.367775 0.119698
Si Si5 0.872297 0.173193 0.922317
O O1 0.653307 0.198417 0.955147
O O2 0.642872 0.987764 0.794872
O O3 0.528598 0.134257 0.834363
O O4 0.579127 0.003672 0.052495
O O5 0.281524 0.858266 0.367532
O O6 0.253284 0.606673 0.351494
O O7 0.205729 0.746227 0.570164
O O8 0.135504 0.963452 0.992201
O O9 0.892761 0.344824 0.256560
O O10 0.933640 0.255681 0.002612
#
# Coordination Sequence:
#
# PCOD8249653 Si02
#       5
#     8   8   8   8   8
#     4  11  26  44  76 107 149 190 260 299 383 444
#     4  10  25  43  75 109 143 193 250 312 366 451
#     4  10  25  46  76 104 146 195 250 307 375 438
#     4  11  25  49  69 111 147 202 237 319 372 463
#     4  10  25  44  76  96 155 188 251 300 387 420
#
# _framework density 22.629978999999999
#
# number of rings (size 3 to 8) (size 9 to 14) (size 15 to 20)
#    1.200    0.400    0.000    2.400    8.400    4.000 
#    3.600    0.000    0.000    0.000    0.000    0.000 
#    0.000    0.000    0.000    0.000    0.000    0.000 
#
# Total GULP energy -495879.333916 kJ/mol
# GULP energy per Si atom -12396.983348 kJ/mol
# Density = 2.257847 g / cm^3
# Si number density = 22.629979 Si / 1000 Ang^3
#
#
#
# Elastic Constant Matrix: (Units=GPa)
#
#
# Indices 1 2 3 4 5 6 
#
# 1 132.3331 34.9429 27.3253 0.0000 0.0000 0.0000
# 2 34.9429 111.7435 18.5368 0.0000 0.0000 0.0000
# 3 27.3253 18.5368 86.5246 0.0000 0.0000 0.0000
# 4 0.0000 0.0000 0.0000 20.5291 0.0000 0.0000
# 5 0.0000 0.0000 0.0000 0.0000 34.1745 0.0000
# 6 0.0000 0.0000 0.0000 0.0000 0.0000 32.9959
#
#
#
# Elastic Compliance Matrix: (Units=1/GPa)
#
#
# Indices 1 2 3 4 5 6 
#
# 1 0.008632 -0.002330 -0.002227 0.000000 0.000000 0.000000
# 2 -0.002330 0.009908 -0.001387 0.000000 0.000000 0.000000
# 3 -0.002227 -0.001387 0.012558 0.000000 0.000000 0.000000
# 4 0.000000 0.000000 0.000000 0.048711 0.000000 0.000000
# 5 0.000000 0.000000 0.000000 0.000000 0.029262 0.000000
# 6 0.000000 0.000000 0.000000 0.000000 0.000000 0.030307
#
#
# Mechanical properties :
#
#
# Convention : Reuss Voigt Hill
#
# Bulk Modulus (GPa) = 52.05559 54.69012 53.37286
# Shear Modulus (GPa) = 31.71240 34.19299 32.95269
#
# Velocity S-wave (km/s) = 3.74751 3.89132 3.82010
# Velocity P-wave (km/s) = 6.46359 6.66404 6.56458
#
# Compressibility (1/GPa) = 0.01921023
#
# Stress axis : x y z
#
# Youngs Moduli (GPa) = 115.85211 100.93198 79.63195
#
# Poissons Ratio (x) = 0.23515 0.17733
# Poissons Ratio (y) = 0.26991 0.11044
# Poissons Ratio (z) = 0.25798 0.13997
#
# Static dielectric constant tensor:
#      x y z
#    x 4.172470 0.000000 0.000000 
#    y 0.000000 3.870740 0.000000 
#    z 0.000000 0.000000 3.815610 
# 
# 
# High freq. dielectric constant tensor:
#      x y z
#    x 1.894930 0.000000 0.000000 
#    y 0.000000 1.884400 0.000000 
#    z 0.000000 0.000000 1.883930 
# 
# From -- ./inp_files/3812.got.cif
#   From: 2010.03.12/outbox.cif.g09.slc.cpg/sg61_2_cif.got.tgz:3812.got - 2010.04.10 19:05:03.
