data_PCOD8249639
_publ_section_title
;
Structure prediction by ZEFSAII (Michael W. Deem and Ramdas Pophale) SiO2 
 PCOD8249639
Probable space group: P B C A
;
_chemical_formula_sum "Si O2"
_cell_formula_units_Z 56
_cell_length_a 18.205169
_cell_length_b 25.142993
_cell_length_c 5.289976
_cell_angle_alpha 90.000000
_cell_angle_beta 90.000000
_cell_angle_gamma 90.000000
_cell_volume 2421.393605
_symmetry_space_group_name_H-M "P B C A"
_symmetry_group_IT_number 61
_symmetry_cell_setting 'orthorhombic'
loop_
_space_group_symop_operation_xyz
x,y,z
1/2-x,-y,1/2+z
1/2+x,1/2-y,-z
-x,1/2+y,1/2-z
-x,-y,-z
1/2+x,y,1/2-z
1/2-x,1/2+y,z
x,1/2-y,1/2+z
loop_
_atom_site_type_symbol
_atom_site_label
_atom_site_fract_x
_atom_site_fract_y
_atom_site_fract_z
Si Si1 0.084071 0.781978 0.450498
Si Si2 0.641879 0.117915 0.443984
Si Si3 0.795522 0.992259 0.800417
Si Si4 0.419743 0.450529 0.946241
Si Si5 0.942472 0.948372 0.291226
Si Si6 0.253975 0.783219 0.485822
Si Si7 0.502578 0.873986 0.825420
O O1 0.064816 0.757690 0.179436
O O2 0.168473 0.798733 0.478312
O O3 0.028840 0.831636 0.468842
O O4 0.669698 0.067146 0.277278
O O5 0.619381 0.095462 0.719420
O O6 0.704042 0.161482 0.484510
O O7 0.569870 0.146295 0.320944
O O8 0.760932 0.006875 0.532848
O O9 0.856539 0.038443 0.849046
O O10 0.406686 0.492619 0.711646
O O11 0.423803 0.389632 0.838374
O O12 0.500969 0.453058 0.061430
O O13 0.980260 0.930981 0.549583
O O14 0.274662 0.754043 0.224032
#
# Coordination Sequence:
#
# PCOD8249639 Si02
#       7
#     8   8   8   8   8   8   8
#     4  10  25  46  65  97 131 170 226 279 330 403
#     4  10  25  42  64 103 129 174 226 280 330 402
#     4  11  27  43  64 100 138 179 222 275 325 400
#     4   9  21  39  61  94 131 173 217 260 329 395
#     4   9  20  39  61  95 131 168 214 270 324 399
#     4  10  24  46  69  93 131 178 223 276 338 394
#     4  11  23  39  73  94 133 177 219 275 343 392
#
# _framework density 23.127175999999999
#
# number of rings (size 3 to 8) (size 9 to 14) (size 15 to 20)
#    0.000    2.000    0.000    1.286   14.000    1.143 
#    2.571    0.000    0.000    0.000    0.000    0.000 
#    0.000    0.000    0.000    0.000    0.000    0.000 
#
# Total GULP energy -693782.411817 kJ/mol
# GULP energy per Si atom -12388.971640 kJ/mol
# Density = 2.307454 g / cm^3
# Si number density = 23.127176 Si / 1000 Ang^3
#
#
#
# Elastic Constant Matrix: (Units=GPa)
#
#
# Indices 1 2 3 4 5 6 
#
# 1 77.7924 37.0042 14.0878 0.0000 0.0000 0.0000
# 2 37.0042 47.7375 5.2278 0.0000 0.0000 0.0000
# 3 14.0878 5.2278 56.3869 0.0000 0.0000 0.0000
# 4 0.0000 0.0000 0.0000 30.1306 0.0000 0.0000
# 5 0.0000 0.0000 0.0000 0.0000 20.5920 0.0000
# 6 0.0000 0.0000 0.0000 0.0000 0.0000 42.0918
#
#
#
# Elastic Compliance Matrix: (Units=1/GPa)
#
#
# Indices 1 2 3 4 5 6 
#
# 1 0.021140 -0.015971 -0.003801 0.000000 0.000000 0.000000
# 2 -0.015971 0.033228 0.000909 0.000000 0.000000 0.000000
# 3 -0.003801 0.000909 0.018600 0.000000 0.000000 0.000000
# 4 0.000000 0.000000 0.000000 0.033189 0.000000 0.000000
# 5 0.000000 0.000000 0.000000 0.000000 0.048563 0.000000
# 6 0.000000 0.000000 0.000000 0.000000 0.000000 0.023758
#
#
# Mechanical properties :
#
#
# Convention : Reuss Voigt Hill
#
# Bulk Modulus (GPa) = 28.37387 32.72850 30.55118
# Shear Modulus (GPa) = 21.93473 26.93601 24.43537
#
# Velocity S-wave (km/s) = 3.08302 3.41646 3.25401
# Velocity P-wave (km/s) = 4.99686 5.45391 5.23038
#
# Compressibility (1/GPa) = 0.03524370
#
# Stress axis : x y z
#
# Youngs Moduli (GPa) = 47.30390 30.09509 53.76364
#
# Poissons Ratio (x) = 0.48064 0.20435
# Poissons Ratio (y) = 0.75547 -0.04889
# Poissons Ratio (z) = 0.17980 -0.02737
#
# Static dielectric constant tensor:
#      x y z
#    x 4.229630 0.000000 0.000000 
#    y 0.000000 4.030330 0.000000 
#    z 0.000000 0.000000 4.064670 
# 
# 
# High freq. dielectric constant tensor:
#      x y z
#    x 1.915930 0.000000 0.000000 
#    y 0.000000 1.898650 0.000000 
#    z 0.000000 0.000000 1.918260 
# 
# From -- ./inp_files/1052.got.cif
#   From: 2010.03.12/outbox.cif.g09.slc.cpg/sg61_1_cif.got.tgz:1052.got - 2010.04.10 19:05:03.
