data_PCOD8249482
_publ_section_title
;
Structure prediction by ZEFSAII (Michael W. Deem and Ramdas Pophale) SiO2 
 PCOD8249482
Probable space group: P B C A
;
_chemical_formula_sum "Si O2"
_cell_formula_units_Z 32
_cell_length_a 12.329059
_cell_length_b 7.679144
_cell_length_c 12.300375
_cell_angle_alpha 90.000000
_cell_angle_beta 90.000000
_cell_angle_gamma 90.000000
_cell_volume 1164.557923
_symmetry_space_group_name_H-M "P B C A"
_symmetry_group_IT_number 61
_symmetry_cell_setting 'orthorhombic'
loop_
_space_group_symop_operation_xyz
x,y,z
1/2-x,-y,1/2+z
1/2+x,1/2-y,-z
-x,1/2+y,1/2-z
-x,-y,-z
1/2+x,y,1/2-z
1/2-x,1/2+y,z
x,1/2-y,1/2+z
loop_
_atom_site_type_symbol
_atom_site_label
_atom_site_fract_x
_atom_site_fract_y
_atom_site_fract_z
Si Si1 0.190442 0.474799 0.194813
Si Si2 0.414614 0.634293 0.896495
Si Si3 0.645468 0.787101 0.442358
Si Si4 0.806482 0.510484 0.096297
O O1 0.100214 0.368604 0.264735
O O2 0.237724 0.381801 0.085961
O O3 0.131879 0.650283 0.157066
O O4 0.295827 0.507276 0.272772
O O5 0.536274 0.594611 0.934818
O O6 0.376472 0.823566 0.940100
O O7 0.326486 0.486204 0.943697
O O8 0.648261 0.673401 0.554395
#
# Coordination Sequence:
#
# PCOD8249482 Si02
#       4
#     8   8   8   8
#     4  10  23  41  63  98 132 157 228 259 304 406
#     4  10  23  43  64  93 132 169 211 270 316 379
#     4  12  23  42  71  89 131 182 198 270 340 355
#     4  10  22  44  60  98 132 157 226 263 298 404
#
# _framework density 27.478238000000001
#
# number of rings (size 3 to 8) (size 9 to 14) (size 15 to 20)
#    1.500    0.000    2.500    2.250    3.500    0.000 
#    0.000    5.000    0.000    0.000    0.000    0.000 
#    0.000    0.000    0.000    0.000    0.000    0.000 
#
# Total GULP energy -396475.977360 kJ/mol
# GULP energy per Si atom -12389.874293 kJ/mol
# Density = 2.741570 g / cm^3
# Si number density = 27.478238 Si / 1000 Ang^3
#
#
#
# Elastic Constant Matrix: (Units=GPa)
#
#
# Indices 1 2 3 4 5 6 
#
# 1 94.1316 31.6682 28.8103 0.0000 0.0000 0.0000
# 2 31.6682 112.9747 11.3398 0.0000 0.0000 0.0000
# 3 28.8103 11.3398 123.9910 0.0000 0.0000 0.0000
# 4 0.0000 0.0000 0.0000 50.0768 0.0000 0.0000
# 5 0.0000 0.0000 0.0000 0.0000 37.3964 0.0000
# 6 0.0000 0.0000 0.0000 0.0000 0.0000 46.7219
#
#
#
# Elastic Compliance Matrix: (Units=1/GPa)
#
#
# Indices 1 2 3 4 5 6 
#
# 1 0.012515 -0.003246 -0.002611 0.000000 0.000000 0.000000
# 2 -0.003246 0.009775 -0.000140 0.000000 0.000000 0.000000
# 3 -0.002611 -0.000140 0.008685 0.000000 0.000000 0.000000
# 4 0.000000 0.000000 0.000000 0.019969 0.000000 0.000000
# 5 0.000000 0.000000 0.000000 0.000000 0.026741 0.000000
# 6 0.000000 0.000000 0.000000 0.000000 0.000000 0.021403
#
#
# Mechanical properties :
#
#
# Convention : Reuss Voigt Hill
#
# Bulk Modulus (GPa) = 52.68391 52.74822 52.71606
# Shear Modulus (GPa) = 42.58646 44.12427 43.35536
#
# Velocity S-wave (km/s) = 3.94105 4.01158 3.97647
# Velocity P-wave (km/s) = 6.31853 6.37927 6.34897
#
# Compressibility (1/GPa) = 0.01898113
#
# Stress axis : x y z
#
# Youngs Moduli (GPa) = 79.90688 102.29720 115.14664
#
# Poissons Ratio (x) = 0.33205 0.30065
# Poissons Ratio (y) = 0.25937 0.01610
# Poissons Ratio (z) = 0.20864 0.01430
#
# Static dielectric constant tensor:
#      x y z
#    x 4.465170 0.000000 0.000000 
#    y 0.000000 4.994980 0.000000 
#    z 0.000000 0.000000 5.369520 
# 
# 
# High freq. dielectric constant tensor:
#      x y z
#    x 2.078680 0.000000 0.000000 
#    y 0.000000 2.121540 0.000000 
#    z 0.000000 0.000000 2.150250 
# 
# From -- ./inp_files/2507.got.cif
#   From: 2010.03.12/outbox.cif.g09.slc.cpg/sg61_2_cif.got.tgz:2507.got - 2010.04.10 19:05:03.
