data_PCOD8249739
_publ_section_title
;
Structure prediction by ZEFSAII (Michael W. Deem and Ramdas Pophale) SiO2 
 PCOD8249739
Probable space group: P B C A
;
_chemical_formula_sum "Si O2"
_cell_formula_units_Z 48
_cell_length_a 14.846792
_cell_length_b 16.625662
_cell_length_c 8.192664
_cell_angle_alpha 90.000000
_cell_angle_beta 90.000000
_cell_angle_gamma 90.000000
_cell_volume 2022.258712
_symmetry_space_group_name_H-M "P B C A"
_symmetry_group_IT_number 61
_symmetry_cell_setting 'orthorhombic'
loop_
_space_group_symop_operation_xyz
x,y,z
1/2-x,-y,1/2+z
1/2+x,1/2-y,-z
-x,1/2+y,1/2-z
-x,-y,-z
1/2+x,y,1/2-z
1/2-x,1/2+y,z
x,1/2-y,1/2+z
loop_
_atom_site_type_symbol
_atom_site_label
_atom_site_fract_x
_atom_site_fract_y
_atom_site_fract_z
Si Si1 0.131057 0.854069 0.310847
Si Si2 0.078690 0.807053 0.661603
Si Si3 0.838482 0.863651 0.096357
Si Si4 0.615482 0.275937 0.777101
Si Si5 0.834578 0.010553 0.900015
Si Si6 0.237974 0.612179 0.332200
O O1 0.073381 0.831871 0.470882
O O2 0.119825 0.782802 0.178620
O O3 0.232645 0.870347 0.370433
O O4 0.098938 0.936934 0.217783
O O5 0.138871 0.866050 0.769004
O O6 0.978963 0.815826 0.731607
O O7 0.859542 0.795981 0.960977
O O8 0.879148 0.950739 0.037968
O O9 0.887534 0.822020 0.252271
O O10 0.694892 0.312167 0.661836
O O11 0.773144 0.953921 0.792423
O O12 0.770315 0.076083 0.986819
#
# Coordination Sequence:
#
# PCOD8249739 Si02
#       6
#     8   8   8   8   8   8
#     4  12  22  43  69  97 133 182 221 279 334 399
#     4  12  24  44  70 101 135 177 230 278 333 397
#     4  11  22  44  67  99 131 176 224 274 340 395
#     4  11  25  42  69 102 131 174 234 274 330 404
#     4  11  23  40  72  96 135 186 222 274 349 397
#     4  11  22  43  68  98 138 181 225 279 340 396
#
# _framework density 23.735835999999999
#
# number of rings (size 3 to 8) (size 9 to 14) (size 15 to 20)
#    0.000    0.667    6.667    2.000    2.333    0.000 
#    0.000   15.000    0.000    0.000    0.000    0.000 
#    0.000    0.000    0.000    0.000    0.000    0.000 
#
# Total GULP energy -594765.737132 kJ/mol
# GULP energy per Si atom -12390.952857 kJ/mol
# Density = 2.368181 g / cm^3
# Si number density = 23.735836 Si / 1000 Ang^3
#
#
#
# Elastic Constant Matrix: (Units=GPa)
#
#
# Indices 1 2 3 4 5 6 
#
# 1 55.9345 8.5752 10.7278 0.0000 0.0000 0.0000
# 2 8.5752 112.9277 45.4852 0.0000 0.0000 0.0000
# 3 10.7278 45.4852 61.6428 0.0000 0.0000 0.0000
# 4 0.0000 0.0000 0.0000 63.3524 0.0000 0.0000
# 5 0.0000 0.0000 0.0000 0.0000 14.3336 0.0000
# 6 0.0000 0.0000 0.0000 0.0000 0.0000 15.0091
#
#
#
# Elastic Compliance Matrix: (Units=1/GPa)
#
#
# Indices 1 2 3 4 5 6 
#
# 1 0.018497 -0.000154 -0.003106 0.000000 0.000000 0.000000
# 2 -0.000154 0.012601 -0.009272 0.000000 0.000000 0.000000
# 3 -0.003106 -0.009272 0.023604 0.000000 0.000000 0.000000
# 4 0.000000 0.000000 0.000000 0.015785 0.000000 0.000000
# 5 0.000000 0.000000 0.000000 0.000000 0.069766 0.000000
# 6 0.000000 0.000000 0.000000 0.000000 0.000000 0.066626
#
#
# Mechanical properties :
#
#
# Convention : Reuss Voigt Hill
#
# Bulk Modulus (GPa) = 33.73706 40.00905 36.87306
# Shear Modulus (GPa) = 20.67634 29.58681 25.13158
#
# Velocity S-wave (km/s) = 2.95465 3.53442 3.25746
# Velocity P-wave (km/s) = 5.08766 5.79212 5.45129
#
# Compressibility (1/GPa) = 0.02964100
#
# Stress axis : x y z
#
# Youngs Moduli (GPa) = 54.06209 79.35689 42.36518
#
# Poissons Ratio (x) = 0.01220 0.13157
# Poissons Ratio (y) = 0.00831 0.39279
# Poissons Ratio (z) = 0.16790 0.73576
#
# Static dielectric constant tensor:
#      x y z
#    x 3.921970 0.000000 0.000000 
#    y 0.000000 5.004600 0.000000 
#    z 0.000000 0.000000 4.732010 
# 
# 
# High freq. dielectric constant tensor:
#      x y z
#    x 1.902630 0.000000 0.000000 
#    y 0.000000 1.951510 0.000000 
#    z 0.000000 0.000000 1.957030 
# 
# From -- ./inp_files/2834.got.cif
#   From: 2010.03.12/outbox.cif.g09.slc.cpg/sg61_2_cif.got.tgz:2834.got - 2010.04.10 19:05:03.
