data_PCOD8249568
_publ_section_title
;
Structure prediction by ZEFSAII (Michael W. Deem and Ramdas Pophale) SiO2 
 PCOD8249568
Probable space group: P B C A
;
_chemical_formula_sum "Si O2"
_cell_formula_units_Z 64
_cell_length_a 13.703656
_cell_length_b 9.133530
_cell_length_c 23.571064
_cell_angle_alpha 90.000000
_cell_angle_beta 90.000000
_cell_angle_gamma 90.000000
_cell_volume 2950.219266
_symmetry_space_group_name_H-M "P B C A"
_symmetry_group_IT_number 61
_symmetry_cell_setting 'orthorhombic'
loop_
_space_group_symop_operation_xyz
x,y,z
1/2-x,-y,1/2+z
1/2+x,1/2-y,-z
-x,1/2+y,1/2-z
-x,-y,-z
1/2+x,y,1/2-z
1/2-x,1/2+y,z
x,1/2-y,1/2+z
loop_
_atom_site_type_symbol
_atom_site_label
_atom_site_fract_x
_atom_site_fract_y
_atom_site_fract_z
Si Si1 0.024758 0.331044 1.000000
Si Si2 0.296060 0.470385 0.117889
Si Si3 0.121887 0.223718 0.381503
Si Si4 0.894958 0.418068 0.500000
Si Si5 0.543492 0.658422 0.195355
Si Si6 0.956508 0.341578 0.304645
Si Si7 0.703939 0.529615 0.117889
Si Si8 0.378113 0.776282 0.118497
O O1 0.085275 0.276679 0.945876
O O2 0.919247 0.254113 1.000000
O O3 0.085274 0.276679 0.054124
O O4 0.000000 0.500000 0.000000
O O5 0.328670 0.452185 0.053402
O O6 0.362561 0.368185 0.157081
O O7 0.305491 0.641390 0.131445
O O8 0.183732 0.424351 0.128527
O O9 0.031767 0.238035 0.338759
O O10 0.183733 0.075648 0.371473
O O11 0.194510 0.358610 0.368555
O O12 0.828671 0.452184 0.553403
O O13 0.000000 0.500000 0.500000
O O14 0.500000 0.500000 0.212010
O O15 0.575795 0.750000 0.250000
O O16 0.637439 0.631814 0.157082
O O17 0.468233 0.761965 0.161241
#
# Coordination Sequence:
#
# PCOD8249568 Si02
#       8
#     8   8   8   8   8   8   8   8
#     4  12  25  38  64  97 129 165 209 251 312 376
#     4  11  23  40  66  92 129 169 208 261 318 376
#     4  11  24  42  63  97 128 167 212 258 317 380
#     4  12  19  42  66  85 131 171 198 254 314 374
#     4  10  23  44  66  89 123 168 214 266 323 377
#     4  10  23  44  66  89 123 168 214 266 323 377
#     4  11  23  40  66  92 129 169 208 261 318 376
#     4  11  24  42  63  97 128 167 212 258 317 380
#
# _framework density 21.693301999999999
#
# number of rings (size 3 to 8) (size 9 to 14) (size 15 to 20)
#    0.000    1.000    5.000    1.500    3.500    4.000 
#    0.000    5.000    0.000    0.000    0.000    0.000 
#    0.000    0.000    0.000    0.000    0.000    0.000 
#
# Total GULP energy -793547.501899 kJ/mol
# GULP energy per Si atom -12399.179717 kJ/mol
# Density = 2.164393 g / cm^3
# Si number density = 21.693302 Si / 1000 Ang^3
#
#
#
# Elastic Constant Matrix: (Units=GPa)
#
#
# Indices 1 2 3 4 5 6 
#
# 1 47.5916 8.1332 12.2155 0.0000 0.0000 0.0000
# 2 8.1332 65.8681 18.2428 0.0000 0.0000 0.0000
# 3 12.2155 18.2428 122.1089 0.0000 0.0000 0.0000
# 4 0.0000 0.0000 0.0000 26.2723 0.0000 0.0000
# 5 0.0000 0.0000 0.0000 0.0000 -79.3461 0.0000
# 6 0.0000 0.0000 0.0000 0.0000 0.0000 49.8769
#
#
#
# Elastic Compliance Matrix: (Units=1/GPa)
#
#
# Indices 1 2 3 4 5 6 
#
# 1 0.021863 -0.002184 -0.001861 0.000000 0.000000 0.000000
# 2 -0.002184 0.016055 -0.002180 0.000000 0.000000 0.000000
# 3 -0.001861 -0.002180 0.008701 0.000000 0.000000 0.000000
# 4 0.000000 0.000000 0.000000 0.038063 0.000000 0.000000
# 5 0.000000 0.000000 0.000000 0.000000 -0.012603 0.000000
# 6 0.000000 0.000000 0.000000 0.000000 0.000000 0.020049
#
#
# Mechanical properties :
#
#
# Convention : Reuss Voigt Hill
#
# Bulk Modulus (GPa) = 29.26600 34.75016 32.00808
# Shear Modulus (GPa) = 43.11501 12.49244 27.80373
#
# Velocity S-wave (km/s) = 4.46295 2.40232 3.58393
# Velocity P-wave (km/s) = 6.33067 4.87324 5.64915
#
# Compressibility (1/GPa) = 0.03416934
#
# Stress axis : x y z
#
# Youngs Moduli (GPa) = 45.73936 62.28453 114.92577
#
# Poissons Ratio (x) = 0.13604 0.21385
# Poissons Ratio (y) = 0.09990 0.25055
# Poissons Ratio (z) = 0.08511 0.13579
#
# Static dielectric constant tensor:
#      x y z
#    x 3.831070 0.000000 0.000000 
#    y 0.000000 4.123320 0.000000 
#    z 0.000000 0.000000 3.868180 
# 
# 
# High freq. dielectric constant tensor:
#      x y z
#    x 1.843700 0.000000 0.000000 
#    y 0.000000 1.862850 0.000000 
#    z 0.000000 0.000000 1.849530 
# 
# From -- ./inp_files/11080.got.cif
#   From: 2010.03.12/outbox.cif.g09.slc.cpg/sg61_6_cif.got.tgz:11080.got - 2010.04.10 19:05:03.
