data_PCOD8249601
_publ_section_title
;
Structure prediction by ZEFSAII (Michael W. Deem and Ramdas Pophale) SiO2 
 PCOD8249601
Probable space group: P B C A
;
_chemical_formula_sum "Si O2"
_cell_formula_units_Z 40
_cell_length_a 11.606553
_cell_length_b 10.546146
_cell_length_c 14.678223
_cell_angle_alpha 90.000000
_cell_angle_beta 90.000000
_cell_angle_gamma 90.000000
_cell_volume 1796.679116
_symmetry_space_group_name_H-M "P B C A"
_symmetry_group_IT_number 61
_symmetry_cell_setting 'orthorhombic'
loop_
_space_group_symop_operation_xyz
x,y,z
1/2-x,-y,1/2+z
1/2+x,1/2-y,-z
-x,1/2+y,1/2-z
-x,-y,-z
1/2+x,y,1/2-z
1/2-x,1/2+y,z
x,1/2-y,1/2+z
loop_
_atom_site_type_symbol
_atom_site_label
_atom_site_fract_x
_atom_site_fract_y
_atom_site_fract_z
Si Si1 0.946295 0.719210 0.324557
Si Si2 0.905388 0.980739 0.246310
Si Si3 0.449908 0.186341 0.512722
Si Si4 0.329021 0.534744 0.940192
Si Si5 0.295590 0.365321 0.605542
O O1 0.810063 0.694730 0.338705
O O2 0.004208 0.592216 0.281713
O O3 0.000749 0.754273 0.422553
O O4 0.964937 0.842888 0.260855
O O5 0.839408 0.012483 0.339772
O O6 0.804976 0.971042 0.168148
O O7 0.545291 0.098346 0.557993
O O8 0.406899 0.276326 0.594089
O O9 0.338407 0.104371 0.483701
O O10 0.234747 0.606995 0.999521
#
# Coordination Sequence:
#
# PCOD8249601 Si02
#       5
#     8   8   8   8   8
#     4  10  24  41  63  95 127 168 213 257 315 377
#     4  11  23  40  65  94 129 165 209 265 314 375
#     4   9  19  39  60  83 124 165 202 253 311 374
#     4   9  20  38  59  86 123 164 202 253 317 370
#     4  11  22  38  65  92 123 166 214 259 313 373
#
# _framework density 22.263297000000001
#
# number of rings (size 3 to 8) (size 9 to 14) (size 15 to 20)
#    0.000    2.000    0.000    3.600    0.000    7.200 
#    0.000    0.000    0.000    0.000    0.000    0.000 
#    0.000    0.000    0.000    0.000    0.000    0.000 
#
# Total GULP energy -495641.837104 kJ/mol
# GULP energy per Si atom -12391.045928 kJ/mol
# Density = 2.221262 g / cm^3
# Si number density = 22.263297 Si / 1000 Ang^3
#
#
#
# Elastic Constant Matrix: (Units=GPa)
#
#
# Indices 1 2 3 4 5 6 
#
# 1 55.7749 21.9657 24.0100 0.0000 0.0000 0.0000
# 2 21.9657 117.3910 55.0498 0.0000 0.0000 0.0000
# 3 24.0100 55.0498 97.7618 0.0000 0.0000 0.0000
# 4 0.0000 0.0000 0.0000 45.2270 0.0000 0.0000
# 5 0.0000 0.0000 0.0000 0.0000 27.8596 0.0000
# 6 0.0000 0.0000 0.0000 0.0000 0.0000 12.6045
#
#
#
# Elastic Compliance Matrix: (Units=1/GPa)
#
#
# Indices 1 2 3 4 5 6 
#
# 1 0.020386 -0.001993 -0.003885 0.000000 0.000000 0.000000
# 2 -0.001993 0.011770 -0.006138 0.000000 0.000000 0.000000
# 3 -0.003885 -0.006138 0.014639 0.000000 0.000000 0.000000
# 4 0.000000 0.000000 0.000000 0.022111 0.000000 0.000000
# 5 0.000000 0.000000 0.000000 0.000000 0.035894 0.000000
# 6 0.000000 0.000000 0.000000 0.000000 0.000000 0.079337
#
#
# Mechanical properties :
#
#
# Convention : Reuss Voigt Hill
#
# Bulk Modulus (GPa) = 43.92864 52.55320 48.24092
# Shear Modulus (GPa) = 23.17422 28.46502 25.81962
#
# Velocity S-wave (km/s) = 3.22982 3.57958 3.40919
# Velocity P-wave (km/s) = 5.80373 6.38287 6.10018
#
# Compressibility (1/GPa) = 0.02276419
#
# Stress axis : x y z
#
# Youngs Moduli (GPa) = 49.05246 84.96231 68.30872
#
# Poissons Ratio (x) = 0.16933 0.26535
# Poissons Ratio (y) = 0.09776 0.41929
# Poissons Ratio (z) = 0.19055 0.52152
#
# Static dielectric constant tensor:
#      x y z
#    x 3.669490 0.000000 0.000000 
#    y 0.000000 3.926070 0.000000 
#    z 0.000000 0.000000 4.195000 
# 
# 
# High freq. dielectric constant tensor:
#      x y z
#    x 1.849360 0.000000 0.000000 
#    y 0.000000 1.875050 0.000000 
#    z 0.000000 0.000000 1.891960 
# 
# From -- ./inp_files/5117.got.cif
#   From: 2010.03.12/outbox.cif.g09.slc.cpg/sg61_3_cif.got.tgz:5117.got - 2010.04.10 19:05:03.
