data_PCOD8249714
_publ_section_title
;
Structure prediction by ZEFSAII (Michael W. Deem and Ramdas Pophale) SiO2 
 PCOD8249714
Probable space group: P B C A
;
_chemical_formula_sum "Si O2"
_cell_formula_units_Z 48
_cell_length_a 9.193900
_cell_length_b 14.731322
_cell_length_c 15.769299
_cell_angle_alpha 90.000000
_cell_angle_beta 90.000000
_cell_angle_gamma 90.000000
_cell_volume 2135.767070
_symmetry_space_group_name_H-M "P B C A"
_symmetry_group_IT_number 61
_symmetry_cell_setting 'orthorhombic'
loop_
_space_group_symop_operation_xyz
x,y,z
1/2-x,-y,1/2+z
1/2+x,1/2-y,-z
-x,1/2+y,1/2-z
-x,-y,-z
1/2+x,y,1/2-z
1/2-x,1/2+y,z
x,1/2-y,1/2+z
loop_
_atom_site_type_symbol
_atom_site_label
_atom_site_fract_x
_atom_site_fract_y
_atom_site_fract_z
Si Si1 0.009067 0.921244 0.874853
Si Si2 0.759998 0.936697 0.119071
Si Si3 0.885246 0.752869 0.094343
Si Si4 0.453882 0.928659 0.815717
Si Si5 0.830022 0.326947 0.480543
Si Si6 0.287119 0.481190 0.563522
O O1 0.021066 0.903172 0.774636
O O2 0.842750 0.918828 0.902739
O O3 0.081458 0.018549 0.896334
O O4 0.094297 0.846086 0.928536
O O5 0.795532 0.832639 0.143509
O O6 0.668835 0.991048 0.191184
O O7 0.670412 0.947364 0.030943
O O8 0.876348 0.660792 0.148028
O O9 0.054499 0.778097 0.080941
O O10 0.805373 0.738803 0.003392
O O11 0.576694 0.967258 0.876606
O O12 0.763186 0.414426 0.434557
#
# Coordination Sequence:
#
# PCOD8249714 Si02
#       6
#     8   8   8   8   8   8
#     4  11  22  47  64  96 142 182 217 294 355 383
#     4  11  22  46  67  95 135 184 230 274 341 415
#     4  12  24  43  71 104 132 179 239 278 337 420
#     4  12  26  41  70 105 140 178 233 292 342 399
#     4  11  24  43  71  99 134 182 233 281 337 420
#     4  11  21  43  72  91 133 183 229 277 343 412
#
# _framework density 22.474361999999999
#
# number of rings (size 3 to 8) (size 9 to 14) (size 15 to 20)
#    0.000    0.667    6.667    3.500    2.333    0.000 
#    3.000    1.667    0.000    0.000    0.000    0.000 
#    0.000    0.000    0.000    0.000    0.000    0.000 
#
# Total GULP energy -595186.753231 kJ/mol
# GULP energy per Si atom -12399.724026 kJ/mol
# Density = 2.242321 g / cm^3
# Si number density = 22.474362 Si / 1000 Ang^3
#
#
#
# Elastic Constant Matrix: (Units=GPa)
#
#
# Indices 1 2 3 4 5 6 
#
# 1 71.2497 34.6052 2.2613 0.0000 0.0000 0.0000
# 2 34.6052 109.3831 11.1799 0.0000 0.0000 0.0000
# 3 2.2613 11.1799 72.3116 0.0000 0.0000 0.0000
# 4 0.0000 0.0000 0.0000 12.8394 0.0000 0.0000
# 5 0.0000 0.0000 0.0000 0.0000 30.8605 0.0000
# 6 0.0000 0.0000 0.0000 0.0000 0.0000 34.5980
#
#
#
# Elastic Compliance Matrix: (Units=1/GPa)
#
#
# Indices 1 2 3 4 5 6 
#
# 1 0.016590 -0.005279 0.000297 0.000000 0.000000 0.000000
# 2 -0.005279 0.010969 -0.001531 0.000000 0.000000 0.000000
# 3 0.000297 -0.001531 0.014056 0.000000 0.000000 0.000000
# 4 0.000000 0.000000 0.000000 0.077885 0.000000 0.000000
# 5 0.000000 0.000000 0.000000 0.000000 0.032404 0.000000
# 6 0.000000 0.000000 0.000000 0.000000 0.000000 0.028903
#
#
# Mechanical properties :
#
#
# Convention : Reuss Voigt Hill
#
# Bulk Modulus (GPa) = 34.97696 38.78193 36.87945
# Shear Modulus (GPa) = 24.58673 29.31944 26.95308
#
# Velocity S-wave (km/s) = 3.31114 3.61581 3.46682
# Velocity P-wave (km/s) = 5.49682 5.89284 5.69827
#
# Compressibility (1/GPa) = 0.02859025
#
# Stress axis : x y z
#
# Youngs Moduli (GPa) = 60.27885 91.16875 71.14193
#
# Poissons Ratio (x) = 0.48126 -0.02115
# Poissons Ratio (y) = 0.31820 0.10890
# Poissons Ratio (z) = -0.01792 0.13956
#
# Static dielectric constant tensor:
#      x y z
#    x 4.245040 0.000000 0.000000 
#    y 0.000000 3.957220 0.000000 
#    z 0.000000 0.000000 3.805010 
# 
# 
# High freq. dielectric constant tensor:
#      x y z
#    x 1.903850 0.000000 0.000000 
#    y 0.000000 1.881870 0.000000 
#    z 0.000000 0.000000 1.854830 
# 
# From -- ./inp_files/8910.got.cif
#   From: 2010.03.12/outbox.cif.g09.slc.cpg/sg61_5_cif.got.tgz:8910.got - 2010.04.10 19:05:03.
