data_PCOD8249046
_publ_section_title
;
Structure prediction by ZEFSAII (Michael W. Deem and Ramdas Pophale) SiO2 
 PCOD8249046
Probable space group: P B C A
;
_chemical_formula_sum "Si O2"
_cell_formula_units_Z 64
_cell_length_a 9.270090
_cell_length_b 15.204501
_cell_length_c 22.577749
_cell_angle_alpha 90.000000
_cell_angle_beta 90.000000
_cell_angle_gamma 90.000000
_cell_volume 3182.268081
_symmetry_space_group_name_H-M "P B C A"
_symmetry_group_IT_number 61
_symmetry_cell_setting 'orthorhombic'
loop_
_space_group_symop_operation_xyz
x,y,z
1/2-x,-y,1/2+z
1/2+x,1/2-y,-z
-x,1/2+y,1/2-z
-x,-y,-z
1/2+x,y,1/2-z
1/2-x,1/2+y,z
x,1/2-y,1/2+z
loop_
_atom_site_type_symbol
_atom_site_label
_atom_site_fract_x
_atom_site_fract_y
_atom_site_fract_z
Si Si1 0.638336 0.412297 0.555677
Si Si2 0.113062 0.697942 0.716132
Si Si3 0.164026 0.524073 0.661387
Si Si4 0.342293 0.009635 0.351839
Si Si5 0.756356 0.623747 0.247753
Si Si6 0.094029 0.438354 0.073876
Si Si7 0.121849 0.850750 0.343907
Si Si8 0.875354 0.725129 0.146346
O O1 0.786770 0.438214 0.589615
O O2 0.519918 0.486796 0.560586
O O3 0.661350 0.395467 0.485755
O O4 0.578135 0.322913 0.585783
O O5 0.207803 0.614410 0.695246
O O6 0.197862 0.789814 0.718627
O O7 0.050390 0.672808 0.780620
O O8 0.988628 0.701357 0.666305
O O9 0.178145 0.439980 0.703434
O O10 0.275250 0.515219 0.607840
O O11 0.001292 0.527738 0.635619
O O12 0.224014 0.935425 0.337630
O O13 0.358609 0.072107 0.293670
O O14 0.878280 0.654716 0.200754
O O15 0.010553 0.363028 0.110894
O O16 0.218583 0.768121 0.364184
#
# Coordination Sequence:
#
# PCOD8249046 Si02
#       8
#     8   8   8   8   8   8   8   8
#     4   9  21  45  65  81 121 169 218 252 314 366
#     4  11  22  35  60  93 131 156 209 255 314 376
#     4  12  23  36  64  97 126 161 207 262 316 366
#     4  10  20  39  61  88 122 167 203 255 309 370
#     4  10  22  36  57  94 130 164 197 253 320 375
#     4  10  23  40  64  90 117 167 213 260 306 375
#     4  10  21  36  59  87 124 162 202 250 317 371
#     4  10  20  39  60  87 122 166 201 256 302 376
#
# _framework density 20.111443000000001
#
# number of rings (size 3 to 8) (size 9 to 14) (size 15 to 20)
#    0.000    1.750    2.500    1.500    5.250    0.500 
#    2.250    0.000    0.000    0.000    0.000    0.000 
#    0.000    0.000    0.000    0.000    0.000    0.000 
#
# Total GULP energy -793203.730743 kJ/mol
# GULP energy per Si atom -12393.808293 kJ/mol
# Density = 2.006567 g / cm^3
# Si number density = 20.111443 Si / 1000 Ang^3
#
#
#
# Elastic Constant Matrix: (Units=GPa)
#
#
# Indices 1 2 3 4 5 6 
#
# 1 71.9244 22.8595 38.9871 0.0000 0.0000 0.0000
# 2 22.8595 97.5730 48.4931 0.0000 0.0000 0.0000
# 3 38.9871 48.4931 107.5391 0.0000 0.0000 0.0000
# 4 0.0000 0.0000 0.0000 28.0528 0.0000 0.0000
# 5 0.0000 0.0000 0.0000 0.0000 19.9146 0.0000
# 6 0.0000 0.0000 0.0000 0.0000 0.0000 22.6674
#
#
#
# Elastic Compliance Matrix: (Units=1/GPa)
#
#
# Indices 1 2 3 4 5 6 
#
# 1 0.017415 -0.001214 -0.005766 0.000000 0.000000 0.000000
# 2 -0.001214 0.013294 -0.005554 0.000000 0.000000 0.000000
# 3 -0.005766 -0.005554 0.013894 0.000000 0.000000 0.000000
# 4 0.000000 0.000000 0.000000 0.035647 0.000000 0.000000
# 5 0.000000 0.000000 0.000000 0.000000 0.050214 0.000000
# 6 0.000000 0.000000 0.000000 0.000000 0.000000 0.044116
#
#
# Mechanical properties :
#
#
# Convention : Reuss Voigt Hill
#
# Bulk Modulus (GPa) = 51.19473 55.30178 53.24825
# Shear Modulus (GPa) = 24.25291 25.24007 24.74649
#
# Velocity S-wave (km/s) = 3.47641 3.54646 3.51161
# Velocity P-wave (km/s) = 6.45172 6.65786 6.55560
#
# Compressibility (1/GPa) = 0.01953326
#
# Stress axis : x y z
#
# Youngs Moduli (GPa) = 57.42194 75.22361 71.97351
#
# Poissons Ratio (x) = 0.09135 0.41500
# Poissons Ratio (y) = 0.06973 0.39977
# Poissons Ratio (z) = 0.33110 0.41782
#
# Static dielectric constant tensor:
#      x y z
#    x 3.445180 0.000000 0.000000 
#    y 0.000000 3.786080 0.000000 
#    z 0.000000 0.000000 3.765780 
# 
# 
# High freq. dielectric constant tensor:
#      x y z
#    x 1.768730 0.000000 0.000000 
#    y 0.000000 1.794920 0.000000 
#    z 0.000000 0.000000 1.769100 
# 
# From -- ./inp_files/10936.got.cif
#   From: 2010.03.12/outbox.cif.g09.slc.cpg/sg61_6_cif.got.tgz:10936.got - 2010.04.10 19:05:03.
