data_PCOD8249049
_publ_section_title
;
Structure prediction by ZEFSAII (Michael W. Deem and Ramdas Pophale) SiO2 
 PCOD8249049
Probable space group: P B C A
;
_chemical_formula_sum "Si O2"
_cell_formula_units_Z 56
_cell_length_a 15.408571
_cell_length_b 7.855578
_cell_length_c 22.228038
_cell_angle_alpha 90.000000
_cell_angle_beta 90.000000
_cell_angle_gamma 90.000000
_cell_volume 2690.553546
_symmetry_space_group_name_H-M "P B C A"
_symmetry_group_IT_number 61
_symmetry_cell_setting 'orthorhombic'
loop_
_space_group_symop_operation_xyz
x,y,z
1/2-x,-y,1/2+z
1/2+x,1/2-y,-z
-x,1/2+y,1/2-z
-x,-y,-z
1/2+x,y,1/2-z
1/2-x,1/2+y,z
x,1/2-y,1/2+z
loop_
_atom_site_type_symbol
_atom_site_label
_atom_site_fract_x
_atom_site_fract_y
_atom_site_fract_z
Si Si1 0.259934 0.124533 0.131611
Si Si2 0.892233 0.359580 0.199462
Si Si3 0.042803 0.844263 0.428313
Si Si4 0.929980 0.171938 0.438369
Si Si5 0.578311 0.457236 0.893903
Si Si6 0.773992 0.627024 0.776415
Si Si7 0.057475 0.326566 0.737075
O O1 0.346703 0.098390 0.094912
O O2 0.244692 0.319893 0.152287
O O3 0.180408 0.057795 0.090614
O O4 0.266885 0.070991 0.204458
O O5 0.892974 0.316363 0.128378
O O6 0.795328 0.331152 0.224130
O O7 0.926362 0.552979 0.205852
O O8 0.959863 0.243399 0.236883
O O9 0.093334 0.818092 0.490762
O O10 0.969439 0.698572 0.426543
O O11 0.005556 0.035978 0.425973
O O12 0.958274 0.359250 0.414900
O O13 0.571796 0.442430 0.821882
O O14 0.871944 0.674497 0.757722
#
# Coordination Sequence:
#
# PCOD8249049 Si02
#       7
#     8   8   8   8   8   8   8
#     4  11  19  35  64  90 108 153 210 255 299 361
#     4  11  22  38  60  89 127 160 201 251 326 372
#     4  10  25  39  58  92 126 159 208 252 305 385
#     4  11  21  40  65  85 123 163 205 261 302 352
#     4  10  20  39  61  91 116 151 205 260 307 358
#     4  11  21  38  59  92 126 150 203 268 303 366
#     4  10  23  35  59  93 117 159 204 253 315 380
#
# _framework density 20.813559999999999
#
# number of rings (size 3 to 8) (size 9 to 14) (size 15 to 20)
#    0.000    1.429    4.286    3.000    6.000    0.000 
#    0.000    1.429    0.000    0.000    0.000    0.000 
#    0.000    0.000    0.000    0.000    0.000    0.000 
#
# Total GULP energy -693946.304219 kJ/mol
# GULP energy per Si atom -12391.898290 kJ/mol
# Density = 2.076619 g / cm^3
# Si number density = 20.813560 Si / 1000 Ang^3
#
#
#
# Elastic Constant Matrix: (Units=GPa)
#
#
# Indices 1 2 3 4 5 6 
#
# 1 48.8269 23.1496 39.4490 0.0000 0.0000 0.0000
# 2 23.1496 82.7788 24.9932 0.0000 0.0000 0.0000
# 3 39.4490 24.9932 87.7476 0.0000 0.0000 0.0000
# 4 0.0000 0.0000 0.0000 27.7757 0.0000 0.0000
# 5 0.0000 0.0000 0.0000 0.0000 27.4771 0.0000
# 6 0.0000 0.0000 0.0000 0.0000 0.0000 27.0015
#
#
#
# Elastic Compliance Matrix: (Units=1/GPa)
#
#
# Indices 1 2 3 4 5 6 
#
# 1 0.034228 -0.005389 -0.013853 0.000000 0.000000 0.000000
# 2 -0.005389 0.014066 -0.001583 0.000000 0.000000 0.000000
# 3 -0.013853 -0.001583 0.018075 0.000000 0.000000 0.000000
# 4 0.000000 0.000000 0.000000 0.036003 0.000000 0.000000
# 5 0.000000 0.000000 0.000000 0.000000 0.036394 0.000000
# 6 0.000000 0.000000 0.000000 0.000000 0.000000 0.037035
#
#
# Mechanical properties :
#
#
# Convention : Reuss Voigt Hill
#
# Bulk Modulus (GPa) = 40.45739 43.83744 42.14741
# Shear Modulus (GPa) = 22.15417 25.23498 23.69457
#
# Velocity S-wave (km/s) = 3.26607 3.48577 3.37771
# Velocity P-wave (km/s) = 5.80544 6.10807 5.95868
#
# Compressibility (1/GPa) = 0.02471736
#
# Stress axis : x y z
#
# Youngs Moduli (GPa) = 29.21578 71.09522 55.32432
#
# Poissons Ratio (x) = 0.38317 0.76641
# Poissons Ratio (y) = 0.15746 0.08760
# Poissons Ratio (z) = 0.40472 0.11257
#
# Static dielectric constant tensor:
#      x y z
#    x 3.543720 0.000000 0.000000 
#    y 0.000000 4.085680 0.000000 
#    z 0.000000 0.000000 3.625360 
# 
# 
# High freq. dielectric constant tensor:
#      x y z
#    x 1.797090 0.000000 0.000000 
#    y 0.000000 1.845620 0.000000 
#    z 0.000000 0.000000 1.792240 
# 
# From -- ./inp_files/7168.got.cif
#   From: 2010.03.12/outbox.cif.g09.slc.cpg/sg61_4_cif.got.tgz:7168.got - 2010.04.10 19:05:03.
