data_PCOD8249480
_publ_section_title
;
Structure prediction by ZEFSAII (Michael W. Deem and Ramdas Pophale) SiO2 
 PCOD8249480
Probable space group: P B C A
;
_chemical_formula_sum "Si O2"
_cell_formula_units_Z 64
_cell_length_a 11.416580
_cell_length_b 9.363791
_cell_length_c 27.070244
_cell_angle_alpha 90.000000
_cell_angle_beta 90.000000
_cell_angle_gamma 90.000000
_cell_volume 2893.875922
_symmetry_space_group_name_H-M "P B C A"
_symmetry_group_IT_number 61
_symmetry_cell_setting 'orthorhombic'
loop_
_space_group_symop_operation_xyz
x,y,z
1/2-x,-y,1/2+z
1/2+x,1/2-y,-z
-x,1/2+y,1/2-z
-x,-y,-z
1/2+x,y,1/2-z
1/2-x,1/2+y,z
x,1/2-y,1/2+z
loop_
_atom_site_type_symbol
_atom_site_label
_atom_site_fract_x
_atom_site_fract_y
_atom_site_fract_z
Si Si1 0.393813 0.963207 0.832312
Si Si2 0.380789 0.420334 0.727988
Si Si3 0.363098 0.107868 0.585727
Si Si4 0.168863 0.784297 0.828775
Si Si5 0.140019 0.109048 0.525963
Si Si6 0.717474 0.311603 0.322756
Si Si7 0.034799 0.309891 0.603270
Si Si8 0.492880 0.878177 0.931666
O O1 0.486401 0.917388 0.790852
O O2 0.301937 0.834094 0.835913
O O3 0.458587 0.977300 0.885058
O O4 0.334867 0.114272 0.817713
O O5 0.387205 0.380173 0.785320
O O6 0.300959 0.304471 0.701095
O O7 0.326264 0.577513 0.718925
O O8 0.275928 0.133512 0.539208
O O9 0.287168 0.102611 0.635404
O O10 0.463118 0.226799 0.588232
O O11 0.427142 0.959256 0.580329
O O12 0.099705 0.817739 0.879403
O O13 0.050832 0.204161 0.557750
O O14 0.118802 0.140623 0.468020
O O15 0.102227 0.946911 0.538845
O O16 0.606638 0.235833 0.347908
#
# Coordination Sequence:
#
# PCOD8249480 Si02
#       8
#     8   8   8   8   8   8   8   8
#     4  12  27  50  67 104 150 187 235 299 368 428
#     4  12  25  45  74 101 140 184 245 290 360 432
#     4  11  22  40  72 107 133 184 240 291 360 426
#     4  12  29  44  70 100 147 192 234 299 365 427
#     4  10  22  43  72 102 142 186 238 295 357 433
#     4  11  21  42  71 102 134 183 231 303 343 416
#     4  11  23  43  67 101 146 179 241 298 349 425
#     4  11  23  45  72 101 145 188 230 301 366 426
#
# _framework density 22.115667999999999
#
# number of rings (size 3 to 8) (size 9 to 14) (size 15 to 20)
#    0.000    0.750    5.000    3.000    3.500    3.500 
#    2.250    0.000    0.000    0.000    0.000    0.000 
#    0.000    0.000    0.000    0.000    0.000    0.000 
#
# Total GULP energy -793853.566068 kJ/mol
# GULP energy per Si atom -12403.961970 kJ/mol
# Density = 2.206533 g / cm^3
# Si number density = 22.115668 Si / 1000 Ang^3
#
#
#
# Elastic Constant Matrix: (Units=GPa)
#
#
# Indices 1 2 3 4 5 6 
#
# 1 83.0435 30.2887 3.8774 0.0000 0.0000 0.0000
# 2 30.2887 114.1626 13.4034 0.0000 0.0000 0.0000
# 3 3.8774 13.4034 60.8229 0.0000 0.0000 0.0000
# 4 0.0000 0.0000 0.0000 24.4358 0.0000 0.0000
# 5 0.0000 0.0000 0.0000 0.0000 24.8613 0.0000
# 6 0.0000 0.0000 0.0000 0.0000 0.0000 41.6587
#
#
#
# Elastic Compliance Matrix: (Units=1/GPa)
#
#
# Indices 1 2 3 4 5 6 
#
# 1 0.013332 -0.003529 -0.000072 0.000000 0.000000 0.000000
# 2 -0.003529 0.009926 -0.001962 0.000000 0.000000 0.000000
# 3 -0.000072 -0.001962 0.016878 0.000000 0.000000 0.000000
# 4 0.000000 0.000000 0.000000 0.040924 0.000000 0.000000
# 5 0.000000 0.000000 0.000000 0.000000 0.040223 0.000000
# 6 0.000000 0.000000 0.000000 0.000000 0.000000 0.024005
#
#
# Mechanical properties :
#
#
# Convention : Reuss Voigt Hill
#
# Bulk Modulus (GPa) = 34.47125 39.24088 36.85607
# Shear Modulus (GPa) = 30.10510 32.22178 31.16344
#
# Velocity S-wave (km/s) = 3.69352 3.82116 3.75789
# Velocity P-wave (km/s) = 5.81465 6.10331 5.96073
#
# Compressibility (1/GPa) = 0.02900968
#
# Stress axis : x y z
#
# Youngs Moduli (GPa) = 75.00582 100.74500 59.24784
#
# Poissons Ratio (x) = 0.35550 0.00428
# Poissons Ratio (y) = 0.26468 0.11627
# Poissons Ratio (z) = 0.00542 0.19770
#
# Static dielectric constant tensor:
#      x y z
#    x 3.902600 0.000000 0.000000 
#    y 0.000000 3.994300 0.000000 
#    z 0.000000 0.000000 3.974340 
# 
# 
# High freq. dielectric constant tensor:
#      x y z
#    x 1.864940 0.000000 0.000000 
#    y 0.000000 1.881170 0.000000 
#    z 0.000000 0.000000 1.862960 
# 
# From -- ./inp_files/11793.got.cif
#   From: 2010.03.12/outbox.cif.g09.slc.cpg/sg61_6_cif.got.tgz:11793.got - 2010.04.10 19:05:03.
