data_PCOD8249787
_publ_section_title
;
Structure prediction by ZEFSAII (Michael W. Deem and Ramdas Pophale) SiO2 
 PCOD8249787
Probable space group: P B C A
;
_chemical_formula_sum "Si O2"
_cell_formula_units_Z 48
_cell_length_a 9.616541
_cell_length_b 13.864094
_cell_length_c 17.274408
_cell_angle_alpha 90.000000
_cell_angle_beta 90.000000
_cell_angle_gamma 90.000000
_cell_volume 2303.104027
_symmetry_space_group_name_H-M "P B C A"
_symmetry_group_IT_number 61
_symmetry_cell_setting 'orthorhombic'
loop_
_space_group_symop_operation_xyz
x,y,z
1/2-x,-y,1/2+z
1/2+x,1/2-y,-z
-x,1/2+y,1/2-z
-x,-y,-z
1/2+x,y,1/2-z
1/2-x,1/2+y,z
x,1/2-y,1/2+z
loop_
_atom_site_type_symbol
_atom_site_label
_atom_site_fract_x
_atom_site_fract_y
_atom_site_fract_z
Si Si1 0.712991 0.149355 0.915772
Si Si2 0.648286 0.363868 0.911972
Si Si3 0.346960 0.854461 0.907038
Si Si4 0.600078 0.533522 0.348666
Si Si5 0.955647 0.857816 0.084982
Si Si6 0.901247 0.048580 0.169707
O O1 0.662635 0.253346 0.888995
O O2 0.878262 0.137100 0.906580
O O3 0.626275 0.079555 0.860100
O O4 0.663168 0.129134 0.002162
O O5 0.800999 0.409440 0.908177
O O6 0.557620 0.417732 0.847552
O O7 0.585045 0.380205 0.996742
O O8 0.444640 0.936095 0.870156
O O9 0.399023 0.746265 0.887776
O O10 0.195943 0.872646 0.871538
O O11 0.631048 0.556149 0.259839
O O12 0.883302 0.939118 0.138402
#
# Coordination Sequence:
#
# PCOD8249787 Si02
#       6
#     8   8   8   8   8   8
#     4  11  23  44  72  97 126 175 228 270 319 387
#     4  11  23  44  71  94 131 176 220 273 324 384
#     4  11  25  43  67 103 127 168 227 275 316 388
#     4  12  25  41  66 100 136 170 215 268 334 394
#     4  11  23  45  72  95 128 175 226 271 323 384
#     4  12  25  42  68  98 137 176 210 269 339 390
#
# _framework density 20.841439000000001
#
# number of rings (size 3 to 8) (size 9 to 14) (size 15 to 20)
#    0.000    0.667    5.000    3.000    0.000    4.000 
#    0.000    0.000    0.000    0.000    0.000    0.000 
#    0.000    0.000    0.000    0.000    0.000    0.000 
#
# Total GULP energy -595428.450572 kJ/mol
# GULP energy per Si atom -12404.759387 kJ/mol
# Density = 2.079400 g / cm^3
# Si number density = 20.841439 Si / 1000 Ang^3
#
#
#
# Elastic Constant Matrix: (Units=GPa)
#
#
# Indices 1 2 3 4 5 6 
#
# 1 62.3703 29.8255 21.3235 0.0000 0.0000 0.0000
# 2 29.8255 119.5997 33.3236 0.0000 0.0000 0.0000
# 3 21.3235 33.3236 52.5746 0.0000 0.0000 0.0000
# 4 0.0000 0.0000 0.0000 13.6441 0.0000 0.0000
# 5 0.0000 0.0000 0.0000 0.0000 15.7596 0.0000
# 6 0.0000 0.0000 0.0000 0.0000 0.0000 32.7412
#
#
#
# Elastic Compliance Matrix: (Units=1/GPa)
#
#
# Indices 1 2 3 4 5 6 
#
# 1 0.019600 -0.003246 -0.005892 0.000000 0.000000 0.000000
# 2 -0.003246 0.010692 -0.005460 0.000000 0.000000 0.000000
# 3 -0.005892 -0.005460 0.024871 0.000000 0.000000 0.000000
# 4 0.000000 0.000000 0.000000 0.073292 0.000000 0.000000
# 5 0.000000 0.000000 0.000000 0.000000 0.063453 0.000000
# 6 0.000000 0.000000 0.000000 0.000000 0.000000 0.030543
#
#
# Mechanical properties :
#
#
# Convention : Reuss Voigt Hill
#
# Bulk Modulus (GPa) = 38.51142 44.83220 41.67181
# Shear Modulus (GPa) = 19.20831 22.43376 20.82103
#
# Velocity S-wave (km/s) = 3.03915 3.28442 3.16416
# Velocity P-wave (km/s) = 5.55280 5.99508 5.77817
#
# Compressibility (1/GPa) = 0.02596632
#
# Stress axis : x y z
#
# Youngs Moduli (GPa) = 51.02054 93.52628 40.20696
#
# Poissons Ratio (x) = 0.30360 0.23690
# Poissons Ratio (y) = 0.16562 0.21955
# Poissons Ratio (z) = 0.30061 0.51070
#
# Static dielectric constant tensor:
#      x y z
#    x 3.786600 0.000000 0.000000 
#    y 0.000000 4.000610 0.000000 
#    z 0.000000 0.000000 3.595640 
# 
# 
# High freq. dielectric constant tensor:
#      x y z
#    x 1.825810 0.000000 0.000000 
#    y 0.000000 1.831320 0.000000 
#    z 0.000000 0.000000 1.808220 
# 
# From -- ./inp_files/2845.got.cif
#   From: 2010.03.12/outbox.cif.g09.slc.cpg/sg61_2_cif.got.tgz:2845.got - 2010.04.10 19:05:03.
