data_PCOD8249555
_publ_section_title
;
Structure prediction by ZEFSAII (Michael W. Deem and Ramdas Pophale) SiO2 
 PCOD8249555
Probable space group: P B C A
;
_chemical_formula_sum "Si O2"
_cell_formula_units_Z 48
_cell_length_a 8.491553
_cell_length_b 9.868360
_cell_length_c 27.512842
_cell_angle_alpha 90.000000
_cell_angle_beta 90.000000
_cell_angle_gamma 90.000000
_cell_volume 2305.512934
_symmetry_space_group_name_H-M "P B C A"
_symmetry_group_IT_number 61
_symmetry_cell_setting 'orthorhombic'
loop_
_space_group_symop_operation_xyz
x,y,z
1/2-x,-y,1/2+z
1/2+x,1/2-y,-z
-x,1/2+y,1/2-z
-x,-y,-z
1/2+x,y,1/2-z
1/2-x,1/2+y,z
x,1/2-y,1/2+z
loop_
_atom_site_type_symbol
_atom_site_label
_atom_site_fract_x
_atom_site_fract_y
_atom_site_fract_z
Si Si1 0.941408 0.246947 0.850163
Si Si2 0.062751 0.521510 0.313550
Si Si3 0.141979 0.132730 0.541855
Si Si4 0.073085 0.211101 0.646482
Si Si5 0.423376 0.170760 0.046478
Si Si6 0.573113 0.022540 0.209091
O O1 0.753374 0.252586 0.844762
O O2 0.998693 0.320043 0.899794
O O3 0.019292 0.326494 0.805369
O O4 0.004965 0.093847 0.850652
O O5 0.244023 0.499354 0.300819
O O6 0.040303 0.665029 0.339804
O O7 0.954356 0.507781 0.266167
O O8 0.044181 0.173669 0.590026
O O9 0.311149 0.200621 0.541534
O O10 0.055580 0.185135 0.494021
O O11 0.168477 0.971108 0.540388
O O12 0.032156 0.083823 0.679795
#
# Coordination Sequence:
#
# PCOD8249555 Si02
#       6
#     8   8   8   8   8   8
#     4  11  23  43  66  94 129 172 214 268 323 380
#     4  12  26  40  67  94 129 172 217 266 328 380
#     4  10  23  43  67  97 131 169 213 264 319 382
#     4  11  23  43  66  94 129 172 214 268 323 380
#     4  10  23  43  67  97 131 169 213 264 319 382
#     4  12  24  44  63  96 131 168 219 270 318 390
#
# _framework density 20.819662000000001
#
# number of rings (size 3 to 8) (size 9 to 14) (size 15 to 20)
#    0.000    1.000    1.667    5.000    7.000    3.333 
#    0.000    0.000    0.000    0.000    0.000    0.000 
#    0.000    0.000    0.000    0.000    0.000    0.000 
#
# Total GULP energy -595510.090351 kJ/mol
# GULP energy per Si atom -12406.460216 kJ/mol
# Density = 2.077228 g / cm^3
# Si number density = 20.819662 Si / 1000 Ang^3
#
#
#
# Elastic Constant Matrix: (Units=GPa)
#
#
# Indices 1 2 3 4 5 6 
#
# 1 65.3400 0.0536 24.8650 0.0000 0.0000 0.0000
# 2 0.0536 70.3256 11.3109 0.0000 0.0000 0.0000
# 3 24.8650 11.3109 74.6615 0.0000 0.0000 0.0000
# 4 0.0000 0.0000 0.0000 36.4022 0.0000 0.0000
# 5 0.0000 0.0000 0.0000 0.0000 28.2365 0.0000
# 6 0.0000 0.0000 0.0000 0.0000 0.0000 35.9438
#
#
#
# Elastic Compliance Matrix: (Units=1/GPa)
#
#
# Indices 1 2 3 4 5 6 
#
# 1 0.017588 0.000952 -0.006002 0.000000 0.000000 0.000000
# 2 0.000952 0.014626 -0.002533 0.000000 0.000000 0.000000
# 3 -0.006002 -0.002533 0.015776 0.000000 0.000000 0.000000
# 4 0.000000 0.000000 0.000000 0.027471 0.000000 0.000000
# 5 0.000000 0.000000 0.000000 0.000000 0.035415 0.000000
# 6 0.000000 0.000000 0.000000 0.000000 0.000000 0.027821
#
#
# Mechanical properties :
#
#
# Convention : Reuss Voigt Hill
#
# Bulk Modulus (GPa) = 30.46447 31.42068 30.94258
# Shear Modulus (GPa) = 30.33907 31.72300 31.03103
#
# Velocity S-wave (km/s) = 3.82151 3.90770 3.86485
# Velocity P-wave (km/s) = 5.84262 5.95691 5.90004
#
# Compressibility (1/GPa) = 0.03282512
#
# Stress axis : x y z
#
# Youngs Moduli (GPa) = 56.85813 68.37035 63.38655
#
# Poissons Ratio (x) = -0.06508 0.38042
# Poissons Ratio (y) = -0.05412 0.16055
# Poissons Ratio (z) = 0.34124 0.17317
#
# Static dielectric constant tensor:
#      x y z
#    x 3.549290 0.000000 0.000000 
#    y 0.000000 3.879990 0.000000 
#    z 0.000000 0.000000 4.085580 
# 
# 
# High freq. dielectric constant tensor:
#      x y z
#    x 1.804260 0.000000 0.000000 
#    y 0.000000 1.832580 0.000000 
#    z 0.000000 0.000000 1.827440 
# 
# From -- ./inp_files/4569.got.cif
#   From: 2010.03.12/outbox.cif.g09.slc.cpg/sg61_3_cif.got.tgz:4569.got - 2010.04.10 19:05:03.
