data_PCOD8249162
_publ_section_title
;
Structure prediction by ZEFSAII (Michael W. Deem and Ramdas Pophale) SiO2 
 PCOD8249162
Probable space group: P B C A
;
_chemical_formula_sum "Si O2"
_cell_formula_units_Z 48
_cell_length_a 9.715151
_cell_length_b 8.918579
_cell_length_c 25.973903
_cell_angle_alpha 90.000000
_cell_angle_beta 90.000000
_cell_angle_gamma 90.000000
_cell_volume 2250.517700
_symmetry_space_group_name_H-M "P B C A"
_symmetry_group_IT_number 61
_symmetry_cell_setting 'orthorhombic'
loop_
_space_group_symop_operation_xyz
x,y,z
1/2-x,-y,1/2+z
1/2+x,1/2-y,-z
-x,1/2+y,1/2-z
-x,-y,-z
1/2+x,y,1/2-z
1/2-x,1/2+y,z
x,1/2-y,1/2+z
loop_
_atom_site_type_symbol
_atom_site_label
_atom_site_fract_x
_atom_site_fract_y
_atom_site_fract_z
Si Si1 0.675870 0.456610 0.445676
Si Si2 0.113963 0.153300 0.105570
Si Si3 0.617932 0.667744 0.726627
Si Si4 0.322851 0.236510 0.888166
Si Si5 0.653306 0.148636 0.278967
Si Si6 0.883904 0.935133 0.559869
O O1 0.819938 0.540649 0.435858
O O2 0.661086 0.322989 0.405012
O O3 0.549923 0.574928 0.437902
O O4 0.672684 0.391513 0.503447
O O5 0.167169 0.102802 0.161522
O O6 0.947796 0.144777 0.103682
O O7 0.679423 0.670092 0.669135
O O8 0.703477 0.779713 0.762165
O O9 0.461917 0.724174 0.728003
O O10 0.619924 0.497731 0.745745
O O11 0.179404 0.321165 0.898561
O O12 0.337771 0.104407 0.929149
#
# Coordination Sequence:
#
# PCOD8249162 Si02
#       6
#     8   8   8   8   8   8
#     4  10  21  38  59  86 117 153 193 238 290 347
#     4  10  22  38  57  85 116 148 195 239 286 349
#     4  11  23  39  60  86 118 155 199 246 299 356
#     4  10  22  38  56  85 116 148 194 240 286 350
#     4  11  23  40  61  87 119 157 199 247 299 356
#     4  10  21  37  59  85 118 154 192 239 290 344
#
# _framework density 21.328423999999998
#
# number of rings (size 3 to 8) (size 9 to 14) (size 15 to 20)
#    0.000    1.667    0.000    4.000    0.000    7.333 
#    0.000    0.000    0.000    0.000    0.000    0.000 
#    0.000    0.000    0.000    0.000    0.000    0.000 
#
# Total GULP energy -595458.229626 kJ/mol
# GULP energy per Si atom -12405.379784 kJ/mol
# Density = 2.127988 g / cm^3
# Si number density = 21.328424 Si / 1000 Ang^3
#
#
#
# Elastic Constant Matrix: (Units=GPa)
#
#
# Indices 1 2 3 4 5 6 
#
# 1 31.3680 8.1554 32.8212 0.0000 0.0000 0.0000
# 2 8.1554 56.1193 24.3526 0.0000 0.0000 0.0000
# 3 32.8212 24.3526 108.4099 0.0000 0.0000 0.0000
# 4 0.0000 0.0000 0.0000 32.6576 0.0000 0.0000
# 5 0.0000 0.0000 0.0000 0.0000 33.3237 0.0000
# 6 0.0000 0.0000 0.0000 0.0000 0.0000 30.2448
#
#
#
# Elastic Compliance Matrix: (Units=1/GPa)
#
#
# Indices 1 2 3 4 5 6 
#
# 1 0.046687 -0.000721 -0.013972 0.000000 0.000000 0.000000
# 2 -0.000721 0.019755 -0.004219 0.000000 0.000000 0.000000
# 3 -0.013972 -0.004219 0.014402 0.000000 0.000000 0.000000
# 4 0.000000 0.000000 0.000000 0.030621 0.000000 0.000000
# 5 0.000000 0.000000 0.000000 0.000000 0.030009 0.000000
# 6 0.000000 0.000000 0.000000 0.000000 0.000000 0.033064
#
#
# Mechanical properties :
#
#
# Convention : Reuss Voigt Hill
#
# Bulk Modulus (GPa) = 23.24618 36.28397 29.76507
# Shear Modulus (GPa) = 22.05534 27.94976 25.00255
#
# Velocity S-wave (km/s) = 3.21920 3.62394 3.42755
# Velocity P-wave (km/s) = 4.97398 5.87873 5.44518
#
# Compressibility (1/GPa) = 0.04301782
#
# Stress axis : x y z
#
# Youngs Moduli (GPa) = 21.41928 50.62030 69.43381
#
# Poissons Ratio (x) = 0.03652 0.97016
# Poissons Ratio (y) = 0.01545 0.29296
# Poissons Ratio (z) = 0.29928 0.21358
#
# Static dielectric constant tensor:
#      x y z
#    x 3.914760 0.000000 0.000000 
#    y 0.000000 3.577350 0.000000 
#    z 0.000000 0.000000 3.896230 
# 
# 
# High freq. dielectric constant tensor:
#      x y z
#    x 1.837140 0.000000 0.000000 
#    y 0.000000 1.826540 0.000000 
#    z 0.000000 0.000000 1.847110 
# 
# From -- ./inp_files/4578.got.cif
#   From: 2010.03.12/outbox.cif.g09.slc.cpg/sg61_3_cif.got.tgz:4578.got - 2010.04.10 19:05:03.
