data_PCOD8249783
_publ_section_title
;
Structure prediction by ZEFSAII (Michael W. Deem and Ramdas Pophale) SiO2 
 PCOD8249783
Probable space group: P B C A
;
_chemical_formula_sum "Si O2"
_cell_formula_units_Z 64
_cell_length_a 7.398395
_cell_length_b 18.126151
_cell_length_c 20.624261
_cell_angle_alpha 90.000000
_cell_angle_beta 90.000000
_cell_angle_gamma 90.000000
_cell_volume 2765.804661
_symmetry_space_group_name_H-M "P B C A"
_symmetry_group_IT_number 61
_symmetry_cell_setting 'orthorhombic'
loop_
_space_group_symop_operation_xyz
x,y,z
1/2-x,-y,1/2+z
1/2+x,1/2-y,-z
-x,1/2+y,1/2-z
-x,-y,-z
1/2+x,y,1/2-z
1/2-x,1/2+y,z
x,1/2-y,1/2+z
loop_
_atom_site_type_symbol
_atom_site_label
_atom_site_fract_x
_atom_site_fract_y
_atom_site_fract_z
Si Si1 0.066776 0.595259 0.523250
Si Si2 0.913683 0.471881 0.602127
Si Si3 0.306234 0.774159 0.680463
Si Si4 0.910035 0.023635 0.679577
Si Si5 0.844904 0.705798 0.949838
Si Si6 0.273677 0.942068 0.697255
Si Si7 0.262114 0.697219 0.934682
Si Si8 0.345155 0.306749 0.298771
O O1 0.053247 0.517187 0.557611
O O2 0.872492 0.633401 0.530373
O O3 0.126890 0.595600 0.447051
O O4 0.223651 0.634851 0.563197
O O5 0.727680 0.515063 0.618882
O O6 0.031919 0.447962 0.663090
O O7 0.266724 0.763696 0.603642
O O8 0.233643 0.854339 0.702223
O O9 0.229527 0.709145 0.727198
O O10 0.519416 0.760629 0.686814
O O11 0.929349 0.109915 0.699438
O O12 0.803315 0.976591 0.732858
O O13 0.104887 0.986037 0.664703
O O14 0.049147 0.680791 0.938715
O O15 0.812115 0.730408 0.024093
O O16 0.306038 0.701565 0.856896
#
# Coordination Sequence:
#
# PCOD8249783 Si02
#       8
#     8   8   8   8   8   8   8   8
#     4  11  25  46  68  99 142 193 235 304 352 444
#     4  11  27  45  70 101 144 187 247 289 370 436
#     4  11  27  45  69 110 142 186 236 309 364 438
#     4  12  25  46  74 107 143 196 237 303 367 447
#     4  11  25  42  74 101 144 185 246 299 371 430
#     4  12  26  46  73 104 151 185 239 301 377 429
#     4  11  23  44  68 105 137 184 242 298 359 432
#     4  11  26  44  73 105 145 183 249 296 363 441
#
# _framework density 23.139738999999999
#
# number of rings (size 3 to 8) (size 9 to 14) (size 15 to 20)
#    0.000    0.750    3.750    2.250    8.750    2.000 
#    0.000    2.500    0.000    0.000    0.000    0.000 
#    0.000    0.000    0.000    0.000    0.000    0.000 
#
# Total GULP energy -792918.387751 kJ/mol
# GULP energy per Si atom -12389.349809 kJ/mol
# Density = 2.308707 g / cm^3
# Si number density = 23.139739 Si / 1000 Ang^3
#
#
#
# Elastic Constant Matrix: (Units=GPa)
#
#
# Indices 1 2 3 4 5 6 
#
# 1 87.6208 19.0489 15.0963 0.0000 0.0000 0.0000
# 2 19.0489 91.1519 16.6209 0.0000 0.0000 0.0000
# 3 15.0963 16.6209 67.3321 0.0000 0.0000 0.0000
# 4 0.0000 0.0000 0.0000 27.1405 0.0000 0.0000
# 5 0.0000 0.0000 0.0000 0.0000 26.9504 0.0000
# 6 0.0000 0.0000 0.0000 0.0000 0.0000 40.1308
#
#
#
# Elastic Compliance Matrix: (Units=1/GPa)
#
#
# Indices 1 2 3 4 5 6 
#
# 1 0.012264 -0.002159 -0.002217 0.000000 0.000000 0.000000
# 2 -0.002159 0.011868 -0.002446 0.000000 0.000000 0.000000
# 3 -0.002217 -0.002446 0.015952 0.000000 0.000000 0.000000
# 4 0.000000 0.000000 0.000000 0.036845 0.000000 0.000000
# 5 0.000000 0.000000 0.000000 0.000000 0.037105 0.000000
# 6 0.000000 0.000000 0.000000 0.000000 0.000000 0.024918
#
#
# Mechanical properties :
#
#
# Convention : Reuss Voigt Hill
#
# Bulk Modulus (GPa) = 37.81844 38.62633 38.22239
# Shear Modulus (GPa) = 30.97713 31.86694 31.42203
#
# Velocity S-wave (km/s) = 3.66279 3.71503 3.68900
# Velocity P-wave (km/s) = 5.85381 5.92712 5.89058
#
# Compressibility (1/GPa) = 0.02644213
#
# Stress axis : x y z
#
# Youngs Moduli (GPa) = 81.53913 84.26199 62.68624
#
# Poissons Ratio (x) = 0.18190 0.13896
# Poissons Ratio (y) = 0.17602 0.15330
# Poissons Ratio (z) = 0.18076 0.20607
#
# Static dielectric constant tensor:
#      x y z
#    x 4.145140 0.000000 0.000000 
#    y 0.000000 4.139510 0.000000 
#    z 0.000000 0.000000 4.853570 
# 
# 
# High freq. dielectric constant tensor:
#      x y z
#    x 1.909870 0.000000 0.000000 
#    y 0.000000 1.911380 0.000000 
#    z 0.000000 0.000000 1.926240 
# 
# From -- ./inp_files/10201.got.cif
#   From: 2010.03.12/outbox.cif.g09.slc.cpg/sg61_6_cif.got.tgz:10201.got - 2010.04.10 19:05:03.
