data_PCOD8249462
_publ_section_title
;
Structure prediction by ZEFSAII (Michael W. Deem and Ramdas Pophale) SiO2 
 PCOD8249462
Probable space group: P B C A
;
_chemical_formula_sum "Si O2"
_cell_formula_units_Z 40
_cell_length_a 15.271580
_cell_length_b 8.736326
_cell_length_c 12.957615
_cell_angle_alpha 90.000000
_cell_angle_beta 90.000000
_cell_angle_gamma 90.000000
_cell_volume 1728.772618
_symmetry_space_group_name_H-M "P B C A"
_symmetry_group_IT_number 61
_symmetry_cell_setting 'orthorhombic'
loop_
_space_group_symop_operation_xyz
x,y,z
1/2-x,-y,1/2+z
1/2+x,1/2-y,-z
-x,1/2+y,1/2-z
-x,-y,-z
1/2+x,y,1/2-z
1/2-x,1/2+y,z
x,1/2-y,1/2+z
loop_
_atom_site_type_symbol
_atom_site_label
_atom_site_fract_x
_atom_site_fract_y
_atom_site_fract_z
Si Si1 0.974827 0.753104 0.492832
Si Si2 0.969024 0.021244 0.332592
Si Si3 0.146317 0.957970 0.221505
Si Si4 0.197197 0.636915 0.289195
Si Si5 0.128276 0.533100 0.488163
O O1 0.953745 0.873317 0.403411
O O2 0.889312 0.649837 0.516077
O O3 0.045877 0.633761 0.449424
O O4 0.006713 0.833330 0.597421
O O5 0.046480 0.996195 0.250325
O O6 0.879499 0.050000 0.272570
O O7 0.181517 0.818010 0.289957
O O8 0.154434 0.912590 0.101991
O O9 0.208157 0.104059 0.240169
O O10 0.203803 0.574229 0.406596
#
# Coordination Sequence:
#
# PCOD8249462 Si02
#       5
#     8   8   8   8   8
#     4  10  22  42  78 105 137 193 235 290 347 429
#     4  11  24  47  72 106 148 183 240 289 354 410
#     4  12  29  47  73 106 145 188 238 294 352 423
#     4  12  29  47  73 106 145 188 238 294 352 423
#     4  11  24  44  72 104 141 187 243 282 360 420
#
# _framework density 23.137802000000001
#
# number of rings (size 3 to 8) (size 9 to 14) (size 15 to 20)
#    0.000    0.800    4.000    2.400    5.600    4.800 
#    0.000    0.000    0.000    0.000    0.000    0.000 
#    0.000    0.000    0.000    0.000    0.000    0.000 
#
# Total GULP energy -496197.664975 kJ/mol
# GULP energy per Si atom -12404.941624 kJ/mol
# Density = 2.308514 g / cm^3
# Si number density = 23.137802 Si / 1000 Ang^3
#
#
#
# Elastic Constant Matrix: (Units=GPa)
#
#
# Indices 1 2 3 4 5 6 
#
# 1 38.0154 10.0502 4.9311 0.0000 0.0000 0.0000
# 2 10.0502 108.8730 14.8093 0.0000 0.0000 0.0000
# 3 4.9311 14.8093 123.6243 0.0000 0.0000 0.0000
# 4 0.0000 0.0000 0.0000 27.1407 0.0000 0.0000
# 5 0.0000 0.0000 0.0000 0.0000 22.5255 0.0000
# 6 0.0000 0.0000 0.0000 0.0000 0.0000 24.9322
#
#
#
# Elastic Compliance Matrix: (Units=1/GPa)
#
#
# Indices 1 2 3 4 5 6 
#
# 1 0.027039 -0.002388 -0.000792 0.000000 0.000000 0.000000
# 2 -0.002388 0.009548 -0.001049 0.000000 0.000000 0.000000
# 3 -0.000792 -0.001049 0.008246 0.000000 0.000000 0.000000
# 4 0.000000 0.000000 0.000000 0.036845 0.000000 0.000000
# 5 0.000000 0.000000 0.000000 0.000000 0.044394 0.000000
# 6 0.000000 0.000000 0.000000 0.000000 0.000000 0.040109
#
#
# Mechanical properties :
#
#
# Convention : Reuss Voigt Hill
#
# Bulk Modulus (GPa) = 27.49124 36.67710 32.08417
# Shear Modulus (GPa) = 26.77160 30.96782 28.86971
#
# Velocity S-wave (km/s) = 3.40523 3.66239 3.53615
# Velocity P-wave (km/s) = 5.23146 5.81121 5.52894
#
# Compressibility (1/GPa) = 0.03637523
#
# Stress axis : x y z
#
# Youngs Moduli (GPa) = 36.98317 104.73290 121.26741
#
# Poissons Ratio (x) = 0.25013 0.09610
# Poissons Ratio (y) = 0.08832 0.12715
# Poissons Ratio (z) = 0.02931 0.10982
#
# Static dielectric constant tensor:
#      x y z
#    x 3.954520 0.000000 0.000000 
#    y 0.000000 4.309010 0.000000 
#    z 0.000000 0.000000 4.185660 
# 
# 
# High freq. dielectric constant tensor:
#      x y z
#    x 1.893410 0.000000 0.000000 
#    y 0.000000 1.928400 0.000000 
#    z 0.000000 0.000000 1.926430 
# 
# From -- ./inp_files/6066.got.cif
#   From: 2010.03.12/outbox.cif.g09.slc.cpg/sg61_4_cif.got.tgz:6066.got - 2010.04.10 19:05:03.
