data_PCOD8249709
_publ_section_title
;
Structure prediction by ZEFSAII (Michael W. Deem and Ramdas Pophale) SiO2 
 PCOD8249709
Probable space group: P B C A
;
_chemical_formula_sum "Si O2"
_cell_formula_units_Z 48
_cell_length_a 9.528818
_cell_length_b 8.848846
_cell_length_c 25.914804
_cell_angle_alpha 90.000000
_cell_angle_beta 90.000000
_cell_angle_gamma 90.000000
_cell_volume 2185.111474
_symmetry_space_group_name_H-M "P B C A"
_symmetry_group_IT_number 61
_symmetry_cell_setting 'orthorhombic'
loop_
_space_group_symop_operation_xyz
x,y,z
1/2-x,-y,1/2+z
1/2+x,1/2-y,-z
-x,1/2+y,1/2-z
-x,-y,-z
1/2+x,y,1/2-z
1/2-x,1/2+y,z
x,1/2-y,1/2+z
loop_
_atom_site_type_symbol
_atom_site_label
_atom_site_fract_x
_atom_site_fract_y
_atom_site_fract_z
Si Si1 0.937616 0.657814 0.107805
Si Si2 0.194484 0.952409 0.545775
Si Si3 0.300930 0.134435 0.928353
Si Si4 0.926367 0.155335 0.281957
Si Si5 0.411754 0.748463 0.089121
Si Si6 0.364813 0.689343 0.707666
O O1 0.845786 0.505139 0.107840
O O2 0.844455 0.801094 0.092415
O O3 0.063812 0.644784 0.066888
O O4 0.995640 0.685549 0.164508
O O5 0.218390 0.923350 0.486047
O O6 0.335479 0.910317 0.577819
O O7 0.165094 0.129329 0.552367
O O8 0.423581 0.261843 0.925072
O O9 0.791601 0.261756 0.278599
O O10 0.027125 0.199249 0.235254
O O11 0.883123 0.982121 0.273971
O O12 0.392408 0.801737 0.147200
#
# Coordination Sequence:
#
# PCOD8249709 Si02
#       6
#     8   8   8   8   8   8
#     4  11  24  44  64 100 139 178 229 289 343 410
#     4  11  21  42  69  96 136 184 226 281 344 411
#     4  11  23  41  67  99 138 181 230 277 342 414
#     4  12  27  48  76 101 141 182 238 290 358 415
#     4  11  22  42  68  97 139 176 226 285 342 411
#     4  12  25  49  72 106 136 188 234 291 354 419
#
# _framework density 21.966842
#
# number of rings (size 3 to 8) (size 9 to 14) (size 15 to 20)
#    0.000    0.667    5.000    5.000    2.333    2.667 
#    3.000    3.333    0.000    0.000    0.000    0.000 
#    0.000    0.000    0.000    0.000    0.000    0.000 
#
# Total GULP energy -595521.987769 kJ/mol
# GULP energy per Si atom -12406.708079 kJ/mol
# Density = 2.191684 g / cm^3
# Si number density = 21.966842 Si / 1000 Ang^3
#
#
#
# Elastic Constant Matrix: (Units=GPa)
#
#
# Indices 1 2 3 4 5 6 
#
# 1 83.6792 34.0570 50.1798 0.0000 0.0000 0.0000
# 2 34.0570 55.3573 29.5772 0.0000 0.0000 0.0000
# 3 50.1798 29.5772 43.3618 0.0000 0.0000 0.0000
# 4 0.0000 0.0000 0.0000 31.9509 0.0000 0.0000
# 5 0.0000 0.0000 0.0000 0.0000 52.5822 0.0000
# 6 0.0000 0.0000 0.0000 0.0000 0.0000 36.6907
#
#
#
# Elastic Compliance Matrix: (Units=1/GPa)
#
#
# Indices 1 2 3 4 5 6 
#
# 1 0.039050 0.000189 -0.045319 0.000000 0.000000 0.000000
# 2 0.000189 0.028424 -0.019607 0.000000 0.000000 0.000000
# 3 -0.045319 -0.019607 0.088880 0.000000 0.000000 0.000000
# 4 0.000000 0.000000 0.000000 0.031298 0.000000 0.000000
# 5 0.000000 0.000000 0.000000 0.000000 0.019018 0.000000
# 6 0.000000 0.000000 0.000000 0.000000 0.000000 0.027255
#
#
# Mechanical properties :
#
#
# Convention : Reuss Voigt Hill
#
# Bulk Modulus (GPa) = 37.20132 45.55847 41.37990
# Shear Modulus (GPa) = 13.42793 28.81703 21.12248
#
# Velocity S-wave (km/s) = 2.47509 3.62587 3.10427
# Velocity P-wave (km/s) = 5.01399 6.18982 5.63267
#
# Compressibility (1/GPa) = 0.02688077
#
# Stress axis : x y z
#
# Youngs Moduli (GPa) = 25.60851 35.18148 11.25107
#
# Poissons Ratio (x) = -0.00667 0.50988
# Poissons Ratio (y) = -0.00485 0.22060
# Poissons Ratio (z) = 1.16054 0.68982
#
# Static dielectric constant tensor:
#      x y z
#    x 4.247940 0.000000 0.000000 
#    y 0.000000 4.116310 0.000000 
#    z 0.000000 0.000000 3.924230 
# 
# 
# High freq. dielectric constant tensor:
#      x y z
#    x 1.877620 0.000000 0.000000 
#    y 0.000000 1.860720 0.000000 
#    z 0.000000 0.000000 1.869760 
# 
# From -- ./inp_files/11673.got.cif
#   From: 2010.03.12/outbox.cif.g09.slc.cpg/sg61_6_cif.got.tgz:11673.got - 2010.04.10 19:05:03.
