data_PCOD8249775
_publ_section_title
;
Structure prediction by ZEFSAII (Michael W. Deem and Ramdas Pophale) SiO2 
 PCOD8249775
Probable space group: P B C A
;
_chemical_formula_sum "Si O2"
_cell_formula_units_Z 48
_cell_length_a 8.641955
_cell_length_b 9.430780
_cell_length_c 27.062409
_cell_angle_alpha 90.000000
_cell_angle_beta 90.000000
_cell_angle_gamma 90.000000
_cell_volume 2205.596519
_symmetry_space_group_name_H-M "P B C A"
_symmetry_group_IT_number 61
_symmetry_cell_setting 'orthorhombic'
loop_
_space_group_symop_operation_xyz
x,y,z
1/2-x,-y,1/2+z
1/2+x,1/2-y,-z
-x,1/2+y,1/2-z
-x,-y,-z
1/2+x,y,1/2-z
1/2-x,1/2+y,z
x,1/2-y,1/2+z
loop_
_atom_site_type_symbol
_atom_site_label
_atom_site_fract_x
_atom_site_fract_y
_atom_site_fract_z
Si Si1 0.391419 0.362362 0.941852
Si Si2 0.376937 0.860136 0.208575
Si Si3 0.925167 0.624583 0.900699
Si Si4 0.436864 0.192622 0.209974
Si Si5 0.396593 0.388998 0.055118
Si Si6 0.573139 0.159110 0.104597
O O1 0.451697 0.203373 0.935157
O O2 0.539864 0.458242 0.928219
O O3 0.248679 0.392603 0.904906
O O4 0.342863 0.388739 0.998319
O O5 0.461250 0.837884 0.156138
O O6 0.462233 0.756602 0.246119
O O7 0.202927 0.803012 0.203519
O O8 0.382253 0.029743 0.221968
O O9 0.747509 0.659510 0.912167
O O10 0.950183 0.459743 0.910651
O O11 0.546900 0.199834 0.161743
O O12 0.540286 0.285728 0.066369
#
# Coordination Sequence:
#
# PCOD8249775 Si02
#       6
#     8   8   8   8   8   8
#     4  11  25  40  67 100 134 182 227 280 337 405
#     4  11  25  45  70 101 132 183 227 287 353 412
#     4  11  24  43  67  95 135 180 220 282 346 402
#     4  11  25  46  71 100 137 178 231 290 349 420
#     4  11  23  43  67  96 137 181 227 278 338 408
#     4  11  24  43  66 100 134 174 227 283 341 407
#
# _framework density 21.762820000000001
#
# number of rings (size 3 to 8) (size 9 to 14) (size 15 to 20)
#    0.000    1.000    1.667    4.000    4.667    6.667 
#    0.000    0.000    0.000    0.000    0.000    0.000 
#    0.000    0.000    0.000    0.000    0.000    0.000 
#
# Total GULP energy -595186.139807 kJ/mol
# GULP energy per Si atom -12399.711246 kJ/mol
# Density = 2.171329 g / cm^3
# Si number density = 21.762820 Si / 1000 Ang^3
#
#
#
# Elastic Constant Matrix: (Units=GPa)
#
#
# Indices 1 2 3 4 5 6 
#
# 1 104.1646 34.7917 60.2902 0.0000 0.0000 0.0000
# 2 34.7917 102.9414 59.8758 0.0000 0.0000 0.0000
# 3 60.2902 59.8758 96.8170 0.0000 0.0000 0.0000
# 4 0.0000 0.0000 0.0000 32.7079 0.0000 0.0000
# 5 0.0000 0.0000 0.0000 0.0000 42.3571 0.0000
# 6 0.0000 0.0000 0.0000 0.0000 0.0000 42.2464
#
#
#
# Elastic Compliance Matrix: (Units=1/GPa)
#
#
# Indices 1 2 3 4 5 6 
#
# 1 0.015032 0.000569 -0.009712 0.000000 0.000000 0.000000
# 2 0.000569 0.015193 -0.009750 0.000000 0.000000 0.000000
# 3 -0.009712 -0.009750 0.022407 0.000000 0.000000 0.000000
# 4 0.000000 0.000000 0.000000 0.030574 0.000000 0.000000
# 5 0.000000 0.000000 0.000000 0.000000 0.023609 0.000000
# 6 0.000000 0.000000 0.000000 0.000000 0.000000 0.023671
#
#
# Mechanical properties :
#
#
# Convention : Reuss Voigt Hill
#
# Bulk Modulus (GPa) = 67.36703 68.20426 67.78564
# Shear Modulus (GPa) = 28.86481 33.39329 31.12905
#
# Velocity S-wave (km/s) = 3.64584 3.92142 3.78614
# Velocity P-wave (km/s) = 6.98177 7.20494 7.09424
#
# Compressibility (1/GPa) = 0.01484406
#
# Stress axis : x y z
#
# Youngs Moduli (GPa) = 66.52609 65.81818 44.62885
#
# Poissons Ratio (x) = -0.03744 0.43345
# Poissons Ratio (y) = -0.03784 0.43515
# Poissons Ratio (z) = 0.64613 0.64176
#
# Static dielectric constant tensor:
#      x y z
#    x 3.792610 0.000000 0.000000 
#    y 0.000000 4.040720 0.000000 
#    z 0.000000 0.000000 3.862730 
# 
# 
# High freq. dielectric constant tensor:
#      x y z
#    x 1.856450 0.000000 0.000000 
#    y 0.000000 1.869000 0.000000 
#    z 0.000000 0.000000 1.856910 
# 
# From -- ./inp_files/4583.got.cif
#   From: 2010.03.12/outbox.cif.g09.slc.cpg/sg61_3_cif.got.tgz:4583.got - 2010.04.10 19:05:03.
