data_PCOD8249079
_publ_section_title
;
Structure prediction by ZEFSAII (Michael W. Deem and Ramdas Pophale) SiO2 
 PCOD8249079
Probable space group: P B C A
;
_chemical_formula_sum "Si O2"
_cell_formula_units_Z 48
_cell_length_a 15.594497
_cell_length_b 30.108566
_cell_length_c 4.956318
_cell_angle_alpha 90.000000
_cell_angle_beta 90.000000
_cell_angle_gamma 90.000000
_cell_volume 2327.129791
_symmetry_space_group_name_H-M "P B C A"
_symmetry_group_IT_number 61
_symmetry_cell_setting 'orthorhombic'
loop_
_space_group_symop_operation_xyz
x,y,z
1/2-x,-y,1/2+z
1/2+x,1/2-y,-z
-x,1/2+y,1/2-z
-x,-y,-z
1/2+x,y,1/2-z
1/2-x,1/2+y,z
x,1/2-y,1/2+z
loop_
_atom_site_type_symbol
_atom_site_label
_atom_site_fract_x
_atom_site_fract_y
_atom_site_fract_z
Si Si1 0.151785 0.655036 0.687848
Si Si2 0.840119 0.096018 0.328047
Si Si3 0.501535 0.279474 0.206621
Si Si4 0.057504 0.508550 0.252891
Si Si5 0.804963 0.719842 0.737967
Si Si6 0.723585 0.475148 0.050324
O O1 0.180614 0.626835 0.427856
O O2 0.069535 0.684987 0.618858
O O3 0.234441 0.681649 0.798638
O O4 0.119395 0.624297 0.931040
O O5 0.907180 0.058464 0.243859
O O6 0.753437 0.072968 0.444695
O O7 0.488517 0.262701 0.510886
O O8 0.598611 0.299270 0.186332
O O9 0.135270 0.473377 0.281324
O O10 0.000000 0.500000 0.500000
O O11 0.000000 0.500000 0.000000
O O12 0.790122 0.760519 0.534575
O O13 0.789144 0.493718 0.282256
#
# Coordination Sequence:
#
# PCOD8249079 Si02
#       6
#     8   8   8   8   8   8
#     4  12  22  39  61  94 130 160 202 267 328 361
#     4  11  24  40  60  91 129 156 206 262 317 376
#     4  10  21  39  63  88 122 168 209 249 302 378
#     4  11  22  41  65  89 117 165 217 254 310 385
#     4  10  21  39  63  88 121 166 215 246 300 391
#     4  10  20  40  64  84 119 165 208 248 304 382
#
# _framework density 20.626269000000001
#
# number of rings (size 3 to 8) (size 9 to 14) (size 15 to 20)
#    0.000    1.333    0.000    8.000    0.000    0.000 
#    9.000    0.000    0.000    0.000    0.000    0.000 
#    0.000    0.000    0.000    0.000    0.000    0.000 
#
# Total GULP energy -594994.499722 kJ/mol
# GULP energy per Si atom -12395.718744 kJ/mol
# Density = 2.057932 g / cm^3
# Si number density = 20.626269 Si / 1000 Ang^3
#
#
#
# Elastic Constant Matrix: (Units=GPa)
#
#
# Indices 1 2 3 4 5 6 
#
# 1 145.8612 63.9873 43.3348 0.0000 0.0000 0.0000
# 2 63.9873 87.3926 32.5933 0.0000 0.0000 0.0000
# 3 43.3348 32.5933 124.0797 0.0000 0.0000 0.0000
# 4 0.0000 0.0000 0.0000 41.1032 0.0000 0.0000
# 5 0.0000 0.0000 0.0000 0.0000 37.9279 0.0000
# 6 0.0000 0.0000 0.0000 0.0000 0.0000 14.8179
#
#
#
# Elastic Compliance Matrix: (Units=1/GPa)
#
#
# Indices 1 2 3 4 5 6 
#
# 1 0.010458 -0.006978 -0.001819 0.000000 0.000000 0.000000
# 2 -0.006978 0.017342 -0.002118 0.000000 0.000000 0.000000
# 3 -0.001819 -0.002118 0.009251 0.000000 0.000000 0.000000
# 4 0.000000 0.000000 0.000000 0.024329 0.000000 0.000000
# 5 0.000000 0.000000 0.000000 0.000000 0.026366 0.000000
# 6 0.000000 0.000000 0.000000 0.000000 0.000000 0.067486
#
#
# Mechanical properties :
#
#
# Convention : Reuss Voigt Hill
#
# Bulk Modulus (GPa) = 65.70685 70.79603 68.25144
# Shear Modulus (GPa) = 27.45193 33.26432 30.35813
#
# Velocity S-wave (km/s) = 3.65214 4.02022 3.84059
# Velocity P-wave (km/s) = 7.05048 7.47979 7.26831
#
# Compressibility (1/GPa) = 0.01521911
#
# Stress axis : x y z
#
# Youngs Moduli (GPa) = 95.62370 57.66323 108.09501
#
# Poissons Ratio (x) = 0.40240 0.19665
# Poissons Ratio (y) = 0.66730 0.22897
# Poissons Ratio (z) = 0.17396 0.12214
#
# Static dielectric constant tensor:
#      x y z
#    x 3.798100 0.000000 0.000000 
#    y 0.000000 3.587760 0.000000 
#    z 0.000000 0.000000 3.979820 
# 
# 
# High freq. dielectric constant tensor:
#      x y z
#    x 1.807660 0.000000 0.000000 
#    y 0.000000 1.784650 0.000000 
#    z 0.000000 0.000000 1.836830 
# 
# From -- ./inp_files/529.got.cif
#   From: 2010.03.12/outbox.cif.g09.slc.cpg/sg61_1_cif.got.tgz:529.got - 2010.04.10 19:05:03.
