data_PCOD8249930
_publ_section_title
;
Structure prediction by ZEFSAII (Michael W. Deem and Ramdas Pophale) SiO2 
 PCOD8249930
Probable space group: P B C A
;
_chemical_formula_sum "Si O2"
_cell_formula_units_Z 32
_cell_length_a 12.489222
_cell_length_b 8.624113
_cell_length_c 12.480078
_cell_angle_alpha 90.000000
_cell_angle_beta 90.000000
_cell_angle_gamma 90.000000
_cell_volume 1344.210005
_symmetry_space_group_name_H-M "P B C A"
_symmetry_group_IT_number 61
_symmetry_cell_setting 'orthorhombic'
loop_
_space_group_symop_operation_xyz
x,y,z
1/2-x,-y,1/2+z
1/2+x,1/2-y,-z
-x,1/2+y,1/2-z
-x,-y,-z
1/2+x,y,1/2-z
1/2-x,1/2+y,z
x,1/2-y,1/2+z
loop_
_atom_site_type_symbol
_atom_site_label
_atom_site_fract_x
_atom_site_fract_y
_atom_site_fract_z
Si Si1 0.125414 0.008559 0.514939
Si Si2 0.270167 0.269190 0.893645
Si Si3 0.112713 0.171629 0.723821
Si Si4 0.517636 0.549052 0.122628
O O1 0.183637 0.853090 0.478335
O O2 0.167417 0.151651 0.446099
O O3 0.146952 0.039796 0.639359
O O4 0.000000 0.000000 0.500000
O O5 0.224591 0.198189 0.784417
O O6 0.362237 0.389252 0.865296
O O7 0.068834 0.325742 0.663642
O O8 0.017877 0.103689 0.800969
O O9 0.500000 0.500000 0.000000
#
# Coordination Sequence:
#
# PCOD8249930 Si02
#       4
#     8   8   8   8
#     4  12  27  51  78 117 165 211 277 340 400 501
#     4  12  28  49  78 121 162 218 272 339 419 481
#     4  12  28  49  82 117 163 217 275 339 420 485
#     4  12  29  52  81 119 165 216 282 338 413 503
#
# _framework density 23.805803000000001
#
# number of rings (size 3 to 8) (size 9 to 14) (size 15 to 20)
#    0.000    0.000    5.000    3.000    7.000    0.000 
#    0.000    0.000    0.000    0.000    0.000    0.000 
#    0.000    0.000    0.000    0.000    0.000    0.000 
#
# Total GULP energy -396874.726920 kJ/mol
# GULP energy per Si atom -12402.335216 kJ/mol
# Density = 2.375162 g / cm^3
# Si number density = 23.805803 Si / 1000 Ang^3
#
#
#
# Elastic Constant Matrix: (Units=GPa)
#
#
# Indices 1 2 3 4 5 6 
#
# 1 143.4311 42.6469 30.7803 0.0000 0.0000 0.0000
# 2 42.6469 104.8396 35.3132 0.0000 0.0000 0.0000
# 3 30.7803 35.3132 122.7705 0.0000 0.0000 0.0000
# 4 0.0000 0.0000 0.0000 60.7655 0.0000 0.0000
# 5 0.0000 0.0000 0.0000 0.0000 43.0874 0.0000
# 6 0.0000 0.0000 0.0000 0.0000 0.0000 49.6957
#
#
#
# Elastic Compliance Matrix: (Units=1/GPa)
#
#
# Indices 1 2 3 4 5 6 
#
# 1 0.008087 -0.002886 -0.001197 0.000000 0.000000 0.000000
# 2 -0.002886 0.011592 -0.002611 0.000000 0.000000 0.000000
# 3 -0.001197 -0.002611 0.009196 0.000000 0.000000 0.000000
# 4 0.000000 0.000000 0.000000 0.016457 0.000000 0.000000
# 5 0.000000 0.000000 0.000000 0.000000 0.023209 0.000000
# 6 0.000000 0.000000 0.000000 0.000000 0.000000 0.020122
#
#
# Mechanical properties :
#
#
# Convention : Reuss Voigt Hill
#
# Bulk Modulus (GPa) = 64.57136 65.39134 64.98135
# Shear Modulus (GPa) = 46.63567 48.19643 47.41605
#
# Velocity S-wave (km/s) = 4.43087 4.50440 4.46778
# Velocity P-wave (km/s) = 7.30478 7.38790 7.34646
#
# Compressibility (1/GPa) = 0.01548674
#
# Stress axis : x y z
#
# Youngs Moduli (GPa) = 123.65274 86.26752 108.73864
#
# Poissons Ratio (x) = 0.24900 0.13020
# Poissons Ratio (y) = 0.35691 0.28387
# Poissons Ratio (z) = 0.14805 0.22521
#
# Static dielectric constant tensor:
#      x y z
#    x 4.146240 0.000000 0.000000 
#    y 0.000000 5.000430 0.000000 
#    z 0.000000 0.000000 4.742790 
# 
# 
# High freq. dielectric constant tensor:
#      x y z
#    x 1.944960 0.000000 0.000000 
#    y 0.000000 1.957020 0.000000 
#    z 0.000000 0.000000 1.962810 
# 
# From -- ./inp_files/5499.got.cif
#   From: 2010.03.12/outbox.cif.g09.slc.cpg/sg61_3_cif.got.tgz:5499.got - 2010.04.10 19:05:03.
