data_PCOD8249013
_publ_section_title
;
Structure prediction by ZEFSAII (Michael W. Deem and Ramdas Pophale) SiO2 
 PCOD8249013
Probable space group: P B C A
;
_chemical_formula_sum "Si O2"
_cell_formula_units_Z 48
_cell_length_a 16.584678
_cell_length_b 16.196460
_cell_length_c 9.689045
_cell_angle_alpha 90.000000
_cell_angle_beta 90.000000
_cell_angle_gamma 90.000000
_cell_volume 2602.604160
_symmetry_space_group_name_H-M "P B C A"
_symmetry_group_IT_number 61
_symmetry_cell_setting 'orthorhombic'
loop_
_space_group_symop_operation_xyz
x,y,z
1/2-x,-y,1/2+z
1/2+x,1/2-y,-z
-x,1/2+y,1/2-z
-x,-y,-z
1/2+x,y,1/2-z
1/2-x,1/2+y,z
x,1/2-y,1/2+z
loop_
_atom_site_type_symbol
_atom_site_label
_atom_site_fract_x
_atom_site_fract_y
_atom_site_fract_z
Si Si1 0.652101 0.907747 0.950679
Si Si2 0.940878 0.249199 0.872550
Si Si3 0.661604 0.440203 0.945228
Si Si4 0.483521 0.663677 0.126081
Si Si5 0.572846 0.504004 0.200311
Si Si6 0.594938 0.578521 0.756687
O O1 0.626911 0.814637 0.915426
O O2 0.747604 0.910457 0.941607
O O3 0.614449 0.972575 0.843578
O O4 0.622057 0.934895 0.100309
O O5 0.893588 0.173187 0.802897
O O6 0.005690 0.289693 0.770006
O O7 0.992965 0.224805 0.004310
O O8 0.608804 0.364803 0.885010
O O9 0.650659 0.521230 0.851716
O O10 0.636789 0.458210 0.103062
O O11 0.541063 0.583612 0.116787
O O12 0.499315 0.442685 0.230533
#
# Coordination Sequence:
#
# PCOD8249013 Si02
#       6
#     8   8   8   8   8   8
#     4  11  24  36  58  93 125 145 198 253 301 335
#     4  11  20  38  61  83 114 161 197 237 284 355
#     4  11  21  40  59  89 119 157 192 249 303 343
#     4  10  20  38  60  82 111 158 202 231 286 364
#     4  10  20  38  65  82 115 159 204 232 288 361
#     4  11  20  39  65  83 116 162 201 237 287 360
#
# _framework density 18.443066000000002
#
# number of rings (size 3 to 8) (size 9 to 14) (size 15 to 20)
#    0.000    1.333    5.000    2.500    0.000    0.000 
#    3.000    0.000    0.000    0.000    0.000    0.000 
#    0.000    0.000    0.000    0.000    0.000    0.000 
#
# Total GULP energy -595454.343674 kJ/mol
# GULP energy per Si atom -12405.298827 kJ/mol
# Density = 1.840109 g / cm^3
# Si number density = 18.443066 Si / 1000 Ang^3
#
#
#
# Elastic Constant Matrix: (Units=GPa)
#
#
# Indices 1 2 3 4 5 6 
#
# 1 98.3233 52.4570 57.1974 0.0000 0.0000 0.0000
# 2 52.4570 100.9192 48.0094 0.0000 0.0000 0.0000
# 3 57.1974 48.0094 124.3504 0.0000 0.0000 0.0000
# 4 0.0000 0.0000 0.0000 3.8289 0.0000 0.0000
# 5 0.0000 0.0000 0.0000 0.0000 17.1836 0.0000
# 6 0.0000 0.0000 0.0000 0.0000 0.0000 21.6447
#
#
#
# Elastic Compliance Matrix: (Units=1/GPa)
#
#
# Indices 1 2 3 4 5 6 
#
# 1 0.016443 -0.006062 -0.005223 0.000000 0.000000 0.000000
# 2 -0.006062 0.014374 -0.002761 0.000000 0.000000 0.000000
# 3 -0.005223 -0.002761 0.011510 0.000000 0.000000 0.000000
# 4 0.000000 0.000000 0.000000 0.261173 0.000000 0.000000
# 5 0.000000 0.000000 0.000000 0.000000 0.058195 0.000000
# 6 0.000000 0.000000 0.000000 0.000000 0.000000 0.046201
#
#
# Mechanical properties :
#
#
# Convention : Reuss Voigt Hill
#
# Bulk Modulus (GPa) = 70.25114 70.99118 70.62116
# Shear Modulus (GPa) = 11.34475 19.59338 15.46907
#
# Velocity S-wave (km/s) = 2.48286 3.26294 2.89925
# Velocity P-wave (km/s) = 6.81124 7.26439 7.04146
#
# Compressibility (1/GPa) = 0.01423464
#
# Stress axis : x y z
#
# Youngs Moduli (GPa) = 60.81557 69.57243 86.88100
#
# Poissons Ratio (x) = 0.42178 0.45376
# Poissons Ratio (y) = 0.36869 0.23986
# Poissons Ratio (z) = 0.31762 0.19208
#
# Static dielectric constant tensor:
#      x y z
#    x 3.180400 0.000000 0.000000 
#    y 0.000000 3.493500 0.000000 
#    z 0.000000 0.000000 3.592750 
# 
# 
# High freq. dielectric constant tensor:
#      x y z
#    x 1.697850 0.000000 0.000000 
#    y 0.000000 1.719450 0.000000 
#    z 0.000000 0.000000 1.736780 
# 
# From -- ./inp_files/2857.got.cif
#   From: 2010.03.12/outbox.cif.g09.slc.cpg/sg61_2_cif.got.tgz:2857.got - 2010.04.10 19:05:03.
