data_PCOD8249889
_publ_section_title
;
Structure prediction by ZEFSAII (Michael W. Deem and Ramdas Pophale) SiO2 
 PCOD8249889
Probable space group: P B C A
;
_chemical_formula_sum "Si O2"
_cell_formula_units_Z 40
_cell_length_a 7.426722
_cell_length_b 9.634210
_cell_length_c 21.635856
_cell_angle_alpha 90.000000
_cell_angle_beta 90.000000
_cell_angle_gamma 90.000000
_cell_volume 1548.058464
_symmetry_space_group_name_H-M "P B C A"
_symmetry_group_IT_number 61
_symmetry_cell_setting 'orthorhombic'
loop_
_space_group_symop_operation_xyz
x,y,z
1/2-x,-y,1/2+z
1/2+x,1/2-y,-z
-x,1/2+y,1/2-z
-x,-y,-z
1/2+x,y,1/2-z
1/2-x,1/2+y,z
x,1/2-y,1/2+z
loop_
_atom_site_type_symbol
_atom_site_label
_atom_site_fract_x
_atom_site_fract_y
_atom_site_fract_z
Si Si1 0.889373 0.482143 0.630073
Si Si2 0.405366 0.346552 0.563642
Si Si3 0.594279 0.684848 0.681829
Si Si4 0.722607 0.921803 0.505502
Si Si5 0.319492 0.326005 0.178488
O O1 0.717888 0.562655 0.656609
O O2 0.863862 0.320533 0.642538
O O3 0.911693 0.498808 0.554855
O O4 0.070372 0.535151 0.662466
O O5 0.354748 0.221510 0.518312
O O6 0.273937 0.477065 0.550848
O O7 0.607712 0.391941 0.550390
O O8 0.380848 0.300278 0.634410
O O9 0.389612 0.636988 0.671417
O O10 0.634214 0.721702 0.752633
#
# Coordination Sequence:
#
# PCOD8249889 Si02
#       5
#     8   8   8   8   8
#     4  12  29  54  80 115 166 201 271 328 394 473
#     4  11  27  47  77 115 156 206 267 320 403 467
#     4  12  30  50  82 116 155 215 261 334 394 470
#     4  11  27  49  78 113 158 205 260 332 390 478
#     4  12  29  48  79 116 158 208 264 321 403 468
#
# _framework density 25.838818
#
# number of rings (size 3 to 8) (size 9 to 14) (size 15 to 20)
#    0.000    0.400    2.000    3.600   14.000    3.200 
#    0.000    0.000    0.000    0.000    0.000    0.000 
#    0.000    0.000    0.000    0.000    0.000    0.000 
#
# Total GULP energy -496384.429680 kJ/mol
# GULP energy per Si atom -12409.610742 kJ/mol
# Density = 2.578001 g / cm^3
# Si number density = 25.838818 Si / 1000 Ang^3
#
#
#
# Elastic Constant Matrix: (Units=GPa)
#
#
# Indices 1 2 3 4 5 6 
#
# 1 71.1815 35.8448 -42.7108 0.0000 0.0000 0.0000
# 2 35.8448 84.2946 4.3569 0.0000 0.0000 0.0000
# 3 -42.7108 4.3569 117.6095 0.0000 0.0000 0.0000
# 4 0.0000 0.0000 0.0000 36.4716 0.0000 0.0000
# 5 0.0000 0.0000 0.0000 0.0000 25.2258 0.0000
# 6 0.0000 0.0000 0.0000 0.0000 0.0000 32.8631
#
#
#
# Elastic Compliance Matrix: (Units=1/GPa)
#
#
# Indices 1 2 3 4 5 6 
#
# 1 0.025627 -0.011400 0.009729 0.000000 0.000000 0.000000
# 2 -0.011400 0.016957 -0.004768 0.000000 0.000000 0.000000
# 3 0.009729 -0.004768 0.012213 0.000000 0.000000 0.000000
# 4 0.000000 0.000000 0.000000 0.027419 0.000000 0.000000
# 5 0.000000 0.000000 0.000000 0.000000 0.039642 0.000000
# 6 0.000000 0.000000 0.000000 0.000000 0.000000 0.030429
#
#
# Mechanical properties :
#
#
# Convention : Reuss Voigt Hill
#
# Bulk Modulus (GPa) = 23.85623 29.78526 26.82074
# Shear Modulus (GPa) = 27.91133 37.28508 32.59821
#
# Velocity S-wave (km/s) = 3.29022 3.80279 3.55575
# Velocity P-wave (km/s) = 4.86691 5.55283 5.22115
#
# Compressibility (1/GPa) = 0.04191777
#
# Stress axis : x y z
#
# Youngs Moduli (GPa) = 39.02117 58.97126 81.88314
#
# Poissons Ratio (x) = 0.67229 -0.79664
# Poissons Ratio (y) = 0.44485 0.39044
# Poissons Ratio (z) = -0.37964 0.28119
#
# Static dielectric constant tensor:
#      x y z
#    x 5.077970 0.000000 0.000000 
#    y 0.000000 4.492470 0.000000 
#    z 0.000000 0.000000 4.912060 
# 
# 
# High freq. dielectric constant tensor:
#      x y z
#    x 2.062450 0.000000 0.000000 
#    y 0.000000 2.035670 0.000000 
#    z 0.000000 0.000000 2.052370 
# 
# From -- ./inp_files/11326.got.cif
#   From: 2010.03.12/outbox.cif.g09.slc.cpg/sg61_6_cif.got.tgz:11326.got - 2010.04.10 19:05:03.
