data_PCOD8249076
_publ_section_title
;
Structure prediction by ZEFSAII (Michael W. Deem and Ramdas Pophale) SiO2 
 PCOD8249076
Probable space group: P B C A
;
_chemical_formula_sum "Si O2"
_cell_formula_units_Z 64
_cell_length_a 8.650812
_cell_length_b 15.802813
_cell_length_c 22.197014
_cell_angle_alpha 90.000000
_cell_angle_beta 90.000000
_cell_angle_gamma 90.000000
_cell_volume 3034.490841
_symmetry_space_group_name_H-M "P B C A"
_symmetry_group_IT_number 61
_symmetry_cell_setting 'orthorhombic'
loop_
_space_group_symop_operation_xyz
x,y,z
1/2-x,-y,1/2+z
1/2+x,1/2-y,-z
-x,1/2+y,1/2-z
-x,-y,-z
1/2+x,y,1/2-z
1/2-x,1/2+y,z
x,1/2-y,1/2+z
loop_
_atom_site_type_symbol
_atom_site_label
_atom_site_fract_x
_atom_site_fract_y
_atom_site_fract_z
Si Si1 0.386300 0.491996 0.772170
Si Si2 0.514184 0.321715 0.200701
Si Si3 0.491655 0.842384 0.935820
Si Si4 0.745938 0.767652 0.383511
Si Si5 0.741697 0.742132 0.611205
Si Si6 0.997880 0.814806 0.808458
Si Si7 0.494973 0.882764 0.065425
Si Si8 0.054784 0.475649 0.839635
O O1 0.475128 0.580311 0.781634
O O2 0.499348 0.412983 0.789163
O O3 0.214774 0.486771 0.800873
O O4 0.397708 0.487073 0.699322
O O5 0.347191 0.306814 0.172218
O O6 0.644814 0.315072 0.150397
O O7 0.529856 0.254721 0.255572
O O8 0.640742 0.782121 0.931544
O O9 0.336123 0.787296 0.942416
O O10 0.462561 0.884854 0.870569
O O11 0.501302 0.904170 0.993733
O O12 0.863840 0.698408 0.357155
O O13 0.827469 0.847274 0.415975
O O14 0.662654 0.803791 0.659634
O O15 0.615162 0.691144 0.575536
O O16 0.551016 0.961090 0.104268
#
# Coordination Sequence:
#
# PCOD8249076 Si02
#       8
#     8   8   8   8   8   8   8   8
#     4  12  26  42  67  98 140 176 223 281 349 399
#     4  11  23  39  64  95 139 175 219 277 337 414
#     4  11  23  44  67  94 133 177 231 279 333 402
#     4  10  24  40  66 100 126 177 227 272 346 402
#     4  10  20  40  62  94 128 169 231 266 340 400
#     4  11  23  39  64  95 139 175 219 277 337 414
#     4  11  23  44  67  94 133 177 231 279 333 402
#     4  12  27  42  67 100 130 183 220 282 341 409
#
# _framework density 21.090854
#
# number of rings (size 3 to 8) (size 9 to 14) (size 15 to 20)
#    0.000    1.000    2.500    4.875    7.000    0.000 
#    0.000    0.000    0.000    1.500    0.000    0.000 
#    0.000    0.000    0.000    0.000    0.000    0.000 
#
# Total GULP energy -792890.201186 kJ/mol
# GULP energy per Si atom -12388.909394 kJ/mol
# Density = 2.104285 g / cm^3
# Si number density = 21.090854 Si / 1000 Ang^3
#
#
#
# Elastic Constant Matrix: (Units=GPa)
#
#
# Indices 1 2 3 4 5 6 
#
# 1 90.6747 12.2754 26.3662 0.0000 0.0000 0.0000
# 2 12.2754 78.4694 3.5789 0.0000 0.0000 0.0000
# 3 26.3662 3.5789 91.6177 0.0000 0.0000 0.0000
# 4 0.0000 0.0000 0.0000 33.7939 0.0000 0.0000
# 5 0.0000 0.0000 0.0000 0.0000 12.2512 0.0000
# 6 0.0000 0.0000 0.0000 0.0000 0.0000 21.0860
#
#
#
# Elastic Compliance Matrix: (Units=1/GPa)
#
#
# Indices 1 2 3 4 5 6 
#
# 1 0.012274 -0.001762 -0.003463 0.000000 0.000000 0.000000
# 2 -0.001762 0.013020 -0.000001 0.000000 0.000000 0.000000
# 3 -0.003463 -0.000001 0.011912 0.000000 0.000000 0.000000
# 4 0.000000 0.000000 0.000000 0.029591 0.000000 0.000000
# 5 0.000000 0.000000 0.000000 0.000000 0.081625 0.000000
# 6 0.000000 0.000000 0.000000 0.000000 0.000000 0.047425
#
#
# Mechanical properties :
#
#
# Convention : Reuss Voigt Hill
#
# Bulk Modulus (GPa) = 37.38151 38.35588 37.86869
# Shear Modulus (GPa) = 23.23232 27.99563 25.61398
#
# Velocity S-wave (km/s) = 3.32254 3.64728 3.48869
# Velocity P-wave (km/s) = 5.69926 5.99686 5.84995
#
# Compressibility (1/GPa) = 0.02675120
#
# Stress axis : x y z
#
# Youngs Moduli (GPa) = 81.47246 76.80761 83.95096
#
# Poissons Ratio (x) = 0.13535 0.29076
# Poissons Ratio (y) = 0.14357 0.00012
# Poissons Ratio (z) = 0.28218 0.00011
#
# Static dielectric constant tensor:
#      x y z
#    x 4.019090 0.000000 0.000000 
#    y 0.000000 3.888140 0.000000 
#    z 0.000000 0.000000 3.867740 
# 
# 
# High freq. dielectric constant tensor:
#      x y z
#    x 1.834780 0.000000 0.000000 
#    y 0.000000 1.828160 0.000000 
#    z 0.000000 0.000000 1.828080 
# 
# From -- ./inp_files/10930.got.cif
#   From: 2010.03.12/outbox.cif.g09.slc.cpg/sg61_6_cif.got.tgz:10930.got - 2010.04.10 19:05:03.
