data_PCOD8249800
_publ_section_title
;
Structure prediction by ZEFSAII (Michael W. Deem and Ramdas Pophale) SiO2 
 PCOD8249800
Probable space group: P B C A
;
_chemical_formula_sum "Si O2"
_cell_formula_units_Z 56
_cell_length_a 13.894448
_cell_length_b 11.255458
_cell_length_c 14.076873
_cell_angle_alpha 90.000000
_cell_angle_beta 90.000000
_cell_angle_gamma 90.000000
_cell_volume 2201.459306
_symmetry_space_group_name_H-M "P B C A"
_symmetry_group_IT_number 61
_symmetry_cell_setting 'orthorhombic'
loop_
_space_group_symop_operation_xyz
x,y,z
1/2-x,-y,1/2+z
1/2+x,1/2-y,-z
-x,1/2+y,1/2-z
-x,-y,-z
1/2+x,y,1/2-z
1/2-x,1/2+y,z
x,1/2-y,1/2+z
loop_
_atom_site_type_symbol
_atom_site_label
_atom_site_fract_x
_atom_site_fract_y
_atom_site_fract_z
Si Si1 0.735754 0.518809 0.634317
Si Si2 0.359436 0.037066 0.053325
Si Si3 0.591045 0.604459 0.772415
Si Si4 0.611452 0.209131 0.698687
Si Si5 0.534172 0.309302 0.507400
Si Si6 0.057490 0.128142 0.152803
Si Si7 0.852480 0.358068 0.752310
O O1 0.730033 0.529695 0.520257
O O2 0.627935 0.539829 0.675629
O O3 0.804366 0.618731 0.677298
O O4 0.778083 0.389801 0.666494
O O5 0.323032 0.055605 0.160465
O O6 0.414645 0.912558 0.051477
O O7 0.425067 0.151124 0.027068
O O8 0.480016 0.637090 0.761119
O O9 0.597935 0.507224 0.858532
O O10 0.656907 0.721375 0.787741
O O11 0.587628 0.287145 0.606105
O O12 0.637423 0.297922 0.786110
O O13 0.535526 0.186123 0.448778
O O14 0.960833 0.121193 0.216357
#
# Coordination Sequence:
#
# PCOD8249800 Si02
#       7
#     8   8   8   8   8   8   8
#     4  12  27  46  78 110 153 199 261 322 383 450
#     4  11  24  47  77 111 147 202 256 318 386 466
#     4  11  25  46  75 103 153 201 245 312 381 452
#     4  11  24  49  73 112 148 198 254 311 384 460
#     4  11  24  45  80 105 148 199 255 314 391 455
#     4  11  23  46  79 107 149 203 251 314 384 458
#     4  11  25  49  73 109 149 197 257 309 384 467
#
# _framework density 25.437671000000002
#
# number of rings (size 3 to 8) (size 9 to 14) (size 15 to 20)
#    0.000    0.857    4.286    3.429    8.000    1.714 
#    5.143    0.000    0.000    0.000    0.000    0.000 
#    0.000    0.000    0.000    0.000    0.000    0.000 
#
# Total GULP energy -694272.303907 kJ/mol
# GULP energy per Si atom -12397.719713 kJ/mol
# Density = 2.537977 g / cm^3
# Si number density = 25.437671 Si / 1000 Ang^3
#
#
#
# Elastic Constant Matrix: (Units=GPa)
#
#
# Indices 1 2 3 4 5 6 
#
# 1 60.2976 18.7775 29.6539 0.0000 0.0000 0.0000
# 2 18.7775 131.6319 23.9417 0.0000 0.0000 0.0000
# 3 29.6539 23.9417 105.9806 0.0000 0.0000 0.0000
# 4 0.0000 0.0000 0.0000 43.1865 0.0000 0.0000
# 5 0.0000 0.0000 0.0000 0.0000 36.1400 0.0000
# 6 0.0000 0.0000 0.0000 0.0000 0.0000 19.9625
#
#
#
# Elastic Compliance Matrix: (Units=1/GPa)
#
#
# Indices 1 2 3 4 5 6 
#
# 1 0.019668 -0.001882 -0.005078 0.000000 0.000000 0.000000
# 2 -0.001882 0.008103 -0.001304 0.000000 0.000000 0.000000
# 3 -0.005078 -0.001304 0.011151 0.000000 0.000000 0.000000
# 4 0.000000 0.000000 0.000000 0.023155 0.000000 0.000000
# 5 0.000000 0.000000 0.000000 0.000000 0.027670 0.000000
# 6 0.000000 0.000000 0.000000 0.000000 0.000000 0.050094
#
#
# Mechanical properties :
#
#
# Convention : Reuss Voigt Hill
#
# Bulk Modulus (GPa) = 44.65529 49.18402 46.91966
# Shear Modulus (GPa) = 30.51885 34.89359 32.70622
#
# Velocity S-wave (km/s) = 3.46750 3.70770 3.58961
# Velocity P-wave (km/s) = 5.79865 6.14056 5.97205
#
# Compressibility (1/GPa) = 0.02239376
#
# Stress axis : x y z
#
# Youngs Moduli (GPa) = 50.84452 123.41774 89.67746
#
# Poissons Ratio (x) = 0.23228 0.45538
# Poissons Ratio (y) = 0.09569 0.11692
# Poissons Ratio (z) = 0.25819 0.16091
#
# Static dielectric constant tensor:
#      x y z
#    x 4.486690 0.000000 0.000000 
#    y 0.000000 5.135040 0.000000 
#    z 0.000000 0.000000 4.392130 
# 
# 
# High freq. dielectric constant tensor:
#      x y z
#    x 2.006230 0.000000 0.000000 
#    y 0.000000 2.035890 0.000000 
#    z 0.000000 0.000000 1.999030 
# 
# From -- ./inp_files/7860.got.cif
#   From: 2010.03.12/outbox.cif.g09.slc.cpg/sg61_4_cif.got.tgz:7860.got - 2010.04.10 19:05:03.
