data_PCOD8249732
_publ_section_title
;
Structure prediction by ZEFSAII (Michael W. Deem and Ramdas Pophale) SiO2 
 PCOD8249732
Probable space group: P B C A
;
_chemical_formula_sum "Si O2"
_cell_formula_units_Z 64
_cell_length_a 8.603604
_cell_length_b 16.364532
_cell_length_c 18.828232
_cell_angle_alpha 90.000000
_cell_angle_beta 90.000000
_cell_angle_gamma 90.000000
_cell_volume 2650.901211
_symmetry_space_group_name_H-M "P B C A"
_symmetry_group_IT_number 61
_symmetry_cell_setting 'orthorhombic'
loop_
_space_group_symop_operation_xyz
x,y,z
1/2-x,-y,1/2+z
1/2+x,1/2-y,-z
-x,1/2+y,1/2-z
-x,-y,-z
1/2+x,y,1/2-z
1/2-x,1/2+y,z
x,1/2-y,1/2+z
loop_
_atom_site_type_symbol
_atom_site_label
_atom_site_fract_x
_atom_site_fract_y
_atom_site_fract_z
Si Si1 0.371368 0.665375 0.323017
Si Si2 0.755541 0.386519 0.409714
Si Si3 0.956140 0.322164 0.284659
Si Si4 0.829819 0.961178 0.184317
Si Si5 0.583264 0.651737 0.626495
Si Si6 0.917023 0.552876 0.402554
Si Si7 0.313684 0.405207 0.710085
Si Si8 0.850485 0.318941 0.550837
O O1 0.466445 0.748491 0.327226
O O2 0.243005 0.670616 0.259523
O O3 0.502022 0.596000 0.305909
O O4 0.283360 0.646077 0.396456
O O5 0.572529 0.395343 0.396267
O O6 0.784531 0.319742 0.471047
O O7 0.819544 0.355243 0.334501
O O8 0.834994 0.472288 0.436748
O O9 0.083220 0.391126 0.273988
O O10 0.906833 0.303573 0.203655
O O11 0.710824 0.921166 0.127406
O O12 0.942494 0.024250 0.146303
O O13 0.753368 0.013834 0.247843
O O14 0.614995 0.724688 0.570697
O O15 0.995186 0.622612 0.452001
O O16 0.781593 0.600937 0.362126
#
# Coordination Sequence:
#
# PCOD8249732 Si02
#       8
#     8   8   8   8   8   8   8   8
#     4  12  25  42  70 109 148 189 245 305 374 434
#     4  11  29  46  75 106 147 197 250 306 391 452
#     4  11  24  44  69 106 137 186 239 306 369 439
#     4  11  22  41  70 105 149 179 241 312 367 428
#     4  12  25  45  76 107 144 192 255 309 364 449
#     4  11  24  46  71 104 145 199 240 307 378 445
#     4  12  23  42  72 110 147 187 245 310 364 438
#     4  12  27  50  69 107 155 199 246 309 385 459
#
# _framework density 24.142733
#
# number of rings (size 3 to 8) (size 9 to 14) (size 15 to 20)
#    0.000    0.500    3.750    4.875    7.000    0.000 
#    0.000    5.000    0.000    0.000    0.000    0.000 
#    0.000    0.000    0.000    0.000    0.000    0.000 
#
# Total GULP energy -793164.744953 kJ/mol
# GULP energy per Si atom -12393.199140 kJ/mol
# Density = 2.408778 g / cm^3
# Si number density = 24.142733 Si / 1000 Ang^3
#
#
#
# Elastic Constant Matrix: (Units=GPa)
#
#
# Indices 1 2 3 4 5 6 
#
# 1 113.8884 14.4788 16.8035 0.0000 0.0000 0.0000
# 2 14.4788 72.2246 -21.4524 0.0000 0.0000 0.0000
# 3 16.8035 -21.4524 50.6381 0.0000 0.0000 0.0000
# 4 0.0000 0.0000 0.0000 27.8369 0.0000 0.0000
# 5 0.0000 0.0000 0.0000 0.0000 21.1387 0.0000
# 6 0.0000 0.0000 0.0000 0.0000 0.0000 25.2442
#
#
#
# Elastic Compliance Matrix: (Units=1/GPa)
#
#
# Indices 1 2 3 4 5 6 
#
# 1 0.009908 -0.003389 -0.004724 0.000000 0.000000 0.000000
# 2 -0.003389 0.016998 0.008326 0.000000 0.000000 0.000000
# 3 -0.004724 0.008326 0.024843 0.000000 0.000000 0.000000
# 4 0.000000 0.000000 0.000000 0.035924 0.000000 0.000000
# 5 0.000000 0.000000 0.000000 0.000000 0.047307 0.000000
# 6 0.000000 0.000000 0.000000 0.000000 0.000000 0.039613
#
#
# Mechanical properties :
#
#
# Convention : Reuss Voigt Hill
#
# Bulk Modulus (GPa) = 19.16650 28.49010 23.82830
# Shear Modulus (GPa) = 26.10163 29.97202 28.03682
#
# Velocity S-wave (km/s) = 3.29163 3.52725 3.41147
# Velocity P-wave (km/s) = 4.73313 5.33057 5.04071
#
# Compressibility (1/GPa) = 0.05217436
#
# Stress axis : x y z
#
# Youngs Moduli (GPa) = 100.92446 58.82994 40.25331
#
# Poissons Ratio (x) = 0.19940 0.19015
# Poissons Ratio (y) = 0.34208 -0.33514
# Poissons Ratio (z) = 0.47675 -0.48981
#
# Static dielectric constant tensor:
#      x y z
#    x 4.600720 0.000000 0.000000 
#    y 0.000000 4.451840 0.000000 
#    z 0.000000 0.000000 3.978370 
# 
# 
# High freq. dielectric constant tensor:
#      x y z
#    x 1.975320 0.000000 0.000000 
#    y 0.000000 1.965060 0.000000 
#    z 0.000000 0.000000 1.929910 
# 
# From -- ./inp_files/10189.got.cif
#   From: 2010.03.12/outbox.cif.g09.slc.cpg/sg61_6_cif.got.tgz:10189.got - 2010.04.10 19:05:03.
