data_PCOD8249067
_publ_section_title
;
Structure prediction by ZEFSAII (Michael W. Deem and Ramdas Pophale) SiO2 
 PCOD8249067
Probable space group: P B C A
;
_chemical_formula_sum "Si O2"
_cell_formula_units_Z 56
_cell_length_a 28.079917
_cell_length_b 5.475866
_cell_length_c 14.559326
_cell_angle_alpha 90.000000
_cell_angle_beta 90.000000
_cell_angle_gamma 90.000000
_cell_volume 2238.669087
_symmetry_space_group_name_H-M "P B C A"
_symmetry_group_IT_number 61
_symmetry_cell_setting 'orthorhombic'
loop_
_space_group_symop_operation_xyz
x,y,z
1/2-x,-y,1/2+z
1/2+x,1/2-y,-z
-x,1/2+y,1/2-z
-x,-y,-z
1/2+x,y,1/2-z
1/2-x,1/2+y,z
x,1/2-y,1/2+z
loop_
_atom_site_type_symbol
_atom_site_label
_atom_site_fract_x
_atom_site_fract_y
_atom_site_fract_z
Si Si1 0.631169 0.506317 0.590907
Si Si2 0.040771 0.772095 0.837513
Si Si3 0.449295 0.008550 0.657974
Si Si4 0.773597 0.173762 0.655356
Si Si5 0.773351 0.137406 0.872526
Si Si6 0.370101 0.168678 0.101588
Si Si7 0.389678 0.855752 0.267158
O O1 0.576934 0.596124 0.608909
O O2 0.670987 0.700024 0.623905
O O3 0.633847 0.470254 0.480821
O O4 0.642258 0.262396 0.651225
O O5 0.025008 0.650571 0.741411
O O6 0.066306 0.026959 0.819186
O O7 0.990971 0.843993 0.890391
O O8 0.422205 0.201231 0.591591
O O9 0.406226 0.850006 0.696736
O O10 0.748169 0.418044 0.615140
O O11 0.768350 0.150168 0.763755
O O12 0.749686 0.388029 0.912489
O O13 0.828083 0.133547 0.906031
O O14 0.361642 0.046921 0.202346
#
# Coordination Sequence:
#
# PCOD8249067 Si02
#       7
#     8   8   8   8   8   8   8
#     4  11  26  42  65 104 140 183 239 295 358 430
#     4  10  20  39  68  96 129 180 234 284 355 428
#     4  10  20  39  68  96 129 180 234 284 355 428
#     4  10  23  43  72 102 137 185 240 297 360 428
#     4  10  23  43  72 102 137 185 240 297 360 428
#     4  11  26  42  65 104 140 183 239 295 358 430
#     4  10  22  42  68  92 136 182 226 288 354 428
#
# _framework density 25.014865
#
# number of rings (size 3 to 8) (size 9 to 14) (size 15 to 20)
#    0.000    1.714    1.429    2.571   10.000    2.857 
#    0.000    1.429    0.000    0.000    0.000    0.000 
#    0.000    0.000    0.000    0.000    0.000    0.000 
#
# Total GULP energy -693839.541952 kJ/mol
# GULP energy per Si atom -12389.991821 kJ/mol
# Density = 2.495793 g / cm^3
# Si number density = 25.014865 Si / 1000 Ang^3
#
#
#
# Elastic Constant Matrix: (Units=GPa)
#
#
# Indices 1 2 3 4 5 6 
#
# 1 122.9771 39.0095 12.7474 0.0000 0.0000 0.0000
# 2 39.0095 111.8036 11.3387 0.0000 0.0000 0.0000
# 3 12.7474 11.3387 25.5769 0.0000 0.0000 0.0000
# 4 0.0000 0.0000 0.0000 13.0373 0.0000 0.0000
# 5 0.0000 0.0000 0.0000 0.0000 2.6488 0.0000
# 6 0.0000 0.0000 0.0000 0.0000 0.0000 32.6467
#
#
#
# Elastic Compliance Matrix: (Units=1/GPa)
#
#
# Indices 1 2 3 4 5 6 
#
# 1 0.009416 -0.002942 -0.003389 0.000000 0.000000 0.000000
# 2 -0.002942 0.010284 -0.003093 0.000000 0.000000 0.000000
# 3 -0.003389 -0.003093 0.042158 0.000000 0.000000 0.000000
# 4 0.000000 0.000000 0.000000 0.076703 0.000000 0.000000
# 5 0.000000 0.000000 0.000000 0.000000 0.377528 0.000000
# 6 0.000000 0.000000 0.000000 0.000000 0.000000 0.030631
#
#
# Mechanical properties :
#
#
# Convention : Reuss Voigt Hill
#
# Bulk Modulus (GPa) = 23.24975 42.94984 33.09980
# Shear Modulus (GPa) = 8.62211 22.81738 15.71974
#
# Velocity S-wave (km/s) = 1.85857 3.02346 2.50954
# Velocity P-wave (km/s) = 3.73099 5.42176 4.65380
#
# Compressibility (1/GPa) = 0.04301121
#
# Stress axis : x y z
#
# Youngs Moduli (GPa) = 106.20242 97.23539 23.72028
#
# Poissons Ratio (x) = 0.28603 0.08038
# Poissons Ratio (y) = 0.31241 0.07337
# Poissons Ratio (z) = 0.35990 0.30076
#
# Static dielectric constant tensor:
#      x y z
#    x 4.470580 0.000000 0.000000 
#    y 0.000000 4.723330 0.000000 
#    z 0.000000 0.000000 4.081490 
# 
# 
# High freq. dielectric constant tensor:
#      x y z
#    x 2.001260 0.000000 0.000000 
#    y 0.000000 1.995730 0.000000 
#    z 0.000000 0.000000 1.958080 
# 
# From -- ./inp_files/8667.got.cif
#   From: 2010.03.12/outbox.cif.g09.slc.cpg/sg61_5_cif.got.tgz:8667.got - 2010.04.10 19:05:03.
