data_PCOD8249759
_publ_section_title
;
Structure prediction by ZEFSAII (Michael W. Deem and Ramdas Pophale) SiO2 
 PCOD8249759
Probable space group: P B C A
;
_chemical_formula_sum "Si O2"
_cell_formula_units_Z 64
_cell_length_a 17.892820
_cell_length_b 16.035663
_cell_length_c 10.917147
_cell_angle_alpha 90.000000
_cell_angle_beta 90.000000
_cell_angle_gamma 90.000000
_cell_volume 3132.383098
_symmetry_space_group_name_H-M "P B C A"
_symmetry_group_IT_number 61
_symmetry_cell_setting 'orthorhombic'
loop_
_space_group_symop_operation_xyz
x,y,z
1/2-x,-y,1/2+z
1/2+x,1/2-y,-z
-x,1/2+y,1/2-z
-x,-y,-z
1/2+x,y,1/2-z
1/2-x,1/2+y,z
x,1/2-y,1/2+z
loop_
_atom_site_type_symbol
_atom_site_label
_atom_site_fract_x
_atom_site_fract_y
_atom_site_fract_z
Si Si1 0.127568 0.274151 0.142181
Si Si2 0.743062 0.828065 0.750222
Si Si3 0.612138 0.777902 0.138952
Si Si4 0.647988 0.089908 0.065084
Si Si5 0.007362 0.345352 0.559311
Si Si6 0.004629 0.946336 0.700794
Si Si7 0.506109 0.369811 0.215857
Si Si8 0.650685 0.586542 0.449142
O O1 0.205987 0.246888 0.199621
O O2 0.088944 0.192047 0.086331
O O3 0.077218 0.313276 0.249997
O O4 0.140663 0.340103 0.036607
O O5 0.671709 0.787134 0.687834
O O6 0.785046 0.886378 0.654366
O O7 0.716857 0.889610 0.857408
O O8 0.552121 0.729699 0.055304
O O9 0.569912 0.820496 0.253387
O O10 0.652275 0.847621 0.058718
O O11 0.572042 0.084532 0.141971
O O12 0.669798 0.003696 0.001894
O O13 0.985635 0.412244 0.662253
O O14 0.007857 0.390574 0.427987
O O15 0.070348 0.912016 0.615957
O O16 0.008011 0.046231 0.703926
#
# Coordination Sequence:
#
# PCOD8249759 Si02
#       8
#     8   8   8   8   8   8   8   8
#     4  11  24  43  70  97 136 173 225 276 331 405
#     4  12  26  46  64 104 136 180 220 270 346 402
#     4  11  24  43  70  97 136 173 225 276 331 405
#     4  12  25  46  69  98 135 179 222 276 336 400
#     4  11  23  40  68 102 131 170 230 284 319 392
#     4  12  22  47  69  97 135 171 231 276 330 390
#     4  11  23  42  71 100 127 177 223 278 336 378
#     4  12  25  46  69  98 135 179 222 276 336 400
#
# _framework density 20.431729000000001
#
# number of rings (size 3 to 8) (size 9 to 14) (size 15 to 20)
#    0.000    0.500    5.000    4.500    3.500    1.000 
#    4.500    0.000    0.000    0.000    0.000    0.000 
#    0.000    0.000    0.000    0.000    0.000    0.000 
#
# Total GULP energy -794099.399152 kJ/mol
# GULP energy per Si atom -12407.803112 kJ/mol
# Density = 2.038523 g / cm^3
# Si number density = 20.431729 Si / 1000 Ang^3
#
#
#
# Elastic Constant Matrix: (Units=GPa)
#
#
# Indices 1 2 3 4 5 6 
#
# 1 85.5609 38.4966 38.0689 0.0000 0.0000 0.0000
# 2 38.4966 92.1486 40.0842 0.0000 0.0000 0.0000
# 3 38.0689 40.0842 125.6016 0.0000 0.0000 0.0000
# 4 0.0000 0.0000 0.0000 43.7597 0.0000 0.0000
# 5 0.0000 0.0000 0.0000 0.0000 14.4180 0.0000
# 6 0.0000 0.0000 0.0000 0.0000 0.0000 27.6674
#
#
#
# Elastic Compliance Matrix: (Units=1/GPa)
#
#
# Indices 1 2 3 4 5 6 
#
# 1 0.015320 -0.005086 -0.003020 0.000000 0.000000 0.000000
# 2 -0.005086 0.014290 -0.003019 0.000000 0.000000 0.000000
# 3 -0.003020 -0.003019 0.009840 0.000000 0.000000 0.000000
# 4 0.000000 0.000000 0.000000 0.022852 0.000000 0.000000
# 5 0.000000 0.000000 0.000000 0.000000 0.069358 0.000000
# 6 0.000000 0.000000 0.000000 0.000000 0.000000 0.036144
#
#
# Mechanical properties :
#
#
# Convention : Reuss Voigt Hill
#
# Bulk Modulus (GPa) = 58.14026 59.62341 58.88183
# Shear Modulus (GPa) = 25.53784 29.61311 27.57547
#
# Velocity S-wave (km/s) = 3.53924 3.81119 3.67773
# Velocity P-wave (km/s) = 6.72453 6.97223 6.84950
#
# Compressibility (1/GPa) = 0.01719979
#
# Stress axis : x y z
#
# Youngs Moduli (GPa) = 65.27480 69.97812 101.62105
#
# Poissons Ratio (x) = 0.35594 0.30690
# Poissons Ratio (y) = 0.33201 0.30678
# Poissons Ratio (z) = 0.19713 0.21126
#
# Static dielectric constant tensor:
#      x y z
#    x 3.723420 0.000000 0.000000 
#    y 0.000000 3.790830 0.000000 
#    z 0.000000 0.000000 3.765890 
# 
# 
# High freq. dielectric constant tensor:
#      x y z
#    x 1.797260 0.000000 0.000000 
#    y 0.000000 1.808670 0.000000 
#    z 0.000000 0.000000 1.810860 
# 
# From -- ./inp_files/6288.got.cif
#   From: 2010.03.12/outbox.cif.g09.slc.cpg/sg61_4_cif.got.tgz:6288.got - 2010.04.10 19:05:03.
