data_PCOD8249968
_publ_section_title
;
Structure prediction by ZEFSAII (Michael W. Deem and Ramdas Pophale) SiO2 
 PCOD8249968
Probable space group: P N M A
;
_chemical_formula_sum "Si O2"
_cell_formula_units_Z 40
_cell_length_a 5.205684
_cell_length_b 24.703025
_cell_length_c 11.021487
_cell_angle_alpha 90.000000
_cell_angle_beta 90.000000
_cell_angle_gamma 90.000000
_cell_volume 1417.320707
_symmetry_space_group_name_H-M "P N M A"
_symmetry_group_IT_number 62
_symmetry_cell_setting 'orthorhombic'
loop_
_space_group_symop_operation_xyz
x,y,z
1/2-x,-y,1/2+z
1/2+x,1/2-y,1/2-z
-x,1/2+y,-z
-x,-y,-z
1/2+x,y,1/2-z
1/2-x,1/2+y,1/2+z
x,1/2-y,z
loop_
_atom_site_type_symbol
_atom_site_label
_atom_site_fract_x
_atom_site_fract_y
_atom_site_fract_z
Si Si1 0.960687 0.590820 0.901871
Si Si2 0.535918 0.134752 0.137938
Si Si3 0.413363 0.250000 0.538611
Si Si4 0.970432 0.524246 0.169530
Si Si5 0.911603 0.250000 0.392759
Si Si6 0.583046 0.640273 0.324848
O O1 0.201183 0.629862 0.942049
O O2 0.916573 0.598013 0.755356
O O3 0.999107 0.526405 0.921899
O O4 0.688853 0.613438 0.952265
O O5 0.478148 0.196049 0.183001
O O6 0.612480 0.250000 0.427193
O O7 0.482808 0.196548 0.613575
O O8 0.111429 0.250000 0.506268
O O9 0.686117 0.523066 0.225797
O O10 0.012691 0.583210 0.097845
O O11 0.379624 0.636155 0.213955
#
# Coordination Sequence:
#
# PCOD8249968 Si02
#       6
#     8   8   4   8   4   8
#     4  10  17  32  57  84 113 137 186 251 275 311
#     4  10  20  33  54  81 111 153 190 228 277 322
#     4  12  24  43  57  78 122 152 190 230 268 338
#     4  10  16  30  54  93 111 134 164 235 307 328
#     4  12  26  39  55  76 116 170 192 214 270 340
#     4  10  21  36  65  92 109 134 185 239 296 329
#
# _framework density 28.222263999999999
#
# number of rings (size 3 to 8) (size 9 to 14) (size 15 to 20)
#    0.000    1.600    4.000    3.000    0.000    3.200 
#    0.000    0.000    0.000    7.200    0.000    0.000 
#    0.000    0.000    0.000    0.000    0.000    0.000 
#
# Total GULP energy -495831.288564 kJ/mol
# GULP energy per Si atom -12395.782214 kJ/mol
# Density = 2.815803 g / cm^3
# Si number density = 28.222264 Si / 1000 Ang^3
#
#
#
# Elastic Constant Matrix: (Units=GPa)
#
#
# Indices 1 2 3 4 5 6 
#
# 1 195.7043 18.0517 9.5960 0.0000 0.0000 0.0000
# 2 18.0517 212.5256 34.8087 0.0000 0.0000 0.0000
# 3 9.5960 34.8087 34.6963 0.0000 0.0000 0.0000
# 4 0.0000 0.0000 0.0000 48.6840 0.0000 0.0000
# 5 0.0000 0.0000 0.0000 0.0000 31.1370 0.0000
# 6 0.0000 0.0000 0.0000 0.0000 0.0000 37.1026
#
#
#
# Elastic Compliance Matrix: (Units=1/GPa)
#
#
# Indices 1 2 3 4 5 6 
#
# 1 0.005191 -0.000246 -0.001189 0.000000 0.000000 0.000000
# 2 -0.000246 0.005642 -0.005592 0.000000 0.000000 0.000000
# 3 -0.001189 -0.005592 0.034761 0.000000 0.000000 0.000000
# 4 0.000000 0.000000 0.000000 0.020541 0.000000 0.000000
# 5 0.000000 0.000000 0.000000 0.000000 0.032116 0.000000
# 6 0.000000 0.000000 0.000000 0.000000 0.000000 0.026952
#
#
# Mechanical properties :
#
#
# Convention : Reuss Voigt Hill
#
# Bulk Modulus (GPa) = 31.70647 63.09324 47.39986
# Shear Modulus (GPa) = 33.38449 48.74938 41.06693
#
# Velocity S-wave (km/s) = 3.44308 4.16063 3.81875
# Velocity P-wave (km/s) = 5.20244 6.74430 6.02291
#
# Compressibility (1/GPa) = 0.03153930
#
# Stress axis : x y z
#
# Youngs Moduli (GPa) = 192.65074 177.23640 28.76808
#
# Poissons Ratio (x) = 0.04364 0.03419
# Poissons Ratio (y) = 0.04743 0.16088
# Poissons Ratio (z) = 0.22898 0.99117
#
# Static dielectric constant tensor:
#      x y z
#    x 6.294900 0.000000 0.000000 
#    y 0.000000 5.833220 0.000000 
#    z 0.000000 0.000000 4.858540 
# 
# 
# High freq. dielectric constant tensor:
#      x y z
#    x 2.170490 0.000000 0.000000 
#    y 0.000000 2.176050 0.000000 
#    z 0.000000 0.000000 2.137440 
# 
# From -- ./inp_files/16178.got.cif
#   From: 2010.03.12/outbox.cif.g09.slc.cpg/sg62_9_cif.got.tgz:16178.got - 2010.04.10 19:12:36.
