data_PCOD8249866
_publ_section_title
;
Structure prediction by ZEFSAII (Michael W. Deem and Ramdas Pophale) SiO2 
 PCOD8249866
Probable space group: P B C A
;
_chemical_formula_sum "Si O2"
_cell_formula_units_Z 40
_cell_length_a 9.246193
_cell_length_b 17.784316
_cell_length_c 10.276925
_cell_angle_alpha 90.000000
_cell_angle_beta 90.000000
_cell_angle_gamma 90.000000
_cell_volume 1689.908958
_symmetry_space_group_name_H-M "P B C A"
_symmetry_group_IT_number 61
_symmetry_cell_setting 'orthorhombic'
loop_
_space_group_symop_operation_xyz
x,y,z
1/2-x,-y,1/2+z
1/2+x,1/2-y,-z
-x,1/2+y,1/2-z
-x,-y,-z
1/2+x,y,1/2-z
1/2-x,1/2+y,z
x,1/2-y,1/2+z
loop_
_atom_site_type_symbol
_atom_site_label
_atom_site_fract_x
_atom_site_fract_y
_atom_site_fract_z
Si Si1 0.710370 0.137066 0.679993
Si Si2 0.083665 0.800017 0.101143
Si Si3 0.251603 0.919680 0.972977
Si Si4 0.193005 0.986920 0.704904
Si Si5 0.563690 0.870728 0.967204
O O1 0.586438 0.192276 0.629645
O O2 0.811901 0.182435 0.778776
O O3 0.817064 0.103617 0.571041
O O4 0.626307 0.064752 0.739915
O O5 0.105833 0.714055 0.065112
O O6 0.127499 0.855341 0.981453
O O7 0.275376 0.947430 0.825281
O O8 0.401732 0.880695 0.020396
O O9 0.211077 0.985880 0.078587
O O10 0.074849 0.927254 0.655970
#
# Coordination Sequence:
#
# PCOD8249866 Si02
#       5
#     8   8   8   8   8
#     4  11  25  49  70 108 145 192 245 303 357 443
#     4  11  27  45  75 104 150 188 245 302 373 428
#     4  11  26  49  73 109 144 194 245 303 364 436
#     4  11  25  45  76 104 146 192 246 298 363 431
#     4  12  26  46  76 103 151 189 247 299 369 432
#
# _framework density 23.669912
#
# number of rings (size 3 to 8) (size 9 to 14) (size 15 to 20)
#    0.000    0.800    2.000    4.200   11.200    2.400 
#    0.000    0.000    0.000    0.000    0.000    0.000 
#    0.000    0.000    0.000    0.000    0.000    0.000 
#
# Total GULP energy -495586.939363 kJ/mol
# GULP energy per Si atom -12389.673484 kJ/mol
# Density = 2.361604 g / cm^3
# Si number density = 23.669912 Si / 1000 Ang^3
#
#
#
# Elastic Constant Matrix: (Units=GPa)
#
#
# Indices 1 2 3 4 5 6 
#
# 1 98.6110 11.0933 37.4243 0.0000 0.0000 0.0000
# 2 11.0933 100.8281 51.9122 0.0000 0.0000 0.0000
# 3 37.4243 51.9122 130.1058 0.0000 0.0000 0.0000
# 4 0.0000 0.0000 0.0000 25.1538 0.0000 0.0000
# 5 0.0000 0.0000 0.0000 0.0000 33.6322 0.0000
# 6 0.0000 0.0000 0.0000 0.0000 0.0000 22.4638
#
#
#
# Elastic Compliance Matrix: (Units=1/GPa)
#
#
# Indices 1 2 3 4 5 6 
#
# 1 0.011407 0.000547 -0.003499 0.000000 0.000000 0.000000
# 2 0.000547 0.012508 -0.005148 0.000000 0.000000 0.000000
# 3 -0.003499 -0.005148 0.010747 0.000000 0.000000 0.000000
# 4 0.000000 0.000000 0.000000 0.039755 0.000000 0.000000
# 5 0.000000 0.000000 0.000000 0.000000 0.029733 0.000000
# 6 0.000000 0.000000 0.000000 0.000000 0.000000 0.044516
#
#
# Mechanical properties :
#
#
# Convention : Reuss Voigt Hill
#
# Bulk Modulus (GPa) = 54.16887 58.93383 56.55135
# Shear Modulus (GPa) = 29.23593 31.52430 30.38012
#
# Velocity S-wave (km/s) = 3.51829 3.65338 3.58647
# Velocity P-wave (km/s) = 6.28007 6.53824 6.41045
#
# Compressibility (1/GPa) = 0.01846079
#
# Stress axis : x y z
#
# Youngs Moduli (GPa) = 87.66211 79.94739 93.05188
#
# Poissons Ratio (x) = -0.04370 0.32563
# Poissons Ratio (y) = -0.04792 0.47903
# Poissons Ratio (z) = 0.30676 0.41157
#
# Static dielectric constant tensor:
#      x y z
#    x 3.874560 0.000000 0.000000 
#    y 0.000000 4.298060 0.000000 
#    z 0.000000 0.000000 4.566090 
# 
# 
# High freq. dielectric constant tensor:
#      x y z
#    x 1.913300 0.000000 0.000000 
#    y 0.000000 1.950590 0.000000 
#    z 0.000000 0.000000 1.947640 
# 
# From -- ./inp_files/3290.got.cif
#   From: 2010.03.12/outbox.cif.g09.slc.cpg/sg61_2_cif.got.tgz:3290.got - 2010.04.10 19:05:03.
