data_PCOD8249246
_publ_section_title
;
Structure prediction by ZEFSAII (Michael W. Deem and Ramdas Pophale) SiO2 
 PCOD8249246
Probable space group: P B C A
;
_chemical_formula_sum "Si O2"
_cell_formula_units_Z 40
_cell_length_a 8.646267
_cell_length_b 8.725436
_cell_length_c 21.583762
_cell_angle_alpha 90.000000
_cell_angle_beta 90.000000
_cell_angle_gamma 90.000000
_cell_volume 1628.331871
_symmetry_space_group_name_H-M "P B C A"
_symmetry_group_IT_number 61
_symmetry_cell_setting 'orthorhombic'
loop_
_space_group_symop_operation_xyz
x,y,z
1/2-x,-y,1/2+z
1/2+x,1/2-y,-z
-x,1/2+y,1/2-z
-x,-y,-z
1/2+x,y,1/2-z
1/2-x,1/2+y,z
x,1/2-y,1/2+z
loop_
_atom_site_type_symbol
_atom_site_label
_atom_site_fract_x
_atom_site_fract_y
_atom_site_fract_z
Si Si1 0.707353 0.814852 0.505874
Si Si2 0.093585 0.550907 0.072618
Si Si3 0.241182 0.441213 0.409560
Si Si4 0.157167 0.832884 0.702625
Si Si5 0.878765 0.628087 0.722064
O O1 0.588603 0.704537 0.469819
O O2 0.630891 0.929009 0.557994
O O3 0.807798 0.707079 0.551570
O O4 0.812032 0.912905 0.458881
O O5 0.185936 0.595961 0.135007
O O6 0.919993 0.493550 0.082159
O O7 0.225881 0.411778 0.336950
O O8 0.309166 0.758884 0.733057
O O9 0.039426 0.691978 0.697137
O O10 0.088642 0.969622 0.743720
#
# Coordination Sequence:
#
# PCOD8249246 Si02
#       5
#     8   8   8   8   8
#     4  10  21  39  66  93 129 175 222 276 337 408
#     4  11  23  42  64  96 136 174 227 286 343 414
#     4  11  23  44  66  95 135 180 223 280 349 414
#     4  12  25  45  70 103 138 182 232 287 348 412
#     4  12  26  46  73 101 139 185 233 287 348 416
#
# _framework density 24.565017999999998
#
# number of rings (size 3 to 8) (size 9 to 14) (size 15 to 20)
#    0.000    0.800    0.000    9.600    0.000    0.000 
#    0.000   33.000    0.000    0.000    0.000    0.000 
#    0.000    0.000    0.000    0.000    0.000    0.000 
#
# Total GULP energy -495533.211191 kJ/mol
# GULP energy per Si atom -12388.330280 kJ/mol
# Density = 2.450911 g / cm^3
# Si number density = 24.565018 Si / 1000 Ang^3
#
#
#
# Elastic Constant Matrix: (Units=GPa)
#
#
# Indices 1 2 3 4 5 6 
#
# 1 36.5517 -1.7551 10.0026 0.0000 0.0000 0.0000
# 2 -1.7551 134.7096 45.8987 0.0000 0.0000 0.0000
# 3 10.0026 45.8987 167.9249 0.0000 0.0000 0.0000
# 4 0.0000 0.0000 0.0000 56.6233 0.0000 0.0000
# 5 0.0000 0.0000 0.0000 0.0000 25.9670 0.0000
# 6 0.0000 0.0000 0.0000 0.0000 0.0000 29.2081
#
#
#
# Elastic Compliance Matrix: (Units=1/GPa)
#
#
# Indices 1 2 3 4 5 6 
#
# 1 0.027940 0.001027 -0.001945 0.000000 0.000000 0.000000
# 2 0.001027 0.008223 -0.002309 0.000000 0.000000 0.000000
# 3 -0.001945 -0.002309 0.006702 0.000000 0.000000 0.000000
# 4 0.000000 0.000000 0.000000 0.017661 0.000000 0.000000
# 5 0.000000 0.000000 0.000000 0.000000 0.038510 0.000000
# 6 0.000000 0.000000 0.000000 0.000000 0.000000 0.034237
#
#
# Mechanical properties :
#
#
# Convention : Reuss Voigt Hill
#
# Bulk Modulus (GPa) = 27.46395 49.71983 38.59189
# Shear Modulus (GPa) = 32.92404 41.36235 37.14319
#
# Velocity S-wave (km/s) = 3.66496 4.10785 3.89271
# Velocity P-wave (km/s) = 5.39570 6.54090 5.99570
#
# Compressibility (1/GPa) = 0.03641136
#
# Stress axis : x y z
#
# Youngs Moduli (GPa) = 35.79090 121.60368 149.20993
#
# Poissons Ratio (x) = -0.12485 0.29020
# Poissons Ratio (y) = -0.03675 0.34450
# Poissons Ratio (z) = 0.06961 0.28077
#
# Static dielectric constant tensor:
#      x y z
#    x 3.891470 0.000000 0.000000 
#    y 0.000000 5.016680 0.000000 
#    z 0.000000 0.000000 5.017850 
# 
# 
# High freq. dielectric constant tensor:
#      x y z
#    x 1.940200 0.000000 0.000000 
#    y 0.000000 2.012950 0.000000 
#    z 0.000000 0.000000 1.999100 
# 
# From -- ./inp_files/10807.got.cif
#   From: 2010.03.12/outbox.cif.g09.slc.cpg/sg61_6_cif.got.tgz:10807.got - 2010.04.10 19:05:03.
