data_PCOD8249850
_publ_section_title
;
Structure prediction by ZEFSAII (Michael W. Deem and Ramdas Pophale) SiO2 
 PCOD8249850
Probable space group: P B C A
;
_chemical_formula_sum "Si O2"
_cell_formula_units_Z 64
_cell_length_a 9.666023
_cell_length_b 14.359902
_cell_length_c 21.322578
_cell_angle_alpha 90.000000
_cell_angle_beta 90.000000
_cell_angle_gamma 90.000000
_cell_volume 2959.640843
_symmetry_space_group_name_H-M "P B C A"
_symmetry_group_IT_number 61
_symmetry_cell_setting 'orthorhombic'
loop_
_space_group_symop_operation_xyz
x,y,z
1/2-x,-y,1/2+z
1/2+x,1/2-y,-z
-x,1/2+y,1/2-z
-x,-y,-z
1/2+x,y,1/2-z
1/2-x,1/2+y,z
x,1/2-y,1/2+z
loop_
_atom_site_type_symbol
_atom_site_label
_atom_site_fract_x
_atom_site_fract_y
_atom_site_fract_z
Si Si1 0.222092 0.713917 0.292919
Si Si2 0.098569 0.515904 0.311931
Si Si3 0.160128 0.005606 0.101772
Si Si4 0.064286 0.996068 0.668253
Si Si5 0.030301 0.785351 0.678799
Si Si6 0.813847 0.384684 0.125221
Si Si7 0.793488 0.667736 0.492915
Si Si8 0.420400 0.184531 0.552691
O O1 0.190713 0.608464 0.312589
O O2 0.386245 0.724680 0.284161
O O3 0.153323 0.738529 0.226567
O O4 0.164341 0.781476 0.347043
O O5 0.047705 0.489180 0.242537
O O6 0.187736 0.431285 0.337813
O O7 0.966000 0.535081 0.354285
O O8 0.284764 0.970882 0.145984
O O9 0.118521 0.924361 0.053308
O O10 0.208671 0.095034 0.063387
O O11 0.953320 0.057012 0.631434
O O12 0.043794 0.888240 0.650140
O O13 0.035861 0.711705 0.622963
O O14 0.777699 0.380494 0.052318
O O15 0.709702 0.758724 0.472534
O O16 0.949389 0.700599 0.507273
#
# Coordination Sequence:
#
# PCOD8249850 Si02
#       8
#     8   8   8   8   8   8   8   8
#     4  11  26  42  73 106 146 183 233 297 361 428
#     4  11  25  47  72 105 147 181 236 299 362 425
#     4  12  27  47  74 104 141 191 240 293 359 427
#     4  11  26  44  72 106 143 181 234 304 357 424
#     4  11  24  48  68 105 144 184 235 299 361 426
#     4  12  26  45  71 108 138 194 234 289 365 424
#     4  12  29  48  72 104 143 192 244 294 349 419
#     4  12  28  49  72 102 143 189 244 293 350 430
#
# _framework density 21.624244999999998
#
# number of rings (size 3 to 8) (size 9 to 14) (size 15 to 20)
#    0.000    0.500    5.000    1.125   14.000    1.500 
#    0.000    0.000    0.000    0.000    0.000    0.000 
#    0.000    0.000    0.000    0.000    0.000    0.000 
#
# Total GULP energy -794192.836556 kJ/mol
# GULP energy per Si atom -12409.263071 kJ/mol
# Density = 2.157503 g / cm^3
# Si number density = 21.624245 Si / 1000 Ang^3
#
#
#
# Elastic Constant Matrix: (Units=GPa)
#
#
# Indices 1 2 3 4 5 6 
#
# 1 115.5488 26.9914 29.9677 0.0000 0.0000 0.0000
# 2 26.9914 59.5798 33.7122 0.0000 0.0000 0.0000
# 3 29.9677 33.7122 89.3906 0.0000 0.0000 0.0000
# 4 0.0000 0.0000 0.0000 29.6162 0.0000 0.0000
# 5 0.0000 0.0000 0.0000 0.0000 42.5563 0.0000
# 6 0.0000 0.0000 0.0000 0.0000 0.0000 35.4990
#
#
#
# Elastic Compliance Matrix: (Units=1/GPa)
#
#
# Indices 1 2 3 4 5 6 
#
# 1 0.009975 -0.003339 -0.002085 0.000000 0.000000 0.000000
# 2 -0.003339 0.022455 -0.007349 0.000000 0.000000 0.000000
# 3 -0.002085 -0.007349 0.014657 0.000000 0.000000 0.000000
# 4 0.000000 0.000000 0.000000 0.033765 0.000000 0.000000
# 5 0.000000 0.000000 0.000000 0.000000 0.023498 0.000000
# 6 0.000000 0.000000 0.000000 0.000000 0.000000 0.028170
#
#
# Mechanical properties :
#
#
# Convention : Reuss Voigt Hill
#
# Bulk Modulus (GPa) = 46.42239 49.54020 47.98129
# Shear Modulus (GPa) = 30.25749 33.12417 31.69083
#
# Velocity S-wave (km/s) = 3.74470 3.91808 3.83237
# Velocity P-wave (km/s) = 6.34124 6.58997 6.46680
#
# Compressibility (1/GPa) = 0.02154133
#
# Stress axis : x y z
#
# Youngs Moduli (GPa) = 100.24975 44.53252 68.22513
#
# Poissons Ratio (x) = 0.14871 0.14223
# Poissons Ratio (y) = 0.33478 0.50140
# Poissons Ratio (z) = 0.20899 0.32728
#
# Static dielectric constant tensor:
#      x y z
#    x 4.036540 0.000000 0.000000 
#    y 0.000000 3.990740 0.000000 
#    z 0.000000 0.000000 3.843520 
# 
# 
# High freq. dielectric constant tensor:
#      x y z
#    x 1.865970 0.000000 0.000000 
#    y 0.000000 1.858740 0.000000 
#    z 0.000000 0.000000 1.847960 
# 
# From -- ./inp_files/10927.got.cif
#   From: 2010.03.12/outbox.cif.g09.slc.cpg/sg61_6_cif.got.tgz:10927.got - 2010.04.10 19:05:03.
