data_PCOD8249470
_publ_section_title
;
Structure prediction by ZEFSAII (Michael W. Deem and Ramdas Pophale) SiO2 
 PCOD8249470
Probable space group: P B C A
;
_chemical_formula_sum "Si O2"
_cell_formula_units_Z 40
_cell_length_a 14.742836
_cell_length_b 12.946207
_cell_length_c 9.862686
_cell_angle_alpha 90.000000
_cell_angle_beta 90.000000
_cell_angle_gamma 90.000000
_cell_volume 1882.429793
_symmetry_space_group_name_H-M "P B C A"
_symmetry_group_IT_number 61
_symmetry_cell_setting 'orthorhombic'
loop_
_space_group_symop_operation_xyz
x,y,z
1/2-x,-y,1/2+z
1/2+x,1/2-y,-z
-x,1/2+y,1/2-z
-x,-y,-z
1/2+x,y,1/2-z
1/2-x,1/2+y,z
x,1/2-y,1/2+z
loop_
_atom_site_type_symbol
_atom_site_label
_atom_site_fract_x
_atom_site_fract_y
_atom_site_fract_z
Si Si1 0.918009 0.131384 0.918488
Si Si2 0.975147 0.362520 0.942279
Si Si3 0.926453 0.002258 0.188355
Si Si4 0.749410 0.047645 0.815824
Si Si5 0.355348 0.517553 0.425590
O O1 0.957351 0.241960 0.954691
O O2 0.818685 0.142973 0.846291
O O3 0.904683 0.061582 0.050796
O O4 0.986858 0.071521 0.819843
O O5 0.941040 0.409559 0.800515
O O6 0.083825 0.380691 0.956540
O O7 0.923275 0.418727 0.066602
O O8 0.841818 0.927427 0.230930
O O9 0.809170 0.969600 0.722010
O O10 0.721977 0.999699 0.960581
#
# Coordination Sequence:
#
# PCOD8249470 Si02
#       5
#     8   8   8   8   8
#     4  11  23  42  67  96 135 176 218 275 332 395
#     4  10  23  42  70  91 131 179 222 266 338 397
#     4  10  23  42  64  97 133 171 218 276 327 391
#     4  11  21  43  67  92 133 174 215 275 333 384
#     4  10  22  43  67  97 132 172 219 280 328 396
#
# _framework density 21.249133
#
# number of rings (size 3 to 8) (size 9 to 14) (size 15 to 20)
#    0.000    1.600    4.000    0.000    2.800    0.000 
#   10.800    0.000    0.000    0.000    0.000    0.000 
#    0.000    0.000    0.000    0.000    0.000    0.000 
#
# Total GULP energy -495523.509148 kJ/mol
# GULP energy per Si atom -12388.087729 kJ/mol
# Density = 2.120077 g / cm^3
# Si number density = 21.249133 Si / 1000 Ang^3
#
#
#
# Elastic Constant Matrix: (Units=GPa)
#
#
# Indices 1 2 3 4 5 6 
#
# 1 142.7678 41.8058 66.6135 0.0000 0.0000 0.0000
# 2 41.8058 91.0179 25.0080 0.0000 0.0000 0.0000
# 3 66.6135 25.0080 88.2142 0.0000 0.0000 0.0000
# 4 0.0000 0.0000 0.0000 18.7132 0.0000 0.0000
# 5 0.0000 0.0000 0.0000 0.0000 40.4737 0.0000
# 6 0.0000 0.0000 0.0000 0.0000 0.0000 22.3726
#
#
#
# Elastic Compliance Matrix: (Units=1/GPa)
#
#
# Indices 1 2 3 4 5 6 
#
# 1 0.011600 -0.003168 -0.007862 0.000000 0.000000 0.000000
# 2 -0.003168 0.012780 -0.001231 0.000000 0.000000 0.000000
# 3 -0.007862 -0.001231 0.017621 0.000000 0.000000 0.000000
# 4 0.000000 0.000000 0.000000 0.053438 0.000000 0.000000
# 5 0.000000 0.000000 0.000000 0.000000 0.024707 0.000000
# 6 0.000000 0.000000 0.000000 0.000000 0.000000 0.044697
#
#
# Mechanical properties :
#
#
# Convention : Reuss Voigt Hill
#
# Bulk Modulus (GPa) = 57.20482 65.42825 61.31653
# Shear Modulus (GPa) = 25.61574 28.88343 27.24959
#
# Velocity S-wave (km/s) = 3.47579 3.69084 3.58493
# Velocity P-wave (km/s) = 6.56412 7.00149 6.78633
#
# Compressibility (1/GPa) = 0.01748104
#
# Stress axis : x y z
#
# Youngs Moduli (GPa) = 86.20572 78.24635 56.74900
#
# Poissons Ratio (x) = 0.24789 0.44613
# Poissons Ratio (y) = 0.27311 0.06984
# Poissons Ratio (z) = 0.67771 0.09630
#
# Static dielectric constant tensor:
#      x y z
#    x 4.339210 0.000000 0.000000 
#    y 0.000000 3.238680 0.000000 
#    z 0.000000 0.000000 4.080280 
# 
# 
# High freq. dielectric constant tensor:
#      x y z
#    x 1.860700 0.000000 0.000000 
#    y 0.000000 1.765410 0.000000 
#    z 0.000000 0.000000 1.858840 
# 
# From -- ./inp_files/5132.got.cif
#   From: 2010.03.12/outbox.cif.g09.slc.cpg/sg61_3_cif.got.tgz:5132.got - 2010.04.10 19:05:03.
