data_PCOD8249831
_publ_section_title
;
Structure prediction by ZEFSAII (Michael W. Deem and Ramdas Pophale) SiO2 
 PCOD8249831
Probable space group: P B C A
;
_chemical_formula_sum "Si O2"
_cell_formula_units_Z 64
_cell_length_a 8.704801
_cell_length_b 11.578134
_cell_length_c 29.769834
_cell_angle_alpha 90.000000
_cell_angle_beta 90.000000
_cell_angle_gamma 90.000000
_cell_volume 3000.363211
_symmetry_space_group_name_H-M "P B C A"
_symmetry_group_IT_number 61
_symmetry_cell_setting 'orthorhombic'
loop_
_space_group_symop_operation_xyz
x,y,z
1/2-x,-y,1/2+z
1/2+x,1/2-y,-z
-x,1/2+y,1/2-z
-x,-y,-z
1/2+x,y,1/2-z
1/2-x,1/2+y,z
x,1/2-y,1/2+z
loop_
_atom_site_type_symbol
_atom_site_label
_atom_site_fract_x
_atom_site_fract_y
_atom_site_fract_z
Si Si1 0.575994 0.503601 0.451160
Si Si2 0.412344 0.314843 0.335734
Si Si3 0.108235 0.417167 0.367826
Si Si4 0.404629 0.737137 0.586820
Si Si5 0.032556 0.538109 0.198370
Si Si6 0.323313 0.090059 0.292632
Si Si7 0.580336 0.805614 0.882255
Si Si8 0.438668 0.529980 0.047936
O O1 0.500000 0.500000 0.500000
O O2 0.526974 0.385420 0.427727
O O3 0.512459 0.614211 0.423041
O O4 0.760601 0.496478 0.449617
O O5 0.288907 0.388273 0.364992
O O6 0.506007 0.229661 0.368057
O O7 0.533757 0.401995 0.312829
O O8 0.345427 0.227474 0.298833
O O9 0.079648 0.508260 0.327179
O O10 0.032239 0.291075 0.362526
O O11 0.047004 0.470374 0.414566
O O12 0.224595 0.738152 0.597488
O O13 0.449927 0.831874 0.550175
O O14 0.857163 0.574498 0.203020
O O15 0.128025 0.556284 0.243039
O O16 0.118942 0.608234 0.158739
O O17 0.500000 0.500000 0.000000
#
# Coordination Sequence:
#
# PCOD8249831 Si02
#       8
#     8   8   8   8   8   8   8   8
#     4  11  26  43  68 104 135 177 231 280 341 416
#     4  11  24  44  70  96 134 181 224 280 343 402
#     4  11  24  46  66  96 141 179 227 280 338 412
#     4  11  24  44  70  96 135 179 225 278 344 402
#     4  11  26  43  68 100 135 176 229 280 341 405
#     4  11  26  43  67 104 134 180 226 280 345 409
#     4  11  24  46  68  96 136 182 225 282 345 404
#     4  11  26  43  67 102 136 180 225 283 347 405
#
# _framework density 21.330750999999999
#
# number of rings (size 3 to 8) (size 9 to 14) (size 15 to 20)
#    0.000    1.000    5.000    0.000    7.000    2.000 
#    0.000    0.000    0.000    0.000    0.000    0.000 
#    0.000    0.000    0.000    0.000    0.000    0.000 
#
# Total GULP energy -793139.574108 kJ/mol
# GULP energy per Si atom -12392.805845 kJ/mol
# Density = 2.128220 g / cm^3
# Si number density = 21.330751 Si / 1000 Ang^3
#
#
#
# Elastic Constant Matrix: (Units=GPa)
#
#
# Indices 1 2 3 4 5 6 
#
# 1 31.8674 27.6244 21.0903 0.0000 0.0000 0.0000
# 2 27.6244 109.7204 36.6939 0.0000 0.0000 0.0000
# 3 21.0903 36.6939 130.4777 0.0000 0.0000 0.0000
# 4 0.0000 0.0000 0.0000 33.5311 0.0000 0.0000
# 5 0.0000 0.0000 0.0000 0.0000 36.5412 0.0000
# 6 0.0000 0.0000 0.0000 0.0000 0.0000 29.3939
#
#
#
# Elastic Compliance Matrix: (Units=1/GPa)
#
#
# Indices 1 2 3 4 5 6 
#
# 1 0.042151 -0.009199 -0.004226 0.000000 0.000000 0.000000
# 2 -0.009199 0.012068 -0.001907 0.000000 0.000000 0.000000
# 3 -0.004226 -0.001907 0.008884 0.000000 0.000000 0.000000
# 4 0.000000 0.000000 0.000000 0.029823 0.000000 0.000000
# 5 0.000000 0.000000 0.000000 0.000000 0.027366 0.000000
# 6 0.000000 0.000000 0.000000 0.000000 0.000000 0.034021
#
#
# Mechanical properties :
#
#
# Convention : Reuss Voigt Hill
#
# Bulk Modulus (GPa) = 30.82781 49.20920 40.01850
# Shear Modulus (GPa) = 25.53756 32.33702 28.93729
#
# Velocity S-wave (km/s) = 3.46384 3.89778 3.68720
# Velocity P-wave (km/s) = 5.52098 6.58610 6.07692
#
# Compressibility (1/GPa) = 0.03243825
#
# Stress axis : x y z
#
# Youngs Moduli (GPa) = 23.72406 82.86476 112.56767
#
# Poissons Ratio (x) = 0.76228 0.47574
# Poissons Ratio (y) = 0.21824 0.21465
# Poissons Ratio (z) = 0.10026 0.15801
#
# Static dielectric constant tensor:
#      x y z
#    x 3.625560 0.000000 0.000000 
#    y 0.000000 4.109990 0.000000 
#    z 0.000000 0.000000 4.033310 
# 
# 
# High freq. dielectric constant tensor:
#      x y z
#    x 1.829130 0.000000 0.000000 
#    y 0.000000 1.859880 0.000000 
#    z 0.000000 0.000000 1.835770 
# 
# From -- ./inp_files/11722.got.cif
#   From: 2010.03.12/outbox.cif.g09.slc.cpg/sg61_6_cif.got.tgz:11722.got - 2010.04.10 19:05:03.
