data_PCOD8249105
_publ_section_title
;
Structure prediction by ZEFSAII (Michael W. Deem and Ramdas Pophale) SiO2 
 PCOD8249105
Probable space group: P B C A
;
_chemical_formula_sum "Si O2"
_cell_formula_units_Z 48
_cell_length_a 10.646200
_cell_length_b 13.870902
_cell_length_c 14.751325
_cell_angle_alpha 90.000000
_cell_angle_beta 90.000000
_cell_angle_gamma 90.000000
_cell_volume 2178.363520
_symmetry_space_group_name_H-M "P B C A"
_symmetry_group_IT_number 61
_symmetry_cell_setting 'orthorhombic'
loop_
_space_group_symop_operation_xyz
x,y,z
1/2-x,-y,1/2+z
1/2+x,1/2-y,-z
-x,1/2+y,1/2-z
-x,-y,-z
1/2+x,y,1/2-z
1/2-x,1/2+y,z
x,1/2-y,1/2+z
loop_
_atom_site_type_symbol
_atom_site_label
_atom_site_fract_x
_atom_site_fract_y
_atom_site_fract_z
Si Si1 0.258628 0.938052 0.929313
Si Si2 0.006575 0.843639 0.637900
Si Si3 0.507618 0.583537 0.155891
Si Si4 0.730930 0.585109 0.722051
Si Si5 0.751833 0.547405 0.392819
Si Si6 0.990262 0.860785 0.193267
O O1 0.381914 0.874602 0.914665
O O2 0.134029 0.880336 0.894336
O O3 0.272648 0.039904 0.877863
O O4 0.244721 0.960467 0.035384
O O5 0.001457 0.876790 0.742366
O O6 0.129020 0.888305 0.590195
O O7 0.016136 0.728179 0.626098
O O8 0.379484 0.613073 0.102386
O O9 0.507887 0.466236 0.148463
O O10 0.748638 0.497390 0.792245
O O11 0.601838 0.644164 0.732487
O O12 0.851137 0.655592 0.735713
#
# Coordination Sequence:
#
# PCOD8249105 Si02
#       6
#     8   8   8   8   8   8
#     4  11  21  39  68  89 122 162 209 251 305 364
#     4  12  21  38  64  93 116 165 206 245 307 364
#     4  10  21  43  58  89 124 162 197 253 307 362
#     4  10  20  42  58  88 126 164 194 260 310 352
#     4  11  21  39  68  89 122 162 209 251 305 364
#     4  10  22  35  65  84 124 159 202 246 307 364
#
# _framework density 22.034890999999998
#
# number of rings (size 3 to 8) (size 9 to 14) (size 15 to 20)
#    0.000    1.333    6.667    1.000    4.667    0.000 
#    0.000    6.667   14.667    0.000    0.000    0.000 
#    0.000    0.000    0.000    0.000    0.000    0.000 
#
# Total GULP energy -594865.386423 kJ/mol
# GULP energy per Si atom -12393.028884 kJ/mol
# Density = 2.198474 g / cm^3
# Si number density = 22.034891 Si / 1000 Ang^3
#
#
#
# Elastic Constant Matrix: (Units=GPa)
#
#
# Indices 1 2 3 4 5 6 
#
# 1 178.2006 9.5402 -0.6901 0.0000 0.0000 0.0000
# 2 9.5402 49.4839 1.1001 0.0000 0.0000 0.0000
# 3 -0.6901 1.1001 36.6658 0.0000 0.0000 0.0000
# 4 0.0000 0.0000 0.0000 11.3365 0.0000 0.0000
# 5 0.0000 0.0000 0.0000 0.0000 26.7894 0.0000
# 6 0.0000 0.0000 0.0000 0.0000 0.0000 4.0796
#
#
#
# Elastic Compliance Matrix: (Units=1/GPa)
#
#
# Indices 1 2 3 4 5 6 
#
# 1 0.005671 -0.001096 0.000140 0.000000 0.000000 0.000000
# 2 -0.001096 0.020434 -0.000634 0.000000 0.000000 0.000000
# 3 0.000140 -0.000634 0.027295 0.000000 0.000000 0.000000
# 4 0.000000 0.000000 0.000000 0.088210 0.000000 0.000000
# 5 0.000000 0.000000 0.000000 0.000000 0.037328 0.000000
# 6 0.000000 0.000000 0.000000 0.000000 0.000000 0.245122
#
#
# Mechanical properties :
#
#
# Convention : Reuss Voigt Hill
#
# Bulk Modulus (GPa) = 19.91281 31.58341 25.74811
# Shear Modulus (GPa) = 11.26174 25.40113 18.33144
#
# Velocity S-wave (km/s) = 2.26318 3.39893 2.88744
# Velocity P-wave (km/s) = 3.98571 5.45601 4.77776
#
# Compressibility (1/GPa) = 0.05021893
#
# Stress axis : x y z
#
# Youngs Moduli (GPa) = 176.33910 48.93794 36.63675
#
# Poissons Ratio (x) = 0.05366 -0.00512
# Poissons Ratio (y) = 0.19334 0.02322
# Poissons Ratio (z) = -0.02462 0.03101
#
# Static dielectric constant tensor:
#      x y z
#    x 5.093520 0.000000 0.000000 
#    y 0.000000 3.554650 0.000000 
#    z 0.000000 0.000000 3.500040 
# 
# 
# High freq. dielectric constant tensor:
#      x y z
#    x 1.912280 0.000000 0.000000 
#    y 0.000000 1.825560 0.000000 
#    z 0.000000 0.000000 1.832700 
# 
# From -- ./inp_files/7472.got.cif
#   From: 2010.03.12/outbox.cif.g09.slc.cpg/sg61_4_cif.got.tgz:7472.got - 2010.04.10 19:05:03.
