data_PCOD8249541
_publ_section_title
;
Structure prediction by ZEFSAII (Michael W. Deem and Ramdas Pophale) SiO2 
 PCOD8249541
Probable space group: P B C A
;
_chemical_formula_sum "Si O2"
_cell_formula_units_Z 56
_cell_length_a 30.604316
_cell_length_b 5.528117
_cell_length_c 13.376828
_cell_angle_alpha 90.000000
_cell_angle_beta 90.000000
_cell_angle_gamma 90.000000
_cell_volume 2263.148473
_symmetry_space_group_name_H-M "P B C A"
_symmetry_group_IT_number 61
_symmetry_cell_setting 'orthorhombic'
loop_
_space_group_symop_operation_xyz
x,y,z
1/2-x,-y,1/2+z
1/2+x,1/2-y,-z
-x,1/2+y,1/2-z
-x,-y,-z
1/2+x,y,1/2-z
1/2-x,1/2+y,z
x,1/2-y,1/2+z
loop_
_atom_site_type_symbol
_atom_site_label
_atom_site_fract_x
_atom_site_fract_y
_atom_site_fract_z
Si Si1 0.357985 0.459848 0.062893
Si Si2 0.077089 0.247657 0.934213
Si Si3 0.133238 0.234195 0.748366
Si Si4 0.769264 0.894421 0.232677
Si Si5 0.917417 0.083907 0.395616
Si Si6 0.266221 0.586884 0.995352
Si Si7 0.996235 0.169420 0.809209
O O1 0.352589 0.549533 0.176223
O O2 0.368827 0.176154 0.072051
O O3 0.400325 0.560443 0.007679
O O4 0.316685 0.518614 0.996489
O O5 0.112488 0.334717 0.851087
O O6 0.034198 0.122663 0.889300
O O7 0.061446 0.465238 0.005919
O O8 0.177989 0.084192 0.766612
O O9 0.092840 0.088061 0.698401
O O10 0.751590 0.639672 0.283295
O O11 0.750927 0.885562 0.119048
O O12 0.949096 0.300205 0.360728
O O13 0.241472 0.353579 0.046935
O O14 0.007201 0.429024 0.757539
#
# Coordination Sequence:
#
# PCOD8249541 Si02
#       7
#     8   8   8   8   8   8   8
#     4  11  26  43  72 107 144 193 248 300 372 438
#     4  11  25  47  74 104 147 195 240 306 367 440
#     4  11  24  46  68 106 144 189 247 305 365 444
#     4  10  23  42  69 102 140 191 241 297 364 433
#     4  11  27  45  74 109 143 197 247 302 372 445
#     4  10  23  43  69 102 144 190 241 298 361 435
#     4  12  27  50  78 112 151 192 244 304 370 439
#
# _framework density 24.744292000000002
#
# number of rings (size 3 to 8) (size 9 to 14) (size 15 to 20)
#    0.000    1.143    2.857    1.286   10.000    4.000 
#    0.000    0.000    0.000    0.000    0.000    0.000 
#    0.000    0.000    0.000    0.000    0.000    0.000 
#
# Total GULP energy -694011.198707 kJ/mol
# GULP energy per Si atom -12393.057120 kJ/mol
# Density = 2.468797 g / cm^3
# Si number density = 24.744292 Si / 1000 Ang^3
#
#
#
# Elastic Constant Matrix: (Units=GPa)
#
#
# Indices 1 2 3 4 5 6 
#
# 1 108.3174 25.7540 15.9433 0.0000 0.0000 0.0000
# 2 25.7540 125.4320 31.6479 0.0000 0.0000 0.0000
# 3 15.9433 31.6479 74.2769 0.0000 0.0000 0.0000
# 4 0.0000 0.0000 0.0000 25.5588 0.0000 0.0000
# 5 0.0000 0.0000 0.0000 0.0000 35.9691 0.0000
# 6 0.0000 0.0000 0.0000 0.0000 0.0000 40.2500
#
#
#
# Elastic Compliance Matrix: (Units=1/GPa)
#
#
# Indices 1 2 3 4 5 6 
#
# 1 0.009834 -0.001666 -0.001401 0.000000 0.000000 0.000000
# 2 -0.001666 0.009215 -0.003569 0.000000 0.000000 0.000000
# 3 -0.001401 -0.003569 0.015284 0.000000 0.000000 0.000000
# 4 0.000000 0.000000 0.000000 0.039125 0.000000 0.000000
# 5 0.000000 0.000000 0.000000 0.000000 0.027802 0.000000
# 6 0.000000 0.000000 0.000000 0.000000 0.000000 0.024845
#
#
# Mechanical properties :
#
#
# Convention : Reuss Voigt Hill
#
# Bulk Modulus (GPa) = 47.47779 50.52409 49.00094
# Shear Modulus (GPa) = 34.15356 36.00100 35.07728
#
# Velocity S-wave (km/s) = 3.71922 3.81848 3.76918
# Velocity P-wave (km/s) = 6.13779 6.31695 6.22801
#
# Compressibility (1/GPa) = 0.02106248
#
# Stress axis : x y z
#
# Youngs Moduli (GPa) = 101.68372 108.52011 65.42590
#
# Poissons Ratio (x) = 0.18076 0.09168
# Poissons Ratio (y) = 0.16937 0.23349
# Poissons Ratio (z) = 0.14248 0.38728
#
# Static dielectric constant tensor:
#      x y z
#    x 4.367580 0.000000 0.000000 
#    y 0.000000 4.556810 0.000000 
#    z 0.000000 0.000000 4.406000 
# 
# 
# High freq. dielectric constant tensor:
#      x y z
#    x 1.988160 0.000000 0.000000 
#    y 0.000000 1.978940 0.000000 
#    z 0.000000 0.000000 1.994740 
# 
# From -- ./inp_files/611.got.cif
#   From: 2010.03.12/outbox.cif.g09.slc.cpg/sg61_1_cif.got.tgz:611.got - 2010.04.10 19:05:03.
