data_PCOD8249160
_publ_section_title
;
Structure prediction by ZEFSAII (Michael W. Deem and Ramdas Pophale) SiO2 
 PCOD8249160
Probable space group: P B C A
;
_chemical_formula_sum "Si O2"
_cell_formula_units_Z 64
_cell_length_a 8.541875
_cell_length_b 15.753553
_cell_length_c 22.382665
_cell_angle_alpha 90.000000
_cell_angle_beta 90.000000
_cell_angle_gamma 90.000000
_cell_volume 3011.920642
_symmetry_space_group_name_H-M "P B C A"
_symmetry_group_IT_number 61
_symmetry_cell_setting 'orthorhombic'
loop_
_space_group_symop_operation_xyz
x,y,z
1/2-x,-y,1/2+z
1/2+x,1/2-y,-z
-x,1/2+y,1/2-z
-x,-y,-z
1/2+x,y,1/2-z
1/2-x,1/2+y,z
x,1/2-y,1/2+z
loop_
_atom_site_type_symbol
_atom_site_label
_atom_site_fract_x
_atom_site_fract_y
_atom_site_fract_z
Si Si1 0.296766 0.361574 0.050808
Si Si2 0.684013 0.061785 0.063081
Si Si3 0.799775 0.835315 0.680842
Si Si4 0.868981 0.302763 0.117910
Si Si5 0.346309 0.606192 0.972802
Si Si6 0.931546 0.963235 0.374751
Si Si7 0.143960 0.881834 0.698534
Si Si8 0.831004 0.693809 0.407551
O O1 0.474922 0.383540 0.043484
O O2 0.228045 0.424243 0.100921
O O3 0.291316 0.265144 0.072330
O O4 0.188160 0.370834 0.991169
O O5 0.739581 0.107278 0.123434
O O6 0.805686 0.989133 0.045066
O O7 0.510605 0.022697 0.073603
O O8 0.735539 0.739951 0.669928
O O9 0.709462 0.879336 0.735040
O O10 0.984561 0.827578 0.693459
O O11 0.760373 0.325426 0.061628
O O12 0.948837 0.388017 0.144087
O O13 0.997113 0.234651 0.096277
O O14 0.327016 0.618795 0.043783
O O15 0.893890 0.020004 0.316900
O O16 0.277089 0.844379 0.655323
#
# Coordination Sequence:
#
# PCOD8249160 Si02
#       8
#     8   8   8   8   8   8   8   8
#     4  11  21  35  60  92 122 158 201 252 303 360
#     4  10  21  37  58  87 122 161 197 248 309 366
#     4  11  23  41  63  86 117 159 206 253 306 366
#     4  10  22  41  61  89 127 162 203 253 307 365
#     4  11  21  35  59  91 124 158 198 249 305 365
#     4   9  22  41  62  89 125 164 206 253 310 366
#     4  11  24  43  65  88 118 162 207 253 305 364
#     4  11  22  37  59  88 121 160 202 249 303 360
#
# _framework density 21.248899999999999
#
# number of rings (size 3 to 8) (size 9 to 14) (size 15 to 20)
#    0.000    1.500    0.000    5.250    0.000    8.000 
#    0.000   12.500    0.000    0.000    0.000    0.000 
#    0.000    0.000    0.000    0.000    0.000    0.000 
#
# Total GULP energy -793793.501698 kJ/mol
# GULP energy per Si atom -12403.023464 kJ/mol
# Density = 2.120054 g / cm^3
# Si number density = 21.248900 Si / 1000 Ang^3
#
#
#
# Elastic Constant Matrix: (Units=GPa)
#
#
# Indices 1 2 3 4 5 6 
#
# 1 82.1438 17.6947 15.9212 0.0000 0.0000 0.0000
# 2 17.6947 83.8353 36.4193 0.0000 0.0000 0.0000
# 3 15.9212 36.4193 94.5257 0.0000 0.0000 0.0000
# 4 0.0000 0.0000 0.0000 31.8464 0.0000 0.0000
# 5 0.0000 0.0000 0.0000 0.0000 27.0218 0.0000
# 6 0.0000 0.0000 0.0000 0.0000 0.0000 30.5330
#
#
#
# Elastic Compliance Matrix: (Units=1/GPa)
#
#
# Indices 1 2 3 4 5 6 
#
# 1 0.012895 -0.002136 -0.001349 0.000000 0.000000 0.000000
# 2 -0.002136 0.014680 -0.005296 0.000000 0.000000 0.000000
# 3 -0.001349 -0.005296 0.012847 0.000000 0.000000 0.000000
# 4 0.000000 0.000000 0.000000 0.031401 0.000000 0.000000
# 5 0.000000 0.000000 0.000000 0.000000 0.037007 0.000000
# 6 0.000000 0.000000 0.000000 0.000000 0.000000 0.032751
#
#
# Mechanical properties :
#
#
# Convention : Reuss Voigt Hill
#
# Bulk Modulus (GPa) = 43.74462 44.50837 44.12649
# Shear Modulus (GPa) = 29.98266 30.57821 30.28044
#
# Velocity S-wave (km/s) = 3.76043 3.79760 3.77906
# Velocity P-wave (km/s) = 6.28378 6.34198 6.31295
#
# Compressibility (1/GPa) = 0.02285996
#
# Stress axis : x y z
#
# Youngs Moduli (GPa) = 77.54758 68.12157 77.83984
#
# Poissons Ratio (x) = 0.14548 0.10502
# Poissons Ratio (y) = 0.16562 0.41225
# Poissons Ratio (z) = 0.10462 0.36078
#
# Static dielectric constant tensor:
#      x y z
#    x 3.909990 0.000000 0.000000 
#    y 0.000000 4.118650 0.000000 
#    z 0.000000 0.000000 3.690610 
# 
# 
# High freq. dielectric constant tensor:
#      x y z
#    x 1.846170 0.000000 0.000000 
#    y 0.000000 1.841130 0.000000 
#    z 0.000000 0.000000 1.814870 
# 
# From -- ./inp_files/10168.got.cif
#   From: 2010.03.12/outbox.cif.g09.slc.cpg/sg61_6_cif.got.tgz:10168.got - 2010.04.10 19:05:03.
