data_PCOD8249412
_publ_section_title
;
Structure prediction by ZEFSAII (Michael W. Deem and Ramdas Pophale) SiO2 
 PCOD8249412
Probable space group: P B C A
;
_chemical_formula_sum "Si O2"
_cell_formula_units_Z 64
_cell_length_a 13.740761
_cell_length_b 16.425442
_cell_length_c 14.131122
_cell_angle_alpha 90.000000
_cell_angle_beta 90.000000
_cell_angle_gamma 90.000000
_cell_volume 3189.367002
_symmetry_space_group_name_H-M "P B C A"
_symmetry_group_IT_number 61
_symmetry_cell_setting 'orthorhombic'
loop_
_space_group_symop_operation_xyz
x,y,z
1/2-x,-y,1/2+z
1/2+x,1/2-y,-z
-x,1/2+y,1/2-z
-x,-y,-z
1/2+x,y,1/2-z
1/2-x,1/2+y,z
x,1/2-y,1/2+z
loop_
_atom_site_type_symbol
_atom_site_label
_atom_site_fract_x
_atom_site_fract_y
_atom_site_fract_z
Si Si1 0.514428 0.199638 0.565387
Si Si2 0.377583 0.725428 0.266049
Si Si3 0.951574 0.301175 0.630629
Si Si4 0.571779 0.926128 0.304651
Si Si5 0.305177 0.597477 0.978192
Si Si6 0.283655 0.932455 0.687621
Si Si7 0.617094 0.978693 0.671438
Si Si8 0.799816 0.318866 0.180774
O O1 0.566375 0.266995 0.632334
O O2 0.457171 0.235936 0.475604
O O3 0.433656 0.147408 0.620937
O O4 0.590841 0.140530 0.513212
O O5 0.455221 0.736018 0.183532
O O6 0.327743 0.637464 0.255347
O O7 0.298058 0.798926 0.257926
O O8 0.941648 0.398583 0.639004
O O9 0.854761 0.266815 0.678383
O O10 0.629256 0.890391 0.215224
O O11 0.635161 0.001279 0.339163
O O12 0.460877 0.955918 0.287435
O O13 0.323403 0.513348 0.919378
O O14 0.230682 0.654625 0.923163
O O15 0.254971 0.593641 0.081392
O O16 0.189834 0.966935 0.740919
#
# Coordination Sequence:
#
# PCOD8249412 Si02
#       8
#     8   8   8   8   8   8   8   8
#     4  10  22  40  65  92 124 168 213 263 310 384
#     4  11  23  41  63  94 128 163 211 261 319 368
#     4  12  22  40  66  94 126 166 216 260 320 377
#     4  11  22  41  65  89 126 167 210 257 310 374
#     4  10  22  41  62  94 127 164 214 259 313 382
#     4  12  22  41  69  92 128 168 208 266 318 373
#     4  11  23  40  67  95 124 169 218 258 315 383
#     4  11  24  40  63  93 130 166 205 264 319 374
#
# _framework density 20.066678
#
# number of rings (size 3 to 8) (size 9 to 14) (size 15 to 20)
#    0.000    1.000    6.250    0.750    0.000    4.000 
#    0.000    1.875    0.000    0.000    0.000    0.000 
#    0.000    0.000    0.000    0.000    0.000    0.000 
#
# Total GULP energy -793127.215212 kJ/mol
# GULP energy per Si atom -12392.612738 kJ/mol
# Density = 2.002101 g / cm^3
# Si number density = 20.066678 Si / 1000 Ang^3
#
#
#
# Elastic Constant Matrix: (Units=GPa)
#
#
# Indices 1 2 3 4 5 6 
#
# 1 96.9327 33.0589 40.8854 0.0000 0.0000 0.0000
# 2 33.0589 76.6282 32.4169 0.0000 0.0000 0.0000
# 3 40.8854 32.4169 102.6971 0.0000 0.0000 0.0000
# 4 0.0000 0.0000 0.0000 29.2636 0.0000 0.0000
# 5 0.0000 0.0000 0.0000 0.0000 29.6252 0.0000
# 6 0.0000 0.0000 0.0000 0.0000 0.0000 38.1324
#
#
#
# Elastic Compliance Matrix: (Units=1/GPa)
#
#
# Indices 1 2 3 4 5 6 
#
# 1 0.013416 -0.004072 -0.004056 0.000000 0.000000 0.000000
# 2 -0.004072 0.016297 -0.003523 0.000000 0.000000 0.000000
# 3 -0.004056 -0.003523 0.012464 0.000000 0.000000 0.000000
# 4 0.000000 0.000000 0.000000 0.034172 0.000000 0.000000
# 5 0.000000 0.000000 0.000000 0.000000 0.033755 0.000000
# 6 0.000000 0.000000 0.000000 0.000000 0.000000 0.026224
#
#
# Mechanical properties :
#
#
# Convention : Reuss Voigt Hill
#
# Bulk Modulus (GPa) = 52.97923 54.33115 53.65519
# Shear Modulus (GPa) = 30.13452 30.73068 30.43260
#
# Velocity S-wave (km/s) = 3.87941 3.91759 3.89855
# Velocity P-wave (km/s) = 6.82095 6.89909 6.86013
#
# Compressibility (1/GPa) = 0.01887532
#
# Stress axis : x y z
#
# Youngs Moduli (GPa) = 74.53843 61.36000 80.23037
#
# Poissons Ratio (x) = 0.24987 0.32539
# Poissons Ratio (y) = 0.30353 0.28266
# Poissons Ratio (z) = 0.30231 0.21618
#
# Static dielectric constant tensor:
#      x y z
#    x 3.727190 0.000000 0.000000 
#    y 0.000000 3.714440 0.000000 
#    z 0.000000 0.000000 3.556690 
# 
# 
# High freq. dielectric constant tensor:
#      x y z
#    x 1.794360 0.000000 0.000000 
#    y 0.000000 1.778200 0.000000 
#    z 0.000000 0.000000 1.773700 
# 
# From -- ./inp_files/5984.got.cif
#   From: 2010.03.12/outbox.cif.g09.slc.cpg/sg61_3_cif.got.tgz:5984.got - 2010.04.10 19:05:03.
