data_PCOD8249453
_publ_section_title
;
Structure prediction by ZEFSAII (Michael W. Deem and Ramdas Pophale) SiO2 
 PCOD8249453
Probable space group: P B C A
;
_chemical_formula_sum "Si O2"
_cell_formula_units_Z 56
_cell_length_a 12.546685
_cell_length_b 12.907760
_cell_length_c 16.438278
_cell_angle_alpha 90.000000
_cell_angle_beta 90.000000
_cell_angle_gamma 90.000000
_cell_volume 2662.172527
_symmetry_space_group_name_H-M "P B C A"
_symmetry_group_IT_number 61
_symmetry_cell_setting 'orthorhombic'
loop_
_space_group_symop_operation_xyz
x,y,z
1/2-x,-y,1/2+z
1/2+x,1/2-y,-z
-x,1/2+y,1/2-z
-x,-y,-z
1/2+x,y,1/2-z
1/2-x,1/2+y,z
x,1/2-y,1/2+z
loop_
_atom_site_type_symbol
_atom_site_label
_atom_site_fract_x
_atom_site_fract_y
_atom_site_fract_z
Si Si1 0.167728 0.797455 0.407639
Si Si2 0.789885 0.415851 0.660192
Si Si3 0.880043 0.430525 0.834127
Si Si4 0.871535 0.583654 0.546612
Si Si5 0.831367 0.467282 0.389557
Si Si6 0.407789 0.462872 0.292345
Si Si7 0.932173 0.231781 0.937205
O O1 0.224211 0.691350 0.385166
O O2 0.254890 0.866234 0.453721
O O3 0.119466 0.848260 0.325793
O O4 0.072956 0.776018 0.471441
O O5 0.832465 0.393242 0.749562
O O6 0.871508 0.491525 0.612984
O O7 0.670982 0.459651 0.661762
O O8 0.789875 0.492383 0.884693
O O9 0.926465 0.328837 0.876951
O O10 0.972813 0.512713 0.818525
O O11 0.894330 0.537103 0.456472
O O12 0.958816 0.667608 0.573645
O O13 0.893265 0.472620 0.304214
O O14 0.833709 0.347273 0.418941
#
# Coordination Sequence:
#
# PCOD8249453 Si02
#       7
#     8   8   8   8   8   8   8
#     4  11  23  41  62  97 126 167 214 263 320 377
#     4  10  22  42  66  89 135 169 209 265 319 378
#     4  11  24  44  65  95 130 170 214 266 317 376
#     4  11  23  42  66  96 131 169 213 267 320 383
#     4  11  23  44  64  97 129 166 218 263 318 386
#     4  10  24  42  64  92 128 171 214 263 319 382
#     4  12  24  39  69  95 124 168 214 258 325 385
#
# _framework density 21.035450000000001
#
# number of rings (size 3 to 8) (size 9 to 14) (size 15 to 20)
#    0.000    1.143    2.857    3.000    2.000    1.714 
#    0.000    2.857    0.000    0.000    0.000    0.000 
#    0.000    0.000    0.000    0.000    0.000    0.000 
#
# Total GULP energy -694429.144790 kJ/mol
# GULP energy per Si atom -12400.520443 kJ/mol
# Density = 2.098757 g / cm^3
# Si number density = 21.035450 Si / 1000 Ang^3
#
#
#
# Elastic Constant Matrix: (Units=GPa)
#
#
# Indices 1 2 3 4 5 6 
#
# 1 79.9062 22.5289 25.8849 0.0000 0.0000 0.0000
# 2 22.5289 85.5045 22.8840 0.0000 0.0000 0.0000
# 3 25.8849 22.8840 101.6510 0.0000 0.0000 0.0000
# 4 0.0000 0.0000 0.0000 40.1521 0.0000 0.0000
# 5 0.0000 0.0000 0.0000 0.0000 26.3094 0.0000
# 6 0.0000 0.0000 0.0000 0.0000 0.0000 23.6527
#
#
#
# Elastic Compliance Matrix: (Units=1/GPa)
#
#
# Indices 1 2 3 4 5 6 
#
# 1 0.014318 -0.002976 -0.002976 0.000000 0.000000 0.000000
# 2 -0.002976 0.013064 -0.002183 0.000000 0.000000 0.000000
# 3 -0.002976 -0.002183 0.011087 0.000000 0.000000 0.000000
# 4 0.000000 0.000000 0.000000 0.024905 0.000000 0.000000
# 5 0.000000 0.000000 0.000000 0.000000 0.038009 0.000000
# 6 0.000000 0.000000 0.000000 0.000000 0.000000 0.042279
#
#
# Mechanical properties :
#
#
# Convention : Reuss Voigt Hill
#
# Bulk Modulus (GPa) = 45.04882 45.51748 45.28315
# Shear Modulus (GPa) = 29.88091 31.07376 30.47733
#
# Velocity S-wave (km/s) = 3.77304 3.84762 3.81051
# Velocity P-wave (km/s) = 6.35951 6.43617 6.39795
#
# Compressibility (1/GPa) = 0.02219814
#
# Stress axis : x y z
#
# Youngs Moduli (GPa) = 69.84327 76.54805 90.19681
#
# Poissons Ratio (x) = 0.22781 0.26842
# Poissons Ratio (y) = 0.20785 0.19691
# Poissons Ratio (z) = 0.20785 0.16711
#
# Static dielectric constant tensor:
#      x y z
#    x 3.635770 0.000000 0.000000 
#    y 0.000000 3.886610 0.000000 
#    z 0.000000 0.000000 3.949690 
# 
# 
# High freq. dielectric constant tensor:
#      x y z
#    x 1.816310 0.000000 0.000000 
#    y 0.000000 1.831300 0.000000 
#    z 0.000000 0.000000 1.837630 
# 
# From -- ./inp_files/7494.got.cif
#   From: 2010.03.12/outbox.cif.g09.slc.cpg/sg61_4_cif.got.tgz:7494.got - 2010.04.10 19:05:03.
