data_PCOD8249985
_publ_section_title
;
Structure prediction by ZEFSAII (Michael W. Deem and Ramdas Pophale) SiO2 
 PCOD8249985
Probable space group: P N M A
;
_chemical_formula_sum "Si O2"
_cell_formula_units_Z 56
_cell_length_a 17.613029
_cell_length_b 9.057787
_cell_length_c 22.247500
_cell_angle_alpha 90.000000
_cell_angle_beta 90.000000
_cell_angle_gamma 90.000000
_cell_volume 3549.256361
_symmetry_space_group_name_H-M "P N M A"
_symmetry_group_IT_number 62
_symmetry_cell_setting 'orthorhombic'
loop_
_space_group_symop_operation_xyz
x,y,z
1/2-x,-y,1/2+z
1/2+x,1/2-y,1/2-z
-x,1/2+y,-z
-x,-y,-z
1/2+x,y,1/2-z
1/2-x,1/2+y,1/2+z
x,1/2-y,z
loop_
_atom_site_type_symbol
_atom_site_label
_atom_site_fract_x
_atom_site_fract_y
_atom_site_fract_z
Si Si1 0.586084 0.077603 0.279479
Si Si2 0.916181 0.080250 0.219579
Si Si3 0.219988 0.086842 0.817946
Si Si4 0.881427 0.421730 0.657712
Si Si5 0.372163 0.074201 0.148325
Si Si6 0.990903 0.576852 0.436643
Si Si7 0.727220 0.582667 0.319040
O O1 0.606836 0.250000 0.279692
O O2 0.500953 0.049089 0.304165
O O3 0.587089 0.022216 0.211080
O O4 0.643845 0.991205 0.323082
O O5 0.896018 0.250000 0.220898
O O6 0.906377 0.020673 0.287691
O O7 0.855360 0.010366 0.173440
O O8 0.195062 0.250000 0.836716
O O9 0.293207 0.035399 0.857157
O O10 0.248057 0.079093 0.749745
O O11 0.884917 0.250000 0.678260
O O12 0.930923 0.451179 0.598942
O O13 0.373221 0.250000 0.140273
O O14 0.420872 0.998692 0.096653
O O15 0.286228 0.013436 0.141915
O O16 0.974234 0.750000 0.444118
O O17 0.000000 0.500000 0.500000
O O18 0.723751 0.750000 0.343758
#
# Coordination Sequence:
#
# PCOD8249985 Si02
#       7
#     8   8   8   8   8   8   8
#     4  10  17  26  41  63  89 117 147 179 215 259
#     4   9  17  26  39  62  89 115 144 176 214 260
#     4   8  15  26  40  58  80 109 144 176 211 258
#     4   9  18  31  44  59  82 114 149 185 224 264
#     4  10  18  31  46  62  85 115 149 186 227 266
#     4  11  22  34  48  65  87 116 154 195 231 268
#     4   9  17  28  41  61  85 114 148 179 216 263
#
# _framework density 15.777953
#
# number of rings (size 3 to 8) (size 9 to 14) (size 15 to 20)
#    0.000    2.571    1.429    2.571    0.000    5.714 
#    0.000    0.000    0.000    0.000    0.000    0.000 
#    0.000    1.143    0.000    3.429    0.000    5.286 
#
# Total GULP energy -694147.723197 kJ/mol
# GULP energy per Si atom -12395.495057 kJ/mol
# Density = 1.574204 g / cm^3
# Si number density = 15.777953 Si / 1000 Ang^3
#
#
#
# Elastic Constant Matrix: (Units=GPa)
#
#
# Indices 1 2 3 4 5 6 
#
# 1 135.2118 61.5426 42.0098 0.0000 0.0000 0.0000
# 2 61.5426 85.3577 26.7463 0.0000 0.0000 0.0000
# 3 42.0098 26.7463 43.3619 0.0000 0.0000 0.0000
# 4 0.0000 0.0000 0.0000 17.4973 0.0000 0.0000
# 5 0.0000 0.0000 0.0000 0.0000 15.4290 0.0000
# 6 0.0000 0.0000 0.0000 0.0000 0.0000 31.9653
#
#
#
# Elastic Compliance Matrix: (Units=1/GPa)
#
#
# Indices 1 2 3 4 5 6 
#
# 1 0.013145 -0.006802 -0.008540 0.000000 0.000000 0.000000
# 2 -0.006802 0.018041 -0.004539 0.000000 0.000000 0.000000
# 3 -0.008540 -0.004539 0.034135 0.000000 0.000000 0.000000
# 4 0.000000 0.000000 0.000000 0.057152 0.000000 0.000000
# 5 0.000000 0.000000 0.000000 0.000000 0.064813 0.000000
# 6 0.000000 0.000000 0.000000 0.000000 0.000000 0.031284
#
#
# Mechanical properties :
#
#
# Convention : Reuss Voigt Hill
#
# Bulk Modulus (GPa) = 39.12212 58.28101 48.70156
# Shear Modulus (GPa) = 18.73712 21.88717 20.31215
#
# Velocity S-wave (km/s) = 3.44982 3.72855 3.59189
# Velocity P-wave (km/s) = 6.38104 7.45350 6.93802
#
# Compressibility (1/GPa) = 0.02556099
#
# Stress axis : x y z
#
# Youngs Moduli (GPa) = 76.07575 55.42778 29.29569
#
# Poissons Ratio (x) = 0.37699 0.25017
# Poissons Ratio (y) = 0.51743 0.13297
# Poissons Ratio (z) = 0.64966 0.25158
#
# Static dielectric constant tensor:
#      x y z
#    x 3.341450 0.000000 0.000000 
#    y 0.000000 3.134940 0.000000 
#    z 0.000000 0.000000 2.514630 
# 
# 
# High freq. dielectric constant tensor:
#      x y z
#    x 1.622660 0.000000 0.000000 
#    y 0.000000 1.618900 0.000000 
#    z 0.000000 0.000000 1.530920 
# 
# From -- ./inp_files/27542.got.cif
#   From: 2010.03.12/outbox.cif.g09.slc.cpg/sg62_14_cif.got.tgz:27542.got - 2010.04.10 19:12:36.
