data_PCOD8249476
_publ_section_title
;
Structure prediction by ZEFSAII (Michael W. Deem and Ramdas Pophale) SiO2 
 PCOD8249476
Probable space group: P B C A
;
_chemical_formula_sum "Si O2"
_cell_formula_units_Z 64
_cell_length_a 18.819147
_cell_length_b 10.312768
_cell_length_c 14.101702
_cell_angle_alpha 90.000000
_cell_angle_beta 90.000000
_cell_angle_gamma 90.000000
_cell_volume 2736.823027
_symmetry_space_group_name_H-M "P B C A"
_symmetry_group_IT_number 61
_symmetry_cell_setting 'orthorhombic'
loop_
_space_group_symop_operation_xyz
x,y,z
1/2-x,-y,1/2+z
1/2+x,1/2-y,-z
-x,1/2+y,1/2-z
-x,-y,-z
1/2+x,y,1/2-z
1/2-x,1/2+y,z
x,1/2-y,1/2+z
loop_
_atom_site_type_symbol
_atom_site_label
_atom_site_fract_x
_atom_site_fract_y
_atom_site_fract_z
Si Si1 0.392477 0.326662 0.341053
Si Si2 0.009446 0.639631 0.663422
Si Si3 0.988866 0.691094 0.995004
Si Si4 0.373130 0.757811 0.789891
Si Si5 0.140653 0.059898 0.457525
Si Si6 0.776902 0.227099 0.277847
Si Si7 0.236047 0.976222 0.108725
Si Si8 0.409571 0.592383 0.106096
O O1 0.435575 0.363154 0.248442
O O2 0.446490 0.287940 0.423451
O O3 0.346712 0.444241 0.383582
O O4 0.334367 0.219223 0.308405
O O5 0.017162 0.771381 0.600082
O O6 0.928973 0.638005 0.704687
O O7 0.027169 0.514057 0.600305
O O8 0.928209 0.791837 0.963399
O O9 0.940834 0.555911 0.996190
O O10 0.360058 0.810964 0.895319
O O11 0.297482 0.709859 0.754500
O O12 0.403620 0.864059 0.716119
O O13 0.203642 0.060093 0.533116
O O14 0.797717 0.342247 0.350399
O O15 0.770401 0.081841 0.318846
O O16 0.165827 0.041694 0.064828
#
# Coordination Sequence:
#
# PCOD8249476 Si02
#       8
#     8   8   8   8   8   8   8   8
#     4  12  24  44  70 102 141 183 238 297 352 435
#     4  11  23  42  69 100 138 183 232 299 359 428
#     4  11  26  43  68 105 139 188 236 300 371 430
#     4  10  22  43  69  96 143 189 234 297 373 426
#     4  11  24  44  69 102 140 190 244 299 361 441
#     4  11  25  47  68 106 143 191 245 297 364 433
#     4  11  25  44  73 102 145 192 240 303 355 435
#     4  11  21  45  66  99 144 181 238 299 361 436
#
# _framework density 23.384778000000001
#
# number of rings (size 3 to 8) (size 9 to 14) (size 15 to 20)
#    0.000    1.000    3.750    3.000    1.750    5.000 
#    0.000    0.000    0.000    0.000    0.000    0.000 
#    0.000    0.000    0.000    0.000    0.000    0.000 
#
# Total GULP energy -792887.819791 kJ/mol
# GULP energy per Si atom -12388.872184 kJ/mol
# Density = 2.333155 g / cm^3
# Si number density = 23.384778 Si / 1000 Ang^3
#
#
#
# Elastic Constant Matrix: (Units=GPa)
#
#
# Indices 1 2 3 4 5 6 
#
# 1 98.1168 6.8661 20.0282 0.0000 0.0000 0.0000
# 2 6.8661 43.6249 10.9145 0.0000 0.0000 0.0000
# 3 20.0282 10.9145 84.4669 0.0000 0.0000 0.0000
# 4 0.0000 0.0000 0.0000 16.3560 0.0000 0.0000
# 5 0.0000 0.0000 0.0000 0.0000 43.0571 0.0000
# 6 0.0000 0.0000 0.0000 0.0000 0.0000 43.3693
#
#
#
# Elastic Compliance Matrix: (Units=1/GPa)
#
#
# Indices 1 2 3 4 5 6 
#
# 1 0.010760 -0.001090 -0.002410 0.000000 0.000000 0.000000
# 2 -0.001090 0.023799 -0.002817 0.000000 0.000000 0.000000
# 3 -0.002410 -0.002817 0.012774 0.000000 0.000000 0.000000
# 4 0.000000 0.000000 0.000000 0.061140 0.000000 0.000000
# 5 0.000000 0.000000 0.000000 0.000000 0.023225 0.000000
# 6 0.000000 0.000000 0.000000 0.000000 0.000000 0.023058
#
#
# Mechanical properties :
#
#
# Convention : Reuss Voigt Hill
#
# Bulk Modulus (GPa) = 28.81966 33.53624 31.17795
# Shear Modulus (GPa) = 27.93960 33.11647 30.52803
#
# Velocity S-wave (km/s) = 3.46030 3.76727 3.61704
# Velocity P-wave (km/s) = 5.32126 5.77020 5.55027
#
# Compressibility (1/GPa) = 0.03469854
#
# Stress axis : x y z
#
# Youngs Moduli (GPa) = 92.93435 42.01854 78.28114
#
# Poissons Ratio (x) = 0.04582 0.18870
# Poissons Ratio (y) = 0.10134 0.22049
# Poissons Ratio (z) = 0.22402 0.11835
#
# Static dielectric constant tensor:
#      x y z
#    x 4.594990 0.000000 0.000000 
#    y 0.000000 4.095070 0.000000 
#    z 0.000000 0.000000 4.287990 
# 
# 
# High freq. dielectric constant tensor:
#      x y z
#    x 1.942760 0.000000 0.000000 
#    y 0.000000 1.908040 0.000000 
#    z 0.000000 0.000000 1.924420 
# 
# From -- ./inp_files/8203.got.cif
#   From: 2010.03.12/outbox.cif.g09.slc.cpg/sg61_5_cif.got.tgz:8203.got - 2010.04.10 19:05:03.
