data_PCOD8249253
_publ_section_title
;
Structure prediction by ZEFSAII (Michael W. Deem and Ramdas Pophale) SiO2 
 PCOD8249253
Probable space group: P B C A
;
_chemical_formula_sum "Si O2"
_cell_formula_units_Z 64
_cell_length_a 12.692248
_cell_length_b 10.566165
_cell_length_c 23.745185
_cell_angle_alpha 90.000000
_cell_angle_beta 90.000000
_cell_angle_gamma 90.000000
_cell_volume 3184.428450
_symmetry_space_group_name_H-M "P B C A"
_symmetry_group_IT_number 61
_symmetry_cell_setting 'orthorhombic'
loop_
_space_group_symop_operation_xyz
x,y,z
1/2-x,-y,1/2+z
1/2+x,1/2-y,-z
-x,1/2+y,1/2-z
-x,-y,-z
1/2+x,y,1/2-z
1/2-x,1/2+y,z
x,1/2-y,1/2+z
loop_
_atom_site_type_symbol
_atom_site_label
_atom_site_fract_x
_atom_site_fract_y
_atom_site_fract_z
Si Si1 0.640744 0.237481 0.579725
Si Si2 0.859014 0.939129 0.851731
Si Si3 0.945988 0.885282 0.969440
Si Si4 0.528544 0.491486 0.563093
Si Si5 0.382156 0.457002 0.654725
Si Si6 0.618604 0.768322 0.100029
Si Si7 0.970065 0.704259 0.799900
Si Si8 0.485310 0.310999 0.172369
O O1 0.626876 0.181827 0.516764
O O2 0.573159 0.361402 0.583191
O O3 0.760834 0.275313 0.594308
O O4 0.585104 0.158946 0.630561
O O5 0.870598 0.932122 0.919390
O O6 0.740448 0.970734 0.836629
O O7 0.884921 0.804001 0.823646
O O8 0.923758 0.056422 0.826327
O O9 0.039911 0.802486 0.942899
O O10 0.000000 0.000000 0.000000
O O11 0.500000 0.500000 0.500000
O O12 0.418262 0.516563 0.594978
O O13 0.620071 0.588185 0.579460
O O14 0.437356 0.555706 0.697796
O O15 0.413737 0.309089 0.655419
O O16 0.577543 0.763884 0.164783
O O17 0.980183 0.730440 0.734321
#
# Coordination Sequence:
#
# PCOD8249253 Si02
#       8
#     8   8   8   8   8   8   8   8
#     4  11  24  38  64  92 123 168 209 251 315 377
#     4  11  23  39  67  93 125 165 206 257 318 371
#     4  11  23  41  58  93 131 159 203 258 309 373
#     4  10  21  40  58  87 127 157 204 250 298 368
#     4  10  23  40  62  95 120 162 209 249 314 372
#     4  10  24  40  61  91 124 166 205 254 317 368
#     4  10  23  45  63  90 130 160 211 269 306 368
#     4  11  23  43  64  91 127 163 212 265 307 369
#
# _framework density 20.097797
#
# number of rings (size 3 to 8) (size 9 to 14) (size 15 to 20)
#    0.000    1.500    2.500    1.500    3.500    2.000 
#    0.000    0.000    0.000    0.000    0.000    0.000 
#    0.000    0.000    0.000    0.000    0.000    0.000 
#
# Total GULP energy -792917.948227 kJ/mol
# GULP energy per Si atom -12389.342941 kJ/mol
# Density = 2.005205 g / cm^3
# Si number density = 20.097797 Si / 1000 Ang^3
#
#
#
# Elastic Constant Matrix: (Units=GPa)
#
#
# Indices 1 2 3 4 5 6 
#
# 1 113.6764 2.4967 33.3353 0.0000 0.0000 0.0000
# 2 2.4967 73.2143 4.3149 0.0000 0.0000 0.0000
# 3 33.3353 4.3149 127.8483 0.0000 0.0000 0.0000
# 4 0.0000 0.0000 0.0000 29.4015 0.0000 0.0000
# 5 0.0000 0.0000 0.0000 0.0000 13.1149 0.0000
# 6 0.0000 0.0000 0.0000 0.0000 0.0000 23.6790
#
#
#
# Elastic Compliance Matrix: (Units=1/GPa)
#
#
# Indices 1 2 3 4 5 6 
#
# 1 0.009528 -0.000179 -0.002478 0.000000 0.000000 0.000000
# 2 -0.000179 0.013689 -0.000415 0.000000 0.000000 0.000000
# 3 -0.002478 -0.000415 0.008482 0.000000 0.000000 0.000000
# 4 0.000000 0.000000 0.000000 0.034012 0.000000 0.000000
# 5 0.000000 0.000000 0.000000 0.000000 0.076249 0.000000
# 6 0.000000 0.000000 0.000000 0.000000 0.000000 0.042232
#
#
# Mechanical properties :
#
#
# Convention : Reuss Voigt Hill
#
# Bulk Modulus (GPa) = 39.13312 43.89252 41.51282
# Shear Modulus (GPa) = 25.14410 31.54522 28.34466
#
# Velocity S-wave (km/s) = 3.54091 3.96610 3.75952
# Velocity P-wave (km/s) = 6.01922 6.54676 6.28853
#
# Compressibility (1/GPa) = 0.02555380
#
# Stress axis : x y z
#
# Youngs Moduli (GPa) = 104.95880 73.05074 117.89737
#
# Poissons Ratio (x) = 0.01306 0.29217
# Poissons Ratio (y) = 0.01877 0.04897
# Poissons Ratio (z) = 0.26011 0.03034
#
# Static dielectric constant tensor:
#      x y z
#    x 3.495210 0.000000 0.000000 
#    y 0.000000 3.887920 0.000000 
#    z 0.000000 0.000000 3.998620 
# 
# 
# High freq. dielectric constant tensor:
#      x y z
#    x 1.771780 0.000000 0.000000 
#    y 0.000000 1.801200 0.000000 
#    z 0.000000 0.000000 1.792340 
# 
# From -- ./inp_files/11009.got.cif
#   From: 2010.03.12/outbox.cif.g09.slc.cpg/sg61_6_cif.got.tgz:11009.got - 2010.04.10 19:05:03.
