data_PCOD8249375
_publ_section_title
;
Structure prediction by ZEFSAII (Michael W. Deem and Ramdas Pophale) SiO2 
 PCOD8249375
Probable space group: P B C A
;
_chemical_formula_sum "Si O2"
_cell_formula_units_Z 48
_cell_length_a 15.305845
_cell_length_b 9.509076
_cell_length_c 16.855827
_cell_angle_alpha 90.000000
_cell_angle_beta 90.000000
_cell_angle_gamma 90.000000
_cell_volume 2453.271958
_symmetry_space_group_name_H-M "P B C A"
_symmetry_group_IT_number 61
_symmetry_cell_setting 'orthorhombic'
loop_
_space_group_symop_operation_xyz
x,y,z
1/2-x,-y,1/2+z
1/2+x,1/2-y,-z
-x,1/2+y,1/2-z
-x,-y,-z
1/2+x,y,1/2-z
1/2-x,1/2+y,z
x,1/2-y,1/2+z
loop_
_atom_site_type_symbol
_atom_site_label
_atom_site_fract_x
_atom_site_fract_y
_atom_site_fract_z
Si Si1 0.592811 0.459585 0.792930
Si Si2 0.645337 0.818599 0.651141
Si Si3 0.964990 0.267937 0.792924
Si Si4 0.972162 0.871266 0.947121
Si Si5 0.199752 0.986529 0.349526
Si Si6 0.540313 0.381740 0.554975
O O1 0.550241 0.325223 0.750891
O O2 0.530427 0.597995 0.790211
O O3 0.604333 0.419255 0.885535
O O4 0.681968 0.490427 0.745150
O O5 0.620679 0.820369 0.744834
O O6 0.557359 0.817934 0.600062
O O7 0.700288 0.678452 0.630622
O O8 0.705215 0.952224 0.629978
O O9 0.966118 0.328303 0.882673
O O10 0.931391 0.748449 0.000108
O O11 0.000000 0.000000 0.000000
O O12 0.125313 0.062221 0.400608
O O13 0.500000 0.500000 0.500000
#
# Coordination Sequence:
#
# PCOD8249375 Si02
#       6
#     8   8   8   8   8   8
#     4   9  19  35  56  82 108 147 193 231 278 347
#     4  10  22  39  57  85 117 154 197 243 294 346
#     4   9  19  35  57  80 109 147 192 233 277 348
#     4  11  21  37  63  88 116 155 198 242 294 356
#     4  10  22  39  58  82 118 154 197 244 294 348
#     4  11  21  39  61  86 118 155 197 245 295 351
#
# _framework density 19.565708000000001
#
# number of rings (size 3 to 8) (size 9 to 14) (size 15 to 20)
#    0.000    2.000    3.333    0.000    4.667    1.333 
#    0.000    3.333    0.000    0.000    0.000    0.000 
#    0.000    0.000    0.000    0.000    0.000    0.000 
#
# Total GULP energy -594899.916176 kJ/mol
# GULP energy per Si atom -12393.748254 kJ/mol
# Density = 1.952118 g / cm^3
# Si number density = 19.565708 Si / 1000 Ang^3
#
#
#
# Elastic Constant Matrix: (Units=GPa)
#
#
# Indices 1 2 3 4 5 6 
#
# 1 39.9747 -6.1062 2.9316 0.0000 0.0000 0.0000
# 2 -6.1062 75.0461 20.1101 0.0000 0.0000 0.0000
# 3 2.9316 20.1101 103.4160 0.0000 0.0000 0.0000
# 4 0.0000 0.0000 0.0000 38.8124 0.0000 0.0000
# 5 0.0000 0.0000 0.0000 0.0000 16.6004 0.0000
# 6 0.0000 0.0000 0.0000 0.0000 0.0000 31.4146
#
#
#
# Elastic Compliance Matrix: (Units=1/GPa)
#
#
# Indices 1 2 3 4 5 6 
#
# 1 0.025468 0.002390 -0.001187 0.000000 0.000000 0.000000
# 2 0.002390 0.014282 -0.002845 0.000000 0.000000 0.000000
# 3 -0.001187 -0.002845 0.010257 0.000000 0.000000 0.000000
# 4 0.000000 0.000000 0.000000 0.025765 0.000000 0.000000
# 5 0.000000 0.000000 0.000000 0.000000 0.060239 0.000000
# 6 0.000000 0.000000 0.000000 0.000000 0.000000 0.031832
#
#
# Mechanical properties :
#
#
# Convention : Reuss Voigt Hill
#
# Bulk Modulus (GPa) = 21.40250 28.03419 24.71835
# Shear Modulus (GPa) = 26.78080 30.79889 28.78985
#
# Velocity S-wave (km/s) = 3.70369 3.97183 3.84010
# Velocity P-wave (km/s) = 5.40854 5.94922 5.68531
#
# Compressibility (1/GPa) = 0.04672351
#
# Stress axis : x y z
#
# Youngs Moduli (GPa) = 39.26497 70.01819 97.49852
#
# Poissons Ratio (x) = -0.16736 0.11571
# Poissons Ratio (y) = -0.09385 0.27738
# Poissons Ratio (z) = 0.04660 0.19920
#
# Static dielectric constant tensor:
#      x y z
#    x 3.131380 0.000000 0.000000 
#    y 0.000000 3.656980 0.000000 
#    z 0.000000 0.000000 3.716020 
# 
# 
# High freq. dielectric constant tensor:
#      x y z
#    x 1.712810 0.000000 0.000000 
#    y 0.000000 1.783090 0.000000 
#    z 0.000000 0.000000 1.772740 
# 
# From -- ./inp_files/3470.got.cif
#   From: 2010.03.12/outbox.cif.g09.slc.cpg/sg61_2_cif.got.tgz:3470.got - 2010.04.10 19:05:03.
