data_PCOD8249581
_publ_section_title
;
Structure prediction by ZEFSAII (Michael W. Deem and Ramdas Pophale) SiO2 
 PCOD8249581
Probable space group: P B C A
;
_chemical_formula_sum "Si O2"
_cell_formula_units_Z 32
_cell_length_a 13.841787
_cell_length_b 10.964803
_cell_length_c 9.088844
_cell_angle_alpha 90.000000
_cell_angle_beta 90.000000
_cell_angle_gamma 90.000000
_cell_volume 1379.436282
_symmetry_space_group_name_H-M "P B C A"
_symmetry_group_IT_number 61
_symmetry_cell_setting 'orthorhombic'
loop_
_space_group_symop_operation_xyz
x,y,z
1/2-x,-y,1/2+z
1/2+x,1/2-y,-z
-x,1/2+y,1/2-z
-x,-y,-z
1/2+x,y,1/2-z
1/2-x,1/2+y,z
x,1/2-y,1/2+z
loop_
_atom_site_type_symbol
_atom_site_label
_atom_site_fract_x
_atom_site_fract_y
_atom_site_fract_z
Si Si1 0.864945 0.073135 0.100632
Si Si2 0.465838 0.565989 0.287552
Si Si3 0.717544 0.075007 0.348575
Si Si4 0.608198 0.842681 0.025245
O O1 0.781754 0.029701 0.212739
O O2 0.892188 0.216178 0.111407
O O3 0.963723 0.010688 0.160531
O O4 0.830939 0.038241 0.937444
O O5 0.377373 0.645735 0.216061
O O6 0.411729 0.452855 0.364262
O O7 0.526069 0.650836 0.398978
O O8 0.783642 0.153645 0.457009
#
# Coordination Sequence:
#
# PCOD8249581 Si02
#       4
#     8   8   8   8
#     4  11  25  44  74 101 142 184 230 294 345 414
#     4  10  23  45  68 101 141 180 235 287 336 430
#     4  11  23  45  69 104 139 179 234 291 340 423
#     4  10  24  46  68 103 146 177 229 290 350 410
#
# _framework density 23.197882
#
# number of rings (size 3 to 8) (size 9 to 14) (size 15 to 20)
#    0.000    1.500    2.500    0.750    7.000    2.000 
#    4.500    0.000    0.000    0.000    0.000    0.000 
#    0.000    0.000    0.000    0.000    0.000    0.000 
#
# Total GULP energy -396445.071711 kJ/mol
# GULP energy per Si atom -12388.908491 kJ/mol
# Density = 2.314508 g / cm^3
# Si number density = 23.197882 Si / 1000 Ang^3
#
#
#
# Elastic Constant Matrix: (Units=GPa)
#
#
# Indices 1 2 3 4 5 6 
#
# 1 216.9998 25.3905 77.7972 0.0000 0.0000 0.0000
# 2 25.3905 48.4200 37.0068 0.0000 0.0000 0.0000
# 3 77.7972 37.0068 122.3255 0.0000 0.0000 0.0000
# 4 0.0000 0.0000 0.0000 22.3474 0.0000 0.0000
# 5 0.0000 0.0000 0.0000 0.0000 47.7924 0.0000
# 6 0.0000 0.0000 0.0000 0.0000 0.0000 15.4462
#
#
#
# Elastic Compliance Matrix: (Units=1/GPa)
#
#
# Indices 1 2 3 4 5 6 
#
# 1 0.005973 -0.000298 -0.003708 0.000000 0.000000 0.000000
# 2 -0.000298 0.026879 -0.007942 0.000000 0.000000 0.000000
# 3 -0.003708 -0.007942 0.012936 0.000000 0.000000 0.000000
# 4 0.000000 0.000000 0.000000 0.044748 0.000000 0.000000
# 5 0.000000 0.000000 0.000000 0.000000 0.020924 0.000000
# 6 0.000000 0.000000 0.000000 0.000000 0.000000 0.064741
#
#
# Mechanical properties :
#
#
# Convention : Reuss Voigt Hill
#
# Bulk Modulus (GPa) = 45.68100 74.23713 59.95906
# Shear Modulus (GPa) = 24.10869 33.62060 28.86464
#
# Velocity S-wave (km/s) = 3.22726 3.81109 3.53126
# Velocity P-wave (km/s) = 5.79841 7.17196 6.52145
#
# Compressibility (1/GPa) = 0.02189094
#
# Stress axis : x y z
#
# Youngs Moduli (GPa) = 167.42955 37.20395 77.30234
#
# Poissons Ratio (x) = 0.01107 0.28668
# Poissons Ratio (y) = 0.04983 0.61396
# Poissons Ratio (z) = 0.62091 0.29549
#
# Static dielectric constant tensor:
#      x y z
#    x 4.702970 0.000000 0.000000 
#    y 0.000000 3.376730 0.000000 
#    z 0.000000 0.000000 4.485050 
# 
# 
# High freq. dielectric constant tensor:
#      x y z
#    x 1.954760 0.000000 0.000000 
#    y 0.000000 1.847880 0.000000 
#    z 0.000000 0.000000 1.945640 
# 
# From -- ./inp_files/2517.got.cif
#   From: 2010.03.12/outbox.cif.g09.slc.cpg/sg61_2_cif.got.tgz:2517.got - 2010.04.10 19:05:03.
