data_PCOD8249329
_publ_section_title
;
Structure prediction by ZEFSAII (Michael W. Deem and Ramdas Pophale) SiO2 
 PCOD8249329
Probable space group: P B C A
;
_chemical_formula_sum "Si O2"
_cell_formula_units_Z 64
_cell_length_a 26.958533
_cell_length_b 12.117555
_cell_length_c 9.511642
_cell_angle_alpha 90.000000
_cell_angle_beta 90.000000
_cell_angle_gamma 90.000000
_cell_volume 3107.182420
_symmetry_space_group_name_H-M "P B C A"
_symmetry_group_IT_number 61
_symmetry_cell_setting 'orthorhombic'
loop_
_space_group_symop_operation_xyz
x,y,z
1/2-x,-y,1/2+z
1/2+x,1/2-y,-z
-x,1/2+y,1/2-z
-x,-y,-z
1/2+x,y,1/2-z
1/2-x,1/2+y,z
x,1/2-y,1/2+z
loop_
_atom_site_type_symbol
_atom_site_label
_atom_site_fract_x
_atom_site_fract_y
_atom_site_fract_z
Si Si1 0.629636 0.689192 0.088060
Si Si2 0.059597 0.499101 0.339845
Si Si3 0.833330 0.727412 0.531422
Si Si4 0.879950 0.384971 0.284459
Si Si5 0.398569 0.700494 0.701171
Si Si6 0.758204 0.374467 0.598064
Si Si7 0.049389 0.425204 0.652574
Si Si8 0.208851 0.470853 0.634162
O O1 0.603967 0.587071 0.167532
O O2 0.613252 0.805823 0.151421
O O3 0.688302 0.680258 0.106831
O O4 0.612769 0.687087 0.925883
O O5 0.067810 0.408304 0.218370
O O6 0.059836 0.432009 0.486309
O O7 0.008596 0.563316 0.314432
O O8 0.871405 0.807207 0.449412
O O9 0.855149 0.700581 0.683013
O O10 0.779837 0.781879 0.547565
O O11 0.828122 0.616671 0.438517
O O12 0.921925 0.477303 0.267727
O O13 0.825552 0.439978 0.287424
O O14 0.433437 0.807655 0.711915
O O15 0.757343 0.473899 0.485866
O O16 0.744976 0.417040 0.752742
#
# Coordination Sequence:
#
# PCOD8249329 Si02
#       8
#     8   8   8   8   8   8   8   8
#     4  10  24  41  62  92 129 167 209 265 324 379
#     4  10  23  43  69  95 133 171 214 269 335 402
#     4  12  24  42  65  94 132 172 226 273 331 390
#     4  10  21  43  61  92 127 166 208 263 316 387
#     4  12  22  44  68  97 130 174 223 278 328 401
#     4  11  26  38  65  93 128 177 217 272 324 396
#     4  10  21  43  70  95 129 176 209 264 343 392
#     4  11  25  42  62  94 130 174 220 269 331 392
#
# _framework density 20.597438
#
# number of rings (size 3 to 8) (size 9 to 14) (size 15 to 20)
#    0.000    1.250    3.750    1.500   10.500    0.000 
#    2.250    0.625    0.000    0.000    0.000    0.000 
#    0.000    0.000    0.000    0.000    0.000    0.000 
#
# Total GULP energy -793973.919654 kJ/mol
# GULP energy per Si atom -12405.842495 kJ/mol
# Density = 2.055056 g / cm^3
# Si number density = 20.597438 Si / 1000 Ang^3
#
#
#
# Elastic Constant Matrix: (Units=GPa)
#
#
# Indices 1 2 3 4 5 6 
#
# 1 102.3242 38.9120 13.8841 0.0000 0.0000 0.0000
# 2 38.9120 89.1236 11.6872 0.0000 0.0000 0.0000
# 3 13.8841 11.6872 40.4390 0.0000 0.0000 0.0000
# 4 0.0000 0.0000 0.0000 37.6430 0.0000 0.0000
# 5 0.0000 0.0000 0.0000 0.0000 19.6204 0.0000
# 6 0.0000 0.0000 0.0000 0.0000 0.0000 27.2404
#
#
#
# Elastic Compliance Matrix: (Units=1/GPa)
#
#
# Indices 1 2 3 4 5 6 
#
# 1 0.011997 -0.004883 -0.002708 0.000000 0.000000 0.000000
# 2 -0.004883 0.013650 -0.002268 0.000000 0.000000 0.000000
# 3 -0.002708 -0.002268 0.026314 0.000000 0.000000 0.000000
# 4 0.000000 0.000000 0.000000 0.026565 0.000000 0.000000
# 5 0.000000 0.000000 0.000000 0.000000 0.050967 0.000000
# 6 0.000000 0.000000 0.000000 0.000000 0.000000 0.036710
#
#
# Mechanical properties :
#
#
# Convention : Reuss Voigt Hill
#
# Bulk Modulus (GPa) = 31.01504 40.09484 35.55494
# Shear Modulus (GPa) = 25.42335 28.06100 26.74218
#
# Velocity S-wave (km/s) = 3.51707 3.69501 3.60714
# Velocity P-wave (km/s) = 5.61991 6.14104 5.88625
#
# Compressibility (1/GPa) = 0.03224243
#
# Stress axis : x y z
#
# Youngs Moduli (GPa) = 83.35298 73.26129 38.00276
#
# Poissons Ratio (x) = 0.35773 0.10290
# Poissons Ratio (y) = 0.40701 0.08621
# Poissons Ratio (z) = 0.22571 0.16619
#
# Static dielectric constant tensor:
#      x y z
#    x 3.723170 0.000000 0.000000 
#    y 0.000000 3.702740 0.000000 
#    z 0.000000 0.000000 3.685020 
# 
# 
# High freq. dielectric constant tensor:
#      x y z
#    x 1.811810 0.000000 0.000000 
#    y 0.000000 1.807020 0.000000 
#    z 0.000000 0.000000 1.795210 
# 
# From -- ./inp_files/4638.got.cif
#   From: 2010.03.12/outbox.cif.g09.slc.cpg/sg61_3_cif.got.tgz:4638.got - 2010.04.10 19:05:03.
