data_PCOD8249677
_publ_section_title
;
Structure prediction by ZEFSAII (Michael W. Deem and Ramdas Pophale) SiO2 
 PCOD8249677
Probable space group: P B C A
;
_chemical_formula_sum "Si O2"
_cell_formula_units_Z 48
_cell_length_a 9.684366
_cell_length_b 10.579597
_cell_length_c 21.515922
_cell_angle_alpha 90.000000
_cell_angle_beta 90.000000
_cell_angle_gamma 90.000000
_cell_volume 2204.450139
_symmetry_space_group_name_H-M "P B C A"
_symmetry_group_IT_number 61
_symmetry_cell_setting 'orthorhombic'
loop_
_space_group_symop_operation_xyz
x,y,z
1/2-x,-y,1/2+z
1/2+x,1/2-y,-z
-x,1/2+y,1/2-z
-x,-y,-z
1/2+x,y,1/2-z
1/2-x,1/2+y,z
x,1/2-y,1/2+z
loop_
_atom_site_type_symbol
_atom_site_label
_atom_site_fract_x
_atom_site_fract_y
_atom_site_fract_z
Si Si1 0.849703 0.902055 0.441872
Si Si2 0.328464 0.871432 0.611309
Si Si3 0.543490 0.264586 0.178872
Si Si4 0.104607 0.056802 0.418030
Si Si5 0.789224 0.171850 0.257387
Si Si6 0.391832 0.471399 0.856915
O O1 0.792671 0.770572 0.412874
O O2 0.873332 0.880922 0.514886
O O3 0.743995 0.019218 0.429972
O O4 0.001965 0.936786 0.415945
O O5 0.279702 0.891351 0.682313
O O6 0.495647 0.880339 0.610442
O O7 0.532610 0.155163 0.128113
O O8 0.682201 0.255957 0.219063
O O9 0.412470 0.264341 0.223815
O O10 0.536188 0.393767 0.142054
O O11 0.254839 0.015927 0.396774
O O12 0.854127 0.064190 0.213755
#
# Coordination Sequence:
#
# PCOD8249677 Si02
#       6
#     8   8   8   8   8   8
#     4  11  27  47  75  99 146 183 238 294 351 418
#     4  12  26  46  72 106 138 189 233 294 352 422
#     4  11  24  43  70  98 141 183 234 290 349 422
#     4  10  26  48  69 103 139 188 231 294 351 418
#     4  11  24  42  64 103 137 180 231 289 352 411
#     4  11  27  42  72 100 140 185 237 289 353 424
#
# _framework density 21.774137
#
# number of rings (size 3 to 8) (size 9 to 14) (size 15 to 20)
#    0.000    1.000    3.333    1.000   11.667    2.000 
#    0.000    0.000    0.000    0.000    0.000    0.000 
#    0.000    0.000    0.000    0.000    0.000    0.000 
#
# Total GULP energy -595258.839215 kJ/mol
# GULP energy per Si atom -12401.225817 kJ/mol
# Density = 2.172458 g / cm^3
# Si number density = 21.774137 Si / 1000 Ang^3
#
#
#
# Elastic Constant Matrix: (Units=GPa)
#
#
# Indices 1 2 3 4 5 6 
#
# 1 118.4119 41.7877 44.1854 0.0000 0.0000 0.0000
# 2 41.7877 113.4559 35.1702 0.0000 0.0000 0.0000
# 3 44.1854 35.1702 99.9750 0.0000 0.0000 0.0000
# 4 0.0000 0.0000 0.0000 15.1256 0.0000 0.0000
# 5 0.0000 0.0000 0.0000 0.0000 16.2523 0.0000
# 6 0.0000 0.0000 0.0000 0.0000 0.0000 20.7003
#
#
#
# Elastic Compliance Matrix: (Units=1/GPa)
#
#
# Indices 1 2 3 4 5 6 
#
# 1 0.010861 -0.002820 -0.003808 0.000000 0.000000 0.000000
# 2 -0.002820 0.010625 -0.002491 0.000000 0.000000 0.000000
# 3 -0.003808 -0.002491 0.012562 0.000000 0.000000 0.000000
# 4 0.000000 0.000000 0.000000 0.066113 0.000000 0.000000
# 5 0.000000 0.000000 0.000000 0.000000 0.061530 0.000000
# 6 0.000000 0.000000 0.000000 0.000000 0.000000 0.048308
#
#
# Mechanical properties :
#
#
# Convention : Reuss Voigt Hill
#
# Bulk Modulus (GPa) = 63.25486 63.79218 63.52352
# Shear Modulus (GPa) = 21.41251 24.46229 22.93740
#
# Velocity S-wave (km/s) = 3.13931 3.35544 3.24917
# Velocity P-wave (km/s) = 6.50030 6.66129 6.58129
#
# Compressibility (1/GPa) = 0.01580906
#
# Stress axis : x y z
#
# Youngs Moduli (GPa) = 92.07006 94.11832 79.60451
#
# Poissons Ratio (x) = 0.26540 0.30316
# Poissons Ratio (y) = 0.25962 0.19833
# Poissons Ratio (z) = 0.35063 0.23449
#
# Static dielectric constant tensor:
#      x y z
#    x 4.203540 0.000000 0.000000 
#    y 0.000000 3.662740 0.000000 
#    z 0.000000 0.000000 4.128080 
# 
# 
# High freq. dielectric constant tensor:
#      x y z
#    x 1.879470 0.000000 0.000000 
#    y 0.000000 1.843720 0.000000 
#    z 0.000000 0.000000 1.859100 
# 
# From -- ./inp_files/10840.got.cif
#   From: 2010.03.12/outbox.cif.g09.slc.cpg/sg61_6_cif.got.tgz:10840.got - 2010.04.10 19:05:03.
