data_PCOD8249404
_publ_section_title
;
Structure prediction by ZEFSAII (Michael W. Deem and Ramdas Pophale) SiO2 
 PCOD8249404
Probable space group: P B C A
;
_chemical_formula_sum "Si O2"
_cell_formula_units_Z 48
_cell_length_a 8.965191
_cell_length_b 8.875872
_cell_length_c 25.866944
_cell_angle_alpha 90.000000
_cell_angle_beta 90.000000
_cell_angle_gamma 90.000000
_cell_volume 2058.333299
_symmetry_space_group_name_H-M "P B C A"
_symmetry_group_IT_number 61
_symmetry_cell_setting 'orthorhombic'
loop_
_space_group_symop_operation_xyz
x,y,z
1/2-x,-y,1/2+z
1/2+x,1/2-y,-z
-x,1/2+y,1/2-z
-x,-y,-z
1/2+x,y,1/2-z
1/2-x,1/2+y,z
x,1/2-y,1/2+z
loop_
_atom_site_type_symbol
_atom_site_label
_atom_site_fract_x
_atom_site_fract_y
_atom_site_fract_z
Si Si1 0.693215 0.474164 0.449680
Si Si2 0.144380 0.185901 0.114136
Si Si3 0.622836 0.582476 0.725533
Si Si4 0.323433 0.228054 0.877141
Si Si5 0.840003 0.118871 0.286922
Si Si6 0.872911 0.940554 0.561183
O O1 0.836841 0.572388 0.434175
O O2 0.676764 0.352245 0.405141
O O3 0.548709 0.585626 0.447968
O O4 0.714062 0.407300 0.507345
O O5 0.263763 0.146334 0.158114
O O6 0.973492 0.173444 0.133304
O O7 0.714078 0.641396 0.675705
O O8 0.597345 0.722133 0.764992
O O9 0.465413 0.511036 0.707437
O O10 0.715323 0.445528 0.748831
O O11 0.186078 0.335118 0.892600
O O12 0.347067 0.114515 0.924516
#
# Coordination Sequence:
#
# PCOD8249404 Si02
#       6
#     8   8   8   8   8   8
#     4  10  22  40  64  93 128 167 209 267 325 388
#     4  11  23  41  63  91 127 165 211 263 326 391
#     4  12  25  43  67  97 134 176 224 276 335 399
#     4  11  23  40  61  91 127 167 216 268 322 390
#     4  12  25  44  68  98 134 176 224 277 336 402
#     4  10  22  40  63  94 128 165 214 264 322 391
#
# _framework density 23.319835999999999
#
# number of rings (size 3 to 8) (size 9 to 14) (size 15 to 20)
#    0.000    1.000    0.000    8.000    0.000    3.333 
#    0.000    0.000    0.000    0.000    0.000    0.000 
#    0.000    0.000    0.000    0.000    0.000    0.000 
#
# Total GULP energy -595340.869253 kJ/mol
# GULP energy per Si atom -12402.934776 kJ/mol
# Density = 2.326676 g / cm^3
# Si number density = 23.319836 Si / 1000 Ang^3
#
#
#
# Elastic Constant Matrix: (Units=GPa)
#
#
# Indices 1 2 3 4 5 6 
#
# 1 45.8793 27.6423 32.4221 0.0000 0.0000 0.0000
# 2 27.6423 78.4513 30.4142 0.0000 0.0000 0.0000
# 3 32.4221 30.4142 131.3599 0.0000 0.0000 0.0000
# 4 0.0000 0.0000 0.0000 39.6976 0.0000 0.0000
# 5 0.0000 0.0000 0.0000 0.0000 35.8919 0.0000
# 6 0.0000 0.0000 0.0000 0.0000 0.0000 36.6870
#
#
#
# Elastic Compliance Matrix: (Units=1/GPa)
#
#
# Indices 1 2 3 4 5 6 
#
# 1 0.031057 -0.008757 -0.005638 0.000000 0.000000 0.000000
# 2 -0.008757 0.016473 -0.001653 0.000000 0.000000 0.000000
# 3 -0.005638 -0.001653 0.009387 0.000000 0.000000 0.000000
# 4 0.000000 0.000000 0.000000 0.025190 0.000000 0.000000
# 5 0.000000 0.000000 0.000000 0.000000 0.027861 0.000000
# 6 0.000000 0.000000 0.000000 0.000000 0.000000 0.027258
#
#
# Mechanical properties :
#
#
# Convention : Reuss Voigt Hill
#
# Bulk Modulus (GPa) = 40.28786 48.51642 44.40214
# Shear Modulus (GPa) = 28.15396 33.46941 30.81169
#
# Velocity S-wave (km/s) = 3.47839 3.79256 3.63886
# Velocity P-wave (km/s) = 5.78325 6.32676 6.06110
#
# Compressibility (1/GPa) = 0.02482137
#
# Stress axis : x y z
#
# Youngs Moduli (GPa) = 32.19926 60.70527 106.53224
#
# Poissons Ratio (x) = 0.53160 0.60061
# Poissons Ratio (y) = 0.28197 0.17606
# Poissons Ratio (z) = 0.18153 0.10032
#
# Static dielectric constant tensor:
#      x y z
#    x 4.167630 0.000000 0.000000 
#    y 0.000000 4.160160 0.000000 
#    z 0.000000 0.000000 4.242150 
# 
# 
# High freq. dielectric constant tensor:
#      x y z
#    x 1.908610 0.000000 0.000000 
#    y 0.000000 1.922610 0.000000 
#    z 0.000000 0.000000 1.937370 
# 
# From -- ./inp_files/11689.got.cif
#   From: 2010.03.12/outbox.cif.g09.slc.cpg/sg61_6_cif.got.tgz:11689.got - 2010.04.10 19:05:03.
