data_PCOD8249899
_publ_section_title
;
Structure prediction by ZEFSAII (Michael W. Deem and Ramdas Pophale) SiO2 
 PCOD8249899
Probable space group: P B C A
;
_chemical_formula_sum "Si O2"
_cell_formula_units_Z 48
_cell_length_a 19.008893
_cell_length_b 8.594523
_cell_length_c 13.616225
_cell_angle_alpha 90.000000
_cell_angle_beta 90.000000
_cell_angle_gamma 90.000000
_cell_volume 2224.514923
_symmetry_space_group_name_H-M "P B C A"
_symmetry_group_IT_number 61
_symmetry_cell_setting 'orthorhombic'
loop_
_space_group_symop_operation_xyz
x,y,z
1/2-x,-y,1/2+z
1/2+x,1/2-y,-z
-x,1/2+y,1/2-z
-x,-y,-z
1/2+x,y,1/2-z
1/2-x,1/2+y,z
x,1/2-y,1/2+z
loop_
_atom_site_type_symbol
_atom_site_label
_atom_site_fract_x
_atom_site_fract_y
_atom_site_fract_z
Si Si1 0.931609 0.373992 0.666273
Si Si2 0.330277 0.609724 0.320568
Si Si3 0.306960 0.947741 0.242887
Si Si4 0.559241 0.579071 0.787400
Si Si5 0.649544 0.662228 0.972522
Si Si6 0.788637 0.999133 0.475380
O O1 0.863485 0.423727 0.727529
O O2 0.963198 0.219873 0.716303
O O3 0.909873 0.334284 0.555548
O O4 0.989269 0.509772 0.663898
O O5 0.320096 0.790688 0.301738
O O6 0.269943 0.508895 0.269236
O O7 0.404393 0.555284 0.276859
O O8 0.331813 0.582425 0.437368
O O9 0.311713 0.917384 0.126313
O O10 0.611616 0.642521 0.869503
O O11 0.704668 0.522203 0.992530
O O12 0.695796 0.818291 0.972327
#
# Coordination Sequence:
#
# PCOD8249899 Si02
#       6
#     8   8   8   8   8   8
#     4  12  26  48  69 101 145 195 240 294 353 425
#     4  12  24  43  71 104 143 186 236 297 356 418
#     4  12  24  43  71 104 143 186 236 297 356 418
#     4  12  26  48  69 101 145 195 240 294 353 425
#     4  12  25  44  74 108 144 181 238 297 357 427
#     4  12  24  42  74 110 141 176 236 294 357 420
#
# _framework density 21.577738
#
# number of rings (size 3 to 8) (size 9 to 14) (size 15 to 20)
#    0.000    0.000    6.667    4.500    0.000    0.000 
#    0.000    6.667    0.000    0.000    0.000    0.000 
#    0.000    0.000    0.000    0.000    0.000    0.000 
#
# Total GULP energy -595596.034590 kJ/mol
# GULP energy per Si atom -12408.250721 kJ/mol
# Density = 2.152863 g / cm^3
# Si number density = 21.577738 Si / 1000 Ang^3
#
#
#
# Elastic Constant Matrix: (Units=GPa)
#
#
# Indices 1 2 3 4 5 6 
#
# 1 57.6894 14.3788 4.2480 0.0000 0.0000 0.0000
# 2 14.3788 89.9223 -2.7828 0.0000 0.0000 0.0000
# 3 4.2480 -2.7828 88.6227 0.0000 0.0000 0.0000
# 4 0.0000 0.0000 0.0000 33.7489 0.0000 0.0000
# 5 0.0000 0.0000 0.0000 0.0000 14.7501 0.0000
# 6 0.0000 0.0000 0.0000 0.0000 0.0000 34.5571
#
#
#
# Elastic Compliance Matrix: (Units=1/GPa)
#
#
# Indices 1 2 3 4 5 6 
#
# 1 0.018135 -0.002930 -0.000961 0.000000 0.000000 0.000000
# 2 -0.002930 0.011605 0.000505 0.000000 0.000000 0.000000
# 3 -0.000961 0.000505 0.011346 0.000000 0.000000 0.000000
# 4 0.000000 0.000000 0.000000 0.029631 0.000000 0.000000
# 5 0.000000 0.000000 0.000000 0.000000 0.067796 0.000000
# 6 0.000000 0.000000 0.000000 0.000000 0.000000 0.028938
#
#
# Mechanical properties :
#
#
# Convention : Reuss Voigt Hill
#
# Bulk Modulus (GPa) = 29.14300 29.76916 29.45608
# Shear Modulus (GPa) = 26.93093 31.30391 29.11742
#
# Velocity S-wave (km/s) = 3.53666 3.81300 3.67743
# Velocity P-wave (km/s) = 5.49661 5.76294 5.63135
#
# Compressibility (1/GPa) = 0.03431356
#
# Stress axis : x y z
#
# Youngs Moduli (GPa) = 55.14147 86.17140 88.13902
#
# Poissons Ratio (x) = 0.25245 0.08473
# Poissons Ratio (y) = 0.16154 -0.04449
# Poissons Ratio (z) = 0.05301 -0.04350
#
# Static dielectric constant tensor:
#      x y z
#    x 3.835350 0.000000 0.000000 
#    y 0.000000 3.920230 0.000000 
#    z 0.000000 0.000000 4.102380 
# 
# 
# High freq. dielectric constant tensor:
#      x y z
#    x 1.838570 0.000000 0.000000 
#    y 0.000000 1.855290 0.000000 
#    z 0.000000 0.000000 1.865040 
# 
# From -- ./inp_files/8108.got.cif
#   From: 2010.03.12/outbox.cif.g09.slc.cpg/sg61_5_cif.got.tgz:8108.got - 2010.04.10 19:05:03.
