data_PCOD8249771
_publ_section_title
;
Structure prediction by ZEFSAII (Michael W. Deem and Ramdas Pophale) SiO2 
 PCOD8249771
Probable space group: P B C A
;
_chemical_formula_sum "Si O2"
_cell_formula_units_Z 48
_cell_length_a 8.292706
_cell_length_b 29.416026
_cell_length_c 8.928046
_cell_angle_alpha 90.000000
_cell_angle_beta 90.000000
_cell_angle_gamma 90.000000
_cell_volume 2177.893750
_symmetry_space_group_name_H-M "P B C A"
_symmetry_group_IT_number 61
_symmetry_cell_setting 'orthorhombic'
loop_
_space_group_symop_operation_xyz
x,y,z
1/2-x,-y,1/2+z
1/2+x,1/2-y,-z
-x,1/2+y,1/2-z
-x,-y,-z
1/2+x,y,1/2-z
1/2-x,1/2+y,z
x,1/2-y,1/2+z
loop_
_atom_site_type_symbol
_atom_site_label
_atom_site_fract_x
_atom_site_fract_y
_atom_site_fract_z
Si Si1 0.235421 0.965930 0.956508
Si Si2 0.583461 0.404587 0.347277
Si Si3 0.962895 0.497333 0.276943
Si Si4 0.395413 0.714995 0.061119
Si Si5 0.715070 0.652611 0.623644
Si Si6 0.098843 0.758792 0.213498
O O1 0.392933 0.988695 0.883260
O O2 0.292699 0.916659 0.017361
O O3 0.180113 0.995223 0.100574
O O4 0.090018 0.964653 0.836392
O O5 0.549620 0.448555 0.242532
O O6 0.663285 0.365879 0.247766
O O7 0.417227 0.385565 0.416457
O O8 0.259476 0.748736 0.122544
O O9 0.542830 0.716183 0.180220
O O10 0.316614 0.665249 0.027750
O O11 0.451554 0.732914 0.899550
O O12 0.624148 0.697430 0.682207
#
# Coordination Sequence:
#
# PCOD8249771 Si02
#       6
#     8   8   8   8   8   8
#     4  11  23  42  71  99 133 179 234 268 332 408
#     4  12  23  43  67 103 137 174 221 285 346 394
#     4  11  23  42  73 100 130 182 235 274 322 416
#     4  12  23  43  71 102 133 179 235 275 335 412
#     4  12  24  41  71  99 137 178 219 284 349 393
#     4  12  23  43  73  99 133 179 237 273 330 421
#
# _framework density 22.039642000000001
#
# number of rings (size 3 to 8) (size 9 to 14) (size 15 to 20)
#    0.000    0.333    8.333    0.500    0.000    0.000 
#    0.000    1.667    0.000    0.000    0.000    0.000 
#    0.000    0.000    0.000    0.000    0.000    0.000 
#
# Total GULP energy -594988.718500 kJ/mol
# GULP energy per Si atom -12395.598302 kJ/mol
# Density = 2.198948 g / cm^3
# Si number density = 22.039642 Si / 1000 Ang^3
#
#
#
# Elastic Constant Matrix: (Units=GPa)
#
#
# Indices 1 2 3 4 5 6 
#
# 1 87.6065 26.3791 46.3558 0.0000 0.0000 0.0000
# 2 26.3791 53.2155 31.3874 0.0000 0.0000 0.0000
# 3 46.3558 31.3874 86.8405 0.0000 0.0000 0.0000
# 4 0.0000 0.0000 0.0000 42.0939 0.0000 0.0000
# 5 0.0000 0.0000 0.0000 0.0000 47.8084 0.0000
# 6 0.0000 0.0000 0.0000 0.0000 0.0000 49.2299
#
#
#
# Elastic Compliance Matrix: (Units=1/GPa)
#
#
# Indices 1 2 3 4 5 6 
#
# 1 0.016488 -0.003790 -0.007432 0.000000 0.000000 0.000000
# 2 -0.003790 0.024754 -0.006924 0.000000 0.000000 0.000000
# 3 -0.007432 -0.006924 0.017985 0.000000 0.000000 0.000000
# 4 0.000000 0.000000 0.000000 0.023756 0.000000 0.000000
# 5 0.000000 0.000000 0.000000 0.000000 0.020917 0.000000
# 6 0.000000 0.000000 0.000000 0.000000 0.000000 0.020313
#
#
# Mechanical properties :
#
#
# Convention : Reuss Voigt Hill
#
# Bulk Modulus (GPa) = 43.59927 48.43413 46.01670
# Shear Modulus (GPa) = 29.73538 36.06246 32.89892
#
# Velocity S-wave (km/s) = 3.67710 4.04945 3.86776
# Velocity P-wave (km/s) = 6.15250 6.62478 6.39300
#
# Compressibility (1/GPa) = 0.02293616
#
# Stress axis : x y z
#
# Youngs Moduli (GPa) = 60.64929 40.39742 55.60190
#
# Poissons Ratio (x) = 0.15310 0.41321
# Poissons Ratio (y) = 0.22986 0.38498
# Poissons Ratio (z) = 0.45073 0.27971
#
# Static dielectric constant tensor:
#      x y z
#    x 4.343720 0.000000 0.000000 
#    y 0.000000 3.706870 0.000000 
#    z 0.000000 0.000000 4.082730 
# 
# 
# High freq. dielectric constant tensor:
#      x y z
#    x 1.898230 0.000000 0.000000 
#    y 0.000000 1.825190 0.000000 
#    z 0.000000 0.000000 1.865200 
# 
# From -- ./inp_files/1849.got.cif
#   From: 2010.03.12/outbox.cif.g09.slc.cpg/sg61_1_cif.got.tgz:1849.got - 2010.04.10 19:05:03.
