data_PCOD8249044
_publ_section_title
;
Structure prediction by ZEFSAII (Michael W. Deem and Ramdas Pophale) SiO2 
 PCOD8249044
Probable space group: P B C A
;
_chemical_formula_sum "Si O2"
_cell_formula_units_Z 48
_cell_length_a 11.785076
_cell_length_b 13.092792
_cell_length_c 14.208134
_cell_angle_alpha 90.000000
_cell_angle_beta 90.000000
_cell_angle_gamma 90.000000
_cell_volume 2192.308665
_symmetry_space_group_name_H-M "P B C A"
_symmetry_group_IT_number 61
_symmetry_cell_setting 'orthorhombic'
loop_
_space_group_symop_operation_xyz
x,y,z
1/2-x,-y,1/2+z
1/2+x,1/2-y,-z
-x,1/2+y,1/2-z
-x,-y,-z
1/2+x,y,1/2-z
1/2-x,1/2+y,z
x,1/2-y,1/2+z
loop_
_atom_site_type_symbol
_atom_site_label
_atom_site_fract_x
_atom_site_fract_y
_atom_site_fract_z
Si Si1 0.759067 0.598114 0.075002
Si Si2 0.402286 0.589943 0.948905
Si Si3 0.251789 0.208875 0.812876
Si Si4 0.563024 0.538568 0.665146
Si Si5 0.683184 0.116423 0.872716
Si Si6 0.396434 0.989818 0.635936
O O1 0.655660 0.519941 0.069323
O O2 0.724719 0.673851 0.160142
O O3 0.874778 0.535348 0.092333
O O4 0.781399 0.657794 0.976146
O O5 0.339978 0.677212 0.891612
O O6 0.531739 0.581991 0.913426
O O7 0.399941 0.607469 0.063393
O O8 0.365391 0.142085 0.817259
O O9 0.197265 0.202807 0.708228
O O10 0.442656 0.571258 0.624895
O O11 0.548562 0.472313 0.761540
O O12 0.766386 0.022534 0.847308
#
# Coordination Sequence:
#
# PCOD8249044 Si02
#       6
#     8   8   8   8   8   8
#     4  10  22  38  60  88 115 155 201 240 291 358
#     4   9  18  38  61  83 116 154 197 239 287 347
#     4  10  21  39  58  85 120 154 196 243 293 347
#     4  10  20  39  61  85 121 154 189 250 296 344
#     4  10  20  39  59  85 120 156 193 243 302 340
#     4   9  18  35  64  81 113 158 194 234 296 350
#
# _framework density 21.894728000000001
#
# number of rings (size 3 to 8) (size 9 to 14) (size 15 to 20)
#    0.000    2.333    1.667    0.500    0.000    1.333 
#   12.000    1.667    0.000    0.000    0.000    0.000 
#    0.000    0.000    0.000    0.000    0.000    0.000 
#
# Total GULP energy -594777.192129 kJ/mol
# GULP energy per Si atom -12391.191503 kJ/mol
# Density = 2.184489 g / cm^3
# Si number density = 21.894728 Si / 1000 Ang^3
#
#
#
# Elastic Constant Matrix: (Units=GPa)
#
#
# Indices 1 2 3 4 5 6 
#
# 1 100.4790 10.5859 8.8882 0.0000 0.0000 0.0000
# 2 10.5859 55.4508 29.1708 0.0000 0.0000 0.0000
# 3 8.8882 29.1708 112.4289 0.0000 0.0000 0.0000
# 4 0.0000 0.0000 0.0000 26.8764 0.0000 0.0000
# 5 0.0000 0.0000 0.0000 0.0000 31.4852 0.0000
# 6 0.0000 0.0000 0.0000 0.0000 0.0000 12.1126
#
#
#
# Elastic Compliance Matrix: (Units=1/GPa)
#
#
# Indices 1 2 3 4 5 6 
#
# 1 0.010168 -0.001758 -0.000348 0.000000 0.000000 0.000000
# 2 -0.001758 0.021189 -0.005359 0.000000 0.000000 0.000000
# 3 -0.000348 -0.005359 0.010312 0.000000 0.000000 0.000000
# 4 0.000000 0.000000 0.000000 0.037207 0.000000 0.000000
# 5 0.000000 0.000000 0.000000 0.000000 0.031761 0.000000
# 6 0.000000 0.000000 0.000000 0.000000 0.000000 0.082559
#
#
# Mechanical properties :
#
#
# Convention : Reuss Voigt Hill
#
# Bulk Modulus (GPa) = 37.39691 40.62763 39.01227
# Shear Modulus (GPa) = 23.03732 28.74243 25.88988
#
# Velocity S-wave (km/s) = 3.24726 3.62713 3.44244
# Velocity P-wave (km/s) = 5.58364 6.01145 5.80149
#
# Compressibility (1/GPa) = 0.02674018
#
# Stress axis : x y z
#
# Youngs Moduli (GPa) = 98.34464 47.19509 96.97120
#
# Poissons Ratio (x) = 0.08298 0.03371
# Poissons Ratio (y) = 0.17292 0.51963
# Poissons Ratio (z) = 0.03419 0.25290
#
# Static dielectric constant tensor:
#      x y z
#    x 3.917040 0.000000 0.000000 
#    y 0.000000 3.287670 0.000000 
#    z 0.000000 0.000000 4.381280 
# 
# 
# High freq. dielectric constant tensor:
#      x y z
#    x 1.869370 0.000000 0.000000 
#    y 0.000000 1.800540 0.000000 
#    z 0.000000 0.000000 1.885280 
# 
# From -- ./inp_files/7469.got.cif
#   From: 2010.03.12/outbox.cif.g09.slc.cpg/sg61_4_cif.got.tgz:7469.got - 2010.04.10 19:05:03.
