data_PCOD8249260
_publ_section_title
;
Structure prediction by ZEFSAII (Michael W. Deem and Ramdas Pophale) SiO2 
 PCOD8249260
Probable space group: P B C A
;
_chemical_formula_sum "Si O2"
_cell_formula_units_Z 64
_cell_length_a 12.914370
_cell_length_b 13.643177
_cell_length_c 17.919428
_cell_angle_alpha 90.000000
_cell_angle_beta 90.000000
_cell_angle_gamma 90.000000
_cell_volume 3157.278418
_symmetry_space_group_name_H-M "P B C A"
_symmetry_group_IT_number 61
_symmetry_cell_setting 'orthorhombic'
loop_
_space_group_symop_operation_xyz
x,y,z
1/2-x,-y,1/2+z
1/2+x,1/2-y,-z
-x,1/2+y,1/2-z
-x,-y,-z
1/2+x,y,1/2-z
1/2-x,1/2+y,z
x,1/2-y,1/2+z
loop_
_atom_site_type_symbol
_atom_site_label
_atom_site_fract_x
_atom_site_fract_y
_atom_site_fract_z
Si Si1 0.273165 0.095588 0.058764
Si Si2 0.836668 0.374032 0.775040
Si Si3 0.542714 0.767346 0.987812
Si Si4 0.465218 0.583093 0.055918
Si Si5 0.851011 0.900176 0.679984
Si Si6 0.601601 0.437959 0.512425
Si Si7 0.008320 0.993487 0.218009
Si Si8 0.007781 0.773387 0.179543
O O1 0.277781 0.110985 0.147072
O O2 0.350025 0.169302 0.012233
O O3 0.153964 0.111185 0.035934
O O4 0.307882 0.983037 0.039668
O O5 0.765593 0.374702 0.702133
O O6 0.917348 0.462252 0.768105
O O7 0.893223 0.269061 0.776615
O O8 0.437897 0.828873 0.006928
O O9 0.532351 0.717604 0.907392
O O10 0.540406 0.678119 0.046646
O O11 0.479890 0.546456 0.139267
O O12 0.500000 0.500000 0.000000
O O13 0.857179 0.941350 0.596819
O O14 0.887480 0.987335 0.735124
O O15 0.913338 0.800139 0.692992
O O16 0.500000 0.500000 0.500000
O O17 0.982644 0.879433 0.211539
#
# Coordination Sequence:
#
# PCOD8249260 Si02
#       8
#     8   8   8   8   8   8   8   8
#     4  10  22  44  65  91 128 173 215 263 332 378
#     4  10  22  42  63  89 126 168 211 263 319 386
#     4   9  20  41  62  86 125 166 215 261 308 394
#     4  12  24  39  61  98 132 160 210 267 331 371
#     4  10  21  40  61  91 121 164 216 260 311 385
#     4   9  19  40  66  89 118 168 221 261 310 383
#     4  11  22  41  61  91 130 163 207 270 313 383
#     4   9  20  40  60  82 127 165 203 260 318 368
#
# _framework density 20.270623000000001
#
# number of rings (size 3 to 8) (size 9 to 14) (size 15 to 20)
#    0.000    2.000    2.500    2.250    1.750    2.000 
#   15.750    0.000    0.000    0.000    0.000    0.000 
#    0.000    0.000    0.000    0.000    0.000    0.000 
#
# Total GULP energy -793259.248812 kJ/mol
# GULP energy per Si atom -12394.675763 kJ/mol
# Density = 2.022449 g / cm^3
# Si number density = 20.270623 Si / 1000 Ang^3
#
#
#
# Elastic Constant Matrix: (Units=GPa)
#
#
# Indices 1 2 3 4 5 6 
#
# 1 91.8024 25.0664 19.2483 0.0000 0.0000 0.0000
# 2 25.0664 113.0444 29.1842 0.0000 0.0000 0.0000
# 3 19.2483 29.1842 57.4117 0.0000 0.0000 0.0000
# 4 0.0000 0.0000 0.0000 28.2425 0.0000 0.0000
# 5 0.0000 0.0000 0.0000 0.0000 37.5832 0.0000
# 6 0.0000 0.0000 0.0000 0.0000 0.0000 19.5027
#
#
#
# Elastic Compliance Matrix: (Units=1/GPa)
#
#
# Indices 1 2 3 4 5 6 
#
# 1 0.012052 -0.001875 -0.003087 0.000000 0.000000 0.000000
# 2 -0.001875 0.010474 -0.004696 0.000000 0.000000 0.000000
# 3 -0.003087 -0.004696 0.020840 0.000000 0.000000 0.000000
# 4 0.000000 0.000000 0.000000 0.035408 0.000000 0.000000
# 5 0.000000 0.000000 0.000000 0.000000 0.026608 0.000000
# 6 0.000000 0.000000 0.000000 0.000000 0.000000 0.051275
#
#
# Mechanical properties :
#
#
# Convention : Reuss Voigt Hill
#
# Bulk Modulus (GPa) = 41.58048 45.47293 43.52670
# Shear Modulus (GPa) = 27.17534 29.64965 28.41250
#
# Velocity S-wave (km/s) = 3.66543 3.82866 3.74793
# Velocity P-wave (km/s) = 6.20250 6.48278 6.34419
#
# Compressibility (1/GPa) = 0.02404975
#
# Stress axis : x y z
#
# Youngs Moduli (GPa) = 82.97112 95.47284 47.98443
#
# Poissons Ratio (x) = 0.17905 0.14815
# Poissons Ratio (y) = 0.15561 0.22532
# Poissons Ratio (z) = 0.25617 0.44830
#
# Static dielectric constant tensor:
#      x y z
#    x 3.759980 0.000000 0.000000 
#    y 0.000000 3.834140 0.000000 
#    z 0.000000 0.000000 3.779210 
# 
# 
# High freq. dielectric constant tensor:
#      x y z
#    x 1.788670 0.000000 0.000000 
#    y 0.000000 1.790670 0.000000 
#    z 0.000000 0.000000 1.789610 
# 
# From -- ./inp_files/9521.got.cif
#   From: 2010.03.12/outbox.cif.g09.slc.cpg/sg61_5_cif.got.tgz:9521.got - 2010.04.10 19:05:03.
