data_PCOD8249746
_publ_section_title
;
Structure prediction by ZEFSAII (Michael W. Deem and Ramdas Pophale) SiO2 
 PCOD8249746
Probable space group: P B C A
;
_chemical_formula_sum "Si O2"
_cell_formula_units_Z 48
_cell_length_a 14.384021
_cell_length_b 9.504142
_cell_length_c 16.439708
_cell_angle_alpha 90.000000
_cell_angle_beta 90.000000
_cell_angle_gamma 90.000000
_cell_volume 2247.435954
_symmetry_space_group_name_H-M "P B C A"
_symmetry_group_IT_number 61
_symmetry_cell_setting 'orthorhombic'
loop_
_space_group_symop_operation_xyz
x,y,z
1/2-x,-y,1/2+z
1/2+x,1/2-y,-z
-x,1/2+y,1/2-z
-x,-y,-z
1/2+x,y,1/2-z
1/2-x,1/2+y,z
x,1/2-y,1/2+z
loop_
_atom_site_type_symbol
_atom_site_label
_atom_site_fract_x
_atom_site_fract_y
_atom_site_fract_z
Si Si1 0.650062 0.636678 0.165906
Si Si2 0.528693 0.990855 0.405144
Si Si3 0.175497 0.197768 0.064786
Si Si4 0.593845 0.023090 0.956112
Si Si5 0.233531 0.905006 0.416842
Si Si6 0.631918 0.721531 0.349075
O O1 0.550305 0.568271 0.147386
O O2 0.727344 0.512734 0.151936
O O3 0.669945 0.776125 0.113126
O O4 0.653812 0.703085 0.254915
O O5 0.628273 0.066370 0.389728
O O6 0.500000 0.000000 0.500000
O O7 0.551415 0.834994 0.371267
O O8 0.099802 0.319161 0.075587
O O9 0.272327 0.250707 0.102790
O O10 0.181785 0.162246 0.968159
O O11 0.592937 0.927478 0.876763
O O12 0.678566 0.995516 0.016914
O O13 0.500000 0.000000 0.000000
#
# Coordination Sequence:
#
# PCOD8249746 Si02
#       6
#     8   8   8   8   8   8
#     4  12  27  44  71 105 147 188 235 304 367 428
#     4  12  24  47  73 102 142 192 244 297 359 439
#     4  11  22  44  71 100 137 190 234 290 351 436
#     4  11  23  42  71 103 132 185 245 284 339 432
#     4  11  23  44  69 100 139 190 235 283 358 429
#     4  11  27  44  68 105 143 183 235 299 370 418
#
# _framework density 21.357672999999998
#
# number of rings (size 3 to 8) (size 9 to 14) (size 15 to 20)
#    0.000    0.667    3.333    6.000    4.667    2.667 
#    0.000    0.000    0.000    0.000    0.000    0.000 
#    0.000    0.000    0.000    0.000    0.000    0.000 
#
# Total GULP energy -594933.349532 kJ/mol
# GULP energy per Si atom -12394.444782 kJ/mol
# Density = 2.130906 g / cm^3
# Si number density = 21.357673 Si / 1000 Ang^3
#
#
#
# Elastic Constant Matrix: (Units=GPa)
#
#
# Indices 1 2 3 4 5 6 
#
# 1 56.8515 16.0447 17.2518 0.0000 0.0000 0.0000
# 2 16.0447 105.3961 36.6757 0.0000 0.0000 0.0000
# 3 17.2518 36.6757 97.3980 0.0000 0.0000 0.0000
# 4 0.0000 0.0000 0.0000 33.7479 0.0000 0.0000
# 5 0.0000 0.0000 0.0000 0.0000 27.9214 0.0000
# 6 0.0000 0.0000 0.0000 0.0000 0.0000 52.7802
#
#
#
# Elastic Compliance Matrix: (Units=1/GPa)
#
#
# Indices 1 2 3 4 5 6 
#
# 1 0.018939 -0.001975 -0.002611 0.000000 0.000000 0.000000
# 2 -0.001975 0.011125 -0.003839 0.000000 0.000000 0.000000
# 3 -0.002611 -0.003839 0.012175 0.000000 0.000000 0.000000
# 4 0.000000 0.000000 0.000000 0.029631 0.000000 0.000000
# 5 0.000000 0.000000 0.000000 0.000000 0.035815 0.000000
# 6 0.000000 0.000000 0.000000 0.000000 0.000000 0.018947
#
#
# Mechanical properties :
#
#
# Convention : Reuss Voigt Hill
#
# Bulk Modulus (GPa) = 39.38662 44.39889 41.89276
# Shear Modulus (GPa) = 32.90661 35.53479 34.22070
#
# Velocity S-wave (km/s) = 3.92948 4.08339 4.00718
# Velocity P-wave (km/s) = 6.25054 6.56243 6.40838
#
# Compressibility (1/GPa) = 0.02538933
#
# Stress axis : x y z
#
# Youngs Moduli (GPa) = 52.80020 89.89092 82.13317
#
# Poissons Ratio (x) = 0.17750 0.21446
# Poissons Ratio (y) = 0.10426 0.31533
# Poissons Ratio (z) = 0.13787 0.34512
#
# Static dielectric constant tensor:
#      x y z
#    x 3.756190 0.000000 0.000000 
#    y 0.000000 4.059690 0.000000 
#    z 0.000000 0.000000 3.679530 
# 
# 
# High freq. dielectric constant tensor:
#      x y z
#    x 1.843730 0.000000 0.000000 
#    y 0.000000 1.861180 0.000000 
#    z 0.000000 0.000000 1.819120 
# 
# From -- ./inp_files/9446.got.cif
#   From: 2010.03.12/outbox.cif.g09.slc.cpg/sg61_5_cif.got.tgz:9446.got - 2010.04.10 19:05:03.
