data_PCOD8249681
_publ_section_title
;
Structure prediction by ZEFSAII (Michael W. Deem and Ramdas Pophale) SiO2 
 PCOD8249681
Probable space group: P B C A
;
_chemical_formula_sum "Si O2"
_cell_formula_units_Z 64
_cell_length_a 17.908093
_cell_length_b 20.253017
_cell_length_c 8.907756
_cell_angle_alpha 90.000000
_cell_angle_beta 90.000000
_cell_angle_gamma 90.000000
_cell_volume 3230.779963
_symmetry_space_group_name_H-M "P B C A"
_symmetry_group_IT_number 61
_symmetry_cell_setting 'orthorhombic'
loop_
_space_group_symop_operation_xyz
x,y,z
1/2-x,-y,1/2+z
1/2+x,1/2-y,-z
-x,1/2+y,1/2-z
-x,-y,-z
1/2+x,y,1/2-z
1/2-x,1/2+y,z
x,1/2-y,1/2+z
loop_
_atom_site_type_symbol
_atom_site_label
_atom_site_fract_x
_atom_site_fract_y
_atom_site_fract_z
Si Si1 0.521017 0.927605 0.049811
Si Si2 0.179837 0.785894 0.588453
Si Si3 0.914095 0.503331 0.546766
Si Si4 0.583993 0.618999 0.253875
Si Si5 0.256034 0.675266 0.782698
Si Si6 0.552328 0.810579 0.467109
Si Si7 0.858909 0.077109 0.795569
Si Si8 0.080072 0.362239 0.297345
O O1 0.598652 0.934299 0.139540
O O2 0.457672 0.891489 0.147567
O O3 0.532119 0.885352 0.900056
O O4 0.500000 0.000000 0.000000
O O5 0.163077 0.847444 0.699159
O O6 0.226204 0.730994 0.673246
O O7 0.229185 0.809633 0.450139
O O8 0.098010 0.758016 0.537140
O O9 0.898632 0.452759 0.683378
O O10 0.861454 0.487621 0.402148
O O11 0.896688 0.577522 0.594605
O O12 0.000000 0.500000 0.500000
O O13 0.540576 0.667505 0.139420
O O14 0.224789 0.602561 0.736611
O O15 0.344576 0.676527 0.760585
O O16 0.599567 0.867069 0.388706
O O17 0.472905 0.808824 0.381528
#
# Coordination Sequence:
#
# PCOD8249681 Si02
#       8
#     8   8   8   8   8   8   8   8
#     4  11  19  34  64  96 121 153 208 266 300 371
#     4  11  22  43  67  86 122 173 218 251 307 398
#     4  11  18  38  66  89 124 165 201 263 313 379
#     4  11  19  35  70  92 112 161 223 246 305 372
#     4  11  24  44  61  89 129 166 206 269 322 378
#     4   9  20  38  65  89 113 168 216 250 303 376
#     4   9  19  36  60  84 120 165 201 238 315 376
#     4  11  23  41  61  95 134 159 202 276 326 355
#
# _framework density 19.809456000000001
#
# number of rings (size 3 to 8) (size 9 to 14) (size 15 to 20)
#    0.000    1.500    7.500    0.000    0.000    0.000 
#    9.000    0.000    0.000    0.000    0.000    0.000 
#    0.000    0.000    0.000    0.000    0.000    0.000 
#
# Total GULP energy -793415.010103 kJ/mol
# GULP energy per Si atom -12397.109533 kJ/mol
# Density = 1.976437 g / cm^3
# Si number density = 19.809456 Si / 1000 Ang^3
#
#
#
# Elastic Constant Matrix: (Units=GPa)
#
#
# Indices 1 2 3 4 5 6 
#
# 1 112.9512 24.7303 40.0165 0.0000 0.0000 0.0000
# 2 24.7303 53.5831 19.9895 0.0000 0.0000 0.0000
# 3 40.0165 19.9895 120.3294 0.0000 0.0000 0.0000
# 4 0.0000 0.0000 0.0000 33.7829 0.0000 0.0000
# 5 0.0000 0.0000 0.0000 0.0000 24.0269 0.0000
# 6 0.0000 0.0000 0.0000 0.0000 0.0000 22.3940
#
#
#
# Elastic Compliance Matrix: (Units=1/GPa)
#
#
# Indices 1 2 3 4 5 6 
#
# 1 0.010737 -0.003863 -0.002929 0.000000 0.000000 0.000000
# 2 -0.003863 0.021285 -0.002251 0.000000 0.000000 0.000000
# 3 -0.002929 -0.002251 0.009659 0.000000 0.000000 0.000000
# 4 0.000000 0.000000 0.000000 0.029601 0.000000 0.000000
# 5 0.000000 0.000000 0.000000 0.000000 0.041620 0.000000
# 6 0.000000 0.000000 0.000000 0.000000 0.000000 0.044655
#
#
# Mechanical properties :
#
#
# Convention : Reuss Voigt Hill
#
# Bulk Modulus (GPa) = 42.38270 50.70404 46.54337
# Shear Modulus (GPa) = 27.24692 29.51593 28.38142
#
# Velocity S-wave (km/s) = 3.71273 3.86423 3.78924
# Velocity P-wave (km/s) = 6.31037 6.74990 6.53383
#
# Compressibility (1/GPa) = 0.02359453
#
# Stress axis : x y z
#
# Youngs Moduli (GPa) = 93.13790 46.98090 103.53500
#
# Poissons Ratio (x) = 0.18147 0.30324
# Poissons Ratio (y) = 0.35976 0.23310
# Poissons Ratio (z) = 0.27279 0.10577
#
# Static dielectric constant tensor:
#      x y z
#    x 3.456650 0.000000 0.000000 
#    y 0.000000 3.958730 0.000000 
#    z 0.000000 0.000000 3.099990 
# 
# 
# High freq. dielectric constant tensor:
#      x y z
#    x 1.739770 0.000000 0.000000 
#    y 0.000000 1.768360 0.000000 
#    z 0.000000 0.000000 1.790200 
# 
# From -- ./inp_files/3709.got.cif
#   From: 2010.03.12/outbox.cif.g09.slc.cpg/sg61_2_cif.got.tgz:3709.got - 2010.04.10 19:05:03.
