data_PCOD8249041
_publ_section_title
;
Structure prediction by ZEFSAII (Michael W. Deem and Ramdas Pophale) SiO2 
 PCOD8249041
Probable space group: P B C A
;
_chemical_formula_sum "Si O2"
_cell_formula_units_Z 48
_cell_length_a 9.380872
_cell_length_b 13.691696
_cell_length_c 16.995045
_cell_angle_alpha 90.000000
_cell_angle_beta 90.000000
_cell_angle_gamma 90.000000
_cell_volume 2182.844389
_symmetry_space_group_name_H-M "P B C A"
_symmetry_group_IT_number 61
_symmetry_cell_setting 'orthorhombic'
loop_
_space_group_symop_operation_xyz
x,y,z
1/2-x,-y,1/2+z
1/2+x,1/2-y,-z
-x,1/2+y,1/2-z
-x,-y,-z
1/2+x,y,1/2-z
1/2-x,1/2+y,z
x,1/2-y,1/2+z
loop_
_atom_site_type_symbol
_atom_site_label
_atom_site_fract_x
_atom_site_fract_y
_atom_site_fract_z
Si Si1 0.009648 0.599363 0.832949
Si Si2 0.009035 0.855412 0.151387
Si Si3 0.225349 0.768854 0.408671
Si Si4 0.359290 0.176774 0.076189
Si Si5 0.258583 0.019357 0.584974
Si Si6 0.354206 0.927649 0.920758
O O1 0.998888 0.610811 0.740359
O O2 0.078857 0.697450 0.868613
O O3 0.108976 0.506336 0.853648
O O4 0.851408 0.587705 0.867230
O O5 0.100784 0.755400 0.143111
O O6 0.083139 0.942074 0.101794
O O7 0.851834 0.841643 0.116731
O O8 0.212685 0.767574 0.503235
O O9 0.257437 0.657609 0.382277
O O10 0.500599 0.120265 0.045195
O O11 0.253830 0.094267 0.112184
O O12 0.226775 0.019653 0.491921
#
# Coordination Sequence:
#
# PCOD8249041 Si02
#       6
#     8   8   8   8   8   8
#     4  11  22  42  61  88 129 171 203 258 324 379
#     4  11  25  37  60  98 129 155 212 277 310 358
#     4  11  21  39  65  92 122 161 220 257 306 376
#     4  10  20  39  63  88 122 164 212 250 312 382
#     4  11  20  40  67  86 121 173 209 246 321 386
#     4  10  20  38  68  90 117 177 210 245 316 390
#
# _framework density 21.989656
#
# number of rings (size 3 to 8) (size 9 to 14) (size 15 to 20)
#    0.000    1.333    5.000    2.000    0.000    2.000 
#    0.000    3.333    0.000    0.000    0.000    0.000 
#    0.000    0.000    0.000    0.000    0.000    0.000 
#
# Total GULP energy -595329.093004 kJ/mol
# GULP energy per Si atom -12402.689438 kJ/mol
# Density = 2.193961 g / cm^3
# Si number density = 21.989656 Si / 1000 Ang^3
#
#
#
# Elastic Constant Matrix: (Units=GPa)
#
#
# Indices 1 2 3 4 5 6 
#
# 1 32.4447 3.2770 23.1832 0.0000 0.0000 0.0000
# 2 3.2770 58.9067 11.1911 0.0000 0.0000 0.0000
# 3 23.1832 11.1911 111.6549 0.0000 0.0000 0.0000
# 4 0.0000 0.0000 0.0000 28.9973 0.0000 0.0000
# 5 0.0000 0.0000 0.0000 0.0000 20.2965 0.0000
# 6 0.0000 0.0000 0.0000 0.0000 0.0000 37.5101
#
#
#
# Elastic Compliance Matrix: (Units=1/GPa)
#
#
# Indices 1 2 3 4 5 6 
#
# 1 0.036212 -0.000597 -0.007459 0.000000 0.000000 0.000000
# 2 -0.000597 0.017315 -0.001611 0.000000 0.000000 0.000000
# 3 -0.007459 -0.001611 0.010666 0.000000 0.000000 0.000000
# 4 0.000000 0.000000 0.000000 0.034486 0.000000 0.000000
# 5 0.000000 0.000000 0.000000 0.000000 0.049269 0.000000
# 6 0.000000 0.000000 0.000000 0.000000 0.000000 0.026659
#
#
# Mechanical properties :
#
#
# Convention : Reuss Voigt Hill
#
# Bulk Modulus (GPa) = 22.29257 30.92322 26.60790
# Shear Modulus (GPa) = 23.93528 28.38445 26.15987
#
# Velocity S-wave (km/s) = 3.30279 3.59668 3.45286
# Velocity P-wave (km/s) = 4.97034 5.59833 5.29366
#
# Compressibility (1/GPa) = 0.04485799
#
# Stress axis : x y z
#
# Youngs Moduli (GPa) = 27.61535 57.75216 93.75240
#
# Poissons Ratio (x) = 0.03450 0.69929
# Poissons Ratio (y) = 0.01650 0.15108
# Poissons Ratio (z) = 0.20598 0.09307
#
# Static dielectric constant tensor:
#      x y z
#    x 3.977140 0.000000 0.000000 
#    y 0.000000 4.194540 0.000000 
#    z 0.000000 0.000000 3.548720 
# 
# 
# High freq. dielectric constant tensor:
#      x y z
#    x 1.859220 0.000000 0.000000 
#    y 0.000000 1.876850 0.000000 
#    z 0.000000 0.000000 1.838640 
# 
# From -- ./inp_files/8899.got.cif
#   From: 2010.03.12/outbox.cif.g09.slc.cpg/sg61_5_cif.got.tgz:8899.got - 2010.04.10 19:05:03.
