data_PCOD8249107
_publ_section_title
;
Structure prediction by ZEFSAII (Michael W. Deem and Ramdas Pophale) SiO2 
 PCOD8249107
Probable space group: P B C A
;
_chemical_formula_sum "Si O2"
_cell_formula_units_Z 40
_cell_length_a 19.445985
_cell_length_b 8.885052
_cell_length_c 7.704164
_cell_angle_alpha 90.000000
_cell_angle_beta 90.000000
_cell_angle_gamma 90.000000
_cell_volume 1331.114577
_symmetry_space_group_name_H-M "P B C A"
_symmetry_group_IT_number 61
_symmetry_cell_setting 'orthorhombic'
loop_
_space_group_symop_operation_xyz
x,y,z
1/2-x,-y,1/2+z
1/2+x,1/2-y,-z
-x,1/2+y,1/2-z
-x,-y,-z
1/2+x,y,1/2-z
1/2-x,1/2+y,z
x,1/2-y,1/2+z
loop_
_atom_site_type_symbol
_atom_site_label
_atom_site_fract_x
_atom_site_fract_y
_atom_site_fract_z
Si Si1 0.846196 0.253237 0.711470
Si Si2 0.739914 0.590751 0.445933
Si Si3 0.655304 0.323730 0.508049
Si Si4 0.936004 0.535833 0.712208
Si Si5 0.087793 0.028313 0.171115
O O1 0.776058 0.348989 0.751819
O O2 0.828375 0.159879 0.539257
O O3 0.910521 0.364374 0.696523
O O4 0.864044 0.119091 0.850490
O O5 0.727407 0.412143 0.463017
O O6 0.816340 0.646422 0.502896
O O7 0.599771 0.364988 0.360126
O O8 0.625430 0.353197 0.699600
O O9 0.926501 0.610695 0.517411
O O10 0.016559 0.526531 0.756674
#
# Coordination Sequence:
#
# PCOD8249107 Si02
#       5
#     8   8   8   8   8
#     4  10  20  42  62  92 128 180 208 272 344 394
#     4  10  22  40  67  92 135 178 218 270 336 404
#     4  10  23  44  66 102 137 176 224 278 334 398
#     4  10  21  41  69  95 128 177 224 277 335 401
#     4  10  21  41  69  95 128 177 224 277 335 401
#
# _framework density 30.050004000000001
#
# number of rings (size 3 to 8) (size 9 to 14) (size 15 to 20)
#    0.000    2.000    2.000    0.600    0.000    6.400 
#    3.600    6.000    0.000    0.000    0.000    0.000 
#    0.000    0.000    0.000    0.000    0.000    0.000 
#
# Total GULP energy -495821.327614 kJ/mol
# GULP energy per Si atom -12395.533190 kJ/mol
# Density = 2.998161 g / cm^3
# Si number density = 30.050004 Si / 1000 Ang^3
#
#
#
# Elastic Constant Matrix: (Units=GPa)
#
#
# Indices 1 2 3 4 5 6 
#
# 1 166.9594 8.7650 4.0559 0.0000 0.0000 0.0000
# 2 8.7650 87.7444 31.3702 0.0000 0.0000 0.0000
# 3 4.0559 31.3702 91.4618 0.0000 0.0000 0.0000
# 4 0.0000 0.0000 0.0000 49.9604 0.0000 0.0000
# 5 0.0000 0.0000 0.0000 0.0000 43.4656 0.0000
# 6 0.0000 0.0000 0.0000 0.0000 0.0000 39.8697
#
#
#
# Elastic Compliance Matrix: (Units=1/GPa)
#
#
# Indices 1 2 3 4 5 6 
#
# 1 0.006021 -0.000577 -0.000069 0.000000 0.000000 0.000000
# 2 -0.000577 0.013045 -0.004449 0.000000 0.000000 0.000000
# 3 -0.000069 -0.004449 0.012462 0.000000 0.000000 0.000000
# 4 0.000000 0.000000 0.000000 0.020016 0.000000 0.000000
# 5 0.000000 0.000000 0.000000 0.000000 0.023007 0.000000
# 6 0.000000 0.000000 0.000000 0.000000 0.000000 0.025082
#
#
# Mechanical properties :
#
#
# Convention : Reuss Voigt Hill
#
# Bulk Modulus (GPa) = 46.86146 48.28311 47.57228
# Shear Modulus (GPa) = 42.75871 46.79078 44.77475
#
# Velocity S-wave (km/s) = 3.77625 3.95029 3.86425
# Velocity P-wave (km/s) = 5.88573 6.07526 5.98125
#
# Compressibility (1/GPa) = 0.02133950
#
# Stress axis : x y z
#
# Youngs Moduli (GPa) = 166.07323 76.65879 80.24127
#
# Poissons Ratio (x) = 0.04421 0.00555
# Poissons Ratio (y) = 0.09578 0.35696
# Poissons Ratio (z) = 0.01149 0.34103
#
# Static dielectric constant tensor:
#      x y z
#    x 5.365700 0.000000 0.000000 
#    y 0.000000 5.874520 0.000000 
#    z 0.000000 0.000000 5.560820 
# 
# 
# High freq. dielectric constant tensor:
#      x y z
#    x 2.242540 0.000000 0.000000 
#    y 0.000000 2.250410 0.000000 
#    z 0.000000 0.000000 2.240610 
# 
# From -- ./inp_files/3288.got.cif
#   From: 2010.03.12/outbox.cif.g09.slc.cpg/sg61_2_cif.got.tgz:3288.got - 2010.04.10 19:05:03.
