data_PCOD8249261
_publ_section_title
;
Structure prediction by ZEFSAII (Michael W. Deem and Ramdas Pophale) SiO2 
 PCOD8249261
Probable space group: P B C A
;
_chemical_formula_sum "Si O2"
_cell_formula_units_Z 64
_cell_length_a 9.381520
_cell_length_b 16.810873
_cell_length_c 20.239388
_cell_angle_alpha 90.000000
_cell_angle_beta 90.000000
_cell_angle_gamma 90.000000
_cell_volume 3191.985076
_symmetry_space_group_name_H-M "P B C A"
_symmetry_group_IT_number 61
_symmetry_cell_setting 'orthorhombic'
loop_
_space_group_symop_operation_xyz
x,y,z
1/2-x,-y,1/2+z
1/2+x,1/2-y,-z
-x,1/2+y,1/2-z
-x,-y,-z
1/2+x,y,1/2-z
1/2-x,1/2+y,z
x,1/2-y,1/2+z
loop_
_atom_site_type_symbol
_atom_site_label
_atom_site_fract_x
_atom_site_fract_y
_atom_site_fract_z
Si Si1 0.000766 0.175266 0.483854
Si Si2 0.318922 0.839490 0.864898
Si Si3 0.969510 0.833476 0.371391
Si Si4 0.662205 0.441983 0.269429
Si Si5 0.008741 0.349424 0.619813
Si Si6 0.172366 0.163959 0.998986
Si Si7 0.085222 0.448205 0.747544
Si Si8 0.208065 0.343324 0.353766
O O1 0.069561 0.129614 0.420992
O O2 0.032534 0.131634 0.553687
O O3 0.077421 0.259348 0.485983
O O4 0.830931 0.185864 0.475512
O O5 0.336039 0.892465 0.800120
O O6 0.347387 0.747331 0.846641
O O7 0.160006 0.849460 0.893636
O O8 0.851685 0.879359 0.328930
O O9 0.932748 0.740073 0.371048
O O10 0.123656 0.846634 0.338402
O O11 0.557520 0.516552 0.279357
O O12 0.820127 0.476455 0.272329
O O13 0.629672 0.398426 0.199615
O O14 0.090664 0.386730 0.555707
O O15 0.048293 0.398393 0.683529
O O16 0.179624 0.120769 0.927412
#
# Coordination Sequence:
#
# PCOD8249261 Si02
#       8
#     8   8   8   8   8   8   8   8
#     4   9  18  35  61  89 116 149 193 248 293 344
#     4  10  21  40  62  88 118 152 197 245 292 348
#     4   9  19  39  62  85 114 150 195 237 286 349
#     4  12  23  42  57  82 121 157 197 237 293 347
#     4  10  21  40  62  88 117 152 199 244 289 354
#     4   9  18  35  61  89 117 148 194 246 296 343
#     4  12  25  40  59  82 123 159 192 245 292 346
#     4   9  19  39  62  85 115 151 190 242 287 342
#
# _framework density 20.050218000000001
#
# number of rings (size 3 to 8) (size 9 to 14) (size 15 to 20)
#    0.000    2.000    2.500    3.000    1.750    0.000 
#   11.250    2.500    0.000    0.000    0.000    0.000 
#    0.000    0.000    0.000    0.000    0.000    0.000 
#
# Total GULP energy -793375.184553 kJ/mol
# GULP energy per Si atom -12396.487259 kJ/mol
# Density = 2.000458 g / cm^3
# Si number density = 20.050218 Si / 1000 Ang^3
#
#
#
# Elastic Constant Matrix: (Units=GPa)
#
#
# Indices 1 2 3 4 5 6 
#
# 1 82.9383 16.4588 33.1514 0.0000 0.0000 0.0000
# 2 16.4588 51.7751 25.2014 0.0000 0.0000 0.0000
# 3 33.1514 25.2014 45.8487 0.0000 0.0000 0.0000
# 4 0.0000 0.0000 0.0000 -3.6129 0.0000 0.0000
# 5 0.0000 0.0000 0.0000 0.0000 37.8017 0.0000
# 6 0.0000 0.0000 0.0000 0.0000 0.0000 26.6346
#
#
#
# Elastic Compliance Matrix: (Units=1/GPa)
#
#
# Indices 1 2 3 4 5 6 
#
# 1 0.016982 0.000790 -0.012713 0.000000 0.000000 0.000000
# 2 0.000790 0.026406 -0.015085 0.000000 0.000000 0.000000
# 3 -0.012713 -0.015085 0.039295 0.000000 0.000000 0.000000
# 4 0.000000 0.000000 0.000000 -0.276784 0.000000 0.000000
# 5 0.000000 0.000000 0.000000 0.000000 0.026454 0.000000
# 6 0.000000 0.000000 0.000000 0.000000 0.000000 0.037545
#
#
# Mechanical properties :
#
#
# Convention : Reuss Voigt Hill
#
# Bulk Modulus (GPa) = 34.88519 36.68728 35.78623
# Shear Modulus (GPa) = -75.15474 19.21473 -27.97001
#
# Velocity S-wave (km/s) = -6.12900 3.09905 -3.73902
# Velocity P-wave (km/s) = 5.71397 5.58058 0.86793
#
# Compressibility (1/GPa) = 0.02866546
#
# Stress axis : x y z
#
# Youngs Moduli (GPa) = 58.88587 37.87007 25.44847
#
# Poissons Ratio (x) = -0.02990 0.32353
# Poissons Ratio (y) = -0.04650 0.38390
# Poissons Ratio (z) = 0.74862 0.57129
#
# Static dielectric constant tensor:
#      x y z
#    x 3.788790 0.000000 0.000000 
#    y 0.000000 3.347090 0.000000 
#    z 0.000000 0.000000 4.174780 
# 
# 
# High freq. dielectric constant tensor:
#      x y z
#    x 1.786150 0.000000 0.000000 
#    y 0.000000 1.748600 0.000000 
#    z 0.000000 0.000000 1.795740 
# 
# From -- ./inp_files/10188.got.cif
#   From: 2010.03.12/outbox.cif.g09.slc.cpg/sg61_6_cif.got.tgz:10188.got - 2010.04.10 19:05:03.
