data_PCOD8249224
_publ_section_title
;
Structure prediction by ZEFSAII (Michael W. Deem and Ramdas Pophale) SiO2 
 PCOD8249224
Probable space group: P B C A
;
_chemical_formula_sum "Si O2"
_cell_formula_units_Z 48
_cell_length_a 19.594702
_cell_length_b 19.450404
_cell_length_c 5.326320
_cell_angle_alpha 90.000000
_cell_angle_beta 90.000000
_cell_angle_gamma 90.000000
_cell_volume 2029.993018
_symmetry_space_group_name_H-M "P B C A"
_symmetry_group_IT_number 61
_symmetry_cell_setting 'orthorhombic'
loop_
_space_group_symop_operation_xyz
x,y,z
1/2-x,-y,1/2+z
1/2+x,1/2-y,-z
-x,1/2+y,1/2-z
-x,-y,-z
1/2+x,y,1/2-z
1/2-x,1/2+y,z
x,1/2-y,1/2+z
loop_
_atom_site_type_symbol
_atom_site_label
_atom_site_fract_x
_atom_site_fract_y
_atom_site_fract_z
Si Si1 0.047188 0.410457 0.431362
Si Si2 0.151209 0.710855 0.219986
Si Si3 0.292234 0.422609 0.892133
Si Si4 0.490418 0.789440 0.751441
Si Si5 0.843261 0.548877 0.887011
Si Si6 0.910791 0.041712 0.785841
O O1 0.111425 0.392273 0.251091
O O2 0.066149 0.488746 0.498833
O O3 0.044496 0.362252 0.678207
O O4 0.975767 0.405783 0.271445
O O5 0.175768 0.748069 0.474820
O O6 0.186077 0.636016 0.195168
O O7 0.070803 0.699721 0.237841
O O8 0.297926 0.500218 0.791734
O O9 0.212152 0.410341 0.947976
O O10 0.343387 0.415874 0.132005
O O11 0.467295 0.737552 0.525030
O O12 0.896394 0.499051 0.031854
#
# Coordination Sequence:
#
# PCOD8249224 Si02
#       6
#     8   8   8   8   8   8
#     4  10  22  39  60  95 125 159 214 266 323 392
#     4  10  23  41  64  93 125 174 221 264 312 383
#     4  11  22  39  63  93 129 166 217 264 323 389
#     4  10  22  39  64  90 124 171 217 266 317 382
#     4  11  23  37  64  95 127 169 204 272 334 385
#     4  10  21  39  62  93 125 160 206 265 329 374
#
# _framework density 23.645399999999999
#
# number of rings (size 3 to 8) (size 9 to 14) (size 15 to 20)
#    0.000    1.667    3.333    0.500    4.667    1.333 
#    0.000    1.667    0.000    0.000    0.000    0.000 
#    0.000    0.000    0.000    0.000    0.000    0.000 
#
# Total GULP energy -594950.487795 kJ/mol
# GULP energy per Si atom -12394.801829 kJ/mol
# Density = 2.359158 g / cm^3
# Si number density = 23.645400 Si / 1000 Ang^3
#
#
#
# Elastic Constant Matrix: (Units=GPa)
#
#
# Indices 1 2 3 4 5 6 
#
# 1 86.5013 3.5794 10.7439 0.0000 0.0000 0.0000
# 2 3.5794 50.5255 -15.6082 0.0000 0.0000 0.0000
# 3 10.7439 -15.6082 62.9405 0.0000 0.0000 0.0000
# 4 0.0000 0.0000 0.0000 30.3679 0.0000 0.0000
# 5 0.0000 0.0000 0.0000 0.0000 18.2380 0.0000
# 6 0.0000 0.0000 0.0000 0.0000 0.0000 21.5014
#
#
#
# Elastic Compliance Matrix: (Units=1/GPa)
#
#
# Indices 1 2 3 4 5 6 
#
# 1 0.011929 -0.001596 -0.002432 0.000000 0.000000 0.000000
# 2 -0.001596 0.021648 0.005641 0.000000 0.000000 0.000000
# 3 -0.002432 0.005641 0.017702 0.000000 0.000000 0.000000
# 4 0.000000 0.000000 0.000000 0.032930 0.000000 0.000000
# 5 0.000000 0.000000 0.000000 0.000000 0.054831 0.000000
# 6 0.000000 0.000000 0.000000 0.000000 0.000000 0.046509
#
#
# Mechanical properties :
#
#
# Convention : Reuss Voigt Hill
#
# Bulk Modulus (GPa) = 18.34769 21.93306 20.14038
# Shear Modulus (GPa) = 24.93888 27.43825 26.18856
#
# Velocity S-wave (km/s) = 3.25114 3.41017 3.33160
# Velocity P-wave (km/s) = 4.67649 4.98012 4.83069
#
# Compressibility (1/GPa) = 0.05450276
#
# Stress axis : x y z
#
# Youngs Moduli (GPa) = 83.83174 46.19450 56.49087
#
# Poissons Ratio (x) = 0.07374 0.13739
# Poissons Ratio (y) = 0.13383 -0.31865
# Poissons Ratio (z) = 0.20389 -0.26057
#
# Static dielectric constant tensor:
#      x y z
#    x 4.302300 0.000000 0.000000 
#    y 0.000000 4.017380 0.000000 
#    z 0.000000 0.000000 4.214270 
# 
# 
# High freq. dielectric constant tensor:
#      x y z
#    x 1.924720 0.000000 0.000000 
#    y 0.000000 1.911630 0.000000 
#    z 0.000000 0.000000 1.933470 
# 
# From -- ./inp_files/980.got.cif
#   From: 2010.03.12/outbox.cif.g09.slc.cpg/sg61_1_cif.got.tgz:980.got - 2010.04.10 19:05:03.
