data_PCOD8249187
_publ_section_title
;
Structure prediction by ZEFSAII (Michael W. Deem and Ramdas Pophale) SiO2 
 PCOD8249187
Probable space group: P B C A
;
_chemical_formula_sum "Si O2"
_cell_formula_units_Z 48
_cell_length_a 15.036806
_cell_length_b 18.554523
_cell_length_c 8.568105
_cell_angle_alpha 90.000000
_cell_angle_beta 90.000000
_cell_angle_gamma 90.000000
_cell_volume 2390.507831
_symmetry_space_group_name_H-M "P B C A"
_symmetry_group_IT_number 61
_symmetry_cell_setting 'orthorhombic'
loop_
_space_group_symop_operation_xyz
x,y,z
1/2-x,-y,1/2+z
1/2+x,1/2-y,-z
-x,1/2+y,1/2-z
-x,-y,-z
1/2+x,y,1/2-z
1/2-x,1/2+y,z
x,1/2-y,1/2+z
loop_
_atom_site_type_symbol
_atom_site_label
_atom_site_fract_x
_atom_site_fract_y
_atom_site_fract_z
Si Si1 0.247898 0.924229 0.438616
Si Si2 0.765732 0.576672 0.924061
Si Si3 0.093766 0.185991 0.439284
Si Si4 0.407275 0.337877 0.047534
Si Si5 0.593587 0.686446 0.589904
Si Si6 0.404771 0.839956 0.574414
O O1 0.276508 0.929778 0.260247
O O2 0.169203 0.867804 0.466489
O O3 0.332809 0.901321 0.540415
O O4 0.212736 0.000921 0.496594
O O5 0.666536 0.600763 0.971349
O O6 0.835364 0.634630 0.982057
O O7 0.095106 0.177955 0.255272
O O8 0.119153 0.268106 0.478277
O O9 0.996968 0.165270 0.503148
O O10 0.422723 0.316264 0.226229
O O11 0.376237 0.267140 0.953303
O O12 0.498591 0.369200 0.976926
#
# Coordination Sequence:
#
# PCOD8249187 Si02
#       6
#     8   8   8   8   8   8
#     4  11  24  40  59  85 118 155 194 237 288 345
#     4  11  24  40  59  85 118 155 194 237 288 345
#     4  11  22  38  62  88 116 151 191 238 287 339
#     4  10  21  38  61  87 114 148 191 238 286 338
#     4  10  21  38  61  87 114 148 191 238 286 338
#     4  11  22  38  62  88 116 151 191 238 287 339
#
# _framework density 20.079416999999999
#
# number of rings (size 3 to 8) (size 9 to 14) (size 15 to 20)
#    0.000    1.333    0.000    8.000    0.000    9.333 
#    0.000    0.000    0.000    0.000    0.000    0.000 
#    0.000    0.000    0.000    0.000    0.000    0.000 
#
# Total GULP energy -595508.950738 kJ/mol
# GULP energy per Si atom -12406.436474 kJ/mol
# Density = 2.003372 g / cm^3
# Si number density = 20.079417 Si / 1000 Ang^3
#
#
#
# Elastic Constant Matrix: (Units=GPa)
#
#
# Indices 1 2 3 4 5 6 
#
# 1 69.1976 19.9910 20.2596 0.0000 0.0000 0.0000
# 2 19.9910 41.1762 -2.0563 0.0000 0.0000 0.0000
# 3 20.2596 -2.0563 94.8796 0.0000 0.0000 0.0000
# 4 0.0000 0.0000 0.0000 32.1485 0.0000 0.0000
# 5 0.0000 0.0000 0.0000 0.0000 151.0524 0.0000
# 6 0.0000 0.0000 0.0000 0.0000 0.0000 45.8586
#
#
#
# Elastic Compliance Matrix: (Units=1/GPa)
#
#
# Indices 1 2 3 4 5 6 
#
# 1 0.018274 -0.009076 -0.004099 0.000000 0.000000 0.000000
# 2 -0.009076 0.028820 0.002563 0.000000 0.000000 0.000000
# 3 -0.004099 0.002563 0.011470 0.000000 0.000000 0.000000
# 4 0.000000 0.000000 0.000000 0.031106 0.000000 0.000000
# 5 0.000000 0.000000 0.000000 0.000000 0.006620 0.000000
# 6 0.000000 0.000000 0.000000 0.000000 0.000000 0.021806
#
#
# Mechanical properties :
#
#
# Convention : Reuss Voigt Hill
#
# Bulk Modulus (GPa) = 26.78121 31.29355 29.03738
# Shear Modulus (GPa) = 32.94508 56.94917 44.94713
#
# Velocity S-wave (km/s) = 4.05500 5.33137 4.73638
# Velocity P-wave (km/s) = 5.94059 7.31552 6.66361
#
# Compressibility (1/GPa) = 0.03733961
#
# Stress axis : x y z
#
# Youngs Moduli (GPa) = 54.72402 34.69756 87.18097
#
# Poissons Ratio (x) = 0.31493 0.35732
# Poissons Ratio (y) = 0.49670 -0.22342
# Poissons Ratio (z) = 0.22429 -0.08892
#
# Static dielectric constant tensor:
#      x y z
#    x 3.713880 0.000000 0.000000 
#    y 0.000000 3.397720 0.000000 
#    z 0.000000 0.000000 3.812890 
# 
# 
# High freq. dielectric constant tensor:
#      x y z
#    x 1.795120 0.000000 0.000000 
#    y 0.000000 1.777220 0.000000 
#    z 0.000000 0.000000 1.803530 
# 
# From -- ./inp_files/2873.got.cif
#   From: 2010.03.12/outbox.cif.g09.slc.cpg/sg61_2_cif.got.tgz:2873.got - 2010.04.10 19:05:03.
