data_PCOD8249920
_publ_section_title
;
Structure prediction by ZEFSAII (Michael W. Deem and Ramdas Pophale) SiO2 
 PCOD8249920
Probable space group: P B C A
;
_chemical_formula_sum "Si O2"
_cell_formula_units_Z 48
_cell_length_a 10.848196
_cell_length_b 13.135392
_cell_length_c 14.125334
_cell_angle_alpha 90.000000
_cell_angle_beta 90.000000
_cell_angle_gamma 90.000000
_cell_volume 2012.793804
_symmetry_space_group_name_H-M "P B C A"
_symmetry_group_IT_number 61
_symmetry_cell_setting 'orthorhombic'
loop_
_space_group_symop_operation_xyz
x,y,z
1/2-x,-y,1/2+z
1/2+x,1/2-y,-z
-x,1/2+y,1/2-z
-x,-y,-z
1/2+x,y,1/2-z
1/2-x,1/2+y,z
x,1/2-y,1/2+z
loop_
_atom_site_type_symbol
_atom_site_label
_atom_site_fract_x
_atom_site_fract_y
_atom_site_fract_z
Si Si1 0.255154 0.519721 0.362115
Si Si2 0.241724 0.886848 0.190997
Si Si3 0.611009 0.795749 0.716194
Si Si4 0.996570 0.110471 0.389959
Si Si5 0.074987 0.267899 0.067561
Si Si6 0.780885 0.557281 0.440512
O O1 0.212845 0.430888 0.291114
O O2 0.218034 0.629143 0.319537
O O3 0.402136 0.520258 0.383816
O O4 0.185715 0.493308 0.459172
O O5 0.161421 0.788422 0.211665
O O6 0.353894 0.857284 0.122366
O O7 0.166964 0.978051 0.138168
O O8 0.510461 0.851264 0.781493
O O9 0.552910 0.748495 0.622135
O O10 0.046242 0.198176 0.460709
O O11 0.865911 0.068799 0.425399
O O12 0.153863 0.165150 0.068486
#
# Coordination Sequence:
#
# PCOD8249920 Si02
#       6
#     8   8   8   8   8   8
#     4  12  28  47  78 109 150 198 253 312 376 450
#     4  12  25  49  76 110 152 190 251 308 375 454
#     4  12  28  48  76 113 151 198 252 311 382 453
#     4  12  26  52  76 108 157 196 252 314 381 451
#     4  12  29  48  77 111 151 203 250 315 382 446
#     4  12  27  50  76 116 147 197 259 308 377 456
#
# _framework density 23.847449999999998
#
# number of rings (size 3 to 8) (size 9 to 14) (size 15 to 20)
#    0.000    0.000    5.000    3.500   11.667    2.000 
#    0.000    0.000    0.000    0.000    0.000    0.000 
#    0.000    0.000    0.000    0.000    0.000    0.000 
#
# Total GULP energy -595292.981033 kJ/mol
# GULP energy per Si atom -12401.937105 kJ/mol
# Density = 2.379317 g / cm^3
# Si number density = 23.847450 Si / 1000 Ang^3
#
#
#
# Elastic Constant Matrix: (Units=GPa)
#
#
# Indices 1 2 3 4 5 6 
#
# 1 59.9654 19.1410 16.3771 0.0000 0.0000 0.0000
# 2 19.1410 106.9241 31.9108 0.0000 0.0000 0.0000
# 3 16.3771 31.9108 131.3949 0.0000 0.0000 0.0000
# 4 0.0000 0.0000 0.0000 49.4034 0.0000 0.0000
# 5 0.0000 0.0000 0.0000 0.0000 34.4397 0.0000
# 6 0.0000 0.0000 0.0000 0.0000 0.0000 14.0106
#
#
#
# Elastic Compliance Matrix: (Units=1/GPa)
#
#
# Indices 1 2 3 4 5 6 
#
# 1 0.017984 -0.002750 -0.001574 0.000000 0.000000 0.000000
# 2 -0.002750 0.010504 -0.002208 0.000000 0.000000 0.000000
# 3 -0.001574 -0.002208 0.008343 0.000000 0.000000 0.000000
# 4 0.000000 0.000000 0.000000 0.020242 0.000000 0.000000
# 5 0.000000 0.000000 0.000000 0.000000 0.029036 0.000000
# 6 0.000000 0.000000 0.000000 0.000000 0.000000 0.071375
#
#
# Mechanical properties :
#
#
# Convention : Reuss Voigt Hill
#
# Bulk Modulus (GPa) = 42.07460 48.12692 45.10076
# Shear Modulus (GPa) = 28.01611 34.96109 31.48860
#
# Velocity S-wave (km/s) = 3.43126 3.83303 3.63770
# Velocity P-wave (km/s) = 5.77751 6.30987 6.04955
#
# Compressibility (1/GPa) = 0.02376731
#
# Stress axis : x y z
#
# Youngs Moduli (GPa) = 55.60562 95.20459 119.85971
#
# Poissons Ratio (x) = 0.26178 0.18862
# Poissons Ratio (y) = 0.15290 0.26468
# Poissons Ratio (z) = 0.08751 0.21023
#
# Static dielectric constant tensor:
#      x y z
#    x 4.009460 0.000000 0.000000 
#    y 0.000000 4.446000 0.000000 
#    z 0.000000 0.000000 4.617420 
# 
# 
# High freq. dielectric constant tensor:
#      x y z
#    x 1.922560 0.000000 0.000000 
#    y 0.000000 1.959530 0.000000 
#    z 0.000000 0.000000 1.971650 
# 
# From -- ./inp_files/7480.got.cif
#   From: 2010.03.12/outbox.cif.g09.slc.cpg/sg61_4_cif.got.tgz:7480.got - 2010.04.10 19:05:03.
