data_PCOD8249263
_publ_section_title
;
Structure prediction by ZEFSAII (Michael W. Deem and Ramdas Pophale) SiO2 
 PCOD8249263
Probable space group: P B C A
;
_chemical_formula_sum "Si O2"
_cell_formula_units_Z 64
_cell_length_a 17.652792
_cell_length_b 19.922708
_cell_length_c 9.360085
_cell_angle_alpha 90.000000
_cell_angle_beta 90.000000
_cell_angle_gamma 90.000000
_cell_volume 3291.861589
_symmetry_space_group_name_H-M "P B C A"
_symmetry_group_IT_number 61
_symmetry_cell_setting 'orthorhombic'
loop_
_space_group_symop_operation_xyz
x,y,z
1/2-x,-y,1/2+z
1/2+x,1/2-y,-z
-x,1/2+y,1/2-z
-x,-y,-z
1/2+x,y,1/2-z
1/2-x,1/2+y,z
x,1/2-y,1/2+z
loop_
_atom_site_type_symbol
_atom_site_label
_atom_site_fract_x
_atom_site_fract_y
_atom_site_fract_z
Si Si1 0.923713 0.125025 0.264472
Si Si2 0.549800 0.731476 0.847738
Si Si3 0.838364 0.134471 0.978082
Si Si4 0.404646 0.618198 0.199689
Si Si5 0.328402 0.000797 0.180729
Si Si6 0.944582 0.754204 0.406201
Si Si7 0.338738 0.625793 0.500056
Si Si8 0.177148 0.014711 0.017044
O O1 0.926710 0.190138 0.366827
O O2 0.007311 0.102333 0.220200
O O3 0.888412 0.060449 0.340900
O O4 0.873356 0.149688 0.131938
O O5 0.623196 0.683759 0.862431
O O6 0.509706 0.716554 0.697011
O O7 0.487418 0.715228 0.967223
O O8 0.748489 0.147190 0.983133
O O9 0.855959 0.057522 0.934797
O O10 0.393044 0.697570 0.169778
O O11 0.355222 0.600237 0.339515
O O12 0.379002 0.573498 0.065132
O O13 0.360426 0.933472 0.108883
O O14 0.310705 0.985290 0.346482
O O15 0.255627 0.027047 0.096737
O O16 0.891403 0.811806 0.464958
#
# Coordination Sequence:
#
# PCOD8249263 Si02
#       8
#     8   8   8   8   8   8   8   8
#     4  10  21  40  63  90 122 166 200 255 312 364
#     4  11  21  44  62  88 123 161 206 255 308 369
#     4  10  22  41  63  88 125 160 208 252 307 371
#     4  11  22  40  64  90 126 163 203 258 312 367
#     4  10  23  41  62  89 125 161 210 257 313 372
#     4  11  23  42  64  88 127 161 203 261 309 368
#     4  11  24  42  62  94 126 163 209 261 309 374
#     4  10  22  41  62  89 124 164 205 263 310 371
#
# _framework density 19.441886
#
# number of rings (size 3 to 8) (size 9 to 14) (size 15 to 20)
#    0.000    1.500    5.000    2.250    1.750    5.500 
#    6.750    0.000    0.000    0.000    0.000    0.000 
#    0.000    0.000    0.000    0.000    0.000    0.000 
#
# Total GULP energy -793605.871053 kJ/mol
# GULP energy per Si atom -12400.091735 kJ/mol
# Density = 1.939764 g / cm^3
# Si number density = 19.441886 Si / 1000 Ang^3
#
#
#
# Elastic Constant Matrix: (Units=GPa)
#
#
# Indices 1 2 3 4 5 6 
#
# 1 76.2652 38.7683 27.1200 0.0000 0.0000 0.0000
# 2 38.7683 74.1808 30.2999 0.0000 0.0000 0.0000
# 3 27.1200 30.2999 85.1668 0.0000 0.0000 0.0000
# 4 0.0000 0.0000 0.0000 34.2695 0.0000 0.0000
# 5 0.0000 0.0000 0.0000 0.0000 37.3327 0.0000
# 6 0.0000 0.0000 0.0000 0.0000 0.0000 38.8159
#
#
#
# Elastic Compliance Matrix: (Units=1/GPa)
#
#
# Indices 1 2 3 4 5 6 
#
# 1 0.018432 -0.008466 -0.002857 0.000000 0.000000 0.000000
# 2 -0.008466 0.019661 -0.004299 0.000000 0.000000 0.000000
# 3 -0.002857 -0.004299 0.014181 0.000000 0.000000 0.000000
# 4 0.000000 0.000000 0.000000 0.029180 0.000000 0.000000
# 5 0.000000 0.000000 0.000000 0.000000 0.026786 0.000000
# 6 0.000000 0.000000 0.000000 0.000000 0.000000 0.025763
#
#
# Mechanical properties :
#
#
# Convention : Reuss Voigt Hill
#
# Bulk Modulus (GPa) = 47.55250 47.55437 47.55344
# Shear Modulus (GPa) = 29.02648 31.37860 30.20254
#
# Velocity S-wave (km/s) = 3.86811 4.02178 3.94569
# Velocity P-wave (km/s) = 6.66795 6.78816 6.72833
#
# Compressibility (1/GPa) = 0.02102939
#
# Stress axis : x y z
#
# Youngs Moduli (GPa) = 54.25471 50.86261 70.51659
#
# Poissons Ratio (x) = 0.43058 0.20150
# Poissons Ratio (y) = 0.45929 0.30315
# Poissons Ratio (z) = 0.15503 0.21866
#
# Static dielectric constant tensor:
#      x y z
#    x 3.588760 0.000000 0.000000 
#    y 0.000000 3.595980 0.000000 
#    z 0.000000 0.000000 3.648450 
# 
# 
# High freq. dielectric constant tensor:
#      x y z
#    x 1.758470 0.000000 0.000000 
#    y 0.000000 1.760780 0.000000 
#    z 0.000000 0.000000 1.758500 
# 
# From -- ./inp_files/3712.got.cif
#   From: 2010.03.12/outbox.cif.g09.slc.cpg/sg61_2_cif.got.tgz:3712.got - 2010.04.10 19:05:03.
