data_PCOD8249395
_publ_section_title
;
Structure prediction by ZEFSAII (Michael W. Deem and Ramdas Pophale) SiO2 
 PCOD8249395
Probable space group: P B C A
;
_chemical_formula_sum "Si O2"
_cell_formula_units_Z 56
_cell_length_a 12.838413
_cell_length_b 13.708922
_cell_length_c 16.232978
_cell_angle_alpha 90.000000
_cell_angle_beta 90.000000
_cell_angle_gamma 90.000000
_cell_volume 2857.017154
_symmetry_space_group_name_H-M "P B C A"
_symmetry_group_IT_number 61
_symmetry_cell_setting 'orthorhombic'
loop_
_space_group_symop_operation_xyz
x,y,z
1/2-x,-y,1/2+z
1/2+x,1/2-y,-z
-x,1/2+y,1/2-z
-x,-y,-z
1/2+x,y,1/2-z
1/2-x,1/2+y,z
x,1/2-y,1/2+z
loop_
_atom_site_type_symbol
_atom_site_label
_atom_site_fract_x
_atom_site_fract_y
_atom_site_fract_z
Si Si1 0.240682 0.403273 0.324504
Si Si2 0.791195 0.576223 0.408275
Si Si3 0.771575 0.275496 0.036305
Si Si4 0.321520 0.061402 0.442333
Si Si5 0.501098 0.383835 0.823729
Si Si6 0.103803 0.014797 0.689226
Si Si7 0.052606 0.830526 0.354343
O O1 0.200518 0.319649 0.388995
O O2 0.247868 0.505379 0.374634
O O3 0.162458 0.409959 0.249354
O O4 0.356973 0.374227 0.293568
O O5 0.766198 0.680711 0.449755
O O6 0.834704 0.500192 0.474832
O O7 0.684648 0.540607 0.367973
O O8 0.878317 0.589408 0.338356
O O9 0.760046 0.159620 0.033925
O O10 0.892162 0.307220 0.057151
O O11 0.434494 0.082427 0.403065
O O12 0.462757 0.436035 0.740505
O O13 0.492326 0.267241 0.812842
O O14 0.033014 0.085276 0.633088
#
# Coordination Sequence:
#
# PCOD8249395 Si02
#       7
#     8   8   8   8   8   8   8
#     4   8  18  38  59  80 114 156 192 232 296 342
#     4  11  22  36  62  90 113 155 201 240 298 351
#     4   8  19  39  58  84 117 152 194 241 289 343
#     4   9  18  40  63  83 115 155 192 246 286 349
#     4  10  22  40  60  84 123 154 197 239 297 355
#     4  11  22  37  58  91 119 154 196 243 294 352
#     4   9  20  40  58  81 120 153 194 245 287 346
#
# _framework density 19.600863
#
# number of rings (size 3 to 8) (size 9 to 14) (size 15 to 20)
#    0.857    1.714    0.000    1.286    2.000    1.714 
#    5.143    0.000    0.000    0.000    0.000    0.000 
#    0.000    0.000    0.000    0.000    0.000    0.000 
#
# Total GULP energy -693927.175017 kJ/mol
# GULP energy per Si atom -12391.556697 kJ/mol
# Density = 1.955625 g / cm^3
# Si number density = 19.600863 Si / 1000 Ang^3
#
#
#
# Elastic Constant Matrix: (Units=GPa)
#
#
# Indices 1 2 3 4 5 6 
#
# 1 60.8827 35.0538 14.6404 0.0000 0.0000 0.0000
# 2 35.0538 116.7382 15.1883 0.0000 0.0000 0.0000
# 3 14.6404 15.1883 47.4059 0.0000 0.0000 0.0000
# 4 0.0000 0.0000 0.0000 14.2311 0.0000 0.0000
# 5 0.0000 0.0000 0.0000 0.0000 24.9628 0.0000
# 6 0.0000 0.0000 0.0000 0.0000 0.0000 33.7308
#
#
#
# Elastic Compliance Matrix: (Units=1/GPa)
#
#
# Indices 1 2 3 4 5 6 
#
# 1 0.020781 -0.005640 -0.004611 0.000000 0.000000 0.000000
# 2 -0.005640 0.010470 -0.001612 0.000000 0.000000 0.000000
# 3 -0.004611 -0.001612 0.023035 0.000000 0.000000 0.000000
# 4 0.000000 0.000000 0.000000 0.070269 0.000000 0.000000
# 5 0.000000 0.000000 0.000000 0.000000 0.040060 0.000000
# 6 0.000000 0.000000 0.000000 0.000000 0.000000 0.029647
#
#
# Mechanical properties :
#
#
# Convention : Reuss Voigt Hill
#
# Bulk Modulus (GPa) = 32.72380 39.42131 36.07256
# Shear Modulus (GPa) = 21.91314 25.26123 23.58719
#
# Velocity S-wave (km/s) = 3.34723 3.59386 3.47273
# Velocity P-wave (km/s) = 5.62760 6.11365 5.87566
#
# Compressibility (1/GPa) = 0.03055880
#
# Stress axis : x y z
#
# Youngs Moduli (GPa) = 48.12044 95.51467 43.41227
#
# Poissons Ratio (x) = 0.53872 0.20016
# Poissons Ratio (y) = 0.27141 0.07000
# Poissons Ratio (z) = 0.22187 0.15401
#
# Static dielectric constant tensor:
#      x y z
#    x 3.402080 0.000000 0.000000 
#    y 0.000000 3.661180 0.000000 
#    z 0.000000 0.000000 3.289100 
# 
# 
# High freq. dielectric constant tensor:
#      x y z
#    x 1.750350 0.000000 0.000000 
#    y 0.000000 1.774790 0.000000 
#    z 0.000000 0.000000 1.736580 
# 
# From -- ./inp_files/9569.got.cif
#   From: 2010.03.12/outbox.cif.g09.slc.cpg/sg61_5_cif.got.tgz:9569.got - 2010.04.10 19:05:03.
