data_PCOD8249834
_publ_section_title
;
Structure prediction by ZEFSAII (Michael W. Deem and Ramdas Pophale) SiO2 
 PCOD8249834
Probable space group: P B C A
;
_chemical_formula_sum "Si O2"
_cell_formula_units_Z 48
_cell_length_a 9.136177
_cell_length_b 8.795437
_cell_length_c 26.887690
_cell_angle_alpha 90.000000
_cell_angle_beta 90.000000
_cell_angle_gamma 90.000000
_cell_volume 2160.605212
_symmetry_space_group_name_H-M "P B C A"
_symmetry_group_IT_number 61
_symmetry_cell_setting 'orthorhombic'
loop_
_space_group_symop_operation_xyz
x,y,z
1/2-x,-y,1/2+z
1/2+x,1/2-y,-z
-x,1/2+y,1/2-z
-x,-y,-z
1/2+x,y,1/2-z
1/2-x,1/2+y,z
x,1/2-y,1/2+z
loop_
_atom_site_type_symbol
_atom_site_label
_atom_site_fract_x
_atom_site_fract_y
_atom_site_fract_z
Si Si1 0.131886 0.246048 0.719545
Si Si2 0.071727 0.829400 0.869163
Si Si3 0.353886 0.912345 0.994716
Si Si4 0.352440 0.987632 0.882668
Si Si5 0.603769 0.414687 0.963644
Si Si6 0.438939 0.099219 0.201676
O O1 0.300196 0.286652 0.705439
O O2 0.023735 0.312606 0.679188
O O3 0.078033 0.327554 0.769925
O O4 0.113068 0.063755 0.723338
O O5 0.204511 0.941392 0.853296
O O6 0.134788 0.668450 0.888021
O O7 0.964814 0.904205 0.909483
O O8 0.313440 0.916570 0.936586
O O9 0.363432 0.742478 0.011020
O O10 0.500000 0.000000 0.000000
O O11 0.251318 0.989128 0.036213
O O12 0.498345 0.921915 0.854961
O O13 0.500000 0.500000 0.000000
#
# Coordination Sequence:
#
# PCOD8249834 Si02
#       6
#     8   8   8   8   8   8
#     4  11  25  45  70 102 134 175 221 280 333 407
#     4  11  25  43  67  98 135 178 228 274 340 396
#     4  12  24  43  67  95 139 176 226 279 332 395
#     4  11  24  45  66  99 135 180 226 279 337 400
#     4  12  25  44  65  99 133 181 227 275 335 400
#     4  11  25  46  71 101 138 175 226 276 342 399
#
# _framework density 22.215997999999999
#
# number of rings (size 3 to 8) (size 9 to 14) (size 15 to 20)
#    0.000    0.667    3.333    4.000    2.333    5.333 
#    0.000    0.000    0.000    0.000    0.000    0.000 
#    0.000    0.000    0.000    0.000    0.000    0.000 
#
# Total GULP energy -595011.643094 kJ/mol
# GULP energy per Si atom -12396.075898 kJ/mol
# Density = 2.216543 g / cm^3
# Si number density = 22.215998 Si / 1000 Ang^3
#
#
#
# Elastic Constant Matrix: (Units=GPa)
#
#
# Indices 1 2 3 4 5 6 
#
# 1 125.6516 36.3295 7.2494 0.0000 0.0000 0.0000
# 2 36.3295 118.0786 16.5706 0.0000 0.0000 0.0000
# 3 7.2494 16.5706 53.9361 0.0000 0.0000 0.0000
# 4 0.0000 0.0000 0.0000 31.4450 0.0000 0.0000
# 5 0.0000 0.0000 0.0000 0.0000 43.9642 0.0000
# 6 0.0000 0.0000 0.0000 0.0000 0.0000 41.2415
#
#
#
# Elastic Compliance Matrix: (Units=1/GPa)
#
#
# Indices 1 2 3 4 5 6 
#
# 1 0.008742 -0.002639 -0.000364 0.000000 0.000000 0.000000
# 2 -0.002639 0.009647 -0.002609 0.000000 0.000000 0.000000
# 3 -0.000364 -0.002609 0.019391 0.000000 0.000000 0.000000
# 4 0.000000 0.000000 0.000000 0.031802 0.000000 0.000000
# 5 0.000000 0.000000 0.000000 0.000000 0.022746 0.000000
# 6 0.000000 0.000000 0.000000 0.000000 0.000000 0.024247
#
#
# Mechanical properties :
#
#
# Convention : Reuss Voigt Hill
#
# Bulk Modulus (GPa) = 37.65621 46.44058 42.04839
# Shear Modulus (GPa) = 36.58940 39.16459 37.87699
#
# Velocity S-wave (km/s) = 4.06271 4.20325 4.13357
# Velocity P-wave (km/s) = 6.24454 6.67127 6.46143
#
# Compressibility (1/GPa) = 0.02655604
#
# Stress axis : x y z
#
# Youngs Moduli (GPa) = 114.38441 103.65986 51.57023
#
# Poissons Ratio (x) = 0.27352 0.01879
# Poissons Ratio (y) = 0.30182 0.13455
# Poissons Ratio (z) = 0.04168 0.27046
#
# Static dielectric constant tensor:
#      x y z
#    x 4.252730 0.000000 0.000000 
#    y 0.000000 4.184270 0.000000 
#    z 0.000000 0.000000 4.455340 
# 
# 
# High freq. dielectric constant tensor:
#      x y z
#    x 1.892810 0.000000 0.000000 
#    y 0.000000 1.886640 0.000000 
#    z 0.000000 0.000000 1.875910 
# 
# From -- ./inp_files/11682.got.cif
#   From: 2010.03.12/outbox.cif.g09.slc.cpg/sg61_6_cif.got.tgz:11682.got - 2010.04.10 19:05:03.
