data_PCOD8249567
_publ_section_title
;
Structure prediction by ZEFSAII (Michael W. Deem and Ramdas Pophale) SiO2 
 PCOD8249567
Probable space group: P B C A
;
_chemical_formula_sum "Si O2"
_cell_formula_units_Z 32
_cell_length_a 20.195756
_cell_length_b 5.174144
_cell_length_c 12.864938
_cell_angle_alpha 90.000000
_cell_angle_beta 90.000000
_cell_angle_gamma 90.000000
_cell_volume 1344.331342
_symmetry_space_group_name_H-M "P B C A"
_symmetry_group_IT_number 61
_symmetry_cell_setting 'orthorhombic'
loop_
_space_group_symop_operation_xyz
x,y,z
1/2-x,-y,1/2+z
1/2+x,1/2-y,-z
-x,1/2+y,1/2-z
-x,-y,-z
1/2+x,y,1/2-z
1/2-x,1/2+y,z
x,1/2-y,1/2+z
loop_
_atom_site_type_symbol
_atom_site_label
_atom_site_fract_x
_atom_site_fract_y
_atom_site_fract_z
Si Si1 0.068013 0.624305 0.614174
Si Si2 0.387860 0.296297 0.897251
Si Si3 0.792000 0.246682 0.430645
Si Si4 0.935430 0.783141 0.709325
O O1 0.058810 0.624296 0.488817
O O2 0.141678 0.736593 0.640227
O O3 0.064730 0.336127 0.665900
O O4 0.011915 0.790220 0.672507
O O5 0.394816 0.523000 0.812921
O O6 0.400819 0.020012 0.848688
O O7 0.314603 0.281825 0.948345
O O8 0.740521 0.472863 0.405046
#
# Coordination Sequence:
#
# PCOD8249567 Si02
#       4
#     8   8   8   8
#     4  10  26  40  72  96 141 164 217 279 327 398
#     4  10  25  40  70  91 137 172 211 275 328 382
#     4  10  23  44  65  91 132 179 219 266 324 386
#     4  12  22  44  65 108 125 171 221 267 347 386
#
# _framework density 23.803653000000001
#
# number of rings (size 3 to 8) (size 9 to 14) (size 15 to 20)
#    1.500    0.000    0.000    4.500    0.000   10.000 
#    0.000    7.500    0.000    0.000    0.000    0.000 
#    0.000    0.000    0.000    0.000    0.000    0.000 
#
# Total GULP energy -396481.348894 kJ/mol
# GULP energy per Si atom -12390.042153 kJ/mol
# Density = 2.374947 g / cm^3
# Si number density = 23.803653 Si / 1000 Ang^3
#
#
#
# Elastic Constant Matrix: (Units=GPa)
#
#
# Indices 1 2 3 4 5 6 
#
# 1 73.9861 39.8473 -15.4109 0.0000 0.0000 0.0000
# 2 39.8473 82.0169 2.6080 0.0000 0.0000 0.0000
# 3 -15.4109 2.6080 54.6906 0.0000 0.0000 0.0000
# 4 0.0000 0.0000 0.0000 41.6083 0.0000 0.0000
# 5 0.0000 0.0000 0.0000 0.0000 29.1776 0.0000
# 6 0.0000 0.0000 0.0000 0.0000 0.0000 36.6556
#
#
#
# Elastic Compliance Matrix: (Units=1/GPa)
#
#
# Indices 1 2 3 4 5 6 
#
# 1 0.020189 -0.010005 0.006166 0.000000 0.000000 0.000000
# 2 -0.010005 0.017169 -0.003638 0.000000 0.000000 0.000000
# 3 0.006166 -0.003638 0.020196 0.000000 0.000000 0.000000
# 4 0.000000 0.000000 0.000000 0.024034 0.000000 0.000000
# 5 0.000000 0.000000 0.000000 0.000000 0.034273 0.000000
# 6 0.000000 0.000000 0.000000 0.000000 0.000000 0.027281
#
#
# Mechanical properties :
#
#
# Convention : Reuss Voigt Hill
#
# Bulk Modulus (GPa) = 23.47411 29.42026 26.44718
# Shear Modulus (GPa) = 29.02024 33.73160 31.37592
#
# Velocity S-wave (km/s) = 3.49542 3.76849 3.63452
# Velocity P-wave (km/s) = 5.11601 5.59658 5.36169
#
# Compressibility (1/GPa) = 0.04260013
#
# Stress axis : x y z
#
# Youngs Moduli (GPa) = 49.53294 58.24478 49.51575
#
# Poissons Ratio (x) = 0.58271 -0.30531
# Poissons Ratio (y) = 0.49555 0.18013
# Poissons Ratio (z) = -0.30541 0.21189
#
# Static dielectric constant tensor:
#      x y z
#    x 4.178770 0.000000 0.000000 
#    y 0.000000 4.082630 0.000000 
#    z 0.000000 0.000000 4.393860 
# 
# 
# High freq. dielectric constant tensor:
#      x y z
#    x 1.938270 0.000000 0.000000 
#    y 0.000000 1.945690 0.000000 
#    z 0.000000 0.000000 1.938240 
# 
# From -- ./inp_files/6388.got.cif
#   From: 2010.03.12/outbox.cif.g09.slc.cpg/sg61_4_cif.got.tgz:6388.got - 2010.04.10 19:05:03.
