data_PCOD8249266
_publ_section_title
;
Structure prediction by ZEFSAII (Michael W. Deem and Ramdas Pophale) SiO2 
 PCOD8249266
Probable space group: P B C A
;
_chemical_formula_sum "Si O2"
_cell_formula_units_Z 64
_cell_length_a 14.931103
_cell_length_b 10.073332
_cell_length_c 18.999315
_cell_angle_alpha 90.000000
_cell_angle_beta 90.000000
_cell_angle_gamma 90.000000
_cell_volume 2857.610167
_symmetry_space_group_name_H-M "P B C A"
_symmetry_group_IT_number 61
_symmetry_cell_setting 'orthorhombic'
loop_
_space_group_symop_operation_xyz
x,y,z
1/2-x,-y,1/2+z
1/2+x,1/2-y,-z
-x,1/2+y,1/2-z
-x,-y,-z
1/2+x,y,1/2-z
1/2-x,1/2+y,z
x,1/2-y,1/2+z
loop_
_atom_site_type_symbol
_atom_site_label
_atom_site_fract_x
_atom_site_fract_y
_atom_site_fract_z
Si Si1 0.338885 0.054179 0.320953
Si Si2 0.590817 0.732792 0.853981
Si Si3 0.145648 0.662989 0.002167
Si Si4 0.397603 0.947671 0.593824
Si Si5 0.213009 0.547340 0.474865
Si Si6 0.538573 0.768638 0.126486
Si Si7 0.438646 0.821980 0.258942
Si Si8 0.229338 0.168550 0.206000
O O1 0.292355 0.007901 0.393185
O O2 0.420030 0.958409 0.299092
O O3 0.378758 0.201109 0.332489
O O4 0.265035 0.054875 0.259034
O O5 0.570721 0.579819 0.868038
O O6 0.507581 0.772726 0.802950
O O7 0.686470 0.741178 0.815526
O O8 0.591529 0.821505 0.924724
O O9 0.198673 0.523592 0.005925
O O10 0.075257 0.644937 0.938261
O O11 0.210457 0.792996 0.989614
O O12 0.371760 0.980904 0.513645
O O13 0.478743 0.846075 0.591617
O O14 0.311047 0.891426 0.634875
O O15 0.481553 0.855005 0.182117
O O16 0.344713 0.748291 0.249647
#
# Coordination Sequence:
#
# PCOD8249266 Si02
#       8
#     8   8   8   8   8   8   8   8
#     4  11  23  39  64  94 130 170 222 274 332 399
#     4  11  21  40  68  93 131 172 228 267 337 403
#     4  10  23  42  66  98 130 177 220 284 328 410
#     4  10  21  40  63  91 125 176 218 269 331 401
#     4  10  23  40  66  95 132 170 225 270 340 388
#     4  10  22  40  61  92 128 164 221 276 326 393
#     4  11  24  40  67  95 130 178 216 277 339 394
#     4  11  23  41  62  95 132 173 218 276 332 402
#
# _framework density 22.396338
#
# number of rings (size 3 to 8) (size 9 to 14) (size 15 to 20)
#    0.000    1.500    3.750    0.750    5.250    2.500 
#    0.000    0.000    0.000    2.250    0.000    0.000 
#    0.000    0.000    0.000    0.000    0.000    0.000 
#
# Total GULP energy -793430.699080 kJ/mol
# GULP energy per Si atom -12397.354673 kJ/mol
# Density = 2.234536 g / cm^3
# Si number density = 22.396338 Si / 1000 Ang^3
#
#
#
# Elastic Constant Matrix: (Units=GPa)
#
#
# Indices 1 2 3 4 5 6 
#
# 1 92.4999 5.5363 38.9802 0.0000 0.0000 0.0000
# 2 5.5363 23.6001 21.0816 0.0000 0.0000 0.0000
# 3 38.9802 21.0816 112.8974 0.0000 0.0000 0.0000
# 4 0.0000 0.0000 0.0000 25.9835 0.0000 0.0000
# 5 0.0000 0.0000 0.0000 0.0000 36.7695 0.0000
# 6 0.0000 0.0000 0.0000 0.0000 0.0000 21.3495
#
#
#
# Elastic Compliance Matrix: (Units=1/GPa)
#
#
# Indices 1 2 3 4 5 6 
#
# 1 0.012676 0.001123 -0.004587 0.000000 0.000000 0.000000
# 2 0.001123 0.050955 -0.009903 0.000000 0.000000 0.000000
# 3 -0.004587 -0.009903 0.012290 0.000000 0.000000 0.000000
# 4 0.000000 0.000000 0.000000 0.038486 0.000000 0.000000
# 5 0.000000 0.000000 0.000000 0.000000 0.027196 0.000000
# 6 0.000000 0.000000 0.000000 0.000000 0.000000 0.046840
#
#
# Mechanical properties :
#
#
# Convention : Reuss Voigt Hill
#
# Bulk Modulus (GPa) = 20.32935 40.02151 30.17543
# Shear Modulus (GPa) = 21.59148 27.71378 24.65263
#
# Velocity S-wave (km/s) = 3.10830 3.52152 3.32135
# Velocity P-wave (km/s) = 4.68816 5.86884 5.31141
#
# Compressibility (1/GPa) = 0.04918996
#
# Stress axis : x y z
#
# Youngs Moduli (GPa) = 78.88679 19.62504 81.36435
#
# Poissons Ratio (x) = -0.02205 0.37318
# Poissons Ratio (y) = -0.08862 0.80574
# Poissons Ratio (z) = 0.36182 0.19434
#
# Static dielectric constant tensor:
#      x y z
#    x 3.916050 0.000000 0.000000 
#    y 0.000000 3.678320 0.000000 
#    z 0.000000 0.000000 4.282910 
# 
# 
# High freq. dielectric constant tensor:
#      x y z
#    x 1.881080 0.000000 0.000000 
#    y 0.000000 1.850080 0.000000 
#    z 0.000000 0.000000 1.902390 
# 
# From -- ./inp_files/9533.got.cif
#   From: 2010.03.12/outbox.cif.g09.slc.cpg/sg61_5_cif.got.tgz:9533.got - 2010.04.10 19:05:03.
