data_PCOD8249896
_publ_section_title
;
Structure prediction by ZEFSAII (Michael W. Deem and Ramdas Pophale) SiO2 
 PCOD8249896
Probable space group: P B C A
;
_chemical_formula_sum "Si O2"
_cell_formula_units_Z 48
_cell_length_a 9.741814
_cell_length_b 8.587633
_cell_length_c 25.141229
_cell_angle_alpha 90.000000
_cell_angle_beta 90.000000
_cell_angle_gamma 90.000000
_cell_volume 2103.293179
_symmetry_space_group_name_H-M "P B C A"
_symmetry_group_IT_number 61
_symmetry_cell_setting 'orthorhombic'
loop_
_space_group_symop_operation_xyz
x,y,z
1/2-x,-y,1/2+z
1/2+x,1/2-y,-z
-x,1/2+y,1/2-z
-x,-y,-z
1/2+x,y,1/2-z
1/2-x,1/2+y,z
x,1/2-y,1/2+z
loop_
_atom_site_type_symbol
_atom_site_label
_atom_site_fract_x
_atom_site_fract_y
_atom_site_fract_z
Si Si1 0.892096 0.445503 0.089575
Si Si2 0.928493 0.409779 0.388397
Si Si3 0.653672 0.256394 0.917592
Si Si4 0.845105 0.506770 0.210341
Si Si5 0.849419 0.769813 0.040715
Si Si6 0.433176 0.651900 0.776832
O O1 0.846974 0.506966 0.146837
O O2 0.884678 0.588913 0.048805
O O3 0.792549 0.307694 0.070535
O O4 0.045717 0.381703 0.090688
O O5 0.890879 0.591127 0.385063
O O6 0.796121 0.301945 0.394013
O O7 0.029454 0.380102 0.437984
O O8 0.003741 0.359629 0.335092
O O9 0.669834 0.303967 0.978826
O O10 0.879403 0.674967 0.233680
O O11 0.693219 0.465907 0.230410
O O12 0.954386 0.382418 0.231995
#
# Coordination Sequence:
#
# PCOD8249896 Si02
#       6
#     8   8   8   8   8   8
#     4  12  24  44  75 101 150 185 240 299 359 426
#     4  12  26  46  69 107 147 189 239 303 352 428
#     4  12  27  42  73 106 149 194 244 287 356 426
#     4  12  27  50  75 110 135 193 232 305 359 434
#     4  12  23  47  71 107 144 196 240 295 356 427
#     4  12  29  49  81 104 148 180 247 292 373 423
#
# _framework density 22.821353999999999
#
# number of rings (size 3 to 8) (size 9 to 14) (size 15 to 20)
#    0.000    0.000    3.333    6.000    7.000    0.000 
#    0.000    0.000    0.000    0.000    0.000    0.000 
#    0.000    0.000    0.000    0.000    0.000    0.000 
#
# Total GULP energy -595761.740183 kJ/mol
# GULP energy per Si atom -12411.702920 kJ/mol
# Density = 2.276941 g / cm^3
# Si number density = 22.821354 Si / 1000 Ang^3
#
#
#
# Elastic Constant Matrix: (Units=GPa)
#
#
# Indices 1 2 3 4 5 6 
#
# 1 134.2979 21.7968 19.0343 0.0000 0.0000 0.0000
# 2 21.7968 104.4742 14.0066 0.0000 0.0000 0.0000
# 3 19.0343 14.0066 32.4358 0.0000 0.0000 0.0000
# 4 0.0000 0.0000 0.0000 33.1881 0.0000 0.0000
# 5 0.0000 0.0000 0.0000 0.0000 42.8975 0.0000
# 6 0.0000 0.0000 0.0000 0.0000 0.0000 45.7863
#
#
#
# Elastic Compliance Matrix: (Units=1/GPa)
#
#
# Indices 1 2 3 4 5 6 
#
# 1 0.008247 -0.001138 -0.004348 0.000000 0.000000 0.000000
# 2 -0.001138 0.010317 -0.003787 0.000000 0.000000 0.000000
# 3 -0.004348 -0.003787 0.035017 0.000000 0.000000 0.000000
# 4 0.000000 0.000000 0.000000 0.030131 0.000000 0.000000
# 5 0.000000 0.000000 0.000000 0.000000 0.023311 0.000000
# 6 0.000000 0.000000 0.000000 0.000000 0.000000 0.021841
#
#
# Mechanical properties :
#
#
# Convention : Reuss Voigt Hill
#
# Bulk Modulus (GPa) = 28.54340 42.32036 35.43188
# Shear Modulus (GPa) = 31.42882 38.79908 35.11395
#
# Velocity S-wave (km/s) = 3.71505 4.12773 3.92681
# Velocity P-wave (km/s) = 5.56206 6.42666 6.00993
#
# Compressibility (1/GPa) = 0.03503437
#
# Stress axis : x y z
#
# Youngs Moduli (GPa) = 121.25506 96.92864 28.55724
#
# Poissons Ratio (x) = 0.11027 0.12418
# Poissons Ratio (y) = 0.13794 0.10816
# Poissons Ratio (z) = 0.52726 0.36711
#
# Static dielectric constant tensor:
#      x y z
#    x 4.345350 0.000000 0.000000 
#    y 0.000000 4.217550 0.000000 
#    z 0.000000 0.000000 4.021090 
# 
# 
# High freq. dielectric constant tensor:
#      x y z
#    x 1.921030 0.000000 0.000000 
#    y 0.000000 1.912840 0.000000 
#    z 0.000000 0.000000 1.901430 
# 
# From -- ./inp_files/11674.got.cif
#   From: 2010.03.12/outbox.cif.g09.slc.cpg/sg61_6_cif.got.tgz:11674.got - 2010.04.10 19:05:03.
