data_PCOD8249159
_publ_section_title
;
Structure prediction by ZEFSAII (Michael W. Deem and Ramdas Pophale) SiO2 
 PCOD8249159
Probable space group: P B C A
;
_chemical_formula_sum "Si O2"
_cell_formula_units_Z 48
_cell_length_a 8.293432
_cell_length_b 30.588829
_cell_length_c 9.124107
_cell_angle_alpha 90.000000
_cell_angle_beta 90.000000
_cell_angle_gamma 90.000000
_cell_volume 2314.661614
_symmetry_space_group_name_H-M "P B C A"
_symmetry_group_IT_number 61
_symmetry_cell_setting 'orthorhombic'
loop_
_space_group_symop_operation_xyz
x,y,z
1/2-x,-y,1/2+z
1/2+x,1/2-y,-z
-x,1/2+y,1/2-z
-x,-y,-z
1/2+x,y,1/2-z
1/2-x,1/2+y,z
x,1/2-y,1/2+z
loop_
_atom_site_type_symbol
_atom_site_label
_atom_site_fract_x
_atom_site_fract_y
_atom_site_fract_z
Si Si1 0.185571 0.864532 0.440158
Si Si2 0.707440 0.042951 0.549614
Si Si3 0.186694 0.285527 0.625483
Si Si4 0.810106 0.871089 0.381065
Si Si5 0.840001 0.037521 0.857170
Si Si6 0.314697 0.206775 0.443571
O O1 0.243457 0.909849 0.515609
O O2 0.223537 0.826008 0.551324
O O3 0.277948 0.857758 0.286953
O O4 0.996897 0.864716 0.410944
O O5 0.826858 0.032131 0.683210
O O6 0.525386 0.044640 0.605969
O O7 0.732698 0.006171 0.427979
O O8 0.261089 0.240768 0.567049
O O9 0.206836 0.287109 0.799676
O O10 0.999059 0.286143 0.594124
O O11 0.760864 0.920945 0.413203
O O12 0.706984 0.841507 0.491254
#
# Coordination Sequence:
#
# PCOD8249159 Si02
#       6
#     8   8   8   8   8   8
#     4  11  22  39  62  88 119 157 198 243 295 349
#     4  10  21  37  58  85 117 154 197 244 294 349
#     4  12  25  43  64  90 121 155 196 241 292 348
#     4  11  22  39  62  88 119 157 198 243 295 349
#     4  10  21  37  58  85 117 154 197 244 294 349
#     4  12  25  43  64  90 121 155 196 241 292 348
#
# _framework density 20.737371
#
# number of rings (size 3 to 8) (size 9 to 14) (size 15 to 20)
#    0.000    1.000    0.000   10.000    0.000    4.000 
#    0.000    3.333    0.000    0.000    0.000    0.000 
#    0.000    0.000    0.000    0.000    0.000    0.000 
#
# Total GULP energy -595502.960106 kJ/mol
# GULP energy per Si atom -12406.311669 kJ/mol
# Density = 2.069017 g / cm^3
# Si number density = 20.737371 Si / 1000 Ang^3
#
#
#
# Elastic Constant Matrix: (Units=GPa)
#
#
# Indices 1 2 3 4 5 6 
#
# 1 64.8227 23.3384 -10.9444 0.0000 0.0000 0.0000
# 2 23.3384 90.1107 31.6654 0.0000 0.0000 0.0000
# 3 -10.9444 31.6654 58.2810 0.0000 0.0000 0.0000
# 4 0.0000 0.0000 0.0000 28.4454 0.0000 0.0000
# 5 0.0000 0.0000 0.0000 0.0000 28.7725 0.0000
# 6 0.0000 0.0000 0.0000 0.0000 0.0000 18.0498
#
#
#
# Elastic Compliance Matrix: (Units=1/GPa)
#
#
# Indices 1 2 3 4 5 6 
#
# 1 0.019606 -0.007875 0.007961 0.000000 0.000000 0.000000
# 2 -0.007875 0.016880 -0.010650 0.000000 0.000000 0.000000
# 3 0.007961 -0.010650 0.024439 0.000000 0.000000 0.000000
# 4 0.000000 0.000000 0.000000 0.035155 0.000000 0.000000
# 5 0.000000 0.000000 0.000000 0.000000 0.034755 0.000000
# 6 0.000000 0.000000 0.000000 0.000000 0.000000 0.055402
#
#
# Mechanical properties :
#
#
# Convention : Reuss Voigt Hill
#
# Bulk Modulus (GPa) = 25.12823 33.48148 29.30485
# Shear Modulus (GPa) = 22.66212 26.33054 24.49633
#
# Velocity S-wave (km/s) = 3.30936 3.56717 3.44068
# Velocity P-wave (km/s) = 5.17167 5.75733 5.47234
#
# Compressibility (1/GPa) = 0.03979588
#
# Stress axis : x y z
#
# Youngs Moduli (GPa) = 51.00446 59.24315 40.91740
#
# Poissons Ratio (x) = 0.46656 -0.32573
# Poissons Ratio (y) = 0.40168 0.43577
# Poissons Ratio (z) = -0.40603 0.63094
#
# Static dielectric constant tensor:
#      x y z
#    x 3.876900 0.000000 0.000000 
#    y 0.000000 4.144680 0.000000 
#    z 0.000000 0.000000 3.904120 
# 
# 
# High freq. dielectric constant tensor:
#      x y z
#    x 1.832130 0.000000 0.000000 
#    y 0.000000 1.828400 0.000000 
#    z 0.000000 0.000000 1.803230 
# 
# From -- ./inp_files/1886.got.cif
#   From: 2010.03.12/outbox.cif.g09.slc.cpg/sg61_1_cif.got.tgz:1886.got - 2010.04.10 19:05:03.
