data_PCOD8249409
_publ_section_title
;
Structure prediction by ZEFSAII (Michael W. Deem and Ramdas Pophale) SiO2 
 PCOD8249409
Probable space group: P B C A
;
_chemical_formula_sum "Si O2"
_cell_formula_units_Z 48
_cell_length_a 12.465611
_cell_length_b 18.627798
_cell_length_c 9.802017
_cell_angle_alpha 90.000000
_cell_angle_beta 90.000000
_cell_angle_gamma 90.000000
_cell_volume 2276.095821
_symmetry_space_group_name_H-M "P B C A"
_symmetry_group_IT_number 61
_symmetry_cell_setting 'orthorhombic'
loop_
_space_group_symop_operation_xyz
x,y,z
1/2-x,-y,1/2+z
1/2+x,1/2-y,-z
-x,1/2+y,1/2-z
-x,-y,-z
1/2+x,y,1/2-z
1/2-x,1/2+y,z
x,1/2-y,1/2+z
loop_
_atom_site_type_symbol
_atom_site_label
_atom_site_fract_x
_atom_site_fract_y
_atom_site_fract_z
Si Si1 0.865442 0.597968 0.063599
Si Si2 0.020641 0.293068 0.098134
Si Si3 0.690059 0.315253 0.807018
Si Si4 0.391369 0.272857 0.137883
Si Si5 0.641715 0.576486 0.987690
Si Si6 0.553779 0.444930 0.831845
O O1 0.811970 0.665882 0.145531
O O2 0.763121 0.549529 0.018446
O O3 0.942825 0.553469 0.166362
O O4 0.937392 0.626568 0.937957
O O5 0.118473 0.253765 0.169058
O O6 0.925735 0.293746 0.208425
O O7 0.987644 0.254571 0.957074
O O8 0.808613 0.293921 0.856138
O O9 0.639540 0.384830 0.886883
O O10 0.342870 0.344861 0.074862
O O11 0.566373 0.577470 0.122452
O O12 0.584976 0.523502 0.881934
#
# Coordination Sequence:
#
# PCOD8249409 Si02
#       6
#     8   8   8   8   8   8
#     4  10  22  42  64  93 128 171 215 275 324 399
#     4  12  23  40  66  95 132 161 226 267 329 383
#     4  10  22  40  64  92 130 168 210 268 332 380
#     4  12  23  39  65 100 124 173 215 279 320 396
#     4  11  21  44  66  92 131 176 219 266 339 393
#     4   9  23  43  65  89 132 177 209 273 333 395
#
# _framework density 21.088743000000001
#
# number of rings (size 3 to 8) (size 9 to 14) (size 15 to 20)
#    1.000    0.333    5.000    1.000    2.333    0.000 
#    9.000    0.833    0.000    0.000    0.000    0.000 
#    0.000    0.000    0.000    0.000    0.000    0.000 
#
# Total GULP energy -594816.144390 kJ/mol
# GULP energy per Si atom -12392.003008 kJ/mol
# Density = 2.104074 g / cm^3
# Si number density = 21.088743 Si / 1000 Ang^3
#
#
#
# Elastic Constant Matrix: (Units=GPa)
#
#
# Indices 1 2 3 4 5 6 
#
# 1 76.1441 6.3682 14.1956 0.0000 0.0000 0.0000
# 2 6.3682 29.8871 -9.6475 0.0000 0.0000 0.0000
# 3 14.1956 -9.6475 56.4687 0.0000 0.0000 0.0000
# 4 0.0000 0.0000 0.0000 23.3696 0.0000 0.0000
# 5 0.0000 0.0000 0.0000 0.0000 32.0195 0.0000
# 6 0.0000 0.0000 0.0000 0.0000 0.0000 29.9320
#
#
#
# Elastic Compliance Matrix: (Units=1/GPa)
#
#
# Indices 1 2 3 4 5 6 
#
# 1 0.014319 -0.004459 -0.004361 0.000000 0.000000 0.000000
# 2 -0.004459 0.036801 0.007408 0.000000 0.000000 0.000000
# 3 -0.004361 0.007408 0.020071 0.000000 0.000000 0.000000
# 4 0.000000 0.000000 0.000000 0.042791 0.000000 0.000000
# 5 0.000000 0.000000 0.000000 0.000000 0.031231 0.000000
# 6 0.000000 0.000000 0.000000 0.000000 0.000000 0.033409
#
#
# Mechanical properties :
#
#
# Convention : Reuss Voigt Hill
#
# Bulk Modulus (GPa) = 14.62706 20.48139 17.55423
# Shear Modulus (GPa) = 24.48168 27.16979 25.82574
#
# Velocity S-wave (km/s) = 3.41088 3.59326 3.50326
# Velocity P-wave (km/s) = 4.73953 5.19119 4.97049
#
# Compressibility (1/GPa) = 0.06836642
#
# Stress axis : x y z
#
# Youngs Moduli (GPa) = 69.83723 27.17343 49.82313
#
# Poissons Ratio (x) = 0.12116 0.21730
# Poissons Ratio (y) = 0.31140 -0.36910
# Poissons Ratio (z) = 0.30459 -0.20131
#
# Static dielectric constant tensor:
#      x y z
#    x 3.696160 0.000000 0.000000 
#    y 0.000000 3.517330 0.000000 
#    z 0.000000 0.000000 3.783080 
# 
# 
# High freq. dielectric constant tensor:
#      x y z
#    x 1.828040 0.000000 0.000000 
#    y 0.000000 1.805840 0.000000 
#    z 0.000000 0.000000 1.816310 
# 
# From -- ./inp_files/5310.got.cif
#   From: 2010.03.12/outbox.cif.g09.slc.cpg/sg61_3_cif.got.tgz:5310.got - 2010.04.10 19:05:03.
