data_PCOD8249712
_publ_section_title
;
Structure prediction by ZEFSAII (Michael W. Deem and Ramdas Pophale) SiO2 
 PCOD8249712
Probable space group: P B C A
;
_chemical_formula_sum "Si O2"
_cell_formula_units_Z 48
_cell_length_a 13.394353
_cell_length_b 9.129416
_cell_length_c 18.594389
_cell_angle_alpha 90.000000
_cell_angle_beta 90.000000
_cell_angle_gamma 90.000000
_cell_volume 2273.770615
_symmetry_space_group_name_H-M "P B C A"
_symmetry_group_IT_number 61
_symmetry_cell_setting 'orthorhombic'
loop_
_space_group_symop_operation_xyz
x,y,z
1/2-x,-y,1/2+z
1/2+x,1/2-y,-z
-x,1/2+y,1/2-z
-x,-y,-z
1/2+x,y,1/2-z
1/2-x,1/2+y,z
x,1/2-y,1/2+z
loop_
_atom_site_type_symbol
_atom_site_label
_atom_site_fract_x
_atom_site_fract_y
_atom_site_fract_z
Si Si1 0.322244 0.858607 0.395539
Si Si2 0.694099 0.317661 0.269984
Si Si3 0.861659 0.323667 0.565173
Si Si4 0.376865 0.128492 0.201449
Si Si5 0.474852 0.622224 0.169618
Si Si6 0.460622 0.177375 0.586087
O O1 0.337788 0.815481 0.312825
O O2 0.222633 0.799515 0.432443
O O3 0.422701 0.803882 0.436177
O O4 0.311812 0.032716 0.400623
O O5 0.687052 0.479320 0.304780
O O6 0.807575 0.262608 0.272788
O O7 0.626243 0.209527 0.316861
O O8 0.957827 0.283159 0.613762
O O9 0.894614 0.350588 0.483853
O O10 0.467043 0.100897 0.255965
O O11 0.422737 0.174701 0.124626
O O12 0.449656 0.462783 0.138050
#
# Coordination Sequence:
#
# PCOD8249712 Si02
#       6
#     8   8   8   8   8   8
#     4  11  21  43  67  94 131 176 218 273 334 393
#     4  12  23  39  68  98 130 171 226 275 328 387
#     4  11  25  43  69  95 135 178 221 271 339 401
#     4  12  23  40  65 101 129 172 222 275 327 392
#     4  11  21  43  67  95 130 174 221 275 328 388
#     4  11  25  44  66  99 136 174 222 275 335 398
#
# _framework density 21.110308
#
# number of rings (size 3 to 8) (size 9 to 14) (size 15 to 20)
#    0.000    0.667    6.667    3.000    0.000    5.333 
#    0.000    1.667    0.000    0.000    0.000    0.000 
#    0.000    0.000    0.000    0.000    0.000    0.000 
#
# Total GULP energy -595329.590311 kJ/mol
# GULP energy per Si atom -12402.699798 kJ/mol
# Density = 2.106226 g / cm^3
# Si number density = 21.110308 Si / 1000 Ang^3
#
#
#
# Elastic Constant Matrix: (Units=GPa)
#
#
# Indices 1 2 3 4 5 6 
#
# 1 68.7954 23.0057 36.4880 0.0000 0.0000 0.0000
# 2 23.0057 52.2657 22.8784 0.0000 0.0000 0.0000
# 3 36.4880 22.8784 94.7547 0.0000 0.0000 0.0000
# 4 0.0000 0.0000 0.0000 26.3503 0.0000 0.0000
# 5 0.0000 0.0000 0.0000 0.0000 31.9621 0.0000
# 6 0.0000 0.0000 0.0000 0.0000 0.0000 40.5811
#
#
#
# Elastic Compliance Matrix: (Units=1/GPa)
#
#
# Indices 1 2 3 4 5 6 
#
# 1 0.019828 -0.006022 -0.006181 0.000000 0.000000 0.000000
# 2 -0.006022 0.023223 -0.003288 0.000000 0.000000 0.000000
# 3 -0.006181 -0.003288 0.013728 0.000000 0.000000 0.000000
# 4 0.000000 0.000000 0.000000 0.037950 0.000000 0.000000
# 5 0.000000 0.000000 0.000000 0.000000 0.031287 0.000000
# 6 0.000000 0.000000 0.000000 0.000000 0.000000 0.024642
#
#
# Mechanical properties :
#
#
# Convention : Reuss Voigt Hill
#
# Bulk Modulus (GPa) = 38.76593 42.28444 40.52518
# Shear Modulus (GPa) = 26.28259 28.67497 27.47878
#
# Velocity S-wave (km/s) = 3.53230 3.68956 3.61179
# Velocity P-wave (km/s) = 5.91942 6.18257 6.05243
#
# Compressibility (1/GPa) = 0.02579585
#
# Stress axis : x y z
#
# Youngs Moduli (GPa) = 50.43329 43.06071 72.84470
#
# Poissons Ratio (x) = 0.25931 0.45028
# Poissons Ratio (y) = 0.30371 0.23953
# Poissons Ratio (z) = 0.31175 0.14159
#
# Static dielectric constant tensor:
#      x y z
#    x 3.945760 0.000000 0.000000 
#    y 0.000000 3.809450 0.000000 
#    z 0.000000 0.000000 3.713150 
# 
# 
# High freq. dielectric constant tensor:
#      x y z
#    x 1.839200 0.000000 0.000000 
#    y 0.000000 1.820660 0.000000 
#    z 0.000000 0.000000 1.819680 
# 
# From -- ./inp_files/3847.got.cif
#   From: 2010.03.12/outbox.cif.g09.slc.cpg/sg61_2_cif.got.tgz:3847.got - 2010.04.10 19:05:03.
