data_PCOD8249955
_publ_section_title
;
Structure prediction by ZEFSAII (Michael W. Deem and Ramdas Pophale) SiO2 
 PCOD8249955
Probable space group: P N M A
;
_chemical_formula_sum "Si O2"
_cell_formula_units_Z 64
_cell_length_a 23.300365
_cell_length_b 9.137471
_cell_length_c 19.197118
_cell_angle_alpha 90.000000
_cell_angle_beta 90.000000
_cell_angle_gamma 90.000000
_cell_volume 4087.189466
_symmetry_space_group_name_H-M "P N M A"
_symmetry_group_IT_number 62
_symmetry_cell_setting 'orthorhombic'
loop_
_space_group_symop_operation_xyz
x,y,z
1/2-x,-y,1/2+z
1/2+x,1/2-y,1/2-z
-x,1/2+y,-z
-x,-y,-z
1/2+x,y,1/2-z
1/2-x,1/2+y,1/2+z
x,1/2-y,z
loop_
_atom_site_type_symbol
_atom_site_label
_atom_site_fract_x
_atom_site_fract_y
_atom_site_fract_z
Si Si1 0.269638 0.923095 0.349282
Si Si2 0.556423 0.923558 0.143548
Si Si3 0.774778 0.419045 0.864890
Si Si4 0.246571 0.923295 0.500348
Si Si5 0.837999 0.423290 0.732201
Si Si6 0.116572 0.923277 0.497259
Si Si7 0.340246 0.919473 0.220784
Si Si8 0.437214 0.076331 0.141504
O O1 0.262879 0.750000 0.347688
O O2 0.278122 0.974849 0.429021
O O3 0.210287 0.990688 0.319291
O O4 0.322840 0.967114 0.299602
O O5 0.545721 0.750000 0.141857
O O6 0.599172 0.970547 0.206194
O O7 0.498036 0.006574 0.158923
O O8 0.583109 0.980365 0.070723
O O9 0.782488 0.250000 0.883603
O O10 0.781483 0.509701 0.935543
O O11 0.824777 0.473054 0.811605
O O12 0.713163 0.448104 0.830111
O O13 0.246887 0.750000 0.508796
O O14 0.181375 0.984613 0.499038
O O15 0.831904 0.250000 0.728687
O O16 0.119576 0.750000 0.494783
O O17 0.082916 0.978741 0.565419
O O18 0.359077 0.750000 0.217764
O O19 0.392639 0.021787 0.199269
O O20 0.441505 0.250000 0.145026
#
# Coordination Sequence:
#
# PCOD8249955 Si02
#       8
#     8   8   8   8   8   8   8   8
#     4   8  14  26  47  68  86 111 150 190 217 253
#     4  10  18  31  49  64  82 120 164 191 211 250
#     4   9  17  28  44  67  92 114 142 184 226 263
#     4  10  16  27  47  69  91 120 149 176 218 270
#     4   8  14  27  46  65  85 113 150 188 221 253
#     4   9  17  28  43  63  90 121 153 181 211 255
#     4   9  17  30  46  65  86 115 154 189 216 253
#     4  11  21  31  42  63  94 124 150 184 226 264
#
# _framework density 15.658681
#
# number of rings (size 3 to 8) (size 9 to 14) (size 15 to 20)
#    0.000    2.750    2.500    2.250    0.000    0.000 
#    0.000    2.500    0.000    1.500    0.000    0.875 
#    0.000    0.000    0.000    0.000    0.000    0.000 
#
# Total GULP energy -793270.413504 kJ/mol
# GULP energy per Si atom -12394.850211 kJ/mol
# Density = 1.562304 g / cm^3
# Si number density = 15.658681 Si / 1000 Ang^3
#
#
#
# Elastic Constant Matrix: (Units=GPa)
#
#
# Indices 1 2 3 4 5 6 
#
# 1 89.9720 31.5706 68.7141 0.0000 0.0000 0.0000
# 2 31.5706 35.0852 37.1147 0.0000 0.0000 0.0000
# 3 68.7141 37.1147 139.4855 0.0000 0.0000 0.0000
# 4 0.0000 0.0000 0.0000 22.7011 0.0000 0.0000
# 5 0.0000 0.0000 0.0000 0.0000 24.5147 0.0000
# 6 0.0000 0.0000 0.0000 0.0000 0.0000 17.4351
#
#
#
# Elastic Compliance Matrix: (Units=1/GPa)
#
#
# Indices 1 2 3 4 5 6 
#
# 1 0.020359 -0.010730 -0.007174 0.000000 0.000000 0.000000
# 2 -0.010730 0.045323 -0.006774 0.000000 0.000000 0.000000
# 3 -0.007174 -0.006774 0.012506 0.000000 0.000000 0.000000
# 4 0.000000 0.000000 0.000000 0.044051 0.000000 0.000000
# 5 0.000000 0.000000 0.000000 0.000000 0.040792 0.000000
# 6 0.000000 0.000000 0.000000 0.000000 0.000000 0.057356
#
#
# Mechanical properties :
#
#
# Convention : Reuss Voigt Hill
#
# Bulk Modulus (GPa) = 34.68452 59.92684 47.30568
# Shear Modulus (GPa) = 17.89856 21.40640 19.65248
#
# Velocity S-wave (km/s) = 3.38456 3.70139 3.54652
# Velocity P-wave (km/s) = 6.12145 7.52468 6.85904
#
# Compressibility (1/GPa) = 0.02883131
#
# Stress axis : x y z
#
# Youngs Moduli (GPa) = 49.11874 22.06395 79.96347
#
# Poissons Ratio (x) = 0.23675 0.57367
# Poissons Ratio (y) = 0.52706 0.54164
# Poissons Ratio (z) = 0.35238 0.14945
#
# Static dielectric constant tensor:
#      x y z
#    x 2.901120 0.000000 0.000000 
#    y 0.000000 2.629810 0.000000 
#    z 0.000000 0.000000 3.252750 
# 
# 
# High freq. dielectric constant tensor:
#      x y z
#    x 1.577930 0.000000 0.000000 
#    y 0.000000 1.567960 0.000000 
#    z 0.000000 0.000000 1.602750 
# 
# From -- ./inp_files/27884.got.cif
#   From: 2010.03.12/outbox.cif.g09.slc.cpg/sg62_14_cif.got.tgz:27884.got - 2010.04.10 19:12:36.
