data_PCOD8249098
_publ_section_title
;
Structure prediction by ZEFSAII (Michael W. Deem and Ramdas Pophale) SiO2 
 PCOD8249098
Probable space group: P B C A
;
_chemical_formula_sum "Si O2"
_cell_formula_units_Z 48
_cell_length_a 12.822255
_cell_length_b 11.380378
_cell_length_c 15.728547
_cell_angle_alpha 90.000000
_cell_angle_beta 90.000000
_cell_angle_gamma 90.000000
_cell_volume 2295.142745
_symmetry_space_group_name_H-M "P B C A"
_symmetry_group_IT_number 61
_symmetry_cell_setting 'orthorhombic'
loop_
_space_group_symop_operation_xyz
x,y,z
1/2-x,-y,1/2+z
1/2+x,1/2-y,-z
-x,1/2+y,1/2-z
-x,-y,-z
1/2+x,y,1/2-z
1/2-x,1/2+y,z
x,1/2-y,1/2+z
loop_
_atom_site_type_symbol
_atom_site_label
_atom_site_fract_x
_atom_site_fract_y
_atom_site_fract_z
Si Si1 0.155455 0.198954 0.579243
Si Si2 0.644027 0.523360 0.537388
Si Si3 0.133406 0.069930 0.996989
Si Si4 0.039491 0.571547 0.629625
Si Si5 0.476163 0.972551 0.182643
Si Si6 0.879268 0.314950 0.889023
O O1 0.094075 0.304734 0.533278
O O2 0.089040 0.145520 0.658497
O O3 0.263402 0.259132 0.612473
O O4 0.168696 0.099496 0.508320
O O5 0.757385 0.580072 0.553283
O O6 0.574869 0.508744 0.620456
O O7 0.586694 0.616342 0.475272
O O8 0.140591 0.982298 0.080031
O O9 0.055984 0.020845 0.925521
O O10 0.039010 0.712093 0.627612
O O11 0.029350 0.531688 0.725914
O O12 0.397200 0.084434 0.182694
#
# Coordination Sequence:
#
# PCOD8249098 Si02
#       6
#     8   8   8   8   8   8
#     4  10  20  41  67  88 124 166 215 263 323 380
#     4  10  20  42  66  90 119 171 220 261 320 386
#     4  10  22  40  62  87 126 175 205 260 325 398
#     4  11  23  40  60  92 132 164 214 263 329 377
#     4  11  24  38  67  99 128 166 218 276 315 383
#     4  10  21  41  65  90 125 170 212 258 327 384
#
# _framework density 20.913733000000001
#
# number of rings (size 3 to 8) (size 9 to 14) (size 15 to 20)
#    0.000    1.667    1.667    4.000    2.333    1.333 
#    0.000    0.000    0.000    0.000    0.000    0.000 
#    0.000    0.000    0.000    0.000    0.000    0.000 
#
# Total GULP energy -594708.709048 kJ/mol
# GULP energy per Si atom -12389.764772 kJ/mol
# Density = 2.086613 g / cm^3
# Si number density = 20.913733 Si / 1000 Ang^3
#
#
#
# Elastic Constant Matrix: (Units=GPa)
#
#
# Indices 1 2 3 4 5 6 
#
# 1 79.6821 44.1952 66.7312 0.0000 0.0000 0.0000
# 2 44.1952 122.0030 42.2730 0.0000 0.0000 0.0000
# 3 66.7312 42.2730 130.9166 0.0000 0.0000 0.0000
# 4 0.0000 0.0000 0.0000 14.0887 0.0000 0.0000
# 5 0.0000 0.0000 0.0000 0.0000 15.0155 0.0000
# 6 0.0000 0.0000 0.0000 0.0000 0.0000 38.3490
#
#
#
# Elastic Compliance Matrix: (Units=1/GPa)
#
#
# Indices 1 2 3 4 5 6 
#
# 1 0.024430 -0.005106 -0.010804 0.000000 0.000000 0.000000
# 2 -0.005106 0.010296 -0.000722 0.000000 0.000000 0.000000
# 3 -0.010804 -0.000722 0.013378 0.000000 0.000000 0.000000
# 4 0.000000 0.000000 0.000000 0.070979 0.000000 0.000000
# 5 0.000000 0.000000 0.000000 0.000000 0.066598 0.000000
# 6 0.000000 0.000000 0.000000 0.000000 0.000000 0.026076
#
#
# Mechanical properties :
#
#
# Convention : Reuss Voigt Hill
#
# Bulk Modulus (GPa) = 67.38103 71.00004 69.19054
# Shear Modulus (GPa) = 20.00257 25.45079 22.72668
#
# Velocity S-wave (km/s) = 3.09598 3.49225 3.30007
# Velocity P-wave (km/s) = 6.71332 7.09111 6.90480
#
# Compressibility (1/GPa) = 0.01484097
#
# Stress axis : x y z
#
# Youngs Moduli (GPa) = 40.93390 97.12142 74.74756
#
# Poissons Ratio (x) = 0.49593 0.80754
# Poissons Ratio (y) = 0.20902 0.05396
# Poissons Ratio (z) = 0.44223 0.07012
#
# Static dielectric constant tensor:
#      x y z
#    x 3.783780 0.000000 0.000000 
#    y 0.000000 4.123290 0.000000 
#    z 0.000000 0.000000 3.452950 
# 
# 
# High freq. dielectric constant tensor:
#      x y z
#    x 1.822040 0.000000 0.000000 
#    y 0.000000 1.836780 0.000000 
#    z 0.000000 0.000000 1.786540 
# 
# From -- ./inp_files/5223.got.cif
#   From: 2010.03.12/outbox.cif.g09.slc.cpg/sg61_3_cif.got.tgz:5223.got - 2010.04.10 19:05:03.
