data_PCOD8249713
_publ_section_title
;
Structure prediction by ZEFSAII (Michael W. Deem and Ramdas Pophale) SiO2 
 PCOD8249713
Probable space group: P B C A
;
_chemical_formula_sum "Si O2"
_cell_formula_units_Z 48
_cell_length_a 11.889311
_cell_length_b 11.498045
_cell_length_c 16.517661
_cell_angle_alpha 90.000000
_cell_angle_beta 90.000000
_cell_angle_gamma 90.000000
_cell_volume 2258.027569
_symmetry_space_group_name_H-M "P B C A"
_symmetry_group_IT_number 61
_symmetry_cell_setting 'orthorhombic'
loop_
_space_group_symop_operation_xyz
x,y,z
1/2-x,-y,1/2+z
1/2+x,1/2-y,-z
-x,1/2+y,1/2-z
-x,-y,-z
1/2+x,y,1/2-z
1/2-x,1/2+y,z
x,1/2-y,1/2+z
loop_
_atom_site_type_symbol
_atom_site_label
_atom_site_fract_x
_atom_site_fract_y
_atom_site_fract_z
Si Si1 0.759876 0.691148 0.051849
Si Si2 0.338440 0.811778 0.601951
Si Si3 0.531394 0.455597 0.589628
Si Si4 0.899817 0.049817 0.946888
Si Si5 0.108628 0.738113 0.163115
Si Si6 0.933954 0.200452 0.656210
O O1 0.868593 0.637449 0.094002
O O2 0.678182 0.746523 0.118006
O O3 0.794767 0.791896 0.989412
O O4 0.700959 0.584942 0.005767
O O5 0.245330 0.762312 0.664547
O O6 0.455493 0.745384 0.611143
O O7 0.356293 0.949571 0.613988
O O8 0.500000 0.500000 0.500000
O O9 0.425952 0.388112 0.628576
O O10 0.566551 0.561627 0.647487
O O11 0.939730 0.160590 0.894899
O O12 0.000000 0.000000 0.000000
O O13 0.059538 0.760816 0.251232
#
# Coordination Sequence:
#
# PCOD8249713 Si02
#       6
#     8   8   8   8   8   8
#     4  11  23  43  72 103 129 186 245 280 351 428
#     4  11  24  46  69  98 144 178 242 291 353 433
#     4  12  24  49  73 101 144 187 242 294 359 434
#     4  11  21  43  71 101 134 182 240 289 344 425
#     4  11  29  42  69 107 141 190 233 301 374 412
#     4  12  27  45  69 106 142 186 233 299 363 422
#
# _framework density 21.257489
#
# number of rings (size 3 to 8) (size 9 to 14) (size 15 to 20)
#    0.000    0.667    3.333    5.000    7.000    0.000 
#    0.000    0.000    0.000    0.000    0.000    0.000 
#    0.000    0.000    0.000    0.000    0.000    0.000 
#
# Total GULP energy -595429.505680 kJ/mol
# GULP energy per Si atom -12404.781368 kJ/mol
# Density = 2.120911 g / cm^3
# Si number density = 21.257489 Si / 1000 Ang^3
#
#
#
# Elastic Constant Matrix: (Units=GPa)
#
#
# Indices 1 2 3 4 5 6 
#
# 1 105.1694 35.4330 29.7380 0.0000 0.0000 0.0000
# 2 35.4330 126.9395 33.0715 0.0000 0.0000 0.0000
# 3 29.7380 33.0715 104.2703 0.0000 0.0000 0.0000
# 4 0.0000 0.0000 0.0000 30.7037 0.0000 0.0000
# 5 0.0000 0.0000 0.0000 0.0000 27.6528 0.0000
# 6 0.0000 0.0000 0.0000 0.0000 0.0000 42.4465
#
#
#
# Elastic Compliance Matrix: (Units=1/GPa)
#
#
# Indices 1 2 3 4 5 6 
#
# 1 0.011003 -0.002457 -0.002359 0.000000 0.000000 0.000000
# 2 -0.002457 0.009136 -0.002197 0.000000 0.000000 0.000000
# 3 -0.002359 -0.002197 0.010960 0.000000 0.000000 0.000000
# 4 0.000000 0.000000 0.000000 0.032569 0.000000 0.000000
# 5 0.000000 0.000000 0.000000 0.000000 0.036163 0.000000
# 6 0.000000 0.000000 0.000000 0.000000 0.000000 0.023559
#
#
# Mechanical properties :
#
#
# Convention : Reuss Voigt Hill
#
# Bulk Modulus (GPa) = 58.56916 59.20713 58.88814
# Shear Modulus (GPa) = 34.93891 36.03636 35.48764
#
# Velocity S-wave (km/s) = 4.05854 4.12179 4.09028
# Velocity P-wave (km/s) = 7.04091 7.11091 7.07599
#
# Compressibility (1/GPa) = 0.01707383
#
# Stress axis : x y z
#
# Youngs Moduli (GPa) = 90.88256 109.45804 91.24055
#
# Poissons Ratio (x) = 0.26892 0.21523
# Poissons Ratio (y) = 0.22328 0.20045
# Poissons Ratio (z) = 0.21438 0.24048
#
# Static dielectric constant tensor:
#      x y z
#    x 4.134580 0.000000 0.000000 
#    y 0.000000 4.266200 0.000000 
#    z 0.000000 0.000000 3.581120 
# 
# 
# High freq. dielectric constant tensor:
#      x y z
#    x 1.848580 0.000000 0.000000 
#    y 0.000000 1.849420 0.000000 
#    z 0.000000 0.000000 1.813280 
# 
# From -- ./inp_files/5246.got.cif
#   From: 2010.03.12/outbox.cif.g09.slc.cpg/sg61_3_cif.got.tgz:5246.got - 2010.04.10 19:05:03.
