data_PCOD8249156
_publ_section_title
;
Structure prediction by ZEFSAII (Michael W. Deem and Ramdas Pophale) SiO2 
 PCOD8249156
Probable space group: P B C A
;
_chemical_formula_sum "Si O2"
_cell_formula_units_Z 56
_cell_length_a 7.761986
_cell_length_b 19.466835
_cell_length_c 18.992326
_cell_angle_alpha 90.000000
_cell_angle_beta 90.000000
_cell_angle_gamma 90.000000
_cell_volume 2869.765163
_symmetry_space_group_name_H-M "P B C A"
_symmetry_group_IT_number 61
_symmetry_cell_setting 'orthorhombic'
loop_
_space_group_symop_operation_xyz
x,y,z
1/2-x,-y,1/2+z
1/2+x,1/2-y,-z
-x,1/2+y,1/2-z
-x,-y,-z
1/2+x,y,1/2-z
1/2-x,1/2+y,z
x,1/2-y,1/2+z
loop_
_atom_site_type_symbol
_atom_site_label
_atom_site_fract_x
_atom_site_fract_y
_atom_site_fract_z
Si Si1 0.285810 0.590147 0.191874
Si Si2 0.910953 0.637144 0.159969
Si Si3 0.512910 0.915598 0.433465
Si Si4 0.941237 0.151725 0.718332
Si Si5 0.134012 0.291000 0.345135
Si Si6 0.898358 0.063078 0.089228
Si Si7 0.276319 0.561494 0.678612
O O1 0.339379 0.633282 0.260370
O O2 0.453453 0.588625 0.142409
O O3 0.229572 0.513378 0.213990
O O4 0.114605 0.620212 0.154426
O O5 0.896630 0.713907 0.128924
O O6 0.791900 0.587992 0.111884
O O7 0.441356 0.845376 0.400705
O O8 0.547269 0.903392 0.515211
O O9 0.694054 0.937400 0.398587
O O10 0.385894 0.980095 0.417880
O O11 0.839301 0.197727 0.661689
O O12 0.813741 0.113399 0.769563
O O13 0.057884 0.200991 0.766400
O O14 0.032562 0.091592 0.673370
#
# Coordination Sequence:
#
# PCOD8249156 Si02
#       7
#     8   8   8   8   8   8   8
#     4  11  22  36  63  90 120 153 202 251 305 359
#     4  12  23  38  61  92 124 157 199 249 313 363
#     4   9  21  44  61  82 123 159 205 252 301 356
#     4   9  18  32  58  86 120 149 198 249 300 353
#     4  10  21  37  57  89 121 159 195 249 307 364
#     4  10  23  44  63  86 122 163 202 259 300 355
#     4   9  18  33  58  90 111 152 200 251 299 348
#
# _framework density 19.51379
#
# number of rings (size 3 to 8) (size 9 to 14) (size 15 to 20)
#    0.000    2.000    1.429    1.714    8.000    0.000 
#    5.143    2.143    0.000    0.000    0.000    0.000 
#    0.000    0.000    0.000    0.000    0.000    0.000 
#
# Total GULP energy -694095.361107 kJ/mol
# GULP energy per Si atom -12394.560020 kJ/mol
# Density = 1.946938 g / cm^3
# Si number density = 19.513790 Si / 1000 Ang^3
#
#
#
# Elastic Constant Matrix: (Units=GPa)
#
#
# Indices 1 2 3 4 5 6 
#
# 1 66.5760 16.0869 6.3643 0.0000 0.0000 0.0000
# 2 16.0869 94.0999 21.8769 0.0000 0.0000 0.0000
# 3 6.3643 21.8769 70.8602 0.0000 0.0000 0.0000
# 4 0.0000 0.0000 0.0000 19.9915 0.0000 0.0000
# 5 0.0000 0.0000 0.0000 0.0000 8.6527 0.0000
# 6 0.0000 0.0000 0.0000 0.0000 0.0000 27.2565
#
#
#
# Elastic Compliance Matrix: (Units=1/GPa)
#
#
# Indices 1 2 3 4 5 6 
#
# 1 0.015693 -0.002537 -0.000626 0.000000 0.000000 0.000000
# 2 -0.002537 0.011859 -0.003433 0.000000 0.000000 0.000000
# 3 -0.000626 -0.003433 0.015229 0.000000 0.000000 0.000000
# 4 0.000000 0.000000 0.000000 0.050021 0.000000 0.000000
# 5 0.000000 0.000000 0.000000 0.000000 0.115570 0.000000
# 6 0.000000 0.000000 0.000000 0.000000 0.000000 0.036689
#
#
# Mechanical properties :
#
#
# Convention : Reuss Voigt Hill
#
# Bulk Modulus (GPa) = 33.79838 35.57695 34.68766
# Shear Modulus (GPa) = 18.64857 23.66067 21.15462
#
# Velocity S-wave (km/s) = 3.09473 3.48589 3.29612
# Velocity P-wave (km/s) = 5.48887 5.87139 5.68335
#
# Compressibility (1/GPa) = 0.02958722
#
# Stress axis : x y z
#
# Youngs Moduli (GPa) = 63.72115 84.32429 65.66622
#
# Poissons Ratio (x) = 0.21396 0.04112
# Poissons Ratio (y) = 0.16168 0.22546
# Poissons Ratio (z) = 0.03990 0.28952
#
# Static dielectric constant tensor:
#      x y z
#    x 4.038340 0.000000 0.000000 
#    y 0.000000 3.584750 0.000000 
#    z 0.000000 0.000000 3.465090 
# 
# 
# High freq. dielectric constant tensor:
#      x y z
#    x 1.767040 0.000000 0.000000 
#    y 0.000000 1.762730 0.000000 
#    z 0.000000 0.000000 1.732260 
# 
# From -- ./inp_files/9028.got.cif
#   From: 2010.03.12/outbox.cif.g09.slc.cpg/sg61_5_cif.got.tgz:9028.got - 2010.04.10 19:05:03.
