data_PCOD8249455
_publ_section_title
;
Structure prediction by ZEFSAII (Michael W. Deem and Ramdas Pophale) SiO2 
 PCOD8249455
Probable space group: P B C A
;
_chemical_formula_sum "Si O2"
_cell_formula_units_Z 40
_cell_length_a 14.679707
_cell_length_b 8.574828
_cell_length_c 13.414259
_cell_angle_alpha 90.000000
_cell_angle_beta 90.000000
_cell_angle_gamma 90.000000
_cell_volume 1688.532764
_symmetry_space_group_name_H-M "P B C A"
_symmetry_group_IT_number 61
_symmetry_cell_setting 'orthorhombic'
loop_
_space_group_symop_operation_xyz
x,y,z
1/2-x,-y,1/2+z
1/2+x,1/2-y,-z
-x,1/2+y,1/2-z
-x,-y,-z
1/2+x,y,1/2-z
1/2-x,1/2+y,z
x,1/2-y,1/2+z
loop_
_atom_site_type_symbol
_atom_site_label
_atom_site_fract_x
_atom_site_fract_y
_atom_site_fract_z
Si Si1 0.399898 0.622824 0.087884
Si Si2 0.683885 0.314346 0.268334
Si Si3 0.794272 0.468424 0.953448
Si Si4 0.430396 0.291121 0.019931
Si Si5 0.206608 0.591118 0.362691
O O1 0.401865 0.705333 0.197530
O O2 0.295849 0.641137 0.048426
O O3 0.464389 0.724022 0.013843
O O4 0.425723 0.439735 0.094764
O O5 0.717700 0.404863 0.366983
O O6 0.762512 0.198386 0.229227
O O7 0.659642 0.434861 0.181521
O O8 0.887166 0.367604 0.935360
O O9 0.791290 0.549401 0.063266
O O10 0.373642 0.324383 0.920332
#
# Coordination Sequence:
#
# PCOD8249455 Si02
#       5
#     8   8   8   8   8
#     4  10  22  42  69 101 132 175 222 279 336 403
#     4  12  24  40  70  97 131 181 233 273 339 406
#     4  11  23  44  73  97 139 182 220 289 340 402
#     4  10  23  46  68  98 139 176 220 281 343 398
#     4  11  24  42  64 100 131 182 226 277 340 399
#
# _framework density 23.689205000000001
#
# number of rings (size 3 to 8) (size 9 to 14) (size 15 to 20)
#    0.000    1.200    4.000    2.400    2.800    0.800 
#    7.200    2.000    0.000    0.000    0.000    0.000 
#    0.000    0.000    0.000    0.000    0.000    0.000 
#
# Total GULP energy -495535.751063 kJ/mol
# GULP energy per Si atom -12388.393777 kJ/mol
# Density = 2.363529 g / cm^3
# Si number density = 23.689205 Si / 1000 Ang^3
#
#
#
# Elastic Constant Matrix: (Units=GPa)
#
#
# Indices 1 2 3 4 5 6 
#
# 1 67.4832 19.5043 0.5359 0.0000 0.0000 0.0000
# 2 19.5043 110.0347 47.6992 0.0000 0.0000 0.0000
# 3 0.5359 47.6992 85.2228 0.0000 0.0000 0.0000
# 4 0.0000 0.0000 0.0000 46.8632 0.0000 0.0000
# 5 0.0000 0.0000 0.0000 0.0000 31.2669 0.0000
# 6 0.0000 0.0000 0.0000 0.0000 0.0000 26.1974
#
#
#
# Elastic Compliance Matrix: (Units=1/GPa)
#
#
# Indices 1 2 3 4 5 6 
#
# 1 0.015859 -0.003655 0.001946 0.000000 0.000000 0.000000
# 2 -0.003655 0.012842 -0.007164 0.000000 0.000000 0.000000
# 3 0.001946 -0.007164 0.015732 0.000000 0.000000 0.000000
# 4 0.000000 0.000000 0.000000 0.021339 0.000000 0.000000
# 5 0.000000 0.000000 0.000000 0.000000 0.031983 0.000000
# 6 0.000000 0.000000 0.000000 0.000000 0.000000 0.038172
#
#
# Mechanical properties :
#
#
# Convention : Reuss Voigt Hill
#
# Bulk Modulus (GPa) = 37.47290 44.24659 40.85975
# Shear Modulus (GPa) = 30.75645 33.86561 32.31103
#
# Velocity S-wave (km/s) = 3.60715 3.78508 3.69718
# Velocity P-wave (km/s) = 5.76208 6.14987 5.95913
#
# Compressibility (1/GPa) = 0.02668595
#
# Stress axis : x y z
#
# Youngs Moduli (GPa) = 63.05437 77.87202 63.56610
#
# Poissons Ratio (x) = 0.28459 -0.12369
# Poissons Ratio (y) = 0.23044 0.45542
# Poissons Ratio (z) = -0.12269 0.55791
#
# Static dielectric constant tensor:
#      x y z
#    x 4.096000 0.000000 0.000000 
#    y 0.000000 4.611560 0.000000 
#    z 0.000000 0.000000 4.371560 
# 
# 
# High freq. dielectric constant tensor:
#      x y z
#    x 1.900820 0.000000 0.000000 
#    y 0.000000 1.958330 0.000000 
#    z 0.000000 0.000000 1.931470 
# 
# From -- ./inp_files/7700.got.cif
#   From: 2010.03.12/outbox.cif.g09.slc.cpg/sg61_4_cif.got.tgz:7700.got - 2010.04.10 19:05:03.
