data_PCOD8249206
_publ_section_title
;
Structure prediction by ZEFSAII (Michael W. Deem and Ramdas Pophale) SiO2 
 PCOD8249206
Probable space group: P B C A
;
_chemical_formula_sum "Si O2"
_cell_formula_units_Z 64
_cell_length_a 15.084568
_cell_length_b 20.949961
_cell_length_c 8.572313
_cell_angle_alpha 90.000000
_cell_angle_beta 90.000000
_cell_angle_gamma 90.000000
_cell_volume 2709.031881
_symmetry_space_group_name_H-M "P B C A"
_symmetry_group_IT_number 61
_symmetry_cell_setting 'orthorhombic'
loop_
_space_group_symop_operation_xyz
x,y,z
1/2-x,-y,1/2+z
1/2+x,1/2-y,-z
-x,1/2+y,1/2-z
-x,-y,-z
1/2+x,y,1/2-z
1/2-x,1/2+y,z
x,1/2-y,1/2+z
loop_
_atom_site_type_symbol
_atom_site_label
_atom_site_fract_x
_atom_site_fract_y
_atom_site_fract_z
Si Si1 0.186617 0.977771 0.102262
Si Si2 0.609873 0.786118 0.412742
Si Si3 0.530951 0.593427 0.748540
Si Si4 0.831499 0.565943 0.671466
Si Si5 0.819728 0.127777 0.161470
Si Si6 0.141928 0.179180 0.359446
Si Si7 0.298325 0.801244 0.207776
Si Si8 0.044370 0.643984 0.091232
O O1 0.192436 0.923645 0.972121
O O2 0.177927 0.044168 0.008764
O O3 0.099980 0.961994 0.204528
O O4 0.273999 0.979652 0.212004
O O5 0.545133 0.839539 0.338748
O O6 0.638537 0.808269 0.585471
O O7 0.698453 0.775679 0.310014
O O8 0.562635 0.718813 0.436034
O O9 0.434108 0.565140 0.780687
O O10 0.543692 0.604746 0.566509
O O11 0.791458 0.636770 0.682290
O O12 0.721464 0.141949 0.227359
O O13 0.884384 0.107451 0.301075
O O14 0.156572 0.179812 0.545394
O O15 0.138504 0.250786 0.293161
O O16 0.051455 0.141515 0.324478
#
# Coordination Sequence:
#
# PCOD8249206 Si02
#       8
#     8   8   8   8   8   8   8   8
#     4  11  26  49  73  98 138 187 245 299 360 415
#     4  10  21  38  67 100 145 185 227 284 362 438
#     4  11  23  45  71 103 146 183 238 297 353 427
#     4  12  24  51  72 100 140 191 241 304 351 422
#     4  10  22  43  61  98 141 180 236 291 351 434
#     4  11  23  41  65 109 143 188 229 291 358 442
#     4  11  22  43  70  97 150 179 233 290 361 428
#     4  12  22  36  69 103 145 189 228 288 366 431
#
# _framework density 23.624676999999998
#
# number of rings (size 3 to 8) (size 9 to 14) (size 15 to 20)
#    0.000    1.000    6.250    1.875    3.500    1.000 
#    2.250    6.250    0.000    0.000    0.000    0.000 
#    0.000    0.000    0.000    0.000    0.000    0.000 
#
# Total GULP energy -793719.253029 kJ/mol
# GULP energy per Si atom -12401.863329 kJ/mol
# Density = 2.357091 g / cm^3
# Si number density = 23.624677 Si / 1000 Ang^3
#
#
#
# Elastic Constant Matrix: (Units=GPa)
#
#
# Indices 1 2 3 4 5 6 
#
# 1 171.2732 38.1587 66.1482 0.0000 0.0000 0.0000
# 2 38.1587 33.7616 39.2008 0.0000 0.0000 0.0000
# 3 66.1482 39.2008 96.9025 0.0000 0.0000 0.0000
# 4 0.0000 0.0000 0.0000 45.8423 0.0000 0.0000
# 5 0.0000 0.0000 0.0000 0.0000 39.0362 0.0000
# 6 0.0000 0.0000 0.0000 0.0000 0.0000 26.8112
#
#
#
# Elastic Compliance Matrix: (Units=1/GPa)
#
#
# Indices 1 2 3 4 5 6 
#
# 1 0.008413 -0.005357 -0.003576 0.000000 0.000000 0.000000
# 2 -0.005357 0.059266 -0.020319 0.000000 0.000000 0.000000
# 3 -0.003576 -0.020319 0.020981 0.000000 0.000000 0.000000
# 4 0.000000 0.000000 0.000000 0.021814 0.000000 0.000000
# 5 0.000000 0.000000 0.000000 0.000000 0.025617 0.000000
# 6 0.000000 0.000000 0.000000 0.000000 0.000000 0.037298
#
#
# Mechanical properties :
#
#
# Convention : Reuss Voigt Hill
#
# Bulk Modulus (GPa) = 33.16015 65.43919 49.29967
# Shear Modulus (GPa) = 20.66587 32.89989 26.78288
#
# Velocity S-wave (km/s) = 2.96084 3.73581 3.37067
# Velocity P-wave (km/s) = 5.07498 6.80941 6.00514
#
# Compressibility (1/GPa) = 0.03015668
#
# Stress axis : x y z
#
# Youngs Moduli (GPa) = 118.86077 16.87298 47.66322
#
# Poissons Ratio (x) = 0.09038 0.17045
# Poissons Ratio (y) = 0.63671 0.96846
# Poissons Ratio (z) = 0.42505 0.34284
#
# Static dielectric constant tensor:
#      x y z
#    x 4.477630 0.000000 0.000000 
#    y 0.000000 4.216710 0.000000 
#    z 0.000000 0.000000 4.293380 
# 
# 
# High freq. dielectric constant tensor:
#      x y z
#    x 1.948200 0.000000 0.000000 
#    y 0.000000 1.923480 0.000000 
#    z 0.000000 0.000000 1.933020 
# 
# From -- ./inp_files/3194.got.cif
#   From: 2010.03.12/outbox.cif.g09.slc.cpg/sg61_2_cif.got.tgz:3194.got - 2010.04.10 19:05:03.
