data_PCOD8249121
_publ_section_title
;
Structure prediction by ZEFSAII (Michael W. Deem and Ramdas Pophale) SiO2 
 PCOD8249121
Probable space group: P B C A
;
_chemical_formula_sum "Si O2"
_cell_formula_units_Z 56
_cell_length_a 13.731809
_cell_length_b 15.382931
_cell_length_c 10.497761
_cell_angle_alpha 90.000000
_cell_angle_beta 90.000000
_cell_angle_gamma 90.000000
_cell_volume 2217.499482
_symmetry_space_group_name_H-M "P B C A"
_symmetry_group_IT_number 61
_symmetry_cell_setting 'orthorhombic'
loop_
_space_group_symop_operation_xyz
x,y,z
1/2-x,-y,1/2+z
1/2+x,1/2-y,-z
-x,1/2+y,1/2-z
-x,-y,-z
1/2+x,y,1/2-z
1/2-x,1/2+y,z
x,1/2-y,1/2+z
loop_
_atom_site_type_symbol
_atom_site_label
_atom_site_fract_x
_atom_site_fract_y
_atom_site_fract_z
Si Si1 0.515241 0.947976 0.658952
Si Si2 0.778747 0.563761 0.971365
Si Si3 0.281921 0.521721 0.790582
Si Si4 0.719708 0.277481 0.188860
Si Si5 0.064371 0.732657 0.288077
Si Si6 0.890034 0.726472 0.938728
Si Si7 0.925771 0.111741 0.900218
O O1 0.526321 0.864891 0.754696
O O2 0.500188 0.903845 0.518660
O O3 0.611015 0.007676 0.655809
O O4 0.430490 0.020516 0.684681
O O5 0.775780 0.490638 0.858027
O O6 0.873167 0.623308 0.950592
O O7 0.681832 0.623878 0.958639
O O8 0.791712 0.524894 0.112301
O O9 0.252316 0.622874 0.785727
O O10 0.661497 0.237386 0.309036
O O11 0.821632 0.225565 0.175450
O O12 0.653837 0.272848 0.062820
O O13 0.005843 0.759836 0.417196
O O14 0.042306 0.802767 0.177718
#
# Coordination Sequence:
#
# PCOD8249121 Si02
#       7
#     8   8   8   8   8   8   8
#     4  10  24  40  72 101 137 199 248 297 370 458
#     4  10  21  43  65  97 141 182 235 302 363 440
#     4  10  21  42  68  95 139 189 236 303 365 436
#     4  11  25  46  70 107 150 189 249 317 363 458
#     4  12  25  44  76 104 148 194 248 311 374 440
#     4  11  26  43  69 105 141 191 242 304 374 443
#     4  10  20  44  69 100 142 187 252 295 365 447
#
# _framework density 25.25367
#
# number of rings (size 3 to 8) (size 9 to 14) (size 15 to 20)
#    0.000    1.429    2.857    3.429    8.000    2.286 
#    0.000    0.714    0.000    0.000    0.000    0.000 
#    0.000    0.000    0.000    0.000    0.000    0.000 
#
# Total GULP energy -693768.475559 kJ/mol
# GULP energy per Si atom -12388.722778 kJ/mol
# Density = 2.519619 g / cm^3
# Si number density = 25.253670 Si / 1000 Ang^3
#
#
#
# Elastic Constant Matrix: (Units=GPa)
#
#
# Indices 1 2 3 4 5 6 
#
# 1 36.8737 -15.6582 -6.1095 0.0000 0.0000 0.0000
# 2 -15.6582 109.9828 19.8027 0.0000 0.0000 0.0000
# 3 -6.1095 19.8027 124.0105 0.0000 0.0000 0.0000
# 4 0.0000 0.0000 0.0000 42.8585 0.0000 0.0000
# 5 0.0000 0.0000 0.0000 0.0000 16.2455 0.0000
# 6 0.0000 0.0000 0.0000 0.0000 0.0000 30.8203
#
#
#
# Elastic Compliance Matrix: (Units=1/GPa)
#
#
# Indices 1 2 3 4 5 6 
#
# 1 0.028940 0.003978 0.000791 0.000000 0.000000 0.000000
# 2 0.003978 0.009908 -0.001386 0.000000 0.000000 0.000000
# 3 0.000791 -0.001386 0.008324 0.000000 0.000000 0.000000
# 4 0.000000 0.000000 0.000000 0.023333 0.000000 0.000000
# 5 0.000000 0.000000 0.000000 0.000000 0.061555 0.000000
# 6 0.000000 0.000000 0.000000 0.000000 0.000000 0.032446
#
#
# Mechanical properties :
#
#
# Convention : Reuss Voigt Hill
#
# Bulk Modulus (GPa) = 18.54039 29.65968 24.10004
# Shear Modulus (GPa) = 28.45422 36.17366 32.31394
#
# Velocity S-wave (km/s) = 3.36033 3.78883 3.58099
# Velocity P-wave (km/s) = 4.73428 5.55972 5.16352
#
# Compressibility (1/GPa) = 0.05393629
#
# Stress axis : x y z
#
# Youngs Moduli (GPa) = 34.55461 100.92611 120.13248
#
# Poissons Ratio (x) = -0.40146 -0.09497
# Poissons Ratio (y) = -0.13745 0.16653
# Poissons Ratio (z) = -0.02732 0.13991
#
# Static dielectric constant tensor:
#      x y z
#    x 4.424440 0.000000 0.000000 
#    y 0.000000 4.629340 0.000000 
#    z 0.000000 0.000000 4.867100 
# 
# 
# High freq. dielectric constant tensor:
#      x y z
#    x 1.998820 0.000000 0.000000 
#    y 0.000000 1.999260 0.000000 
#    z 0.000000 0.000000 2.006830 
# 
# From -- ./inp_files/5798.got.cif
#   From: 2010.03.12/outbox.cif.g09.slc.cpg/sg61_3_cif.got.tgz:5798.got - 2010.04.10 19:05:03.
