data_PCOD8249644
_publ_section_title
;
Structure prediction by ZEFSAII (Michael W. Deem and Ramdas Pophale) SiO2 
 PCOD8249644
Probable space group: P B C A
;
_chemical_formula_sum "Si O2"
_cell_formula_units_Z 32
_cell_length_a 8.845134
_cell_length_b 26.786440
_cell_length_c 5.173768
_cell_angle_alpha 90.000000
_cell_angle_beta 90.000000
_cell_angle_gamma 90.000000
_cell_volume 1225.819048
_symmetry_space_group_name_H-M "P B C A"
_symmetry_group_IT_number 61
_symmetry_cell_setting 'orthorhombic'
loop_
_space_group_symop_operation_xyz
x,y,z
1/2-x,-y,1/2+z
1/2+x,1/2-y,-z
-x,1/2+y,1/2-z
-x,-y,-z
1/2+x,y,1/2-z
1/2-x,1/2+y,z
x,1/2-y,1/2+z
loop_
_atom_site_type_symbol
_atom_site_label
_atom_site_fract_x
_atom_site_fract_y
_atom_site_fract_z
Si Si1 0.742006 0.282780 0.471958
Si Si2 0.976931 0.348916 0.208525
Si Si3 0.224417 0.083983 0.952822
Si Si4 0.898921 0.503733 0.248993
O O1 0.749033 0.261225 0.760010
O O2 0.583851 0.312230 0.453441
O O3 0.885072 0.318727 0.427981
O O4 0.071334 0.391866 0.347489
O O5 0.855804 0.374539 0.013397
O O6 0.274879 0.040409 0.752207
O O7 0.188974 0.057326 0.228732
O O8 0.000000 0.500000 0.500000
O O9 0.000000 0.500000 0.000000
#
# Coordination Sequence:
#
# PCOD8249644 Si02
#       4
#     8   8   8   8
#     4  11  24  50  75 111 155 199 251 321 407 471
#     4  10  24  47  78 117 149 206 260 328 382 483
#     4  11  24  50  75 116 156 206 268 319 391 460
#     4  12  26  49  75 108 158 209 254 321 394 458
#
# _framework density 26.104996
#
# number of rings (size 3 to 8) (size 9 to 14) (size 15 to 20)
#    0.000    1.000    2.500    3.000    0.000    0.000 
#   18.000    0.000    0.000    0.000    0.000    0.000 
#    0.000    0.000    0.000    0.000    0.000    0.000 
#
# Total GULP energy -396825.716566 kJ/mol
# GULP energy per Si atom -12400.803643 kJ/mol
# Density = 2.604558 g / cm^3
# Si number density = 26.104996 Si / 1000 Ang^3
#
#
#
# Elastic Constant Matrix: (Units=GPa)
#
#
# Indices 1 2 3 4 5 6 
#
# 1 167.7981 64.4693 41.5098 0.0000 0.0000 0.0000
# 2 64.4693 142.9522 31.7152 0.0000 0.0000 0.0000
# 3 41.5098 31.7152 100.4724 0.0000 0.0000 0.0000
# 4 0.0000 0.0000 0.0000 28.8337 0.0000 0.0000
# 5 0.0000 0.0000 0.0000 0.0000 38.3959 0.0000
# 6 0.0000 0.0000 0.0000 0.0000 0.0000 62.7594
#
#
#
# Elastic Compliance Matrix: (Units=1/GPa)
#
#
# Indices 1 2 3 4 5 6 
#
# 1 0.007645 -0.002954 -0.002226 0.000000 0.000000 0.000000
# 2 -0.002954 0.008664 -0.001514 0.000000 0.000000 0.000000
# 3 -0.002226 -0.001514 0.011351 0.000000 0.000000 0.000000
# 4 0.000000 0.000000 0.000000 0.034682 0.000000 0.000000
# 5 0.000000 0.000000 0.000000 0.000000 0.026044 0.000000
# 6 0.000000 0.000000 0.000000 0.000000 0.000000 0.015934
#
#
# Mechanical properties :
#
#
# Convention : Reuss Voigt Hill
#
# Bulk Modulus (GPa) = 70.07423 76.29013 73.18218
# Shear Modulus (GPa) = 40.82800 44.23303 42.53051
#
# Velocity S-wave (km/s) = 3.95902 4.12081 4.04073
# Velocity P-wave (km/s) = 6.91375 7.20619 7.06149
#
# Compressibility (1/GPa) = 0.01427058
#
# Stress axis : x y z
#
# Youngs Moduli (GPa) = 130.80134 115.42668 88.10027
#
# Poissons Ratio (x) = 0.34097 0.19612
# Poissons Ratio (y) = 0.38638 0.13341
# Poissons Ratio (z) = 0.29118 0.17479
#
# Static dielectric constant tensor:
#      x y z
#    x 5.480060 0.000000 0.000000 
#    y 0.000000 5.028030 0.000000 
#    z 0.000000 0.000000 4.432470 
# 
# 
# High freq. dielectric constant tensor:
#      x y z
#    x 2.080540 0.000000 0.000000 
#    y 0.000000 2.065310 0.000000 
#    z 0.000000 0.000000 2.016690 
# 
# From -- ./inp_files/97.got.cif
#   From: 2010.03.12/outbox.cif.g09.slc.cpg/sg61_1_cif.got.tgz:97.got - 2010.04.10 19:05:03.
