data_PCOD8249532
_publ_section_title
;
Structure prediction by ZEFSAII (Michael W. Deem and Ramdas Pophale) SiO2 
 PCOD8249532
Probable space group: P B C A
;
_chemical_formula_sum "Si O2"
_cell_formula_units_Z 48
_cell_length_a 13.639201
_cell_length_b 11.113552
_cell_length_c 14.901017
_cell_angle_alpha 90.000000
_cell_angle_beta 90.000000
_cell_angle_gamma 90.000000
_cell_volume 2258.695703
_symmetry_space_group_name_H-M "P B C A"
_symmetry_group_IT_number 61
_symmetry_cell_setting 'orthorhombic'
loop_
_space_group_symop_operation_xyz
x,y,z
1/2-x,-y,1/2+z
1/2+x,1/2-y,-z
-x,1/2+y,1/2-z
-x,-y,-z
1/2+x,y,1/2-z
1/2-x,1/2+y,z
x,1/2-y,1/2+z
loop_
_atom_site_type_symbol
_atom_site_label
_atom_site_fract_x
_atom_site_fract_y
_atom_site_fract_z
Si Si1 0.094618 0.700970 0.627943
Si Si2 0.260941 0.576194 0.855574
Si Si3 0.566011 0.973036 0.212422
Si Si4 0.351758 0.040114 0.186818
Si Si5 0.746901 0.423606 0.481743
Si Si6 0.611473 0.294904 0.618073
O O1 0.083867 0.581375 0.688968
O O2 0.170919 0.672350 0.548513
O O3 0.988808 0.731567 0.585656
O O4 0.131276 0.816402 0.684326
O O5 0.142183 0.595219 0.854745
O O6 0.288923 0.485613 0.775313
O O7 0.312409 0.702063 0.839909
O O8 0.295893 0.517219 0.948787
O O9 0.451959 0.960658 0.186525
O O10 0.591712 0.114777 0.201395
O O11 0.291163 0.999560 0.101267
O O12 0.656668 0.356749 0.530069
#
# Coordination Sequence:
#
# PCOD8249532 Si02
#       6
#     8   8   8   8   8   8
#     4  11  23  44  67  99 135 178 225 278 340 398
#     4  11  23  43  67  98 133 176 228 274 335 403
#     4  10  23  41  70  91 131 179 219 272 337 398
#     4  11  24  45  66  97 135 177 225 276 345 400
#     4  11  25  41  68 102 134 179 223 282 338 403
#     4  10  24  44  64 103 136 170 232 277 330 407
#
# _framework density 21.251200999999998
#
# number of rings (size 3 to 8) (size 9 to 14) (size 15 to 20)
#    0.000    1.333    3.333    1.000    4.667    8.000 
#    3.000    0.000    0.000    0.000    0.000    0.000 
#    0.000    0.000    0.000    0.000    0.000    0.000 
#
# Total GULP energy -595001.039662 kJ/mol
# GULP energy per Si atom -12395.854993 kJ/mol
# Density = 2.120283 g / cm^3
# Si number density = 21.251201 Si / 1000 Ang^3
#
#
#
# Elastic Constant Matrix: (Units=GPa)
#
#
# Indices 1 2 3 4 5 6 
#
# 1 116.8817 44.9896 39.0329 0.0000 0.0000 0.0000
# 2 44.9896 91.8697 49.7753 0.0000 0.0000 0.0000
# 3 39.0329 49.7753 110.4102 0.0000 0.0000 0.0000
# 4 0.0000 0.0000 0.0000 31.2006 0.0000 0.0000
# 5 0.0000 0.0000 0.0000 0.0000 33.4505 0.0000
# 6 0.0000 0.0000 0.0000 0.0000 0.0000 33.3415
#
#
#
# Elastic Compliance Matrix: (Units=1/GPa)
#
#
# Indices 1 2 3 4 5 6 
#
# 1 0.010837 -0.004276 -0.001904 0.000000 0.000000 0.000000
# 2 -0.004276 0.016090 -0.005742 0.000000 0.000000 0.000000
# 3 -0.001904 -0.005742 0.012319 0.000000 0.000000 0.000000
# 4 0.000000 0.000000 0.000000 0.032051 0.000000 0.000000
# 5 0.000000 0.000000 0.000000 0.000000 0.029895 0.000000
# 6 0.000000 0.000000 0.000000 0.000000 0.000000 0.029993
#
#
# Mechanical properties :
#
#
# Convention : Reuss Voigt Hill
#
# Bulk Modulus (GPa) = 64.92245 65.19522 65.05883
# Shear Modulus (GPa) = 31.21852 31.95611 31.58731
#
# Velocity S-wave (km/s) = 3.83694 3.88200 3.85954
# Velocity P-wave (km/s) = 7.08843 7.13009 7.10929
#
# Compressibility (1/GPa) = 0.01540299
#
# Stress axis : x y z
#
# Youngs Moduli (GPa) = 92.27507 62.15071 81.17673
#
# Poissons Ratio (x) = 0.26574 0.15453
# Poissons Ratio (y) = 0.39454 0.46613
# Poissons Ratio (z) = 0.17566 0.35688
#
# Static dielectric constant tensor:
#      x y z
#    x 4.251380 0.000000 0.000000 
#    y 0.000000 3.909780 0.000000 
#    z 0.000000 0.000000 3.613680 
# 
# 
# High freq. dielectric constant tensor:
#      x y z
#    x 1.853570 0.000000 0.000000 
#    y 0.000000 1.835380 0.000000 
#    z 0.000000 0.000000 1.813750 
# 
# From -- ./inp_files/7447.got.cif
#   From: 2010.03.12/outbox.cif.g09.slc.cpg/sg61_4_cif.got.tgz:7447.got - 2010.04.10 19:05:03.
