data_PCOD8249907
_publ_section_title
;
Structure prediction by ZEFSAII (Michael W. Deem and Ramdas Pophale) SiO2 
 PCOD8249907
Probable space group: P B C A
;
_chemical_formula_sum "Si O2"
_cell_formula_units_Z 64
_cell_length_a 23.058695
_cell_length_b 9.493765
_cell_length_c 13.396865
_cell_angle_alpha 90.000000
_cell_angle_beta 90.000000
_cell_angle_gamma 90.000000
_cell_volume 2932.759048
_symmetry_space_group_name_H-M "P B C A"
_symmetry_group_IT_number 61
_symmetry_cell_setting 'orthorhombic'
loop_
_space_group_symop_operation_xyz
x,y,z
1/2-x,-y,1/2+z
1/2+x,1/2-y,-z
-x,1/2+y,1/2-z
-x,-y,-z
1/2+x,y,1/2-z
1/2-x,1/2+y,z
x,1/2-y,1/2+z
loop_
_atom_site_type_symbol
_atom_site_label
_atom_site_fract_x
_atom_site_fract_y
_atom_site_fract_z
Si Si1 0.495110 0.790369 0.154982
Si Si2 0.380454 0.362104 0.424393
Si Si3 0.317601 0.550310 0.730517
Si Si4 0.883898 0.579842 0.569605
Si Si5 0.875637 0.147077 0.917962
Si Si6 0.502913 0.536000 0.847244
Si Si7 0.296105 0.223944 0.755877
Si Si8 0.113325 0.364609 0.033877
O O1 0.562343 0.804663 0.128768
O O2 0.483314 0.626373 0.178012
O O3 0.479492 0.884186 0.249974
O O4 0.453395 0.845476 0.067084
O O5 0.376138 0.303258 0.536879
O O6 0.324794 0.312086 0.362102
O O7 0.383582 0.529009 0.440282
O O8 0.365205 0.569922 0.816039
O O9 0.294134 0.390382 0.732642
O O10 0.268092 0.662876 0.755008
O O11 0.345283 0.589142 0.624249
O O12 0.854050 0.456637 0.505473
O O13 0.953812 0.555814 0.567306
O O14 0.863876 0.720968 0.514686
O O15 0.832061 0.138543 0.826519
O O16 0.939373 0.111286 0.881803
#
# Coordination Sequence:
#
# PCOD8249907 Si02
#       8
#     8   8   8   8   8   8   8   8
#     4  12  25  43  72 109 148 189 231 289 356 428
#     4  12  26  47  73 106 143 189 232 290 359 424
#     4  12  29  51  72 104 143 185 245 302 352 417
#     4  12  26  48  75 106 148 188 236 292 355 428
#     4  12  24  47  75 102 145 189 231 283 365 423
#     4  12  25  42  74 107 150 188 228 290 360 425
#     4  12  29  49  75 103 141 189 243 301 352 416
#     4  12  28  46  74 110 143 188 237 292 356 431
#
# _framework density 21.822454
#
# number of rings (size 3 to 8) (size 9 to 14) (size 15 to 20)
#    0.000    0.000    7.500    1.500    7.000    2.000 
#    0.000    0.000    0.000    0.000    0.000    0.000 
#    0.000    0.000    0.000    0.000    0.000    0.000 
#
# Total GULP energy -793930.203582 kJ/mol
# GULP energy per Si atom -12405.159431 kJ/mol
# Density = 2.177279 g / cm^3
# Si number density = 21.822454 Si / 1000 Ang^3
#
#
#
# Elastic Constant Matrix: (Units=GPa)
#
#
# Indices 1 2 3 4 5 6 
#
# 1 84.8826 20.2697 6.8832 0.0000 0.0000 0.0000
# 2 20.2697 120.0883 29.4455 0.0000 0.0000 0.0000
# 3 6.8832 29.4455 71.6605 0.0000 0.0000 0.0000
# 4 0.0000 0.0000 0.0000 41.9014 0.0000 0.0000
# 5 0.0000 0.0000 0.0000 0.0000 17.9575 0.0000
# 6 0.0000 0.0000 0.0000 0.0000 0.0000 26.5074
#
#
#
# Elastic Compliance Matrix: (Units=1/GPa)
#
#
# Indices 1 2 3 4 5 6 
#
# 1 0.012284 -0.001984 -0.000365 0.000000 0.000000 0.000000
# 2 -0.001984 0.009581 -0.003746 0.000000 0.000000 0.000000
# 3 -0.000365 -0.003746 0.015529 0.000000 0.000000 0.000000
# 4 0.000000 0.000000 0.000000 0.023866 0.000000 0.000000
# 5 0.000000 0.000000 0.000000 0.000000 0.055687 0.000000
# 6 0.000000 0.000000 0.000000 0.000000 0.000000 0.037725
#
#
# Mechanical properties :
#
#
# Convention : Reuss Voigt Hill
#
# Bulk Modulus (GPa) = 39.67588 43.31424 41.49506
# Shear Modulus (GPa) = 28.52854 31.94213 30.23534
#
# Velocity S-wave (km/s) = 3.61959 3.83002 3.72629
# Velocity P-wave (km/s) = 5.97405 6.28095 6.12942
#
# Compressibility (1/GPa) = 0.02520423
#
# Stress axis : x y z
#
# Youngs Moduli (GPa) = 81.40444 104.37717 64.39560
#
# Poissons Ratio (x) = 0.20709 0.02349
# Poissons Ratio (y) = 0.16151 0.24123
# Poissons Ratio (z) = 0.02969 0.39101
#
# Static dielectric constant tensor:
#      x y z
#    x 3.742830 0.000000 0.000000 
#    y 0.000000 4.237650 0.000000 
#    z 0.000000 0.000000 4.149310 
# 
# 
# High freq. dielectric constant tensor:
#      x y z
#    x 1.848480 0.000000 0.000000 
#    y 0.000000 1.874530 0.000000 
#    z 0.000000 0.000000 1.870390 
# 
# From -- ./inp_files/8512.got.cif
#   From: 2010.03.12/outbox.cif.g09.slc.cpg/sg61_5_cif.got.tgz:8512.got - 2010.04.10 19:05:03.
