data_PCOD8249704
_publ_section_title
;
Structure prediction by ZEFSAII (Michael W. Deem and Ramdas Pophale) SiO2 
 PCOD8249704
Probable space group: P B C A
;
_chemical_formula_sum "Si O2"
_cell_formula_units_Z 48
_cell_length_a 27.685701
_cell_length_b 4.952843
_cell_length_c 16.652817
_cell_angle_alpha 90.000000
_cell_angle_beta 90.000000
_cell_angle_gamma 90.000000
_cell_volume 2283.483066
_symmetry_space_group_name_H-M "P B C A"
_symmetry_group_IT_number 61
_symmetry_cell_setting 'orthorhombic'
loop_
_space_group_symop_operation_xyz
x,y,z
1/2-x,-y,1/2+z
1/2+x,1/2-y,-z
-x,1/2+y,1/2-z
-x,-y,-z
1/2+x,y,1/2-z
1/2-x,1/2+y,z
x,1/2-y,1/2+z
loop_
_atom_site_type_symbol
_atom_site_label
_atom_site_fract_x
_atom_site_fract_y
_atom_site_fract_z
Si Si1 0.127590 0.360999 0.725467
Si Si2 0.647820 0.661865 0.996346
Si Si3 0.880851 0.666945 0.093885
Si Si4 0.780926 0.103289 0.865118
Si Si5 0.082537 0.825344 0.651898
Si Si6 0.490902 0.757223 0.943297
O O1 0.137465 0.271727 0.816263
O O2 0.176379 0.483342 0.688487
O O3 0.090804 0.614758 0.724632
O O4 0.103644 0.119248 0.673891
O O5 0.642697 0.365892 0.031125
O O6 0.638811 0.873490 0.068001
O O7 0.701218 0.640069 0.957361
O O8 0.608898 0.721197 0.927900
O O9 0.937853 0.720226 0.093122
O O10 0.735391 0.909465 0.846758
O O11 0.025847 0.802445 0.633168
O O12 0.500000 0.500000 0.000000
O O13 0.500000 0.000000 0.000000
#
# Coordination Sequence:
#
# PCOD8249704 Si02
#       6
#     8   8   8   8   8   8
#     4  11  25  40  64  93 132 169 208 268 345 381
#     4  11  22  40  67  90 124 166 217 263 325 382
#     4  12  23  41  62  98 133 169 210 275 327 374
#     4  11  23  44  68  92 119 163 216 262 323 412
#     4  11  21  40  62  91 127 180 219 255 304 398
#     4  12  22  37  63  95 129 176 230 265 308 373
#
# _framework density 21.020519
#
# number of rings (size 3 to 8) (size 9 to 14) (size 15 to 20)
#    0.000    0.667    3.333    7.000    0.000    1.333 
#    0.000    5.000    0.000    0.000    0.000    0.000 
#    0.000    0.000    0.000    0.000    0.000    0.000 
#
# Total GULP energy -594744.577339 kJ/mol
# GULP energy per Si atom -12390.512028 kJ/mol
# Density = 2.097268 g / cm^3
# Si number density = 21.020519 Si / 1000 Ang^3
#
#
#
# Elastic Constant Matrix: (Units=GPa)
#
#
# Indices 1 2 3 4 5 6 
#
# 1 73.6205 27.8160 29.1136 0.0000 0.0000 0.0000
# 2 27.8160 105.5176 16.2395 0.0000 0.0000 0.0000
# 3 29.1136 16.2395 91.8412 0.0000 0.0000 0.0000
# 4 0.0000 0.0000 0.0000 32.1672 0.0000 0.0000
# 5 0.0000 0.0000 0.0000 0.0000 22.0775 0.0000
# 6 0.0000 0.0000 0.0000 0.0000 0.0000 36.0076
#
#
#
# Elastic Compliance Matrix: (Units=1/GPa)
#
#
# Indices 1 2 3 4 5 6 
#
# 1 0.016839 -0.003719 -0.004680 0.000000 0.000000 0.000000
# 2 -0.003719 0.010563 -0.000689 0.000000 0.000000 0.000000
# 3 -0.004680 -0.000689 0.012494 0.000000 0.000000 0.000000
# 4 0.000000 0.000000 0.000000 0.031088 0.000000 0.000000
# 5 0.000000 0.000000 0.000000 0.000000 0.045295 0.000000
# 6 0.000000 0.000000 0.000000 0.000000 0.000000 0.027772
#
#
# Mechanical properties :
#
#
# Convention : Reuss Voigt Hill
#
# Bulk Modulus (GPa) = 46.04026 46.36860 46.20443
# Shear Modulus (GPa) = 29.50423 31.23781 30.37102
#
# Velocity S-wave (km/s) = 3.75052 3.85913 3.80521
# Velocity P-wave (km/s) = 6.38007 6.47795 6.42919
#
# Compressibility (1/GPa) = 0.02172012
#
# Stress axis : x y z
#
# Youngs Moduli (GPa) = 59.38552 94.66618 80.03910
#
# Poissons Ratio (x) = 0.35204 0.37462
# Poissons Ratio (y) = 0.22084 0.05515
# Poissons Ratio (z) = 0.27795 0.06523
#
# Static dielectric constant tensor:
#      x y z
#    x 3.916310 0.000000 0.000000 
#    y 0.000000 4.188290 0.000000 
#    z 0.000000 0.000000 3.767030 
# 
# 
# High freq. dielectric constant tensor:
#      x y z
#    x 1.821580 0.000000 0.000000 
#    y 0.000000 1.847830 0.000000 
#    z 0.000000 0.000000 1.812690 
# 
# From -- ./inp_files/8587.got.cif
#   From: 2010.03.12/outbox.cif.g09.slc.cpg/sg61_5_cif.got.tgz:8587.got - 2010.04.10 19:05:03.
