data_PCOD8249464
_publ_section_title
;
Structure prediction by ZEFSAII (Michael W. Deem and Ramdas Pophale) SiO2 
 PCOD8249464
Probable space group: P B C A
;
_chemical_formula_sum "Si O2"
_cell_formula_units_Z 56
_cell_length_a 12.999712
_cell_length_b 11.691555
_cell_length_c 16.019856
_cell_angle_alpha 90.000000
_cell_angle_beta 90.000000
_cell_angle_gamma 90.000000
_cell_volume 2434.807416
_symmetry_space_group_name_H-M "P B C A"
_symmetry_group_IT_number 61
_symmetry_cell_setting 'orthorhombic'
loop_
_space_group_symop_operation_xyz
x,y,z
1/2-x,-y,1/2+z
1/2+x,1/2-y,-z
-x,1/2+y,1/2-z
-x,-y,-z
1/2+x,y,1/2-z
1/2-x,1/2+y,z
x,1/2-y,1/2+z
loop_
_atom_site_type_symbol
_atom_site_label
_atom_site_fract_x
_atom_site_fract_y
_atom_site_fract_z
Si Si1 0.856731 0.881144 0.982280
Si Si2 0.857108 0.462864 0.939316
Si Si3 0.426562 0.848057 0.941462
Si Si4 0.807317 0.848848 0.719792
Si Si5 0.925154 0.014421 0.831452
Si Si6 0.653829 0.017995 0.661653
Si Si7 0.764602 0.636165 0.810000
O O1 0.740176 0.877711 0.946513
O O2 0.931731 0.943144 0.917030
O O3 0.907158 0.756165 0.994212
O O4 0.848967 0.958458 0.064126
O O5 0.840449 0.552971 0.862930
O O6 0.954173 0.379127 0.925813
O O7 0.871162 0.537896 0.023593
O O8 0.375701 0.800902 0.856337
O O9 0.696501 0.889806 0.682540
O O10 0.796229 0.768995 0.802874
O O11 0.868403 0.955929 0.754668
O O12 0.852627 0.126868 0.845185
O O13 0.039702 0.039710 0.801998
O O14 0.727393 0.105053 0.711194
#
# Coordination Sequence:
#
# PCOD8249464 Si02
#       7
#     8   8   8   8   8   8   8
#     4  11  22  43  63  98 134 177 230 283 348 421
#     4  10  23  43  68  97 142 175 229 291 338 422
#     4  11  22  41  69  99 132 183 226 278 357 407
#     4  11  22  41  67  96 131 175 230 284 343 415
#     4  10  24  40  61  93 131 172 225 280 347 410
#     4  11  22  41  64  93 132 171 224 282 336 418
#     4  10  22  43  63  93 130 174 222 285 344 407
#
# _framework density 22.999765
#
# number of rings (size 3 to 8) (size 9 to 14) (size 15 to 20)
#    0.000    1.429    2.857    2.143    0.000    2.286 
#   12.857    0.000    0.000    0.000    0.000    0.000 
#    0.000    0.000    0.000    0.000    0.000    0.000 
#
# Total GULP energy -693905.290432 kJ/mol
# GULP energy per Si atom -12391.165901 kJ/mol
# Density = 2.294742 g / cm^3
# Si number density = 22.999765 Si / 1000 Ang^3
#
#
#
# Elastic Constant Matrix: (Units=GPa)
#
#
# Indices 1 2 3 4 5 6 
#
# 1 137.7147 40.4051 18.7179 0.0000 0.0000 0.0000
# 2 40.4051 74.5299 8.5535 0.0000 0.0000 0.0000
# 3 18.7179 8.5535 75.9106 0.0000 0.0000 0.0000
# 4 0.0000 0.0000 0.0000 45.1492 0.0000 0.0000
# 5 0.0000 0.0000 0.0000 0.0000 28.8498 0.0000
# 6 0.0000 0.0000 0.0000 0.0000 0.0000 26.0247
#
#
#
# Elastic Compliance Matrix: (Units=1/GPa)
#
#
# Indices 1 2 3 4 5 6 
#
# 1 0.008837 -0.004600 -0.001661 0.000000 0.000000 0.000000
# 2 -0.004600 0.015988 -0.000667 0.000000 0.000000 0.000000
# 3 -0.001661 -0.000667 0.013658 0.000000 0.000000 0.000000
# 4 0.000000 0.000000 0.000000 0.022149 0.000000 0.000000
# 5 0.000000 0.000000 0.000000 0.000000 0.034662 0.000000
# 6 0.000000 0.000000 0.000000 0.000000 0.000000 0.038425
#
#
# Mechanical properties :
#
#
# Convention : Reuss Voigt Hill
#
# Bulk Modulus (GPa) = 40.60617 47.05647 43.83132
# Shear Modulus (GPa) = 32.09582 34.70332 33.39957
#
# Velocity S-wave (km/s) = 3.73967 3.88861 3.81487
# Velocity P-wave (km/s) = 6.02829 6.37697 6.20508
#
# Compressibility (1/GPa) = 0.02462680
#
# Stress axis : x y z
#
# Youngs Moduli (GPa) = 113.16365 62.54740 73.21696
#
# Poissons Ratio (x) = 0.28773 0.12158
# Poissons Ratio (y) = 0.52057 0.04885
# Poissons Ratio (z) = 0.18792 0.04173
#
# Static dielectric constant tensor:
#      x y z
#    x 4.371580 0.000000 0.000000 
#    y 0.000000 4.052110 0.000000 
#    z 0.000000 0.000000 4.125910 
# 
# 
# High freq. dielectric constant tensor:
#      x y z
#    x 1.905250 0.000000 0.000000 
#    y 0.000000 1.896290 0.000000 
#    z 0.000000 0.000000 1.920980 
# 
# From -- ./inp_files/7863.got.cif
#   From: 2010.03.12/outbox.cif.g09.slc.cpg/sg61_4_cif.got.tgz:7863.got - 2010.04.10 19:05:03.
