data_PCOD8249806
_publ_section_title
;
Structure prediction by ZEFSAII (Michael W. Deem and Ramdas Pophale) SiO2 
 PCOD8249806
Probable space group: P B C A
;
_chemical_formula_sum "Si O2"
_cell_formula_units_Z 48
_cell_length_a 9.055106
_cell_length_b 17.059807
_cell_length_c 13.639714
_cell_angle_alpha 90.000000
_cell_angle_beta 90.000000
_cell_angle_gamma 90.000000
_cell_volume 2107.040659
_symmetry_space_group_name_H-M "P B C A"
_symmetry_group_IT_number 61
_symmetry_cell_setting 'orthorhombic'
loop_
_space_group_symop_operation_xyz
x,y,z
1/2-x,-y,1/2+z
1/2+x,1/2-y,-z
-x,1/2+y,1/2-z
-x,-y,-z
1/2+x,y,1/2-z
1/2-x,1/2+y,z
x,1/2-y,1/2+z
loop_
_atom_site_type_symbol
_atom_site_label
_atom_site_fract_x
_atom_site_fract_y
_atom_site_fract_z
Si Si1 0.265819 0.544688 0.463472
Si Si2 0.975851 0.939410 0.848741
Si Si3 0.771775 0.125179 0.476716
Si Si4 0.834352 0.399342 0.337438
Si Si5 0.144078 0.183018 0.829221
Si Si6 0.027539 0.150122 0.338837
O O1 0.333799 0.460965 0.494810
O O2 0.247166 0.601061 0.557523
O O3 0.368482 0.585507 0.385946
O O4 0.107797 0.525587 0.413860
O O5 0.878440 0.881665 0.915305
O O6 0.040298 0.889155 0.758756
O O7 0.874993 0.011142 0.809222
O O8 0.743741 0.175471 0.573952
O O9 0.894123 0.171069 0.412520
O O10 0.723098 0.361544 0.259692
O O11 0.981909 0.349812 0.344863
O O12 0.125339 0.275132 0.808482
#
# Coordination Sequence:
#
# PCOD8249806 Si02
#       6
#     8   8   8   8   8   8
#     4  11  23  48  73 106 137 190 242 297 350 432
#     4  11  23  47  75 102 141 187 240 295 352 427
#     4  11  24  48  72 103 140 186 239 291 361 426
#     4  11  26  47  71 101 142 188 240 292 359 428
#     4  12  28  45  70 105 147 190 233 301 364 432
#     4  12  29  40  76 106 145 183 238 301 364 435
#
# _framework density 22.780764000000001
#
# number of rings (size 3 to 8) (size 9 to 14) (size 15 to 20)
#    0.000    0.667    3.333    3.500   14.000    0.000 
#    0.000    0.000    0.000    0.000    0.000    0.000 
#    0.000    0.000    0.000    0.000    0.000    0.000 
#
# Total GULP energy -595457.682519 kJ/mol
# GULP energy per Si atom -12405.368386 kJ/mol
# Density = 2.272891 g / cm^3
# Si number density = 22.780764 Si / 1000 Ang^3
#
#
#
# Elastic Constant Matrix: (Units=GPa)
#
#
# Indices 1 2 3 4 5 6 
#
# 1 41.4885 5.5681 7.5666 0.0000 0.0000 0.0000
# 2 5.5681 64.7285 43.2296 0.0000 0.0000 0.0000
# 3 7.5666 43.2296 114.6622 0.0000 0.0000 0.0000
# 4 0.0000 0.0000 0.0000 22.5176 0.0000 0.0000
# 5 0.0000 0.0000 0.0000 0.0000 32.0980 0.0000
# 6 0.0000 0.0000 0.0000 0.0000 0.0000 33.1473
#
#
#
# Elastic Compliance Matrix: (Units=1/GPa)
#
#
# Indices 1 2 3 4 5 6 
#
# 1 0.024488 -0.001373 -0.001098 0.000000 0.000000 0.000000
# 2 -0.001373 0.020725 -0.007723 0.000000 0.000000 0.000000
# 3 -0.001098 -0.007723 0.011706 0.000000 0.000000 0.000000
# 4 0.000000 0.000000 0.000000 0.044410 0.000000 0.000000
# 5 0.000000 0.000000 0.000000 0.000000 0.031155 0.000000
# 6 0.000000 0.000000 0.000000 0.000000 0.000000 0.030168
#
#
# Mechanical properties :
#
#
# Convention : Reuss Voigt Hill
#
# Bulk Modulus (GPa) = 27.37513 37.06754 32.22134
# Shear Modulus (GPa) = 25.61258 28.52022 27.06640
#
# Velocity S-wave (km/s) = 3.35671 3.54212 3.45066
# Velocity P-wave (km/s) = 5.20252 5.74766 5.48187
#
# Compressibility (1/GPa) = 0.03652950
#
# Stress axis : x y z
#
# Youngs Moduli (GPa) = 40.83694 48.25028 85.42973
#
# Poissons Ratio (x) = 0.06625 0.09383
# Poissons Ratio (y) = 0.05607 0.65979
# Poissons Ratio (z) = 0.04485 0.37265
#
# Static dielectric constant tensor:
#      x y z
#    x 4.103170 0.000000 0.000000 
#    y 0.000000 4.053800 0.000000 
#    z 0.000000 0.000000 4.290550 
# 
# 
# High freq. dielectric constant tensor:
#      x y z
#    x 1.899040 0.000000 0.000000 
#    y 0.000000 1.891520 0.000000 
#    z 0.000000 0.000000 1.914160 
# 
# From -- ./inp_files/7032.got.cif
#   From: 2010.03.12/outbox.cif.g09.slc.cpg/sg61_4_cif.got.tgz:7032.got - 2010.04.10 19:05:03.
