data_PCOD8249070
_publ_section_title
;
Structure prediction by ZEFSAII (Michael W. Deem and Ramdas Pophale) SiO2 
 PCOD8249070
Probable space group: P B C A
;
_chemical_formula_sum "Si O2"
_cell_formula_units_Z 40
_cell_length_a 18.083047
_cell_length_b 8.624770
_cell_length_c 13.784929
_cell_angle_alpha 90.000000
_cell_angle_beta 90.000000
_cell_angle_gamma 90.000000
_cell_volume 2149.926768
_symmetry_space_group_name_H-M "P B C A"
_symmetry_group_IT_number 61
_symmetry_cell_setting 'orthorhombic'
loop_
_space_group_symop_operation_xyz
x,y,z
1/2-x,-y,1/2+z
1/2+x,1/2-y,-z
-x,1/2+y,1/2-z
-x,-y,-z
1/2+x,y,1/2-z
1/2-x,1/2+y,z
x,1/2-y,1/2+z
loop_
_atom_site_type_symbol
_atom_site_label
_atom_site_fract_x
_atom_site_fract_y
_atom_site_fract_z
Si Si1 0.532690 0.264887 0.054472
Si Si2 0.585221 0.605223 0.089451
Si Si3 0.155170 0.422329 0.051340
Si Si4 0.197148 0.744942 0.543769
Si Si5 0.589050 0.853950 0.812981
O O1 0.568039 0.424341 0.089723
O O2 0.491870 0.184357 0.144732
O O3 0.476594 0.293904 0.965721
O O4 0.596203 0.147192 0.022635
O O5 0.588156 0.665022 0.198760
O O6 0.664643 0.631940 0.039043
O O7 0.218967 0.296742 0.070958
O O8 0.192016 0.577379 0.004894
O O9 0.114435 0.472685 0.152120
O O10 0.147497 0.729371 0.641867
#
# Coordination Sequence:
#
# PCOD8249070 Si02
#       5
#     8   8   8   8   8
#     4  10  21  37  63  85 120 151 186 255 280 348
#     4  10  21  39  60  91 115 150 197 233 300 337
#     4  10  20  40  58  80 118 156 190 232 301 322
#     4   9  21  38  58  80 120 153 186 245 274 353
#     4   9  22  36  61  86 115 152 197 231 291 351
#
# _framework density 18.605284999999999
#
# number of rings (size 3 to 8) (size 9 to 14) (size 15 to 20)
#    1.200    1.200    0.000    1.800    2.800    0.000 
#    7.200    0.000    0.000    0.000    0.000    0.000 
#    0.000    0.000    0.000    0.000    0.000    0.000 
#
# Total GULP energy -495746.232919 kJ/mol
# GULP energy per Si atom -12393.655823 kJ/mol
# Density = 1.856294 g / cm^3
# Si number density = 18.605285 Si / 1000 Ang^3
#
#
#
# Elastic Constant Matrix: (Units=GPa)
#
#
# Indices 1 2 3 4 5 6 
#
# 1 47.0800 31.1184 16.6348 0.0000 0.0000 0.0000
# 2 31.1184 78.9819 25.5570 0.0000 0.0000 0.0000
# 3 16.6348 25.5570 127.5001 0.0000 0.0000 0.0000
# 4 0.0000 0.0000 0.0000 17.5947 0.0000 0.0000
# 5 0.0000 0.0000 0.0000 0.0000 8.3384 0.0000
# 6 0.0000 0.0000 0.0000 0.0000 0.0000 42.9687
#
#
#
# Elastic Compliance Matrix: (Units=1/GPa)
#
#
# Indices 1 2 3 4 5 6 
#
# 1 0.029021 -0.010917 -0.001598 0.000000 0.000000 0.000000
# 2 -0.010917 0.017646 -0.002113 0.000000 0.000000 0.000000
# 3 -0.001598 -0.002113 0.008475 0.000000 0.000000 0.000000
# 4 0.000000 0.000000 0.000000 0.056835 0.000000 0.000000
# 5 0.000000 0.000000 0.000000 0.000000 0.119927 0.000000
# 6 0.000000 0.000000 0.000000 0.000000 0.000000 0.023273
#
#
# Mechanical properties :
#
#
# Convention : Reuss Voigt Hill
#
# Bulk Modulus (GPa) = 38.63026 44.46469 41.54747
# Shear Modulus (GPa) = 17.06126 25.79715 21.42921
#
# Velocity S-wave (km/s) = 3.03151 3.72768 3.39747
# Velocity P-wave (km/s) = 5.74991 6.51754 6.14572
#
# Compressibility (1/GPa) = 0.02588645
#
# Stress axis : x y z
#
# Youngs Moduli (GPa) = 34.45807 56.67017 117.99234
#
# Poissons Ratio (x) = 0.61866 0.18856
# Poissons Ratio (y) = 0.37618 0.24929
# Poissons Ratio (z) = 0.05507 0.11973
#
# Static dielectric constant tensor:
#      x y z
#    x 3.424500 0.000000 0.000000 
#    y 0.000000 3.361280 0.000000 
#    z 0.000000 0.000000 3.070170 
# 
# 
# High freq. dielectric constant tensor:
#      x y z
#    x 1.727650 0.000000 0.000000 
#    y 0.000000 1.720130 0.000000 
#    z 0.000000 0.000000 1.696120 
# 
# From -- ./inp_files/2160.got.cif
#   From: 2010.03.12/outbox.cif.g09.slc.cpg/sg61_2_cif.got.tgz:2160.got - 2010.04.10 19:05:03.
