data_PCOD8249420
_publ_section_title
;
Structure prediction by ZEFSAII (Michael W. Deem and Ramdas Pophale) SiO2 
 PCOD8249420
Probable space group: P B C A
;
_chemical_formula_sum "Si O2"
_cell_formula_units_Z 32
_cell_length_a 8.568138
_cell_length_b 17.331749
_cell_length_c 9.137846
_cell_angle_alpha 90.000000
_cell_angle_beta 90.000000
_cell_angle_gamma 90.000000
_cell_volume 1356.977599
_symmetry_space_group_name_H-M "P B C A"
_symmetry_group_IT_number 61
_symmetry_cell_setting 'orthorhombic'
loop_
_space_group_symop_operation_xyz
x,y,z
1/2-x,-y,1/2+z
1/2+x,1/2-y,-z
-x,1/2+y,1/2-z
-x,-y,-z
1/2+x,y,1/2-z
1/2-x,1/2+y,z
x,1/2-y,1/2+z
loop_
_atom_site_type_symbol
_atom_site_label
_atom_site_fract_x
_atom_site_fract_y
_atom_site_fract_z
Si Si1 0.002101 0.266601 0.306444
Si Si2 0.300138 0.690878 0.065988
Si Si3 0.577820 0.940155 0.289769
Si Si4 0.780849 0.522844 0.536496
O O1 0.867547 0.222447 0.391937
O O2 0.936638 0.349608 0.256486
O O3 0.155879 0.277583 0.405751
O O4 0.058175 0.215959 0.170732
O O5 0.293936 0.598676 0.063894
O O6 0.419904 0.979899 0.343980
O O7 0.624982 0.980356 0.135530
O O8 0.706322 0.951865 0.421566
#
# Coordination Sequence:
#
# PCOD8249420 Si02
#       4
#     8   8   8   8
#     4  11  22  40  61  89 125 160 205 255 307 365
#     4  11  23  39  63  91 122 163 207 255 309 366
#     4  10  22  41  60  89 124 158 202 251 303 363
#     4  10  23  40  62  89 121 161 204 250 305 363
#
# _framework density 23.581818999999999
#
# number of rings (size 3 to 8) (size 9 to 14) (size 15 to 20)
#    0.000    1.500    0.000    6.000    0.000    9.000 
#    0.000    0.000    0.000    0.000    0.000    0.000 
#    0.000    0.000    0.000    0.000    0.000    0.000 
#
# Total GULP energy -396839.868864 kJ/mol
# GULP energy per Si atom -12401.245902 kJ/mol
# Density = 2.352815 g / cm^3
# Si number density = 23.581819 Si / 1000 Ang^3
#
#
#
# Elastic Constant Matrix: (Units=GPa)
#
#
# Indices 1 2 3 4 5 6 
#
# 1 35.8657 19.1176 8.0225 0.0000 0.0000 0.0000
# 2 19.1176 64.2680 32.0962 0.0000 0.0000 0.0000
# 3 8.0225 32.0962 85.2806 0.0000 0.0000 0.0000
# 4 0.0000 0.0000 0.0000 45.2915 0.0000 0.0000
# 5 0.0000 0.0000 0.0000 0.0000 41.9788 0.0000
# 6 0.0000 0.0000 0.0000 0.0000 0.0000 24.0274
#
#
#
# Elastic Compliance Matrix: (Units=1/GPa)
#
#
# Indices 1 2 3 4 5 6 
#
# 1 0.033173 -0.010233 0.000731 0.000000 0.000000 0.000000
# 2 -0.010233 0.022318 -0.007437 0.000000 0.000000 0.000000
# 3 0.000731 -0.007437 0.014456 0.000000 0.000000 0.000000
# 4 0.000000 0.000000 0.000000 0.022079 0.000000 0.000000
# 5 0.000000 0.000000 0.000000 0.000000 0.023822 0.000000
# 6 0.000000 0.000000 0.000000 0.000000 0.000000 0.041619
#
#
# Mechanical properties :
#
#
# Convention : Reuss Voigt Hill
#
# Bulk Modulus (GPa) = 27.72486 33.76521 30.74504
# Shear Modulus (GPa) = 24.58603 30.67140 27.62871
#
# Velocity S-wave (km/s) = 3.23241 3.61035 3.42659
# Velocity P-wave (km/s) = 5.07087 5.63284 5.35923
#
# Compressibility (1/GPa) = 0.03606871
#
# Stress axis : x y z
#
# Youngs Moduli (GPa) = 30.14527 44.80730 69.17433
#
# Poissons Ratio (x) = 0.45850 -0.05053
# Poissons Ratio (y) = 0.30846 0.51444
# Poissons Ratio (z) = -0.02202 0.33323
#
# Static dielectric constant tensor:
#      x y z
#    x 4.207240 0.000000 0.000000 
#    y 0.000000 4.118510 0.000000 
#    z 0.000000 0.000000 4.455090 
# 
# 
# High freq. dielectric constant tensor:
#      x y z
#    x 1.937550 0.000000 0.000000 
#    y 0.000000 1.916840 0.000000 
#    z 0.000000 0.000000 1.946600 
# 
# From -- ./inp_files/1647.got.cif
#   From: 2010.03.12/outbox.cif.g09.slc.cpg/sg61_1_cif.got.tgz:1647.got - 2010.04.10 19:05:03.
