data_PCOD8249393
_publ_section_title
;
Structure prediction by ZEFSAII (Michael W. Deem and Ramdas Pophale) SiO2 
 PCOD8249393
Probable space group: P B C A
;
_chemical_formula_sum "Si O2"
_cell_formula_units_Z 56
_cell_length_a 19.396028
_cell_length_b 7.592684
_cell_length_c 16.595356
_cell_angle_alpha 90.000000
_cell_angle_beta 90.000000
_cell_angle_gamma 90.000000
_cell_volume 2443.963418
_symmetry_space_group_name_H-M "P B C A"
_symmetry_group_IT_number 61
_symmetry_cell_setting 'orthorhombic'
loop_
_space_group_symop_operation_xyz
x,y,z
1/2-x,-y,1/2+z
1/2+x,1/2-y,-z
-x,1/2+y,1/2-z
-x,-y,-z
1/2+x,y,1/2-z
1/2-x,1/2+y,z
x,1/2-y,1/2+z
loop_
_atom_site_type_symbol
_atom_site_label
_atom_site_fract_x
_atom_site_fract_y
_atom_site_fract_z
Si Si1 0.952429 0.236567 0.583513
Si Si2 0.947874 0.917205 0.704734
Si Si3 0.600414 0.197824 0.373035
Si Si4 0.375431 0.572757 0.863260
Si Si5 0.291165 0.537447 0.007507
Si Si6 0.652603 0.824731 0.957193
Si Si7 0.607898 0.931537 0.799666
O O1 0.922598 0.432425 0.590937
O O2 0.920161 0.142509 0.503788
O O3 0.032877 0.277954 0.570893
O O4 0.936763 0.104466 0.659469
O O5 0.913430 0.921800 0.793313
O O6 0.917832 0.750598 0.656068
O O7 0.028867 0.886406 0.720626
O O8 0.664354 0.120790 0.420812
O O9 0.618949 0.395548 0.352299
O O10 0.350273 0.468396 0.782532
O O11 0.310683 0.623443 0.920269
O O12 0.209876 0.526123 0.026653
O O13 0.309572 0.335147 0.000337
O O14 0.639297 0.787439 0.861493
#
# Coordination Sequence:
#
# PCOD8249393 Si02
#       7
#     8   8   8   8   8   8   8
#     4  10  23  40  66 101 129 172 220 267 334 390
#     4  10  22  39  70  98 136 169 207 287 321 392
#     4  10  22  40  67 101 129 169 222 267 338 387
#     4  10  23  41  65  97 133 170 216 274 323 397
#     4  11  26  44  65  93 135 174 222 272 326 400
#     4  11  26  43  65  93 131 180 218 274 328 396
#     4  10  22  41  66  98 133 168 220 270 334 387
#
# _framework density 22.913599999999999
#
# number of rings (size 3 to 8) (size 9 to 14) (size 15 to 20)
#    0.000    1.714    1.429    0.857   10.000    2.286 
#    2.571    1.429    0.000    0.000    0.000    0.000 
#    0.000    0.000    0.000    0.000    0.000    0.000 
#
# Total GULP energy -693770.665371 kJ/mol
# GULP energy per Si atom -12388.761882 kJ/mol
# Density = 2.286145 g / cm^3
# Si number density = 22.913600 Si / 1000 Ang^3
#
#
#
# Elastic Constant Matrix: (Units=GPa)
#
#
# Indices 1 2 3 4 5 6 
#
# 1 51.2240 -11.2325 20.0625 0.0000 0.0000 0.0000
# 2 -11.2325 44.2803 -10.3509 0.0000 0.0000 0.0000
# 3 20.0625 -10.3509 95.0193 0.0000 0.0000 0.0000
# 4 0.0000 0.0000 0.0000 24.8989 0.0000 0.0000
# 5 0.0000 0.0000 0.0000 0.0000 24.0547 0.0000
# 6 0.0000 0.0000 0.0000 0.0000 0.0000 19.6425
#
#
#
# Elastic Compliance Matrix: (Units=1/GPa)
#
#
# Indices 1 2 3 4 5 6 
#
# 1 0.022177 0.004649 -0.004176 0.000000 0.000000 0.000000
# 2 0.004649 0.024148 0.001649 0.000000 0.000000 0.000000
# 3 -0.004176 0.001649 0.011586 0.000000 0.000000 0.000000
# 4 0.000000 0.000000 0.000000 0.040162 0.000000 0.000000
# 5 0.000000 0.000000 0.000000 0.000000 0.041572 0.000000
# 6 0.000000 0.000000 0.000000 0.000000 0.000000 0.050910
#
#
# Mechanical properties :
#
#
# Convention : Reuss Voigt Hill
#
# Bulk Modulus (GPa) = 16.08863 20.83132 18.45997
# Shear Modulus (GPa) = 24.15114 26.52216 25.33665
#
# Velocity S-wave (km/s) = 3.25007 3.40587 3.32889
# Velocity P-wave (km/s) = 4.59572 4.95758 4.78008
#
# Compressibility (1/GPa) = 0.06215570
#
# Stress axis : x y z
#
# Youngs Moduli (GPa) = 45.09127 41.41079 86.31450
#
# Poissons Ratio (x) = -0.19254 0.36045
# Poissons Ratio (y) = -0.20965 -0.14232
# Poissons Ratio (z) = 0.18830 -0.06828
#
# Static dielectric constant tensor:
#      x y z
#    x 4.382930 0.000000 0.000000 
#    y 0.000000 4.289140 0.000000 
#    z 0.000000 0.000000 4.506560 
# 
# 
# High freq. dielectric constant tensor:
#      x y z
#    x 1.879080 0.000000 0.000000 
#    y 0.000000 1.913740 0.000000 
#    z 0.000000 0.000000 1.913570 
# 
# From -- ./inp_files/8367.got.cif
#   From: 2010.03.12/outbox.cif.g09.slc.cpg/sg61_5_cif.got.tgz:8367.got - 2010.04.10 19:05:03.
