data_PCOD8249082
_publ_section_title
;
Structure prediction by ZEFSAII (Michael W. Deem and Ramdas Pophale) SiO2 
 PCOD8249082
Probable space group: P B C A
;
_chemical_formula_sum "Si O2"
_cell_formula_units_Z 64
_cell_length_a 14.287371
_cell_length_b 16.654244
_cell_length_c 13.372958
_cell_angle_alpha 90.000000
_cell_angle_beta 90.000000
_cell_angle_gamma 90.000000
_cell_volume 3182.033342
_symmetry_space_group_name_H-M "P B C A"
_symmetry_group_IT_number 61
_symmetry_cell_setting 'orthorhombic'
loop_
_space_group_symop_operation_xyz
x,y,z
1/2-x,-y,1/2+z
1/2+x,1/2-y,-z
-x,1/2+y,1/2-z
-x,-y,-z
1/2+x,y,1/2-z
1/2-x,1/2+y,z
x,1/2-y,1/2+z
loop_
_atom_site_type_symbol
_atom_site_label
_atom_site_fract_x
_atom_site_fract_y
_atom_site_fract_z
Si Si1 0.578878 0.153698 0.187829
Si Si2 0.494418 0.908548 0.343442
Si Si3 0.643713 0.157029 0.501354
Si Si4 0.761415 0.784677 0.182104
Si Si5 0.343866 0.968183 0.669671
Si Si6 0.432754 0.671966 0.535088
Si Si7 0.053250 0.767249 0.294509
Si Si8 0.667030 0.076911 0.807573
O O1 0.663419 0.215071 0.179490
O O2 0.617772 0.068633 0.226389
O O3 0.502131 0.185750 0.267200
O O4 0.536176 0.144501 0.076282
O O5 0.449073 0.880639 0.447711
O O6 0.538140 0.829153 0.295189
O O7 0.415738 0.947200 0.270113
O O8 0.578477 0.969138 0.368691
O O9 0.728259 0.161051 0.581881
O O10 0.673719 0.102010 0.409578
O O11 0.627831 0.246886 0.462470
O O12 0.660937 0.744000 0.192804
O O13 0.781248 0.841645 0.275478
O O14 0.242408 0.006381 0.687236
O O15 0.523355 0.691057 0.601960
O O16 0.375421 0.597509 0.583395
#
# Coordination Sequence:
#
# PCOD8249082 Si02
#       8
#     8   8   8   8   8   8   8   8
#     4  11  23  42  64  92 132 158 220 271 306 387
#     4  10  21  40  64  87 125 170 205 255 326 385
#     4  10  20  41  62  91 127 155 214 266 307 378
#     4  10  20  40  66  89 117 173 210 259 318 383
#     4  12  23  39  63  95 130 168 205 272 330 375
#     4  10  20  42  62  90 123 170 212 265 307 375
#     4  11  19  41  67  87 123 170 212 258 323 382
#     4  10  21  39  62  86 130 166 209 258 323 377
#
# _framework density 20.112926000000002
#
# number of rings (size 3 to 8) (size 9 to 14) (size 15 to 20)
#    0.000    1.500    7.500    0.375    0.000    3.000 
#   13.500    1.250    0.000    0.000    0.000    0.000 
#    0.000    0.000    0.000    0.000    0.000    0.000 
#
# Total GULP energy -793538.133933 kJ/mol
# GULP energy per Si atom -12399.033343 kJ/mol
# Density = 2.006715 g / cm^3
# Si number density = 20.112926 Si / 1000 Ang^3
#
#
#
# Elastic Constant Matrix: (Units=GPa)
#
#
# Indices 1 2 3 4 5 6 
#
# 1 92.6034 -2.7907 3.7744 0.0000 0.0000 0.0000
# 2 -2.7907 40.2544 -3.4949 0.0000 0.0000 0.0000
# 3 3.7744 -3.4949 71.5317 0.0000 0.0000 0.0000
# 4 0.0000 0.0000 0.0000 20.7977 0.0000 0.0000
# 5 0.0000 0.0000 0.0000 0.0000 12.8191 0.0000
# 6 0.0000 0.0000 0.0000 0.0000 0.0000 9.7672
#
#
#
# Elastic Compliance Matrix: (Units=1/GPa)
#
#
# Indices 1 2 3 4 5 6 
#
# 1 0.010842 0.000705 -0.000538 0.000000 0.000000 0.000000
# 2 0.000705 0.024994 0.001184 0.000000 0.000000 0.000000
# 3 -0.000538 0.001184 0.014066 0.000000 0.000000 0.000000
# 4 0.000000 0.000000 0.000000 0.048082 0.000000 0.000000
# 5 0.000000 0.000000 0.000000 0.000000 0.078009 0.000000
# 6 0.000000 0.000000 0.000000 0.000000 0.000000 0.102383
#
#
# Mechanical properties :
#
#
# Convention : Reuss Voigt Hill
#
# Bulk Modulus (GPa) = 19.00990 22.15189 20.58090
# Shear Modulus (GPa) = 17.05275 22.47019 19.76147
#
# Velocity S-wave (km/s) = 2.91495 3.34608 3.13793
# Velocity P-wave (km/s) = 4.56085 5.09569 4.83567
#
# Compressibility (1/GPa) = 0.05260416
#
# Stress axis : x y z
#
# Youngs Moduli (GPa) = 92.23483 40.01011 71.09325
#
# Poissons Ratio (x) = -0.02821 0.03822
# Poissons Ratio (y) = -0.06502 -0.08417
# Poissons Ratio (z) = 0.04959 -0.04737
#
# Static dielectric constant tensor:
#      x y z
#    x 3.593990 0.000000 0.000000 
#    y 0.000000 3.613560 0.000000 
#    z 0.000000 0.000000 3.980420 
# 
# 
# High freq. dielectric constant tensor:
#      x y z
#    x 1.773920 0.000000 0.000000 
#    y 0.000000 1.771710 0.000000 
#    z 0.000000 0.000000 1.791740 
# 
# From -- ./inp_files/8019.got.cif
#   From: 2010.03.12/outbox.cif.g09.slc.cpg/sg61_5_cif.got.tgz:8019.got - 2010.04.10 19:05:03.
