data_PCOD8249265
_publ_section_title
;
Structure prediction by ZEFSAII (Michael W. Deem and Ramdas Pophale) SiO2 
 PCOD8249265
Probable space group: P B C A
;
_chemical_formula_sum "Si O2"
_cell_formula_units_Z 48
_cell_length_a 18.294501
_cell_length_b 7.657585
_cell_length_c 16.628335
_cell_angle_alpha 90.000000
_cell_angle_beta 90.000000
_cell_angle_gamma 90.000000
_cell_volume 2329.491659
_symmetry_space_group_name_H-M "P B C A"
_symmetry_group_IT_number 61
_symmetry_cell_setting 'orthorhombic'
loop_
_space_group_symop_operation_xyz
x,y,z
1/2-x,-y,1/2+z
1/2+x,1/2-y,-z
-x,1/2+y,1/2-z
-x,-y,-z
1/2+x,y,1/2-z
1/2-x,1/2+y,z
x,1/2-y,1/2+z
loop_
_atom_site_type_symbol
_atom_site_label
_atom_site_fract_x
_atom_site_fract_y
_atom_site_fract_z
Si Si1 0.842159 0.365081 0.446645
Si Si2 0.984378 0.211010 0.859796
Si Si3 0.848805 0.930256 0.277288
Si Si4 0.093381 0.921953 0.885923
Si Si5 0.987763 0.405886 0.183600
Si Si6 0.767903 0.844932 0.860364
O O1 0.912248 0.259147 0.413022
O O2 0.850956 0.398008 0.541112
O O3 0.763568 0.273374 0.433227
O O4 0.834543 0.544445 0.396632
O O5 0.028037 0.394297 0.845271
O O6 0.960736 0.125042 0.774794
O O7 0.035548 0.074192 0.907224
O O8 0.925153 0.884600 0.319744
O O9 0.800101 0.755100 0.281964
O O10 0.859311 0.010172 0.189253
O O11 0.805943 0.066767 0.330958
O O12 0.052675 0.736802 0.871456
#
# Coordination Sequence:
#
# PCOD8249265 Si02
#       6
#     8   8   8   8   8   8
#     4  11  23  42  60  95 130 163 211 261 329 370
#     4  11  21  39  64  94 123 166 207 261 318 375
#     4  10  21  40  63  91 114 171 216 248 308 379
#     4  11  24  39  63  99 125 159 208 272 320 369
#     4  11  20  39  66  92 125 159 214 262 308 381
#     4  10  22  41  65  81 128 175 208 255 302 392
#
# _framework density 20.605354999999999
#
# number of rings (size 3 to 8) (size 9 to 14) (size 15 to 20)
#    0.000    1.333    5.000    1.500    2.333    2.000 
#    6.000    0.000    0.000    0.000    0.000    0.000 
#    0.000    0.000    0.000    0.000    0.000    0.000 
#
# Total GULP energy -594781.672181 kJ/mol
# GULP energy per Si atom -12391.284837 kJ/mol
# Density = 2.055846 g / cm^3
# Si number density = 20.605355 Si / 1000 Ang^3
#
#
#
# Elastic Constant Matrix: (Units=GPa)
#
#
# Indices 1 2 3 4 5 6 
#
# 1 73.8206 27.8863 53.1124 0.0000 0.0000 0.0000
# 2 27.8863 124.8606 50.1169 0.0000 0.0000 0.0000
# 3 53.1124 50.1169 96.6047 0.0000 0.0000 0.0000
# 4 0.0000 0.0000 0.0000 14.8736 0.0000 0.0000
# 5 0.0000 0.0000 0.0000 0.0000 38.9274 0.0000
# 6 0.0000 0.0000 0.0000 0.0000 0.0000 -3.1979
#
#
#
# Elastic Compliance Matrix: (Units=1/GPa)
#
#
# Indices 1 2 3 4 5 6 
#
# 1 0.022412 -0.000075 -0.012283 0.000000 0.000000 0.000000
# 2 -0.000075 0.010115 -0.005206 0.000000 0.000000 0.000000
# 3 -0.012283 -0.005206 0.019805 0.000000 0.000000 0.000000
# 4 0.000000 0.000000 0.000000 0.067233 0.000000 0.000000
# 5 0.000000 0.000000 0.000000 0.000000 0.025689 0.000000
# 6 0.000000 0.000000 0.000000 0.000000 0.000000 -0.312703
#
#
# Mechanical properties :
#
#
# Convention : Reuss Voigt Hill
#
# Bulk Modulus (GPa) = 58.12632 61.94635 60.03634
# Shear Modulus (GPa) = -39.49938 21.06529 -9.21704
#
# Velocity S-wave (km/s) = -4.38305 3.20084 -2.11727
# Velocity P-wave (km/s) = 1.62966 6.61733 4.81896
#
# Compressibility (1/GPa) = 0.01720391
#
# Stress axis : x y z
#
# Youngs Moduli (GPa) = 44.61866 98.85829 50.49112
#
# Poissons Ratio (x) = 0.00745 0.62018
# Poissons Ratio (y) = 0.00336 0.26287
# Poissons Ratio (z) = 0.54805 0.51469
#
# Static dielectric constant tensor:
#      x y z
#    x 3.637980 0.000000 0.000000 
#    y 0.000000 4.111750 0.000000 
#    z 0.000000 0.000000 3.432500 
# 
# 
# High freq. dielectric constant tensor:
#      x y z
#    x 1.802250 0.000000 0.000000 
#    y 0.000000 1.820570 0.000000 
#    z 0.000000 0.000000 1.781300 
# 
# From -- ./inp_files/8121.got.cif
#   From: 2010.03.12/outbox.cif.g09.slc.cpg/sg61_5_cif.got.tgz:8121.got - 2010.04.10 19:05:03.
