data_PCOD8249766
_publ_section_title
;
Structure prediction by ZEFSAII (Michael W. Deem and Ramdas Pophale) SiO2 
 PCOD8249766
Probable space group: P B C A
;
_chemical_formula_sum "Si O2"
_cell_formula_units_Z 48
_cell_length_a 15.015625
_cell_length_b 16.420178
_cell_length_c 7.704551
_cell_angle_alpha 90.000000
_cell_angle_beta 90.000000
_cell_angle_gamma 90.000000
_cell_volume 1899.628203
_symmetry_space_group_name_H-M "P B C A"
_symmetry_group_IT_number 61
_symmetry_cell_setting 'orthorhombic'
loop_
_space_group_symop_operation_xyz
x,y,z
1/2-x,-y,1/2+z
1/2+x,1/2-y,-z
-x,1/2+y,1/2-z
-x,-y,-z
1/2+x,y,1/2-z
1/2-x,1/2+y,z
x,1/2-y,1/2+z
loop_
_atom_site_type_symbol
_atom_site_label
_atom_site_fract_x
_atom_site_fract_y
_atom_site_fract_z
Si Si1 0.852031 0.782974 0.790264
Si Si2 0.344442 0.323688 0.579175
Si Si3 0.622101 0.844064 0.318000
Si Si4 0.790179 0.904523 0.532953
Si Si5 0.841115 0.015360 0.244676
Si Si6 0.928474 0.630676 0.605542
O O1 0.754328 0.790581 0.874126
O O2 0.847932 0.828507 0.602650
O O3 0.878638 0.689065 0.749757
O O4 0.922565 0.827364 0.916447
O O5 0.342705 0.348477 0.378417
O O6 0.406688 0.247499 0.623683
O O7 0.382132 0.397317 0.698799
O O8 0.696501 0.879193 0.445808
O O9 0.529209 0.890337 0.339938
O O10 0.761027 0.964277 0.691904
O O11 0.851248 0.957191 0.409769
O O12 0.886449 0.960704 0.094386
#
# Coordination Sequence:
#
# PCOD8249766 Si02
#       6
#     8   8   8   8   8   8
#     4  11  23  42  69  93 126 175 222 259 312 395
#     4  11  23  42  67  92 127 174 221 264 314 385
#     4  12  25  43  66  95 134 173 211 265 332 392
#     4  11  23  42  68  94 127 172 221 267 317 384
#     4  11  23  41  67  97 127 168 222 274 317 376
#     4  12  25  42  67  99 133 168 213 271 330 384
#
# _framework density 25.268101000000001
#
# number of rings (size 3 to 8) (size 9 to 14) (size 15 to 20)
#    0.000    0.667    0.000   11.000    0.000    1.333 
#    0.000    3.333    0.000    0.000    0.000    0.000 
#    0.000    0.000    0.000    0.000    0.000    0.000 
#
# Total GULP energy -594981.093971 kJ/mol
# GULP energy per Si atom -12395.439458 kJ/mol
# Density = 2.521059 g / cm^3
# Si number density = 25.268101 Si / 1000 Ang^3
#
#
#
# Elastic Constant Matrix: (Units=GPa)
#
#
# Indices 1 2 3 4 5 6 
#
# 1 54.2795 13.3352 -2.8420 0.0000 0.0000 0.0000
# 2 13.3352 98.6844 13.3750 0.0000 0.0000 0.0000
# 3 -2.8420 13.3750 77.2658 0.0000 0.0000 0.0000
# 4 0.0000 0.0000 0.0000 42.5779 0.0000 0.0000
# 5 0.0000 0.0000 0.0000 0.0000 27.9791 0.0000
# 6 0.0000 0.0000 0.0000 0.0000 0.0000 24.7882
#
#
#
# Elastic Compliance Matrix: (Units=1/GPa)
#
#
# Indices 1 2 3 4 5 6 
#
# 1 0.019160 -0.002749 0.001181 0.000000 0.000000 0.000000
# 2 -0.002749 0.010771 -0.001966 0.000000 0.000000 0.000000
# 3 0.001181 -0.001966 0.013326 0.000000 0.000000 0.000000
# 4 0.000000 0.000000 0.000000 0.023486 0.000000 0.000000
# 5 0.000000 0.000000 0.000000 0.000000 0.035741 0.000000
# 6 0.000000 0.000000 0.000000 0.000000 0.000000 0.040342
#
#
# Mechanical properties :
#
#
# Convention : Reuss Voigt Hill
#
# Bulk Modulus (GPa) = 27.63250 30.88514 29.25882
# Shear Modulus (GPa) = 30.87217 32.82648 31.84932
#
# Velocity S-wave (km/s) = 3.49920 3.60825 3.55414
# Velocity P-wave (km/s) = 5.22353 5.44140 5.33358
#
# Compressibility (1/GPa) = 0.03618927
#
# Stress axis : x y z
#
# Youngs Moduli (GPa) = 52.19101 92.84000 75.04115
#
# Poissons Ratio (x) = 0.25523 -0.08860
# Poissons Ratio (y) = 0.14348 0.14751
# Poissons Ratio (z) = -0.06162 0.18249
#
# Static dielectric constant tensor:
#      x y z
#    x 3.989460 0.000000 0.000000 
#    y 0.000000 4.912000 0.000000 
#    z 0.000000 0.000000 4.832000 
# 
# 
# High freq. dielectric constant tensor:
#      x y z
#    x 1.965040 0.000000 0.000000 
#    y 0.000000 2.028290 0.000000 
#    z 0.000000 0.000000 2.025460 
# 
# From -- ./inp_files/2862.got.cif
#   From: 2010.03.12/outbox.cif.g09.slc.cpg/sg61_2_cif.got.tgz:2862.got - 2010.04.10 19:05:03.
