data_PCOD8249998
_publ_section_title
;
Structure prediction by ZEFSAII (Michael W. Deem and Ramdas Pophale) SiO2 
 PCOD8249998
Probable space group: P N M A
;
_chemical_formula_sum "Si O2"
_cell_formula_units_Z 56
_cell_length_a 17.629549
_cell_length_b 9.021403
_cell_length_c 22.216678
_cell_angle_alpha 90.000000
_cell_angle_beta 90.000000
_cell_angle_gamma 90.000000
_cell_volume 3533.413034
_symmetry_space_group_name_H-M "P N M A"
_symmetry_group_IT_number 62
_symmetry_cell_setting 'orthorhombic'
loop_
_space_group_symop_operation_xyz
x,y,z
1/2-x,-y,1/2+z
1/2+x,1/2-y,1/2-z
-x,1/2+y,-z
-x,-y,-z
1/2+x,y,1/2-z
1/2-x,1/2+y,1/2+z
x,1/2-y,z
loop_
_atom_site_type_symbol
_atom_site_label
_atom_site_fract_x
_atom_site_fract_y
_atom_site_fract_z
Si Si1 0.498057 0.921676 0.063339
Si Si2 0.769277 0.585998 0.817505
Si Si3 0.427756 0.926533 0.723951
Si Si4 0.724817 0.917796 0.678627
Si Si5 0.872731 0.923744 0.346160
Si Si6 0.080189 0.425487 0.788084
Si Si7 0.127372 0.576864 0.343856
O O1 0.482778 0.750000 0.052184
O O2 0.429405 0.989096 0.103555
O O3 0.577731 0.946810 0.096606
O O4 0.500000 0.000000 0.000000
O O5 0.760306 0.750000 0.844246
O O6 0.857107 0.534591 0.820461
O O7 0.747249 0.582825 0.747932
O O8 0.712831 0.483285 0.855915
O O9 0.435581 0.750000 0.732364
O O10 0.501702 0.996763 0.692791
O O11 0.416115 0.000063 0.788894
O O12 0.716343 0.750000 0.654107
O O13 0.646240 0.006748 0.669862
O O14 0.791160 0.002753 0.642610
O O15 0.868785 0.750000 0.351675
O O16 0.904270 0.969617 0.281019
O O17 0.075580 0.250000 0.797931
O O18 0.137675 0.750000 0.328210
#
# Coordination Sequence:
#
# PCOD8249998 Si02
#       7
#     8   8   8   8   8   8   8
#     4  10  21  34  46  64  86 113 153 193 226 264
#     4   8  16  27  39  59  83 110 143 175 212 259
#     4  10  18  27  41  63  90 117 147 181 216 260
#     4   9  17  28  41  62  86 111 146 179 216 265
#     4   9  17  30  43  58  82 111 145 183 219 257
#     4  10  17  27  43  63  88 118 148 178 217 261
#     4  10  18  31  45  59  84 115 149 186 224 265
#
# _framework density 15.848699999999999
#
# number of rings (size 3 to 8) (size 9 to 14) (size 15 to 20)
#    0.000    2.571    1.429    2.571    0.000    6.286 
#    0.000    0.000    0.000    0.000    0.000    0.000 
#    0.000    1.143    0.000    3.714    0.000    5.429 
#
# Total GULP energy -694200.246268 kJ/mol
# GULP energy per Si atom -12396.432969 kJ/mol
# Density = 1.581263 g / cm^3
# Si number density = 15.848700 Si / 1000 Ang^3
#
#
#
# Elastic Constant Matrix: (Units=GPa)
#
#
# Indices 1 2 3 4 5 6 
#
# 1 147.5660 56.5029 31.4578 0.0000 0.0000 0.0000
# 2 56.5029 77.1527 23.6256 0.0000 0.0000 0.0000
# 3 31.4578 23.6256 39.8569 0.0000 0.0000 0.0000
# 4 0.0000 0.0000 0.0000 17.4587 0.0000 0.0000
# 5 0.0000 0.0000 0.0000 0.0000 13.8646 0.0000
# 6 0.0000 0.0000 0.0000 0.0000 0.0000 34.3329
#
#
#
# Elastic Compliance Matrix: (Units=1/GPa)
#
#
# Indices 1 2 3 4 5 6 
#
# 1 0.009996 -0.005992 -0.004337 0.000000 0.000000 0.000000
# 2 -0.005992 0.019428 -0.006787 0.000000 0.000000 0.000000
# 3 -0.004337 -0.006787 0.032536 0.000000 0.000000 0.000000
# 4 0.000000 0.000000 0.000000 0.057278 0.000000 0.000000
# 5 0.000000 0.000000 0.000000 0.000000 0.072126 0.000000
# 6 0.000000 0.000000 0.000000 0.000000 0.000000 0.029127
#
#
# Mechanical properties :
#
#
# Convention : Reuss Voigt Hill
#
# Bulk Modulus (GPa) = 36.06572 54.19427 45.12999
# Shear Modulus (GPa) = 18.94190 23.33053 21.13621
#
# Velocity S-wave (km/s) = 3.46087 3.84093 3.65584
# Velocity P-wave (km/s) = 6.22703 7.34434 6.80864
#
# Compressibility (1/GPa) = 0.02772716
#
# Stress axis : x y z
#
# Youngs Moduli (GPa) = 100.04354 51.47243 30.73525
#
# Poissons Ratio (x) = 0.30843 0.13331
# Poissons Ratio (y) = 0.59948 0.20859
# Poissons Ratio (z) = 0.43392 0.34933
#
# Static dielectric constant tensor:
#      x y z
#    x 3.445640 0.000000 0.000000 
#    y 0.000000 3.119980 0.000000 
#    z 0.000000 0.000000 2.485010 
# 
# 
# High freq. dielectric constant tensor:
#      x y z
#    x 1.627350 0.000000 0.000000 
#    y 0.000000 1.620190 0.000000 
#    z 0.000000 0.000000 1.532090 
# 
# From -- ./inp_files/27536.got.cif
#   From: 2010.03.12/outbox.cif.g09.slc.cpg/sg62_14_cif.got.tgz:27536.got - 2010.04.10 19:12:36.
