data_PCOD8249988
_publ_section_title
;
Structure prediction by ZEFSAII (Michael W. Deem and Ramdas Pophale) SiO2 
 PCOD8249988
Probable space group: P N M A
;
_chemical_formula_sum "Si O2"
_cell_formula_units_Z 48
_cell_length_a 8.060458
_cell_length_b 23.615297
_cell_length_c 15.942770
_cell_angle_alpha 90.000000
_cell_angle_beta 90.000000
_cell_angle_gamma 90.000000
_cell_volume 3034.708017
_symmetry_space_group_name_H-M "P N M A"
_symmetry_group_IT_number 62
_symmetry_cell_setting 'orthorhombic'
loop_
_space_group_symop_operation_xyz
x,y,z
1/2-x,-y,1/2+z
1/2+x,1/2-y,1/2-z
-x,1/2+y,-z
-x,-y,-z
1/2+x,y,1/2-z
1/2-x,1/2+y,1/2+z
x,1/2-y,z
loop_
_atom_site_type_symbol
_atom_site_label
_atom_site_fract_x
_atom_site_fract_y
_atom_site_fract_z
Si Si1 0.613260 0.983000 0.221860
Si Si2 0.450256 0.314792 0.798657
Si Si3 0.822393 0.914011 0.340478
Si Si4 0.914488 0.479155 0.126975
Si Si5 0.091740 0.185858 0.874491
Si Si6 0.040267 0.584267 0.032626
O O1 0.551395 0.021118 0.299801
O O2 0.732098 0.022753 0.167296
O O3 0.703802 0.926391 0.259388
O O4 0.463644 0.962486 0.162935
O O5 0.500878 0.250000 0.817461
O O6 0.593736 0.352554 0.839769
O O7 0.452502 0.324534 0.697586
O O8 0.270298 0.329026 0.835272
O O9 0.723039 0.919476 0.426981
O O10 0.923032 0.536311 0.072124
O O11 0.942124 0.424786 0.067346
O O12 0.087807 0.250000 0.908339
O O13 0.047828 0.144620 0.951382
#
# Coordination Sequence:
#
# PCOD8249988 Si02
#       6
#     8   8   8   8   8   8
#     4   9  17  30  45  60  83 115 146 173 211 256
#     4  10  18  27  41  61  87 122 154 170 192 244
#     4  10  17  26  42  62  88 117 143 176 208 242
#     4   9  18  31  46  64  87 113 142 176 214 257
#     4  10  19  29  42  61  88 120 149 176 206 245
#     4  10  19  29  43  66  91 113 140 177 217 249
#
# _framework density 15.817007
#
# number of rings (size 3 to 8) (size 9 to 14) (size 15 to 20)
#    0.000    2.333    0.000    6.000    0.000    2.667 
#    0.000    3.333    0.000    0.000    0.000    1.167 
#    0.000    0.000    0.000    0.000    0.000    0.000 
#
# Total GULP energy -595136.429302 kJ/mol
# GULP energy per Si atom -12398.675610 kJ/mol
# Density = 1.578101 g / cm^3
# Si number density = 15.817007 Si / 1000 Ang^3
#
#
#
# Elastic Constant Matrix: (Units=GPa)
#
#
# Indices 1 2 3 4 5 6 
#
# 1 88.1509 37.8252 44.3438 0.0000 0.0000 0.0000
# 2 37.8252 81.3655 50.5299 0.0000 0.0000 0.0000
# 3 44.3438 50.5299 83.0577 0.0000 0.0000 0.0000
# 4 0.0000 0.0000 0.0000 24.8734 0.0000 0.0000
# 5 0.0000 0.0000 0.0000 0.0000 17.9843 0.0000
# 6 0.0000 0.0000 0.0000 0.0000 0.0000 19.8527
#
#
#
# Elastic Compliance Matrix: (Units=1/GPa)
#
#
# Indices 1 2 3 4 5 6 
#
# 1 0.016090 -0.003448 -0.006493 0.000000 0.000000 0.000000
# 2 -0.003448 0.020492 -0.010626 0.000000 0.000000 0.000000
# 3 -0.006493 -0.010626 0.021971 0.000000 0.000000 0.000000
# 4 0.000000 0.000000 0.000000 0.040204 0.000000 0.000000
# 5 0.000000 0.000000 0.000000 0.000000 0.055604 0.000000
# 6 0.000000 0.000000 0.000000 0.000000 0.000000 0.050371
#
#
# Mechanical properties :
#
#
# Convention : Reuss Voigt Hill
#
# Bulk Modulus (GPa) = 57.40640 57.55244 57.47942
# Shear Modulus (GPa) = 19.86724 20.53375 20.20049
#
# Velocity S-wave (km/s) = 3.54795 3.60697 3.57758
# Velocity P-wave (km/s) = 7.29087 7.33570 7.31332
#
# Compressibility (1/GPa) = 0.01741966
#
# Stress axis : x y z
#
# Youngs Moduli (GPa) = 62.15173 48.79945 45.51488
#
# Poissons Ratio (x) = 0.16824 0.29551
# Poissons Ratio (y) = 0.21428 0.48365
# Poissons Ratio (z) = 0.40353 0.51855
#
# Static dielectric constant tensor:
#      x y z
#    x 3.179990 0.000000 0.000000 
#    y 0.000000 2.863920 0.000000 
#    z 0.000000 0.000000 2.786980 
# 
# 
# High freq. dielectric constant tensor:
#      x y z
#    x 1.625090 0.000000 0.000000 
#    y 0.000000 1.584550 0.000000 
#    z 0.000000 0.000000 1.564460 
# 
# From -- ./inp_files/17271.got.cif
#   From: 2010.03.12/outbox.cif.g09.slc.cpg/sg62_9_cif.got.tgz:17271.got - 2010.04.10 19:12:36.
