data_PCOD8249459
_publ_section_title
;
Structure prediction by ZEFSAII (Michael W. Deem and Ramdas Pophale) SiO2 
 PCOD8249459
Probable space group: P B C A
;
_chemical_formula_sum "Si O2"
_cell_formula_units_Z 48
_cell_length_a 12.957476
_cell_length_b 10.290494
_cell_length_c 16.838837
_cell_angle_alpha 90.000000
_cell_angle_beta 90.000000
_cell_angle_gamma 90.000000
_cell_volume 2245.270808
_symmetry_space_group_name_H-M "P B C A"
_symmetry_group_IT_number 61
_symmetry_cell_setting 'orthorhombic'
loop_
_space_group_symop_operation_xyz
x,y,z
1/2-x,-y,1/2+z
1/2+x,1/2-y,-z
-x,1/2+y,1/2-z
-x,-y,-z
1/2+x,y,1/2-z
1/2-x,1/2+y,z
x,1/2-y,1/2+z
loop_
_atom_site_type_symbol
_atom_site_label
_atom_site_fract_x
_atom_site_fract_y
_atom_site_fract_z
Si Si1 0.224427 0.223299 0.781967
Si Si2 0.650670 0.019782 0.541292
Si Si3 0.529165 0.128967 0.166379
Si Si4 0.148268 0.959898 0.770334
Si Si5 0.142221 0.605521 0.917916
Si Si6 0.966907 0.291201 0.472314
O O1 0.108833 0.267024 0.800629
O O2 0.283789 0.339037 0.737568
O O3 0.296058 0.198163 0.858187
O O4 0.206289 0.088024 0.734528
O O5 0.769497 0.054461 0.520775
O O6 0.580807 0.146440 0.523258
O O7 0.641488 0.976432 0.634049
O O8 0.617994 0.904574 0.481666
O O9 0.466232 0.059351 0.236683
O O10 0.452911 0.210601 0.109041
O O11 0.592224 0.018703 0.121911
O O12 0.050271 0.686753 0.957686
#
# Coordination Sequence:
#
# PCOD8249459 Si02
#       6
#     8   8   8   8   8   8
#     4  11  22  44  69  91 131 182 217 261 350 396
#     4  10  22  42  70  93 129 184 214 272 343 407
#     4  12  24  40  69 100 130 169 230 273 329 402
#     4  11  24  43  70  95 131 182 223 272 329 409
#     4  11  21  42  67  91 131 178 211 270 342 406
#     4  11  22  41  67 100 126 167 232 272 330 400
#
# _framework density 21.378269
#
# number of rings (size 3 to 8) (size 9 to 14) (size 15 to 20)
#    0.000    1.000    8.333    0.500    2.333    0.000 
#    3.000    1.667    0.000    0.000    0.000    0.000 
#    0.000    0.000    0.000    0.000    0.000    0.000 
#
# Total GULP energy -594780.691869 kJ/mol
# GULP energy per Si atom -12391.264414 kJ/mol
# Density = 2.132961 g / cm^3
# Si number density = 21.378269 Si / 1000 Ang^3
#
#
#
# Elastic Constant Matrix: (Units=GPa)
#
#
# Indices 1 2 3 4 5 6 
#
# 1 106.0387 88.8888 43.5044 0.0000 0.0000 0.0000
# 2 88.8888 137.8399 27.2353 0.0000 0.0000 0.0000
# 3 43.5044 27.2353 37.1496 0.0000 0.0000 0.0000
# 4 0.0000 0.0000 0.0000 9.7103 0.0000 0.0000
# 5 0.0000 0.0000 0.0000 0.0000 38.5577 0.0000
# 6 0.0000 0.0000 0.0000 0.0000 0.0000 35.5494
#
#
#
# Elastic Compliance Matrix: (Units=1/GPa)
#
#
# Indices 1 2 3 4 5 6 
#
# 1 0.036319 -0.017561 -0.029657 0.000000 0.000000 0.000000
# 2 -0.017561 0.016975 0.008120 0.000000 0.000000 0.000000
# 3 -0.029657 0.008120 0.055695 0.000000 0.000000 0.000000
# 4 0.000000 0.000000 0.000000 0.102984 0.000000 0.000000
# 5 0.000000 0.000000 0.000000 0.000000 0.025935 0.000000
# 6 0.000000 0.000000 0.000000 0.000000 0.000000 0.028130
#
#
# Mechanical properties :
#
#
# Convention : Reuss Voigt Hill
#
# Bulk Modulus (GPa) = 32.47462 66.69835 49.58648
# Shear Modulus (GPa) = 14.10451 24.85681 19.48066
#
# Velocity S-wave (km/s) = 2.57136 3.41356 3.02194
# Velocity P-wave (km/s) = 4.90299 6.84130 5.95158
#
# Compressibility (1/GPa) = 0.03079328
#
# Stress axis : x y z
#
# Youngs Moduli (GPa) = 27.53411 58.91054 17.95496
#
# Poissons Ratio (x) = 1.03453 0.53249
# Poissons Ratio (y) = 0.48353 -0.14580
# Poissons Ratio (z) = 0.81657 -0.47837
#
# Static dielectric constant tensor:
#      x y z
#    x 4.032400 0.000000 0.000000 
#    y 0.000000 4.417900 0.000000 
#    z 0.000000 0.000000 3.458810 
# 
# 
# High freq. dielectric constant tensor:
#      x y z
#    x 1.841850 0.000000 0.000000 
#    y 0.000000 1.875450 0.000000 
#    z 0.000000 0.000000 1.782990 
# 
# From -- ./inp_files/10273.got.cif
#   From: 2010.03.12/outbox.cif.g09.slc.cpg/sg61_6_cif.got.tgz:10273.got - 2010.04.10 19:05:03.
