data_PCOD8249038
_publ_section_title
;
Structure prediction by ZEFSAII (Michael W. Deem and Ramdas Pophale) SiO2 
 PCOD8249038
Probable space group: P B C A
;
_chemical_formula_sum "Si O2"
_cell_formula_units_Z 64
_cell_length_a 17.102780
_cell_length_b 14.858394
_cell_length_c 11.773702
_cell_angle_alpha 90.000000
_cell_angle_beta 90.000000
_cell_angle_gamma 90.000000
_cell_volume 2991.931312
_symmetry_space_group_name_H-M "P B C A"
_symmetry_group_IT_number 61
_symmetry_cell_setting 'orthorhombic'
loop_
_space_group_symop_operation_xyz
x,y,z
1/2-x,-y,1/2+z
1/2+x,1/2-y,-z
-x,1/2+y,1/2-z
-x,-y,-z
1/2+x,y,1/2-z
1/2-x,1/2+y,z
x,1/2-y,1/2+z
loop_
_atom_site_type_symbol
_atom_site_label
_atom_site_fract_x
_atom_site_fract_y
_atom_site_fract_z
Si Si1 0.230272 0.004665 0.080571
Si Si2 0.025076 0.042427 0.678542
Si Si3 0.380024 0.108421 0.698360
Si Si4 0.061712 0.381150 0.944250
Si Si5 0.707671 0.648897 0.574401
Si Si6 0.265889 0.847925 0.941953
Si Si7 0.413057 0.211492 0.098009
Si Si8 0.653728 0.921279 0.740255
O O1 0.143961 0.984439 0.133314
O O2 0.277893 0.059016 0.172411
O O3 0.265400 0.903590 0.060355
O O4 0.235526 0.066832 0.966677
O O5 0.067039 0.098771 0.579025
O O6 0.967035 0.103941 0.751522
O O7 0.091604 0.003311 0.763470
O O8 0.972924 0.964983 0.622919
O O9 0.315198 0.131243 0.795078
O O10 0.382854 0.186331 0.602057
O O11 0.146971 0.360908 0.891513
O O12 0.005950 0.294626 0.924496
O O13 0.753266 0.741670 0.551973
O O14 0.627727 0.652659 0.501593
O O15 0.195029 0.898303 0.877388
O O16 0.392300 0.167903 0.219673
#
# Coordination Sequence:
#
# PCOD8249038 Si02
#       8
#     8   8   8   8   8   8   8   8
#     4  11  23  39  64  97 127 171 232 277 335 404
#     4  10  20  38  66  92 122 176 231 274 335 406
#     4  12  22  42  67  95 136 183 221 290 345 408
#     4  10  20  39  65  92 123 173 232 278 328 412
#     4  11  23  42  67  96 134 181 224 281 348 417
#     4  12  22  41  66  97 137 176 217 288 345 398
#     4  10  21  40  64  94 129 173 232 271 339 416
#     4  10  21  39  64  94 127 171 229 275 329 413
#
# _framework density 21.390865999999999
#
# number of rings (size 3 to 8) (size 9 to 14) (size 15 to 20)
#    0.000    1.250    5.000    2.250    0.000    0.000 
#    4.500    6.875    0.000    0.000    0.000    0.000 
#    0.000    0.000    0.000    0.000    0.000    0.000 
#
# Total GULP energy -793193.830791 kJ/mol
# GULP energy per Si atom -12393.653606 kJ/mol
# Density = 2.134218 g / cm^3
# Si number density = 21.390866 Si / 1000 Ang^3
#
#
#
# Elastic Constant Matrix: (Units=GPa)
#
#
# Indices 1 2 3 4 5 6 
#
# 1 99.6233 28.2601 25.4913 0.0000 0.0000 0.0000
# 2 28.2601 103.0746 22.5533 0.0000 0.0000 0.0000
# 3 25.4913 22.5533 55.9037 0.0000 0.0000 0.0000
# 4 0.0000 0.0000 0.0000 29.9523 0.0000 0.0000
# 5 0.0000 0.0000 0.0000 0.0000 28.8002 0.0000
# 6 0.0000 0.0000 0.0000 0.0000 0.0000 36.3271
#
#
#
# Elastic Compliance Matrix: (Units=1/GPa)
#
#
# Indices 1 2 3 4 5 6 
#
# 1 0.011826 -0.002262 -0.004480 0.000000 0.000000 0.000000
# 2 -0.002262 0.011074 -0.003436 0.000000 0.000000 0.000000
# 3 -0.004480 -0.003436 0.021317 0.000000 0.000000 0.000000
# 4 0.000000 0.000000 0.000000 0.033386 0.000000 0.000000
# 5 0.000000 0.000000 0.000000 0.000000 0.034722 0.000000
# 6 0.000000 0.000000 0.000000 0.000000 0.000000 0.027528
#
#
# Mechanical properties :
#
#
# Convention : Reuss Voigt Hill
#
# Bulk Modulus (GPa) = 41.91017 45.69012 43.80015
# Shear Modulus (GPa) = 29.73329 31.16905 30.45117
#
# Velocity S-wave (km/s) = 3.73231 3.82136 3.77710
# Velocity P-wave (km/s) = 6.18131 6.39347 6.28829
#
# Compressibility (1/GPa) = 0.02386056
#
# Stress axis : x y z
#
# Youngs Moduli (GPa) = 84.56107 90.30387 46.91129
#
# Poissons Ratio (x) = 0.20428 0.21015
# Poissons Ratio (y) = 0.19128 0.16119
# Poissons Ratio (z) = 0.37882 0.31028
#
# Static dielectric constant tensor:
#      x y z
#    x 3.958240 0.000000 0.000000 
#    y 0.000000 3.821310 0.000000 
#    z 0.000000 0.000000 3.765720 
# 
# 
# High freq. dielectric constant tensor:
#      x y z
#    x 1.835170 0.000000 0.000000 
#    y 0.000000 1.833460 0.000000 
#    z 0.000000 0.000000 1.824150 
# 
# From -- ./inp_files/6281.got.cif
#   From: 2010.03.12/outbox.cif.g09.slc.cpg/sg61_4_cif.got.tgz:6281.got - 2010.04.10 19:05:03.
