data_PCOD8249444
_publ_section_title
;
Structure prediction by ZEFSAII (Michael W. Deem and Ramdas Pophale) SiO2 
 PCOD8249444
Probable space group: P B C A
;
_chemical_formula_sum "Si O2"
_cell_formula_units_Z 64
_cell_length_a 25.392062
_cell_length_b 13.199692
_cell_length_c 9.487687
_cell_angle_alpha 90.000000
_cell_angle_beta 90.000000
_cell_angle_gamma 90.000000
_cell_volume 3179.963361
_symmetry_space_group_name_H-M "P B C A"
_symmetry_group_IT_number 61
_symmetry_cell_setting 'orthorhombic'
loop_
_space_group_symop_operation_xyz
x,y,z
1/2-x,-y,1/2+z
1/2+x,1/2-y,-z
-x,1/2+y,1/2-z
-x,-y,-z
1/2+x,y,1/2-z
1/2-x,1/2+y,z
x,1/2-y,1/2+z
loop_
_atom_site_type_symbol
_atom_site_label
_atom_site_fract_x
_atom_site_fract_y
_atom_site_fract_z
Si Si1 0.099123 0.034295 0.109635
Si Si2 0.206981 0.352342 0.026857
Si Si3 0.150420 0.533755 0.168413
Si Si4 0.599103 0.781565 0.977920
Si Si5 0.073537 0.106138 0.815338
Si Si6 0.456800 0.147648 0.749489
Si Si7 0.323686 0.106310 0.462628
Si Si8 0.848620 0.719027 0.246330
O O1 0.111920 0.135389 0.194031
O O2 0.063931 0.963173 0.208323
O O3 0.064879 0.060837 0.971128
O O4 0.153442 0.979269 0.066840
O O5 0.185229 0.461646 0.070577
O O6 0.187890 0.264490 0.131265
O O7 0.269948 0.354350 0.030171
O O8 0.189097 0.329541 0.869062
O O9 0.095370 0.480883 0.211575
O O10 0.184624 0.559546 0.307470
O O11 0.138091 0.633667 0.080879
O O12 0.559831 0.828604 0.091750
O O13 0.634953 0.697451 0.052390
O O14 0.564477 0.734113 0.853842
O O15 0.116385 0.194926 0.826443
O O16 0.019720 0.148734 0.752957
#
# Coordination Sequence:
#
# PCOD8249444 Si02
#       8
#     8   8   8   8   8   8   8   8
#     4  10  22  42  61  91 128 162 210 259 313 374
#     4  11  25  39  67  92 123 170 209 253 323 373
#     4  10  23  45  62  94 133 161 212 270 307 377
#     4  11  23  43  63  97 128 162 216 264 310 379
#     4  10  23  42  65  93 133 162 206 269 314 375
#     4  11  24  38  69  95 123 175 209 253 326 375
#     4  10  24  42  63  92 128 164 205 269 314 369
#     4  11  23  43  62  96 127 162 212 261 309 380
#
# _framework density 20.126017999999998
#
# number of rings (size 3 to 8) (size 9 to 14) (size 15 to 20)
#    0.000    1.500    2.500    1.125    5.250    1.500 
#    0.000    0.000    0.000    0.000    0.000    0.000 
#    0.000    0.000    0.000    0.000    0.000    0.000 
#
# Total GULP energy -794049.964029 kJ/mol
# GULP energy per Si atom -12407.030688 kJ/mol
# Density = 2.008021 g / cm^3
# Si number density = 20.126018 Si / 1000 Ang^3
#
#
#
# Elastic Constant Matrix: (Units=GPa)
#
#
# Indices 1 2 3 4 5 6 
#
# 1 79.1694 8.1994 18.6899 0.0000 0.0000 0.0000
# 2 8.1994 88.1011 19.9599 0.0000 0.0000 0.0000
# 3 18.6899 19.9599 74.4099 0.0000 0.0000 0.0000
# 4 0.0000 0.0000 0.0000 -19.3435 0.0000 0.0000
# 5 0.0000 0.0000 0.0000 0.0000 17.2089 0.0000
# 6 0.0000 0.0000 0.0000 0.0000 0.0000 16.9549
#
#
#
# Elastic Compliance Matrix: (Units=1/GPa)
#
#
# Indices 1 2 3 4 5 6 
#
# 1 0.013449 -0.000518 -0.003239 0.000000 0.000000 0.000000
# 2 -0.000518 0.012105 -0.003117 0.000000 0.000000 0.000000
# 3 -0.003239 -0.003117 0.015089 0.000000 0.000000 0.000000
# 4 0.000000 0.000000 0.000000 -0.051697 0.000000 0.000000
# 5 0.000000 0.000000 0.000000 0.000000 0.058109 0.000000
# 6 0.000000 0.000000 0.000000 0.000000 0.000000 0.058980
#
#
# Mechanical properties :
#
#
# Convention : Reuss Voigt Hill
#
# Bulk Modulus (GPa) = 37.18156 37.26431 37.22293
# Shear Modulus (GPa) = 38.83528 15.95282 27.39405
#
# Velocity S-wave (km/s) = 4.39749 2.81845 3.69335
# Velocity P-wave (km/s) = 6.65571 5.39882 6.05994
#
# Compressibility (1/GPa) = 0.02689505
#
# Stress axis : x y z
#
# Youngs Moduli (GPa) = 74.35236 82.61069 66.27431
#
# Poissons Ratio (x) = 0.04278 0.21468
# Poissons Ratio (y) = 0.03850 0.20658
# Poissons Ratio (z) = 0.24085 0.25750
#
# Static dielectric constant tensor:
#      x y z
#    x 3.419350 0.000000 0.000000 
#    y 0.000000 3.807980 0.000000 
#    z 0.000000 0.000000 3.617130 
# 
# 
# High freq. dielectric constant tensor:
#      x y z
#    x 1.776000 0.000000 0.000000 
#    y 0.000000 1.801650 0.000000 
#    z 0.000000 0.000000 1.792870 
# 
# From -- ./inp_files/4621.got.cif
#   From: 2010.03.12/outbox.cif.g09.slc.cpg/sg61_3_cif.got.tgz:4621.got - 2010.04.10 19:05:03.
