data_PCOD8249258
_publ_section_title
;
Structure prediction by ZEFSAII (Michael W. Deem and Ramdas Pophale) SiO2 
 PCOD8249258
Probable space group: P B C A
;
_chemical_formula_sum "Si O2"
_cell_formula_units_Z 64
_cell_length_a 8.890511
_cell_length_b 26.140057
_cell_length_c 12.999880
_cell_angle_alpha 90.000000
_cell_angle_beta 90.000000
_cell_angle_gamma 90.000000
_cell_volume 3021.152148
_symmetry_space_group_name_H-M "P B C A"
_symmetry_group_IT_number 61
_symmetry_cell_setting 'orthorhombic'
loop_
_space_group_symop_operation_xyz
x,y,z
1/2-x,-y,1/2+z
1/2+x,1/2-y,-z
-x,1/2+y,1/2-z
-x,-y,-z
1/2+x,y,1/2-z
1/2-x,1/2+y,z
x,1/2-y,1/2+z
loop_
_atom_site_type_symbol
_atom_site_label
_atom_site_fract_x
_atom_site_fract_y
_atom_site_fract_z
Si Si1 0.762266 0.984936 0.051430
Si Si2 0.845167 0.266348 0.318995
Si Si3 0.012392 0.273075 0.114959
Si Si4 0.122544 0.556297 0.130508
Si Si5 0.643759 0.832239 0.942547
Si Si6 0.970159 0.822401 0.019136
Si Si7 0.370331 0.999589 0.739659
Si Si8 0.935010 0.067178 0.952741
O O1 0.899682 0.949987 0.012564
O O2 0.732119 0.975858 0.171211
O O3 0.617475 0.969472 0.983063
O O4 0.808322 0.043821 0.028598
O O5 0.679029 0.288100 0.344967
O O6 0.838763 0.206637 0.347854
O O7 0.882722 0.276997 0.200599
O O8 0.985453 0.291178 0.379364
O O9 0.995311 0.214300 0.077473
O O10 0.981799 0.313007 0.022977
O O11 0.092150 0.616106 0.114328
O O12 0.286675 0.545158 0.177655
O O13 0.007803 0.529061 0.206717
O O14 0.795458 0.838350 0.010813
O O15 0.076004 0.872377 0.028452
O O16 0.412357 0.046997 0.664946
#
# Coordination Sequence:
#
# PCOD8249258 Si02
#       8
#     8   8   8   8   8   8   8   8
#     4  10  21  40  61  88 130 163 209 261 309 368
#     4  10  22  40  62  93 122 159 203 257 313 370
#     4  10  22  41  63  90 128 158 207 260 312 379
#     4  11  23  39  64  93 125 168 206 257 320 369
#     4  10  22  39  62  91 123 162 205 255 310 377
#     4  10  21  41  66  88 123 167 206 254 316 372
#     4  11  23  40  61  95 126 163 215 262 305 378
#     4  10  21  40  65  89 126 169 208 261 321 364
#
# _framework density 21.183973000000002
#
# number of rings (size 3 to 8) (size 9 to 14) (size 15 to 20)
#    0.000    1.750    2.500    1.125    0.000    6.000 
#    2.250    0.000    0.000    0.000    0.000    0.000 
#    0.000    0.000    0.000    0.000    0.000    0.000 
#
# Total GULP energy -793070.436613 kJ/mol
# GULP energy per Si atom -12391.725572 kJ/mol
# Density = 2.113576 g / cm^3
# Si number density = 21.183973 Si / 1000 Ang^3
#
#
#
# Elastic Constant Matrix: (Units=GPa)
#
#
# Indices 1 2 3 4 5 6 
#
# 1 47.0555 -4.8448 6.3507 0.0000 0.0000 0.0000
# 2 -4.8448 58.3156 -11.6662 0.0000 0.0000 0.0000
# 3 6.3507 -11.6662 82.7679 0.0000 0.0000 0.0000
# 4 0.0000 0.0000 0.0000 22.4773 0.0000 0.0000
# 5 0.0000 0.0000 0.0000 0.0000 34.5417 0.0000
# 6 0.0000 0.0000 0.0000 0.0000 0.0000 21.8368
#
#
#
# Elastic Compliance Matrix: (Units=1/GPa)
#
#
# Indices 1 2 3 4 5 6 
#
# 1 0.021602 0.001505 -0.001445 0.000000 0.000000 0.000000
# 2 0.001505 0.017751 0.002386 0.000000 0.000000 0.000000
# 3 -0.001445 0.002386 0.012529 0.000000 0.000000 0.000000
# 4 0.000000 0.000000 0.000000 0.044489 0.000000 0.000000
# 5 0.000000 0.000000 0.000000 0.000000 0.028951 0.000000
# 6 0.000000 0.000000 0.000000 0.000000 0.000000 0.045794
#
#
# Mechanical properties :
#
#
# Convention : Reuss Voigt Hill
#
# Bulk Modulus (GPa) = 17.61349 18.64650 18.12999
# Shear Modulus (GPa) = 27.00555 28.99110 27.99832
#
# Velocity S-wave (km/s) = 3.57432 3.70339 3.63943
# Velocity P-wave (km/s) = 5.03656 5.20654 5.12226
#
# Compressibility (1/GPa) = 0.05677468
#
# Stress axis : x y z
#
# Youngs Moduli (GPa) = 46.29292 56.33631 79.81325
#
# Poissons Ratio (x) = -0.08481 0.11535
# Poissons Ratio (y) = -0.06969 -0.19047
# Poissons Ratio (z) = 0.06691 -0.13444
#
# Static dielectric constant tensor:
#      x y z
#    x 3.813990 0.000000 0.000000 
#    y 0.000000 3.705420 0.000000 
#    z 0.000000 0.000000 3.893470 
# 
# 
# High freq. dielectric constant tensor:
#      x y z
#    x 1.830650 0.000000 0.000000 
#    y 0.000000 1.815750 0.000000 
#    z 0.000000 0.000000 1.837610 
# 
# From -- ./inp_files/7233.got.cif
#   From: 2010.03.12/outbox.cif.g09.slc.cpg/sg61_4_cif.got.tgz:7233.got - 2010.04.10 19:05:03.
