data_PCOD8249924
_publ_section_title
;
Structure prediction by ZEFSAII (Michael W. Deem and Ramdas Pophale) SiO2 
 PCOD8249924
Probable space group: P B C A
;
_chemical_formula_sum "Si O2"
_cell_formula_units_Z 48
_cell_length_a 8.942160
_cell_length_b 17.518670
_cell_length_c 12.847481
_cell_angle_alpha 90.000000
_cell_angle_beta 90.000000
_cell_angle_gamma 90.000000
_cell_volume 2012.618926
_symmetry_space_group_name_H-M "P B C A"
_symmetry_group_IT_number 61
_symmetry_cell_setting 'orthorhombic'
loop_
_space_group_symop_operation_xyz
x,y,z
1/2-x,-y,1/2+z
1/2+x,1/2-y,-z
-x,1/2+y,1/2-z
-x,-y,-z
1/2+x,y,1/2-z
1/2-x,1/2+y,z
x,1/2-y,1/2+z
loop_
_atom_site_type_symbol
_atom_site_label
_atom_site_fract_x
_atom_site_fract_y
_atom_site_fract_z
Si Si1 0.921860 0.292384 0.239141
Si Si2 0.357478 0.295610 0.952444
Si Si3 0.526226 0.189169 0.086846
Si Si4 0.416025 0.924159 0.468326
Si Si5 0.615273 0.961674 0.921291
Si Si6 0.843630 0.900555 0.274342
O O1 0.861067 0.222609 0.170744
O O2 0.797030 0.345224 0.293140
O O3 0.031531 0.254184 0.324618
O O4 0.021076 0.352816 0.173741
O O5 0.186017 0.320562 0.972399
O O6 0.396223 0.215628 0.007315
O O7 0.480746 0.356377 0.987895
O O8 0.475771 0.107446 0.133391
O O9 0.255268 0.924221 0.521522
O O10 0.385961 0.917106 0.345510
O O11 0.500000 0.000000 0.500000
O O12 0.676186 0.019950 0.834259
O O13 0.500000 0.000000 0.000000
#
# Coordination Sequence:
#
# PCOD8249924 Si02
#       6
#     8   8   8   8   8   8
#     4  12  26  47  77 109 151 203 260 319 398 464
#     4  12  26  48  79 110 160 198 269 323 400 468
#     4  12  27  47  76 117 146 207 260 329 386 482
#     4  12  27  49  76 115 155 211 257 326 399 471
#     4  12  28  48  79 113 161 205 267 324 398 476
#     4  12  26  51  75 111 157 207 257 331 398 471
#
# _framework density 23.849522
#
# number of rings (size 3 to 8) (size 9 to 14) (size 15 to 20)
#    0.000    0.000    3.333    6.000    9.333    0.000 
#    0.000    0.000    0.000    0.000    0.000    0.000 
#    0.000    0.000    0.000    0.000    0.000    0.000 
#
# Total GULP energy -594989.593479 kJ/mol
# GULP energy per Si atom -12395.616531 kJ/mol
# Density = 2.379524 g / cm^3
# Si number density = 23.849522 Si / 1000 Ang^3
#
#
#
# Elastic Constant Matrix: (Units=GPa)
#
#
# Indices 1 2 3 4 5 6 
#
# 1 136.3297 59.4389 32.8977 0.0000 0.0000 0.0000
# 2 59.4389 158.6603 52.4754 0.0000 0.0000 0.0000
# 3 32.8977 52.4754 84.7485 0.0000 0.0000 0.0000
# 4 0.0000 0.0000 0.0000 36.3736 0.0000 0.0000
# 5 0.0000 0.0000 0.0000 0.0000 34.5872 0.0000
# 6 0.0000 0.0000 0.0000 0.0000 0.0000 56.9270
#
#
#
# Elastic Compliance Matrix: (Units=1/GPa)
#
#
# Indices 1 2 3 4 5 6 
#
# 1 0.008972 -0.002778 -0.001762 0.000000 0.000000 0.000000
# 2 -0.002778 0.008786 -0.004362 0.000000 0.000000 0.000000
# 3 -0.001762 -0.004362 0.015185 0.000000 0.000000 0.000000
# 4 0.000000 0.000000 0.000000 0.027493 0.000000 0.000000
# 5 0.000000 0.000000 0.000000 0.000000 0.028912 0.000000
# 6 0.000000 0.000000 0.000000 0.000000 0.000000 0.017566
#
#
# Mechanical properties :
#
#
# Convention : Reuss Voigt Hill
#
# Bulk Modulus (GPa) = 66.06096 74.37361 70.21729
# Shear Modulus (GPa) = 38.53127 41.23930 39.88529
#
# Velocity S-wave (km/s) = 4.02381 4.16281 4.09390
# Velocity P-wave (km/s) = 7.02476 7.37276 7.20086
#
# Compressibility (1/GPa) = 0.01513753
#
# Stress axis : x y z
#
# Youngs Moduli (GPa) = 111.46137 113.81452 65.85611
#
# Poissons Ratio (x) = 0.31620 0.11607
# Poissons Ratio (y) = 0.30966 0.28726
# Poissons Ratio (z) = 0.19644 0.49645
#
# Static dielectric constant tensor:
#      x y z
#    x 4.503000 0.000000 0.000000 
#    y 0.000000 4.593110 0.000000 
#    z 0.000000 0.000000 4.211260 
# 
# 
# High freq. dielectric constant tensor:
#      x y z
#    x 1.965240 0.000000 0.000000 
#    y 0.000000 1.962920 0.000000 
#    z 0.000000 0.000000 1.938180 
# 
# From -- ./inp_files/7030.got.cif
#   From: 2010.03.12/outbox.cif.g09.slc.cpg/sg61_4_cif.got.tgz:7030.got - 2010.04.10 19:05:03.
