data_PCOD8249056
_publ_section_title
;
Structure prediction by ZEFSAII (Michael W. Deem and Ramdas Pophale) SiO2 
 PCOD8249056
Probable space group: P B C A
;
_chemical_formula_sum "Si O2"
_cell_formula_units_Z 48
_cell_length_a 8.706954
_cell_length_b 27.652160
_cell_length_c 10.032673
_cell_angle_alpha 90.000000
_cell_angle_beta 90.000000
_cell_angle_gamma 90.000000
_cell_volume 2415.527402
_symmetry_space_group_name_H-M "P B C A"
_symmetry_group_IT_number 61
_symmetry_cell_setting 'orthorhombic'
loop_
_space_group_symop_operation_xyz
x,y,z
1/2-x,-y,1/2+z
1/2+x,1/2-y,-z
-x,1/2+y,1/2-z
-x,-y,-z
1/2+x,y,1/2-z
1/2-x,1/2+y,z
x,1/2-y,1/2+z
loop_
_atom_site_type_symbol
_atom_site_label
_atom_site_fract_x
_atom_site_fract_y
_atom_site_fract_z
Si Si1 0.408878 0.472092 0.887039
Si Si2 0.937766 0.610027 0.797570
Si Si3 0.168097 0.726764 0.579069
Si Si4 0.875367 0.118730 0.941731
Si Si5 0.073821 0.990572 0.359993
Si Si6 0.490775 0.284536 0.356149
O O1 0.503745 0.473064 0.750211
O O2 0.254220 0.501307 0.861980
O O3 0.500000 0.500000 0.000000
O O4 0.377517 0.416633 0.930702
O O5 0.760826 0.602634 0.839030
O O6 0.006632 0.657454 0.869314
O O7 0.961751 0.616091 0.637380
O O8 0.043063 0.565028 0.832875
O O9 0.152967 0.673624 0.511373
O O10 0.341708 0.737981 0.621832
O O11 0.063488 0.731622 0.709952
O O12 0.123742 0.766158 0.469746
O O13 0.000000 0.000000 0.500000
#
# Coordination Sequence:
#
# PCOD8249056 Si02
#       6
#     8   8   8   8   8   8
#     4  12  24  41  62  89 125 161 206 252 298 361
#     4  10  20  39  64  88 121 162 205 243 307 365
#     4  10  21  40  63  91 122 158 204 253 306 367
#     4  10  21  39  62  91 121 161 205 249 303 366
#     4  12  23  40  62  90 126 162 204 251 299 360
#     4  10  21  39  65  90 123 160 205 254 306 365
#
# _framework density 19.871435999999999
#
# number of rings (size 3 to 8) (size 9 to 14) (size 15 to 20)
#    0.000    1.333    3.333    3.000    0.000    1.333 
#    3.000    1.667    0.000    0.000    0.000    0.000 
#    0.000    0.000    0.000    0.000    0.000    0.000 
#
# Total GULP energy -595159.284049 kJ/mol
# GULP energy per Si atom -12399.151751 kJ/mol
# Density = 1.982621 g / cm^3
# Si number density = 19.871436 Si / 1000 Ang^3
#
#
#
# Elastic Constant Matrix: (Units=GPa)
#
#
# Indices 1 2 3 4 5 6 
#
# 1 103.3338 29.1339 38.1891 0.0000 0.0000 0.0000
# 2 29.1339 92.7329 44.0300 0.0000 0.0000 0.0000
# 3 38.1891 44.0300 110.1691 0.0000 0.0000 0.0000
# 4 0.0000 0.0000 0.0000 38.6645 0.0000 0.0000
# 5 0.0000 0.0000 0.0000 0.0000 39.8635 0.0000
# 6 0.0000 0.0000 0.0000 0.0000 0.0000 26.5622
#
#
#
# Elastic Compliance Matrix: (Units=1/GPa)
#
#
# Indices 1 2 3 4 5 6 
#
# 1 0.011424 -0.002109 -0.003117 0.000000 0.000000 0.000000
# 2 -0.002109 0.013699 -0.004744 0.000000 0.000000 0.000000
# 3 -0.003117 -0.004744 0.012053 0.000000 0.000000 0.000000
# 4 0.000000 0.000000 0.000000 0.025864 0.000000 0.000000
# 5 0.000000 0.000000 0.000000 0.000000 0.025086 0.000000
# 6 0.000000 0.000000 0.000000 0.000000 0.000000 0.037647
#
#
# Mechanical properties :
#
#
# Convention : Reuss Voigt Hill
#
# Bulk Modulus (GPa) = 58.01740 58.77132 58.39436
# Shear Modulus (GPa) = 33.01253 34.01022 33.51138
#
# Velocity S-wave (km/s) = 4.08033 4.14153 4.11105
# Velocity P-wave (km/s) = 7.17346 7.24636 7.21000
#
# Compressibility (1/GPa) = 0.01723621
#
# Stress axis : x y z
#
# Youngs Moduli (GPa) = 87.53498 73.00026 82.96468
#
# Poissons Ratio (x) = 0.15396 0.25861
# Poissons Ratio (y) = 0.18462 0.39356
# Poissons Ratio (z) = 0.27286 0.34629
#
# Static dielectric constant tensor:
#      x y z
#    x 3.792900 0.000000 0.000000 
#    y 0.000000 3.621510 0.000000 
#    z 0.000000 0.000000 3.623590 
# 
# 
# High freq. dielectric constant tensor:
#      x y z
#    x 1.788780 0.000000 0.000000 
#    y 0.000000 1.776790 0.000000 
#    z 0.000000 0.000000 1.763880 
# 
# From -- ./inp_files/1879.got.cif
#   From: 2010.03.12/outbox.cif.g09.slc.cpg/sg61_1_cif.got.tgz:1879.got - 2010.04.10 19:05:03.
