data_PCOD8249277
_publ_section_title
;
Structure prediction by ZEFSAII (Michael W. Deem and Ramdas Pophale) SiO2 
 PCOD8249277
Probable space group: P B C A
;
_chemical_formula_sum "Si O2"
_cell_formula_units_Z 56
_cell_length_a 15.924417
_cell_length_b 8.805924
_cell_length_c 19.290435
_cell_angle_alpha 90.000000
_cell_angle_beta 90.000000
_cell_angle_gamma 90.000000
_cell_volume 2705.082380
_symmetry_space_group_name_H-M "P B C A"
_symmetry_group_IT_number 61
_symmetry_cell_setting 'orthorhombic'
loop_
_space_group_symop_operation_xyz
x,y,z
1/2-x,-y,1/2+z
1/2+x,1/2-y,-z
-x,1/2+y,1/2-z
-x,-y,-z
1/2+x,y,1/2-z
1/2-x,1/2+y,z
x,1/2-y,1/2+z
loop_
_atom_site_type_symbol
_atom_site_label
_atom_site_fract_x
_atom_site_fract_y
_atom_site_fract_z
Si Si1 0.823918 0.782577 0.599750
Si Si2 0.997075 0.888565 0.099589
Si Si3 0.255615 0.071517 0.142996
Si Si4 0.476725 0.282326 0.949951
Si Si5 0.160551 0.181144 0.556979
Si Si6 0.657141 0.877207 0.139321
Si Si7 0.861697 0.326271 0.292524
O O1 0.800746 0.804764 0.519424
O O2 0.749229 0.694168 0.636987
O O3 0.906191 0.682245 0.609571
O O4 0.837113 0.942334 0.636691
O O5 0.053326 0.842141 0.164354
O O6 0.041957 0.830450 0.029229
O O7 0.987054 0.069539 0.097591
O O8 0.191269 0.177210 0.101862
O O9 0.319027 0.165681 0.190527
O O10 0.309889 0.977821 0.087829
O O11 0.202793 0.961671 0.192067
O O12 0.559875 0.179764 0.945776
O O13 0.399135 0.182436 0.924064
O O14 0.614045 0.830356 0.211792
#
# Coordination Sequence:
#
# PCOD8249277 Si02
#       7
#     8   8   8   8   8   8   8
#     4  11  25  41  67  95 129 170 213 270 323 385
#     4  10  23  43  66  95 130 168 218 271 324 376
#     4  10  22  39  67  92 126 168 217 264 318 386
#     4  10  23  42  65  95 130 166 218 273 321 377
#     4  10  21  40  66  98 122 165 217 272 317 369
#     4  12  26  43  64  95 133 172 214 263 333 393
#     4  11  24  43  64  94 132 171 213 264 327 392
#
# _framework density 20.701772999999999
#
# number of rings (size 3 to 8) (size 9 to 14) (size 15 to 20)
#    0.000    1.429    1.429    2.571    8.000    2.286 
#    5.143    0.000    0.000    0.000    0.000    0.000 
#    0.000    0.000    0.000    0.000    0.000    0.000 
#
# Total GULP energy -694832.702884 kJ/mol
# GULP energy per Si atom -12407.726837 kJ/mol
# Density = 2.065465 g / cm^3
# Si number density = 20.701773 Si / 1000 Ang^3
#
#
#
# Elastic Constant Matrix: (Units=GPa)
#
#
# Indices 1 2 3 4 5 6 
#
# 1 77.3656 9.7216 30.5391 0.0000 0.0000 0.0000
# 2 9.7216 48.6721 12.0090 0.0000 0.0000 0.0000
# 3 30.5391 12.0090 94.6862 0.0000 0.0000 0.0000
# 4 0.0000 0.0000 0.0000 22.0617 0.0000 0.0000
# 5 0.0000 0.0000 0.0000 0.0000 25.9075 0.0000
# 6 0.0000 0.0000 0.0000 0.0000 0.0000 38.0031
#
#
#
# Elastic Compliance Matrix: (Units=1/GPa)
#
#
# Indices 1 2 3 4 5 6 
#
# 1 0.014972 -0.001857 -0.004593 0.000000 0.000000 0.000000
# 2 -0.001857 0.021440 -0.002120 0.000000 0.000000 0.000000
# 3 -0.004593 -0.002120 0.012312 0.000000 0.000000 0.000000
# 4 0.000000 0.000000 0.000000 0.045327 0.000000 0.000000
# 5 0.000000 0.000000 0.000000 0.000000 0.038599 0.000000
# 6 0.000000 0.000000 0.000000 0.000000 0.000000 0.026314
#
#
# Mechanical properties :
#
#
# Convention : Reuss Voigt Hill
#
# Bulk Modulus (GPa) = 31.66362 36.14036 33.90199
# Shear Modulus (GPa) = 26.79064 28.42474 27.60769
#
# Velocity S-wave (km/s) = 3.60129 3.70950 3.65580
# Velocity P-wave (km/s) = 5.71146 5.98688 5.85079
#
# Compressibility (1/GPa) = 0.03158199
#
# Stress axis : x y z
#
# Youngs Moduli (GPa) = 66.79040 46.64240 81.22405
#
# Poissons Ratio (x) = 0.08662 0.37310
# Poissons Ratio (y) = 0.12404 0.17221
# Poissons Ratio (z) = 0.30680 0.09889
#
# Static dielectric constant tensor:
#      x y z
#    x 3.699560 0.000000 0.000000 
#    y 0.000000 3.843420 0.000000 
#    z 0.000000 0.000000 3.725400 
# 
# 
# High freq. dielectric constant tensor:
#      x y z
#    x 1.812790 0.000000 0.000000 
#    y 0.000000 1.824010 0.000000 
#    z 0.000000 0.000000 1.808950 
# 
# From -- ./inp_files/10462.got.cif
#   From: 2010.03.12/outbox.cif.g09.slc.cpg/sg61_6_cif.got.tgz:10462.got - 2010.04.10 19:05:03.
