data_PCOD8249650
_publ_section_title
;
Structure prediction by ZEFSAII (Michael W. Deem and Ramdas Pophale) SiO2 
 PCOD8249650
Probable space group: P B C A
;
_chemical_formula_sum "Si O2"
_cell_formula_units_Z 40
_cell_length_a 10.366715
_cell_length_b 7.552762
_cell_length_c 21.453166
_cell_angle_alpha 90.000000
_cell_angle_beta 90.000000
_cell_angle_gamma 90.000000
_cell_volume 1679.725642
_symmetry_space_group_name_H-M "P B C A"
_symmetry_group_IT_number 61
_symmetry_cell_setting 'orthorhombic'
loop_
_space_group_symop_operation_xyz
x,y,z
1/2-x,-y,1/2+z
1/2+x,1/2-y,-z
-x,1/2+y,1/2-z
-x,-y,-z
1/2+x,y,1/2-z
1/2-x,1/2+y,z
x,1/2-y,1/2+z
loop_
_atom_site_type_symbol
_atom_site_label
_atom_site_fract_x
_atom_site_fract_y
_atom_site_fract_z
Si Si1 0.604646 0.836830 0.933730
Si Si2 0.595337 0.200952 0.251872
Si Si3 0.436487 0.329013 0.428890
Si Si4 0.341180 0.141337 0.798221
Si Si5 0.369339 0.546449 0.113330
O O1 0.721210 0.949663 0.906089
O O2 0.577736 0.653100 0.897172
O O3 0.482221 0.966390 0.927322
O O4 0.636783 0.793734 0.006319
O O5 0.701475 0.352125 0.235640
O O6 0.449240 0.267946 0.254040
O O7 0.626533 0.096678 0.314711
O O8 0.615524 0.062514 0.195920
O O9 0.343564 0.287037 0.369411
O O10 0.553676 0.189801 0.427198
#
# Coordination Sequence:
#
# PCOD8249650 Si02
#       5
#     8   8   8   8   8
#     4  11  22  41  68  96 127 179 227 281 347 422
#     4  11  25  42  69 101 132 184 228 282 347 420
#     4  10  25  43  62 100 134 175 230 289 346 411
#     4  11  25  45  68  99 141 177 231 286 351 410
#     4  11  22  41  70  91 133 177 230 279 353 420
#
# _framework density 23.813413000000001
#
# number of rings (size 3 to 8) (size 9 to 14) (size 15 to 20)
#    0.000    1.200    2.000    3.000    8.400    1.600 
#    0.000    0.000    0.000    0.000    0.000    0.000 
#    0.000    0.000    0.000    0.000    0.000    0.000 
#
# Total GULP energy -495886.665922 kJ/mol
# GULP energy per Si atom -12397.166648 kJ/mol
# Density = 2.375921 g / cm^3
# Si number density = 23.813413 Si / 1000 Ang^3
#
#
#
# Elastic Constant Matrix: (Units=GPa)
#
#
# Indices 1 2 3 4 5 6 
#
# 1 43.0029 -4.8399 19.0321 0.0000 0.0000 0.0000
# 2 -4.8399 103.0291 -5.4351 0.0000 0.0000 0.0000
# 3 19.0321 -5.4351 73.5331 0.0000 0.0000 0.0000
# 4 0.0000 0.0000 0.0000 34.7226 0.0000 0.0000
# 5 0.0000 0.0000 0.0000 0.0000 28.9499 0.0000
# 6 0.0000 0.0000 0.0000 0.0000 0.0000 31.4386
#
#
#
# Elastic Compliance Matrix: (Units=1/GPa)
#
#
# Indices 1 2 3 4 5 6 
#
# 1 0.026342 0.000881 -0.006753 0.000000 0.000000 0.000000
# 2 0.000881 0.009773 0.000494 0.000000 0.000000 0.000000
# 3 -0.006753 0.000494 0.015384 0.000000 0.000000 0.000000
# 4 0.000000 0.000000 0.000000 0.028800 0.000000 0.000000
# 5 0.000000 0.000000 0.000000 0.000000 0.034542 0.000000
# 6 0.000000 0.000000 0.000000 0.000000 0.000000 0.031808
#
#
# Mechanical properties :
#
#
# Convention : Reuss Voigt Hill
#
# Bulk Modulus (GPa) = 24.54312 26.34213 25.44262
# Shear Modulus (GPa) = 29.24227 33.07609 31.15918
#
# Velocity S-wave (km/s) = 3.50805 3.73093 3.62120
# Velocity P-wave (km/s) = 5.17082 5.44479 5.30957
#
# Compressibility (1/GPa) = 0.04074462
#
# Stress axis : x y z
#
# Youngs Moduli (GPa) = 37.96213 102.31779 65.00410
#
# Poissons Ratio (x) = -0.09016 0.43896
# Poissons Ratio (y) = -0.03345 -0.03213
# Poissons Ratio (z) = 0.25635 -0.05058
#
# Static dielectric constant tensor:
#      x y z
#    x 4.087940 0.000000 0.000000 
#    y 0.000000 4.419730 0.000000 
#    z 0.000000 0.000000 4.366930 
# 
# 
# High freq. dielectric constant tensor:
#      x y z
#    x 1.921070 0.000000 0.000000 
#    y 0.000000 1.954740 0.000000 
#    z 0.000000 0.000000 1.954460 
# 
# From -- ./inp_files/1757.got.cif
#   From: 2010.03.12/outbox.cif.g09.slc.cpg/sg61_1_cif.got.tgz:1757.got - 2010.04.10 19:05:03.
