data_PCOD8249682
_publ_section_title
;
Structure prediction by ZEFSAII (Michael W. Deem and Ramdas Pophale) SiO2 
 PCOD8249682
Probable space group: P B C A
;
_chemical_formula_sum "Si O2"
_cell_formula_units_Z 64
_cell_length_a 15.087679
_cell_length_b 12.780121
_cell_length_c 16.779556
_cell_angle_alpha 90.000000
_cell_angle_beta 90.000000
_cell_angle_gamma 90.000000
_cell_volume 3235.473642
_symmetry_space_group_name_H-M "P B C A"
_symmetry_group_IT_number 61
_symmetry_cell_setting 'orthorhombic'
loop_
_space_group_symop_operation_xyz
x,y,z
1/2-x,-y,1/2+z
1/2+x,1/2-y,-z
-x,1/2+y,1/2-z
-x,-y,-z
1/2+x,y,1/2-z
1/2-x,1/2+y,z
x,1/2-y,1/2+z
loop_
_atom_site_type_symbol
_atom_site_label
_atom_site_fract_x
_atom_site_fract_y
_atom_site_fract_z
Si Si1 0.606756 0.181239 0.409780
Si Si2 0.381999 0.791729 0.922254
Si Si3 0.335963 0.029522 0.542484
Si Si4 0.589448 0.678943 0.074553
Si Si5 0.722296 0.698002 0.662656
Si Si6 0.776731 0.282499 0.344796
Si Si7 0.167917 0.525081 0.958713
Si Si8 0.080727 0.668125 0.068816
O O1 0.621182 0.225428 0.497782
O O2 0.505196 0.201272 0.383939
O O3 0.676538 0.238895 0.352797
O O4 0.611963 0.055030 0.404630
O O5 0.324870 0.724351 0.859099
O O6 0.483665 0.809813 0.894462
O O7 0.340344 0.905709 0.932636
O O8 0.397781 0.066131 0.467879
O O9 0.296694 0.121839 0.596439
O O10 0.257618 0.959838 0.507092
O O11 0.664967 0.698803 0.140432
O O12 0.607610 0.755348 0.001612
O O13 0.714216 0.675020 0.755727
O O14 0.676931 0.598777 0.618925
O O15 0.847105 0.188499 0.361339
O O16 0.090539 0.555668 0.023627
#
# Coordination Sequence:
#
# PCOD8249682 Si02
#       8
#     8   8   8   8   8   8   8   8
#     4  11  20  37  64  86 111 151 199 244 291 346
#     4  11  20  37  64  86 111 151 199 244 291 346
#     4  11  19  38  63  87 116 150 201 245 288 341
#     4   9  20  37  61  87 112 150 196 241 284 347
#     4  11  23  38  55  84 124 156 188 241 300 352
#     4  11  23  38  55  84 124 156 188 241 300 352
#     4  11  19  38  63  87 116 150 201 245 288 341
#     4   9  20  37  61  87 112 150 196 241 284 347
#
# _framework density 19.780721
#
# number of rings (size 3 to 8) (size 9 to 14) (size 15 to 20)
#    0.000    1.500    5.000    1.500    0.000    2.000 
#    0.000    0.000    0.000    0.000    0.000    0.000 
#    0.000    0.000    0.000    0.000    0.000    0.000 
#
# Total GULP energy -793008.460788 kJ/mol
# GULP energy per Si atom -12390.757200 kJ/mol
# Density = 1.973570 g / cm^3
# Si number density = 19.780721 Si / 1000 Ang^3
#
#
#
# Elastic Constant Matrix: (Units=GPa)
#
#
# Indices 1 2 3 4 5 6 
#
# 1 120.8544 11.8636 39.9753 0.0000 0.0000 0.0000
# 2 11.8636 75.9965 8.4979 0.0000 0.0000 0.0000
# 3 39.9753 8.4979 60.1216 0.0000 0.0000 0.0000
# 4 0.0000 0.0000 0.0000 14.7705 0.0000 0.0000
# 5 0.0000 0.0000 0.0000 0.0000 16.6900 0.0000
# 6 0.0000 0.0000 0.0000 0.0000 0.0000 26.9517
#
#
#
# Elastic Compliance Matrix: (Units=1/GPa)
#
#
# Indices 1 2 3 4 5 6 
#
# 1 0.010666 -0.000886 -0.006966 0.000000 0.000000 0.000000
# 2 -0.000886 0.013443 -0.001311 0.000000 0.000000 0.000000
# 3 -0.006966 -0.001311 0.021450 0.000000 0.000000 0.000000
# 4 0.000000 0.000000 0.000000 0.067703 0.000000 0.000000
# 5 0.000000 0.000000 0.000000 0.000000 0.059916 0.000000
# 6 0.000000 0.000000 0.000000 0.000000 0.000000 0.037103
#
#
# Mechanical properties :
#
#
# Convention : Reuss Voigt Hill
#
# Bulk Modulus (GPa) = 36.72099 41.96068 39.34084
# Shear Modulus (GPa) = 21.03614 24.79148 22.91381
#
# Velocity S-wave (km/s) = 3.26462 3.54406 3.40721
# Velocity P-wave (km/s) = 5.72841 6.16491 5.95066
#
# Compressibility (1/GPa) = 0.02723238
#
# Stress axis : x y z
#
# Youngs Moduli (GPa) = 93.75842 74.38583 46.61934
#
# Poissons Ratio (x) = 0.06591 0.32477
# Poissons Ratio (y) = 0.08307 0.06112
# Poissons Ratio (z) = 0.65317 0.09752
#
# Static dielectric constant tensor:
#      x y z
#    x 3.802900 0.000000 0.000000 
#    y 0.000000 3.695580 0.000000 
#    z 0.000000 0.000000 3.270520 
# 
# 
# High freq. dielectric constant tensor:
#      x y z
#    x 1.783990 0.000000 0.000000 
#    y 0.000000 1.772830 0.000000 
#    z 0.000000 0.000000 1.729640 
# 
# From -- ./inp_files/9531.got.cif
#   From: 2010.03.12/outbox.cif.g09.slc.cpg/sg61_5_cif.got.tgz:9531.got - 2010.04.10 19:05:03.
