data_PCOD8249200
_publ_section_title
;
Structure prediction by ZEFSAII (Michael W. Deem and Ramdas Pophale) SiO2 
 PCOD8249200
Probable space group: P B C A
;
_chemical_formula_sum "Si O2"
_cell_formula_units_Z 32
_cell_length_a 16.771910
_cell_length_b 4.973966
_cell_length_c 17.259694
_cell_angle_alpha 90.000000
_cell_angle_beta 90.000000
_cell_angle_gamma 90.000000
_cell_volume 1439.853901
_symmetry_space_group_name_H-M "P B C A"
_symmetry_group_IT_number 61
_symmetry_cell_setting 'orthorhombic'
loop_
_space_group_symop_operation_xyz
x,y,z
1/2-x,-y,1/2+z
1/2+x,1/2-y,-z
-x,1/2+y,1/2-z
-x,-y,-z
1/2+x,y,1/2-z
1/2-x,1/2+y,z
x,1/2-y,1/2+z
loop_
_atom_site_type_symbol
_atom_site_label
_atom_site_fract_x
_atom_site_fract_y
_atom_site_fract_z
Si Si1 0.699728 0.386978 0.831423
Si Si2 0.467221 0.093757 0.711997
Si Si3 0.700286 0.124897 0.512655
Si Si4 0.971672 0.746456 0.548454
O O1 0.727981 0.088077 0.809305
O O2 0.622179 0.477432 0.784134
O O3 0.678626 0.380910 0.922038
O O4 0.475910 0.333864 0.774893
O O5 0.487260 0.242741 0.631871
O O6 0.772643 0.324921 0.534719
O O7 0.623519 0.226374 0.559740
O O8 0.000000 0.500000 0.500000
O O9 0.000000 0.000000 0.500000
#
# Coordination Sequence:
#
# PCOD8249200 Si02
#       4
#     8   8   8   8
#     4  10  21  39  66  94 126 170 222 267 321 398
#     4  12  26  44  65  99 138 176 220 271 336 401
#     4  10  21  38  64  99 128 162 219 279 325 382
#     4  12  24  42  69  97 130 171 225 275 332 389
#
# _framework density 22.224477
#
# number of rings (size 3 to 8) (size 9 to 14) (size 15 to 20)
#    0.000    1.000    2.500    4.500    7.000    0.000 
#    0.000    7.500    0.000    0.000    0.000    0.000 
#    0.000    0.000    0.000    0.000    0.000    0.000 
#
# Total GULP energy -396817.546064 kJ/mol
# GULP energy per Si atom -12400.548314 kJ/mol
# Density = 2.217389 g / cm^3
# Si number density = 22.224477 Si / 1000 Ang^3
#
#
#
# Elastic Constant Matrix: (Units=GPa)
#
#
# Indices 1 2 3 4 5 6 
#
# 1 107.4302 20.5067 25.0276 0.0000 0.0000 0.0000
# 2 20.5067 133.1230 22.1833 0.0000 0.0000 0.0000
# 3 25.0276 22.1833 51.3792 0.0000 0.0000 0.0000
# 4 0.0000 0.0000 0.0000 34.7269 0.0000 0.0000
# 5 0.0000 0.0000 0.0000 0.0000 27.8186 0.0000
# 6 0.0000 0.0000 0.0000 0.0000 0.0000 37.5268
#
#
#
# Elastic Compliance Matrix: (Units=1/GPa)
#
#
# Indices 1 2 3 4 5 6 
#
# 1 0.010585 -0.000831 -0.004797 0.000000 0.000000 0.000000
# 2 -0.000831 0.008159 -0.003118 0.000000 0.000000 0.000000
# 3 -0.004797 -0.003118 0.023146 0.000000 0.000000 0.000000
# 4 0.000000 0.000000 0.000000 0.028796 0.000000 0.000000
# 5 0.000000 0.000000 0.000000 0.000000 0.035947 0.000000
# 6 0.000000 0.000000 0.000000 0.000000 0.000000 0.026648
#
#
# Mechanical properties :
#
#
# Convention : Reuss Voigt Hill
#
# Bulk Modulus (GPa) = 40.98752 47.48527 44.23640
# Shear Modulus (GPa) = 31.46513 34.96211 33.21362
#
# Velocity S-wave (km/s) = 3.76678 3.97058 3.87002
# Velocity P-wave (km/s) = 6.11561 6.51408 6.31799
#
# Compressibility (1/GPa) = 0.02439767
#
# Stress axis : x y z
#
# Youngs Moduli (GPa) = 94.47709 122.55707 43.20378
#
# Poissons Ratio (x) = 0.10186 0.20725
# Poissons Ratio (y) = 0.07852 0.13471
# Poissons Ratio (z) = 0.45321 0.38214
#
# Static dielectric constant tensor:
#      x y z
#    x 3.893600 0.000000 0.000000 
#    y 0.000000 4.238000 0.000000 
#    z 0.000000 0.000000 3.567290 
# 
# 
# High freq. dielectric constant tensor:
#      x y z
#    x 1.880810 0.000000 0.000000 
#    y 0.000000 1.900460 0.000000 
#    z 0.000000 0.000000 1.838770 
# 
# From -- ./inp_files/648.got.cif
#   From: 2010.03.12/outbox.cif.g09.slc.cpg/sg61_1_cif.got.tgz:648.got - 2010.04.10 19:05:03.
