data_PCOD8249874
_publ_section_title
;
Structure prediction by ZEFSAII (Michael W. Deem and Ramdas Pophale) SiO2 
 PCOD8249874
Probable space group: P B C A
;
_chemical_formula_sum "Si O2"
_cell_formula_units_Z 48
_cell_length_a 8.935321
_cell_length_b 21.617986
_cell_length_c 11.456207
_cell_angle_alpha 90.000000
_cell_angle_beta 90.000000
_cell_angle_gamma 90.000000
_cell_volume 2212.922694
_symmetry_space_group_name_H-M "P B C A"
_symmetry_group_IT_number 61
_symmetry_cell_setting 'orthorhombic'
loop_
_space_group_symop_operation_xyz
x,y,z
1/2-x,-y,1/2+z
1/2+x,1/2-y,-z
-x,1/2+y,1/2-z
-x,-y,-z
1/2+x,y,1/2-z
1/2-x,1/2+y,z
x,1/2-y,1/2+z
loop_
_atom_site_type_symbol
_atom_site_label
_atom_site_fract_x
_atom_site_fract_y
_atom_site_fract_z
Si Si1 0.263035 0.271745 0.813285
Si Si2 0.440365 0.421834 0.090000
Si Si3 0.835799 0.641146 0.995944
Si Si4 0.111951 0.444299 0.634919
Si Si5 0.409663 0.380549 0.679296
Si Si6 0.482391 0.813077 0.232526
O O1 0.254190 0.304469 0.938602
O O2 0.322596 0.317183 0.711026
O O3 0.096311 0.247828 0.785789
O O4 0.365352 0.211072 0.826019
O O5 0.423960 0.484277 0.166315
O O6 0.479114 0.364098 0.171321
O O7 0.284947 0.413906 0.017576
O O8 0.576654 0.430128 0.000028
O O9 0.984978 0.623118 0.065683
O O10 0.874874 0.659767 0.865200
O O11 0.287385 0.433174 0.655547
O O12 0.014769 0.398706 0.713763
#
# Coordination Sequence:
#
# PCOD8249874 Si02
#       6
#     8   8   8   8   8   8
#     4  12  25  45  69 104 142 184 231 288 351 429
#     4  11  27  50  68 107 142 189 241 299 350 417
#     4  12  27  46  71 106 139 187 237 283 365 419
#     4  11  25  47  77  98 147 185 242 297 349 431
#     4  12  24  47  74 105 138 192 235 290 362 424
#     4  12  28  45  71 105 143 186 231 297 352 427
#
# _framework density 21.690773
#
# number of rings (size 3 to 8) (size 9 to 14) (size 15 to 20)
#    0.000    0.333    6.667    0.000    9.333    0.667 
#    3.000    0.000    0.000    0.000    0.000    0.000 
#    0.000    0.000    0.000    0.000    0.000    0.000 
#
# Total GULP energy -595344.823635 kJ/mol
# GULP energy per Si atom -12403.017159 kJ/mol
# Density = 2.164140 g / cm^3
# Si number density = 21.690773 Si / 1000 Ang^3
#
#
#
# Elastic Constant Matrix: (Units=GPa)
#
#
# Indices 1 2 3 4 5 6 
#
# 1 110.3751 40.6705 31.4098 0.0000 0.0000 0.0000
# 2 40.6705 103.7754 31.5661 0.0000 0.0000 0.0000
# 3 31.4098 31.5661 76.5483 0.0000 0.0000 0.0000
# 4 0.0000 0.0000 0.0000 25.1402 0.0000 0.0000
# 5 0.0000 0.0000 0.0000 0.0000 45.9724 0.0000
# 6 0.0000 0.0000 0.0000 0.0000 0.0000 39.3911
#
#
#
# Elastic Compliance Matrix: (Units=1/GPa)
#
#
# Indices 1 2 3 4 5 6 
#
# 1 0.011233 -0.003431 -0.003195 0.000000 0.000000 0.000000
# 2 -0.003431 0.012066 -0.003568 0.000000 0.000000 0.000000
# 3 -0.003195 -0.003568 0.015846 0.000000 0.000000 0.000000
# 4 0.000000 0.000000 0.000000 0.039777 0.000000 0.000000
# 5 0.000000 0.000000 0.000000 0.000000 0.021752 0.000000
# 6 0.000000 0.000000 0.000000 0.000000 0.000000 0.025386
#
#
# Mechanical properties :
#
#
# Convention : Reuss Voigt Hill
#
# Bulk Modulus (GPa) = 53.30888 55.33237 54.32063
# Shear Modulus (GPa) = 32.74398 34.57090 33.65744
#
# Velocity S-wave (km/s) = 3.88955 3.99658 3.94343
# Velocity P-wave (km/s) = 6.69340 6.84558 6.76991
#
# Compressibility (1/GPa) = 0.01875860
#
# Stress axis : x y z
#
# Youngs Moduli (GPa) = 89.02166 82.87755 63.10830
#
# Poissons Ratio (x) = 0.28433 0.20160
# Poissons Ratio (y) = 0.30540 0.22517
# Poissons Ratio (z) = 0.28439 0.29570
#
# Static dielectric constant tensor:
#      x y z
#    x 4.273420 0.000000 0.000000 
#    y 0.000000 3.932540 0.000000 
#    z 0.000000 0.000000 3.771140 
# 
# 
# High freq. dielectric constant tensor:
#      x y z
#    x 1.873730 0.000000 0.000000 
#    y 0.000000 1.852710 0.000000 
#    z 0.000000 0.000000 1.844080 
# 
# From -- ./inp_files/4853.got.cif
#   From: 2010.03.12/outbox.cif.g09.slc.cpg/sg61_3_cif.got.tgz:4853.got - 2010.04.10 19:05:03.
