data_PCOD8249748
_publ_section_title
;
Structure prediction by ZEFSAII (Michael W. Deem and Ramdas Pophale) SiO2 
 PCOD8249748
Probable space group: P B C A
;
_chemical_formula_sum "Si O2"
_cell_formula_units_Z 64
_cell_length_a 14.243652
_cell_length_b 22.706859
_cell_length_c 8.846789
_cell_angle_alpha 90.000000
_cell_angle_beta 90.000000
_cell_angle_gamma 90.000000
_cell_volume 2861.304560
_symmetry_space_group_name_H-M "P B C A"
_symmetry_group_IT_number 61
_symmetry_cell_setting 'orthorhombic'
loop_
_space_group_symop_operation_xyz
x,y,z
1/2-x,-y,1/2+z
1/2+x,1/2-y,-z
-x,1/2+y,1/2-z
-x,-y,-z
1/2+x,y,1/2-z
1/2-x,1/2+y,z
x,1/2-y,1/2+z
loop_
_atom_site_type_symbol
_atom_site_label
_atom_site_fract_x
_atom_site_fract_y
_atom_site_fract_z
Si Si1 0.449250 0.610506 0.669225
Si Si2 0.701762 0.971938 0.473328
Si Si3 0.107919 0.433963 0.861491
Si Si4 0.560445 0.988789 0.722002
Si Si5 0.205237 0.324519 0.775553
Si Si6 0.802075 0.082900 0.404263
Si Si7 0.158751 0.625914 0.766967
Si Si8 0.793671 0.706020 0.881875
O O1 0.457820 0.579500 0.505985
O O2 0.415070 0.558009 0.778985
O O3 0.547619 0.634072 0.731562
O O4 0.378225 0.664478 0.671080
O O5 0.790660 0.960195 0.586487
O O6 0.603653 0.965644 0.564602
O O7 0.700489 0.923099 0.344979
O O8 0.713680 0.036847 0.398378
O O9 0.118776 0.370345 0.780874
O O10 0.052133 0.478164 0.746135
O O11 0.606392 0.954746 0.863576
O O12 0.292489 0.363244 0.713936
O O13 0.179669 0.272819 0.658961
O O14 0.227919 0.298607 0.940461
O O15 0.805820 0.110484 0.568215
O O16 0.200914 0.688155 0.711875
#
# Coordination Sequence:
#
# PCOD8249748 Si02
#       8
#     8   8   8   8   8   8   8   8
#     4  11  23  41  69 101 138 190 232 292 363 420
#     4  12  24  42  68 105 149 187 228 297 361 436
#     4  11  22  45  69 102 144 189 230 300 365 424
#     4  12  23  41  69 105 143 186 240 290 362 436
#     4  11  25  47  77  95 139 188 245 294 364 424
#     4  12  22  39  72 101 135 191 229 283 365 427
#     4  12  24  42  69 101 143 183 239 293 355 430
#     4  11  24  50  67  97 137 186 242 303 347 420
#
# _framework density 22.367421
#
# number of rings (size 3 to 8) (size 9 to 14) (size 15 to 20)
#    0.000    0.500    6.250    3.375    1.750    0.500 
#    6.750    1.250    0.000    0.000    0.000    0.000 
#    0.000    0.000    0.000    0.000    0.000    0.000 
#
# Total GULP energy -793535.182226 kJ/mol
# GULP energy per Si atom -12398.987222 kJ/mol
# Density = 2.231651 g / cm^3
# Si number density = 22.367421 Si / 1000 Ang^3
#
#
#
# Elastic Constant Matrix: (Units=GPa)
#
#
# Indices 1 2 3 4 5 6 
#
# 1 90.2953 31.0329 23.9296 0.0000 0.0000 0.0000
# 2 31.0329 133.5623 36.9572 0.0000 0.0000 0.0000
# 3 23.9296 36.9572 88.5553 0.0000 0.0000 0.0000
# 4 0.0000 0.0000 0.0000 43.5302 0.0000 0.0000
# 5 0.0000 0.0000 0.0000 0.0000 29.0112 0.0000
# 6 0.0000 0.0000 0.0000 0.0000 0.0000 22.1894
#
#
#
# Elastic Compliance Matrix: (Units=1/GPa)
#
#
# Indices 1 2 3 4 5 6 
#
# 1 0.012488 -0.002225 -0.002446 0.000000 0.000000 0.000000
# 2 -0.002225 0.008861 -0.003097 0.000000 0.000000 0.000000
# 3 -0.002446 -0.003097 0.013246 0.000000 0.000000 0.000000
# 4 0.000000 0.000000 0.000000 0.022973 0.000000 0.000000
# 5 0.000000 0.000000 0.000000 0.000000 0.034469 0.000000
# 6 0.000000 0.000000 0.000000 0.000000 0.000000 0.045067
#
#
# Mechanical properties :
#
#
# Convention : Reuss Voigt Hill
#
# Bulk Modulus (GPa) = 52.46777 55.13915 53.80346
# Shear Modulus (GPa) = 31.44832 33.64568 32.54700
#
# Velocity S-wave (km/s) = 3.75372 3.88264 3.81873
# Velocity P-wave (km/s) = 6.50349 6.69365 6.59925
#
# Compressibility (1/GPa) = 0.01905932
#
# Stress axis : x y z
#
# Youngs Moduli (GPa) = 80.07966 112.85484 75.49589
#
# Poissons Ratio (x) = 0.25106 0.18466
# Poissons Ratio (y) = 0.17815 0.23380
# Poissons Ratio (z) = 0.19588 0.34949
#
# Static dielectric constant tensor:
#      x y z
#    x 3.919550 0.000000 0.000000 
#    y 0.000000 4.036750 0.000000 
#    z 0.000000 0.000000 4.153330 
# 
# 
# High freq. dielectric constant tensor:
#      x y z
#    x 1.871920 0.000000 0.000000 
#    y 0.000000 1.872180 0.000000 
#    z 0.000000 0.000000 1.895560 
# 
# From -- ./inp_files/3191.got.cif
#   From: 2010.03.12/outbox.cif.g09.slc.cpg/sg61_2_cif.got.tgz:3191.got - 2010.04.10 19:05:03.
