data_PCOD8249683
_publ_section_title
;
Structure prediction by ZEFSAII (Michael W. Deem and Ramdas Pophale) SiO2 
 PCOD8249683
Probable space group: P B C A
;
_chemical_formula_sum "Si O2"
_cell_formula_units_Z 64
_cell_length_a 17.763513
_cell_length_b 11.596223
_cell_length_c 14.610444
_cell_angle_alpha 90.000000
_cell_angle_beta 90.000000
_cell_angle_gamma 90.000000
_cell_volume 3009.600363
_symmetry_space_group_name_H-M "P B C A"
_symmetry_group_IT_number 61
_symmetry_cell_setting 'orthorhombic'
loop_
_space_group_symop_operation_xyz
x,y,z
1/2-x,-y,1/2+z
1/2+x,1/2-y,-z
-x,1/2+y,1/2-z
-x,-y,-z
1/2+x,y,1/2-z
1/2-x,1/2+y,z
x,1/2-y,1/2+z
loop_
_atom_site_type_symbol
_atom_site_label
_atom_site_fract_x
_atom_site_fract_y
_atom_site_fract_z
Si Si1 0.105933 0.657243 0.425440
Si Si2 0.051488 0.968037 0.663421
Si Si3 0.659376 0.365154 0.795744
Si Si4 0.424557 0.803007 0.874649
Si Si5 0.031679 0.443330 0.352090
Si Si6 0.054042 0.286069 0.076220
Si Si7 0.630697 0.601588 0.883743
Si Si8 0.673012 0.691304 0.265555
O O1 0.086582 0.523072 0.410247
O O2 0.157089 0.656090 0.518518
O O3 0.160014 0.698350 0.343452
O O4 0.031179 0.737371 0.429838
O O5 0.007868 0.995586 0.757543
O O6 0.054934 0.079264 0.600176
O O7 0.134847 0.922019 0.689211
O O8 0.005077 0.866519 0.614973
O O9 0.631585 0.377866 0.689421
O O10 0.599725 0.287757 0.850121
O O11 0.671699 0.486807 0.847279
O O12 0.739827 0.304081 0.791641
O O13 0.429907 0.678125 0.826864
O O14 0.400715 0.779571 0.979774
O O15 0.955893 0.425644 0.408811
O O16 0.634816 0.694431 0.804141
#
# Coordination Sequence:
#
# PCOD8249683 Si02
#       8
#     8   8   8   8   8   8   8   8
#     4  11  23  42  73 102 123 174 228 273 328 393
#     4  11  22  40  63  95 132 164 213 280 330 380
#     4  12  27  43  63  98 133 181 218 266 331 399
#     4  12  23  40  67  98 128 167 221 277 331 380
#     4  11  19  38  68  97 126 159 216 281 318 379
#     4  12  23  40  70 100 130 164 223 282 330 382
#     4  12  22  44  72  94 131 172 225 271 323 397
#     4  11  27  44  62  94 139 177 215 265 336 398
#
# _framework density 21.265283
#
# number of rings (size 3 to 8) (size 9 to 14) (size 15 to 20)
#    0.000    0.500    6.250    3.000    1.750    1.000 
#    0.000    0.000    0.000    0.000    0.000    0.000 
#    0.000    0.000    0.000    0.000    0.000    0.000 
#
# Total GULP energy -793440.537821 kJ/mol
# GULP energy per Si atom -12397.508403 kJ/mol
# Density = 2.121688 g / cm^3
# Si number density = 21.265283 Si / 1000 Ang^3
#
#
#
# Elastic Constant Matrix: (Units=GPa)
#
#
# Indices 1 2 3 4 5 6 
#
# 1 54.8511 7.0760 24.7668 0.0000 0.0000 0.0000
# 2 7.0760 108.6673 38.8713 0.0000 0.0000 0.0000
# 3 24.7668 38.8713 128.7651 0.0000 0.0000 0.0000
# 4 0.0000 0.0000 0.0000 33.1994 0.0000 0.0000
# 5 0.0000 0.0000 0.0000 0.0000 15.1131 0.0000
# 6 0.0000 0.0000 0.0000 0.0000 0.0000 14.0497
#
#
#
# Elastic Compliance Matrix: (Units=1/GPa)
#
#
# Indices 1 2 3 4 5 6 
#
# 1 0.019966 0.000083 -0.003865 0.000000 0.000000 0.000000
# 2 0.000083 0.010317 -0.003130 0.000000 0.000000 0.000000
# 3 -0.003865 -0.003130 0.009454 0.000000 0.000000 0.000000
# 4 0.000000 0.000000 0.000000 0.030121 0.000000 0.000000
# 5 0.000000 0.000000 0.000000 0.000000 0.066168 0.000000
# 6 0.000000 0.000000 0.000000 0.000000 0.000000 0.071176
#
#
# Mechanical properties :
#
#
# Convention : Reuss Voigt Hill
#
# Bulk Modulus (GPa) = 38.59337 48.19016 43.39176
# Shear Modulus (GPa) = 21.77087 27.24373 24.50730
#
# Velocity S-wave (km/s) = 3.20312 3.58318 3.39847
# Velocity P-wave (km/s) = 5.64517 6.31106 5.98738
#
# Compressibility (1/GPa) = 0.02591119
#
# Stress axis : x y z
#
# Youngs Moduli (GPa) = 50.08575 96.92971 105.77022
#
# Poissons Ratio (x) = -0.00800 0.40882
# Poissons Ratio (y) = -0.00413 0.33109
# Poissons Ratio (z) = 0.19359 0.30342
#
# Static dielectric constant tensor:
#      x y z
#    x 3.418320 0.000000 0.000000 
#    y 0.000000 3.985470 0.000000 
#    z 0.000000 0.000000 4.075480 
# 
# 
# High freq. dielectric constant tensor:
#      x y z
#    x 1.791390 0.000000 0.000000 
#    y 0.000000 1.845810 0.000000 
#    z 0.000000 0.000000 1.853730 
# 
# From -- ./inp_files/8195.got.cif
#   From: 2010.03.12/outbox.cif.g09.slc.cpg/sg61_5_cif.got.tgz:8195.got - 2010.04.10 19:05:03.
