data_PCOD8249517
_publ_section_title
;
Structure prediction by ZEFSAII (Michael W. Deem and Ramdas Pophale) SiO2 
 PCOD8249517
Probable space group: P B C A
;
_chemical_formula_sum "Si O2"
_cell_formula_units_Z 56
_cell_length_a 18.434299
_cell_length_b 14.481444
_cell_length_c 10.113303
_cell_angle_alpha 90.000000
_cell_angle_beta 90.000000
_cell_angle_gamma 90.000000
_cell_volume 2699.799519
_symmetry_space_group_name_H-M "P B C A"
_symmetry_group_IT_number 61
_symmetry_cell_setting 'orthorhombic'
loop_
_space_group_symop_operation_xyz
x,y,z
1/2-x,-y,1/2+z
1/2+x,1/2-y,-z
-x,1/2+y,1/2-z
-x,-y,-z
1/2+x,y,1/2-z
1/2-x,1/2+y,z
x,1/2-y,1/2+z
loop_
_atom_site_type_symbol
_atom_site_label
_atom_site_fract_x
_atom_site_fract_y
_atom_site_fract_z
Si Si1 0.367275 0.894759 0.080900
Si Si2 0.355799 0.418811 0.684756
Si Si3 0.831555 0.363733 0.110881
Si Si4 0.456247 0.267984 0.800487
Si Si5 0.184934 0.267001 0.306263
Si Si6 0.450587 0.751339 0.456237
Si Si7 0.288397 0.562642 0.336811
O O1 0.340209 0.813802 0.173293
O O2 0.434700 0.856588 0.993416
O O3 0.397085 0.985355 0.154261
O O4 0.295755 0.922093 0.995033
O O5 0.329024 0.371086 0.548885
O O6 0.409020 0.356244 0.767638
O O7 0.292373 0.447636 0.784945
O O8 0.906745 0.317406 0.153524
O O9 0.765616 0.296922 0.152889
O O10 0.827827 0.463137 0.186584
O O11 0.510327 0.298497 0.918548
O O12 0.499991 0.237145 0.672023
O O13 0.128566 0.295210 0.423341
O O14 0.178555 0.156753 0.273706
#
# Coordination Sequence:
#
# PCOD8249517 Si02
#       7
#     8   8   8   8   8   8   8
#     4  10  23  43  67  96 138 184 224 282 341 425
#     4  11  23  41  68 102 136 179 230 287 353 405
#     4  11  24  42  69  99 134 174 232 289 331 412
#     4  12  24  45  69 101 137 181 227 290 341 410
#     4  11  22  42  71  94 137 178 229 281 341 413
#     4  11  25  44  69  97 139 185 230 274 353 414
#     4  10  23  39  66 102 126 177 225 280 344 408
#
# _framework density 20.742280000000001
#
# number of rings (size 3 to 8) (size 9 to 14) (size 15 to 20)
#    0.000    1.143    5.714    0.000    4.000    1.714 
#    2.571    0.714    0.000    0.000    0.000    0.000 
#    0.000    0.000    0.000    0.000    0.000    0.000 
#
# Total GULP energy -693820.516317 kJ/mol
# GULP energy per Si atom -12389.652077 kJ/mol
# Density = 2.069507 g / cm^3
# Si number density = 20.742280 Si / 1000 Ang^3
#
#
#
# Elastic Constant Matrix: (Units=GPa)
#
#
# Indices 1 2 3 4 5 6 
#
# 1 89.3567 34.4682 41.0298 0.0000 0.0000 0.0000
# 2 34.4682 108.5355 35.4123 0.0000 0.0000 0.0000
# 3 41.0298 35.4123 100.7003 0.0000 0.0000 0.0000
# 4 0.0000 0.0000 0.0000 33.0789 0.0000 0.0000
# 5 0.0000 0.0000 0.0000 0.0000 34.6549 0.0000
# 6 0.0000 0.0000 0.0000 0.0000 0.0000 27.2876
#
#
#
# Elastic Compliance Matrix: (Units=1/GPa)
#
#
# Indices 1 2 3 4 5 6 
#
# 1 0.014607 -0.003047 -0.004880 0.000000 0.000000 0.000000
# 2 -0.003047 0.011043 -0.002642 0.000000 0.000000 0.000000
# 3 -0.004880 -0.002642 0.012848 0.000000 0.000000 0.000000
# 4 0.000000 0.000000 0.000000 0.030231 0.000000 0.000000
# 5 0.000000 0.000000 0.000000 0.000000 0.028856 0.000000
# 6 0.000000 0.000000 0.000000 0.000000 0.000000 0.036647
#
#
# Mechanical properties :
#
#
# Convention : Reuss Voigt Hill
#
# Bulk Modulus (GPa) = 57.60231 57.82369 57.71300
# Shear Modulus (GPa) = 31.02577 31.51643 31.27110
#
# Velocity S-wave (km/s) = 3.87172 3.90221 3.88700
# Velocity P-wave (km/s) = 6.91504 6.94556 6.93031
#
# Compressibility (1/GPa) = 0.01736042
#
# Stress axis : x y z
#
# Youngs Moduli (GPa) = 68.45971 90.55392 77.83302
#
# Poissons Ratio (x) = 0.27588 0.37984
# Poissons Ratio (y) = 0.20857 0.20564
# Poissons Ratio (z) = 0.33410 0.23925
#
# Static dielectric constant tensor:
#      x y z
#    x 3.941480 0.000000 0.000000 
#    y 0.000000 3.990600 0.000000 
#    z 0.000000 0.000000 3.918490 
# 
# 
# High freq. dielectric constant tensor:
#      x y z
#    x 1.805130 0.000000 0.000000 
#    y 0.000000 1.813640 0.000000 
#    z 0.000000 0.000000 1.817960 
# 
# From -- ./inp_files/3994.got.cif
#   From: 2010.03.12/outbox.cif.g09.slc.cpg/sg61_2_cif.got.tgz:3994.got - 2010.04.10 19:05:03.
