data_PCOD8249643
_publ_section_title
;
Structure prediction by ZEFSAII (Michael W. Deem and Ramdas Pophale) SiO2 
 PCOD8249643
Probable space group: P B C A
;
_chemical_formula_sum "Si O2"
_cell_formula_units_Z 40
_cell_length_a 9.015338
_cell_length_b 19.556368
_cell_length_c 9.198413
_cell_angle_alpha 90.000000
_cell_angle_beta 90.000000
_cell_angle_gamma 90.000000
_cell_volume 1621.747062
_symmetry_space_group_name_H-M "P B C A"
_symmetry_group_IT_number 61
_symmetry_cell_setting 'orthorhombic'
loop_
_space_group_symop_operation_xyz
x,y,z
1/2-x,-y,1/2+z
1/2+x,1/2-y,-z
-x,1/2+y,1/2-z
-x,-y,-z
1/2+x,y,1/2-z
1/2-x,1/2+y,z
x,1/2-y,1/2+z
loop_
_atom_site_type_symbol
_atom_site_label
_atom_site_fract_x
_atom_site_fract_y
_atom_site_fract_z
Si Si1 0.056554 0.597177 0.300136
Si Si2 0.031880 0.097776 0.634211
Si Si3 0.569293 0.327349 0.073585
Si Si4 0.325679 0.978815 0.890892
Si Si5 0.121447 0.801609 0.562425
O O1 0.156493 0.531577 0.343118
O O2 0.148599 0.653757 0.208365
O O3 0.993412 0.627457 0.445857
O O4 0.922917 0.571540 0.204841
O O5 0.004413 0.165443 0.539795
O O6 0.091473 0.121951 0.789862
O O7 0.151284 0.045852 0.559249
O O8 0.873181 0.057371 0.633962
O O9 0.445054 0.270978 0.112941
O O10 0.724828 0.292964 0.025998
#
# Coordination Sequence:
#
# PCOD8249643 Si02
#       5
#     8   8   8   8   8
#     4  11  24  46  69 100 142 181 231 292 356 422
#     4  10  26  45  74 104 141 180 237 288 361 416
#     4  12  27  44  74 100 138 191 239 289 355 419
#     4  10  24  47  72 103 143 178 228 298 353 430
#     4  11  27  46  67 103 140 184 238 292 348 419
#
# _framework density 24.664757000000002
#
# number of rings (size 3 to 8) (size 9 to 14) (size 15 to 20)
#    0.000    1.200    2.000    1.200   11.200    7.200 
#    0.000    0.000    0.000    0.000    0.000    0.000 
#    0.000    0.000    0.000    0.000    0.000    0.000 
#
# Total GULP energy -496083.819338 kJ/mol
# GULP energy per Si atom -12402.095483 kJ/mol
# Density = 2.460862 g / cm^3
# Si number density = 24.664757 Si / 1000 Ang^3
#
#
#
# Elastic Constant Matrix: (Units=GPa)
#
#
# Indices 1 2 3 4 5 6 
#
# 1 63.8632 -3.5609 9.2154 0.0000 0.0000 0.0000
# 2 -3.5609 80.6344 22.5114 0.0000 0.0000 0.0000
# 3 9.2154 22.5114 134.1303 0.0000 0.0000 0.0000
# 4 0.0000 0.0000 0.0000 31.8154 0.0000 0.0000
# 5 0.0000 0.0000 0.0000 0.0000 13.3549 0.0000
# 6 0.0000 0.0000 0.0000 0.0000 0.0000 -9.0955
#
#
#
# Elastic Compliance Matrix: (Units=1/GPa)
#
#
# Indices 1 2 3 4 5 6 
#
# 1 0.015901 0.001057 -0.001270 0.000000 0.000000 0.000000
# 2 0.001057 0.013082 -0.002268 0.000000 0.000000 0.000000
# 3 -0.001270 -0.002268 0.007923 0.000000 0.000000 0.000000
# 4 0.000000 0.000000 0.000000 0.031431 0.000000 0.000000
# 5 0.000000 0.000000 0.000000 0.000000 0.074879 0.000000
# 6 0.000000 0.000000 0.000000 0.000000 0.000000 -0.109944
#
#
# Mechanical properties :
#
#
# Convention : Reuss Voigt Hill
#
# Bulk Modulus (GPa) = 31.30570 37.21773 34.26171
# Shear Modulus (GPa) = 102.28841 23.91244 63.10042
#
# Velocity S-wave (km/s) = 6.44682 3.11705 5.06347
# Velocity P-wave (km/s) = 8.25442 5.29876 6.93586
#
# Compressibility (1/GPa) = 0.03194307
#
# Stress axis : x y z
#
# Youngs Moduli (GPa) = 62.89066 76.44374 126.20944
#
# Poissons Ratio (x) = -0.08078 0.16026
# Poissons Ratio (y) = -0.06646 0.28626
# Poissons Ratio (z) = 0.07986 0.17338
#
# Static dielectric constant tensor:
#      x y z
#    x 4.237500 0.000000 0.000000 
#    y 0.000000 4.566850 0.000000 
#    z 0.000000 0.000000 4.840570 
# 
# 
# High freq. dielectric constant tensor:
#      x y z
#    x 1.968500 0.000000 0.000000 
#    y 0.000000 1.984400 0.000000 
#    z 0.000000 0.000000 1.993250 
# 
# From -- ./inp_files/1743.got.cif
#   From: 2010.03.12/outbox.cif.g09.slc.cpg/sg61_1_cif.got.tgz:1743.got - 2010.04.10 19:05:03.
