data_PCOD8249447
_publ_section_title
;
Structure prediction by ZEFSAII (Michael W. Deem and Ramdas Pophale) SiO2 
 PCOD8249447
Probable space group: P B C A
;
_chemical_formula_sum "Si O2"
_cell_formula_units_Z 40
_cell_length_a 11.924387
_cell_length_b 14.877538
_cell_length_c 10.069336
_cell_angle_alpha 90.000000
_cell_angle_beta 90.000000
_cell_angle_gamma 90.000000
_cell_volume 1786.355796
_symmetry_space_group_name_H-M "P B C A"
_symmetry_group_IT_number 61
_symmetry_cell_setting 'orthorhombic'
loop_
_space_group_symop_operation_xyz
x,y,z
1/2-x,-y,1/2+z
1/2+x,1/2-y,-z
-x,1/2+y,1/2-z
-x,-y,-z
1/2+x,y,1/2-z
1/2-x,1/2+y,z
x,1/2-y,1/2+z
loop_
_atom_site_type_symbol
_atom_site_label
_atom_site_fract_x
_atom_site_fract_y
_atom_site_fract_z
Si Si1 0.430025 0.352334 0.636758
Si Si2 0.361379 0.432892 0.893281
Si Si3 0.155179 0.840108 0.151235
Si Si4 0.752318 0.383644 0.085802
Si Si5 0.670753 0.187950 0.051589
O O1 0.443186 0.415377 0.767730
O O2 0.408940 0.251191 0.685373
O O3 0.331155 0.389244 0.543272
O O4 0.545655 0.350512 0.555447
O O5 0.338658 0.537591 0.916154
O O6 0.247765 0.377224 0.856412
O O7 0.410945 0.394600 0.033790
O O8 0.166679 0.896357 0.286314
O O9 0.282108 0.819079 0.098904
O O10 0.683910 0.290711 0.099488
#
# Coordination Sequence:
#
# PCOD8249447 Si02
#       5
#     8   8   8   8   8
#     4  11  20  42  67  87 128 174 203 262 319 376
#     4  10  22  42  62  94 127 159 212 265 312 371
#     4   9  20  41  58  88 125 163 205 261 310 372
#     4  11  21  41  66  90 128 163 211 265 306 378
#     4   9  23  40  63  89 127 168 208 248 328 377
#
# _framework density 22.391956
#
# number of rings (size 3 to 8) (size 9 to 14) (size 15 to 20)
#    1.200    0.800    2.000    1.200    0.000    4.000 
#    3.600    1.000    0.000    0.000    0.000    0.000 
#    0.000    0.000    0.000    0.000    0.000    0.000 
#
# Total GULP energy -495696.127748 kJ/mol
# GULP energy per Si atom -12392.403194 kJ/mol
# Density = 2.234099 g / cm^3
# Si number density = 22.391956 Si / 1000 Ang^3
#
#
#
# Elastic Constant Matrix: (Units=GPa)
#
#
# Indices 1 2 3 4 5 6 
#
# 1 42.0722 -1.5580 -18.1943 0.0000 0.0000 0.0000
# 2 -1.5580 101.6588 6.7382 0.0000 0.0000 0.0000
# 3 -18.1943 6.7382 112.1786 0.0000 0.0000 0.0000
# 4 0.0000 0.0000 0.0000 27.3916 0.0000 0.0000
# 5 0.0000 0.0000 0.0000 0.0000 16.0226 0.0000
# 6 0.0000 0.0000 0.0000 0.0000 0.0000 5.4986
#
#
#
# Elastic Compliance Matrix: (Units=1/GPa)
#
#
# Indices 1 2 3 4 5 6 
#
# 1 0.025563 0.000117 0.004139 0.000000 0.000000 0.000000
# 2 0.000117 0.009877 -0.000574 0.000000 0.000000 0.000000
# 3 0.004139 -0.000574 0.009620 0.000000 0.000000 0.000000
# 4 0.000000 0.000000 0.000000 0.036508 0.000000 0.000000
# 5 0.000000 0.000000 0.000000 0.000000 0.062412 0.000000
# 6 0.000000 0.000000 0.000000 0.000000 0.000000 0.181863
#
#
# Mechanical properties :
#
#
# Convention : Reuss Voigt Hill
#
# Bulk Modulus (GPa) = 19.07516 25.54239 22.30877
# Shear Modulus (GPa) = 14.88304 27.71080 21.29692
#
# Velocity S-wave (km/s) = 2.58090 3.52168 3.08733
# Velocity P-wave (km/s) = 4.17356 5.28848 4.76375
#
# Compressibility (1/GPa) = 0.05242421
#
# Stress axis : x y z
#
# Youngs Moduli (GPa) = 39.11913 101.24856 103.94844
#
# Poissons Ratio (x) = -0.01189 -0.43024
# Poissons Ratio (y) = -0.00459 0.05969
# Poissons Ratio (z) = -0.16191 0.05814
#
# Static dielectric constant tensor:
#      x y z
#    x 3.532330 0.000000 0.000000 
#    y 0.000000 3.870350 0.000000 
#    z 0.000000 0.000000 3.908200 
# 
# 
# High freq. dielectric constant tensor:
#      x y z
#    x 1.844590 0.000000 0.000000 
#    y 0.000000 1.879890 0.000000 
#    z 0.000000 0.000000 1.883380 
# 
# From -- ./inp_files/5096.got.cif
#   From: 2010.03.12/outbox.cif.g09.slc.cpg/sg61_3_cif.got.tgz:5096.got - 2010.04.10 19:05:03.
