data_PCOD8249454
_publ_section_title
;
Structure prediction by ZEFSAII (Michael W. Deem and Ramdas Pophale) SiO2 
 PCOD8249454
Probable space group: P B C A
;
_chemical_formula_sum "Si O2"
_cell_formula_units_Z 56
_cell_length_a 15.420859
_cell_length_b 18.899912
_cell_length_c 8.377992
_cell_angle_alpha 90.000000
_cell_angle_beta 90.000000
_cell_angle_gamma 90.000000
_cell_volume 2441.789881
_symmetry_space_group_name_H-M "P B C A"
_symmetry_group_IT_number 61
_symmetry_cell_setting 'orthorhombic'
loop_
_space_group_symop_operation_xyz
x,y,z
1/2-x,-y,1/2+z
1/2+x,1/2-y,-z
-x,1/2+y,1/2-z
-x,-y,-z
1/2+x,y,1/2-z
1/2-x,1/2+y,z
x,1/2-y,1/2+z
loop_
_atom_site_type_symbol
_atom_site_label
_atom_site_fract_x
_atom_site_fract_y
_atom_site_fract_z
Si Si1 0.780777 0.817403 0.287428
Si Si2 0.049758 0.996856 0.690659
Si Si3 0.646618 0.456445 0.738390
Si Si4 0.907232 0.161434 0.367746
Si Si5 0.296904 0.544487 0.904933
Si Si6 0.181965 0.773977 0.924885
Si Si7 0.079595 0.361858 0.994878
O O1 0.769718 0.882178 0.171543
O O2 0.764289 0.745775 0.187853
O O3 0.709999 0.825656 0.431302
O O4 0.876048 0.816095 0.366048
O O5 0.111487 0.017979 0.836905
O O6 0.050424 0.058510 0.555760
O O7 0.092788 0.923911 0.623692
O O8 0.950807 0.988896 0.753978
O O9 0.713287 0.496676 0.623559
O O10 0.641898 0.379072 0.655192
O O11 0.692166 0.446968 0.907138
O O12 0.846874 0.198783 0.499043
O O13 0.889687 0.187923 0.186206
O O14 0.002460 0.185665 0.425905
#
# Coordination Sequence:
#
# PCOD8249454 Si02
#       7
#     8   8   8   8   8   8   8
#     4  10  24  43  63  96 130 169 229 270 321 402
#     4  10  23  44  68 101 136 170 219 279 339 398
#     4  11  23  39  63 106 133 169 210 265 349 392
#     4  10  22  42  66  91 131 172 219 270 324 403
#     4  11  24  39  69 102 131 175 212 276 343 385
#     4  10  24  42  65  93 124 186 220 266 326 386
#     4  10  23  43  67 100 132 171 215 284 340 386
#
# _framework density 22.933997000000002
#
# number of rings (size 3 to 8) (size 9 to 14) (size 15 to 20)
#    0.000    1.714    0.000    3.857   10.000    2.286 
#    0.000    4.286    0.000    0.000    0.000    0.000 
#    0.000    0.000    0.000    0.000    0.000    0.000 
#
# Total GULP energy -693824.204293 kJ/mol
# GULP energy per Si atom -12389.717934 kJ/mol
# Density = 2.288180 g / cm^3
# Si number density = 22.933997 Si / 1000 Ang^3
#
#
#
# Elastic Constant Matrix: (Units=GPa)
#
#
# Indices 1 2 3 4 5 6 
#
# 1 111.4068 45.6052 49.6100 0.0000 0.0000 0.0000
# 2 45.6052 62.8038 52.1796 0.0000 0.0000 0.0000
# 3 49.6100 52.1796 141.0470 0.0000 0.0000 0.0000
# 4 0.0000 0.0000 0.0000 8.0910 0.0000 0.0000
# 5 0.0000 0.0000 0.0000 0.0000 35.3100 0.0000
# 6 0.0000 0.0000 0.0000 0.0000 0.0000 30.2207
#
#
#
# Elastic Compliance Matrix: (Units=1/GPa)
#
#
# Indices 1 2 3 4 5 6 
#
# 1 0.013007 -0.008148 -0.001560 0.000000 0.000000 0.000000
# 2 -0.008148 0.028093 -0.007527 0.000000 0.000000 0.000000
# 3 -0.001560 -0.007527 0.010423 0.000000 0.000000 0.000000
# 4 0.000000 0.000000 0.000000 0.123593 0.000000 0.000000
# 5 0.000000 0.000000 0.000000 0.000000 0.028321 0.000000
# 6 0.000000 0.000000 0.000000 0.000000 0.000000 0.033090
#
#
# Mechanical properties :
#
#
# Convention : Reuss Voigt Hill
#
# Bulk Modulus (GPa) = 58.64518 67.78302 63.21410
# Shear Modulus (GPa) = 18.07129 25.91521 21.99325
#
# Velocity S-wave (km/s) = 2.81012 3.36518 3.10010
# Velocity P-wave (km/s) = 6.01298 6.68724 6.35905
#
# Compressibility (1/GPa) = 0.01705170
#
# Stress axis : x y z
#
# Youngs Moduli (GPa) = 76.88456 35.59578 95.94000
#
# Poissons Ratio (x) = 0.29005 0.14969
# Poissons Ratio (y) = 0.62648 0.72214
# Poissons Ratio (z) = 0.11996 0.26793
#
# Static dielectric constant tensor:
#      x y z
#    x 4.334840 0.000000 0.000000 
#    y 0.000000 3.946720 0.000000 
#    z 0.000000 0.000000 4.235310 
# 
# 
# High freq. dielectric constant tensor:
#      x y z
#    x 1.912850 0.000000 0.000000 
#    y 0.000000 1.887840 0.000000 
#    z 0.000000 0.000000 1.922110 
# 
# From -- ./inp_files/3072.got.cif
#   From: 2010.03.12/outbox.cif.g09.slc.cpg/sg61_2_cif.got.tgz:3072.got - 2010.04.10 19:05:03.
