data_PCOD8249511
_publ_section_title
;
Structure prediction by ZEFSAII (Michael W. Deem and Ramdas Pophale) SiO2 
 PCOD8249511
Probable space group: P B C A
;
_chemical_formula_sum "Si O2"
_cell_formula_units_Z 32
_cell_length_a 13.092082
_cell_length_b 9.078146
_cell_length_c 13.570484
_cell_angle_alpha 90.000000
_cell_angle_beta 90.000000
_cell_angle_gamma 90.000000
_cell_volume 1612.876882
_symmetry_space_group_name_H-M "P B C A"
_symmetry_group_IT_number 61
_symmetry_cell_setting 'orthorhombic'
loop_
_space_group_symop_operation_xyz
x,y,z
1/2-x,-y,1/2+z
1/2+x,1/2-y,-z
-x,1/2+y,1/2-z
-x,-y,-z
1/2+x,y,1/2-z
1/2-x,1/2+y,z
x,1/2-y,1/2+z
loop_
_atom_site_type_symbol
_atom_site_label
_atom_site_fract_x
_atom_site_fract_y
_atom_site_fract_z
Si Si1 0.642520 0.092590 0.838079
Si Si2 0.507159 0.785780 0.552912
Si Si3 0.653442 0.743161 0.388638
Si Si4 0.463801 0.586263 0.857335
O O1 0.542992 0.140901 0.900225
O O2 0.736758 0.184761 0.877940
O O3 0.622853 0.124753 0.722387
O O4 0.661681 0.921359 0.850211
O O5 0.616477 0.743503 0.503476
O O6 0.432837 0.851514 0.465809
O O7 0.521266 0.909720 0.636781
O O8 0.571220 0.837087 0.324575
#
# Coordination Sequence:
#
# PCOD8249511 Si02
#       4
#     8   8   8   8
#     4  12  21  41  63  90 123 164 211 247 315 371
#     4   9  21  44  60  90 128 158 206 256 315 356
#     4  10  23  38  61  92 122 162 205 257 298 385
#     4   9  21  42  63  88 125 163 197 271 296 374
#
# _framework density 19.840323999999999
#
# number of rings (size 3 to 8) (size 9 to 14) (size 15 to 20)
#    1.500    0.500    0.000    3.750    0.000    0.000 
#    9.000    0.000    0.000    0.000    0.000    0.000 
#    0.000    0.000    0.000    0.000    0.000    0.000 
#
# Total GULP energy -396561.336913 kJ/mol
# GULP energy per Si atom -12392.541779 kJ/mol
# Density = 1.979517 g / cm^3
# Si number density = 19.840324 Si / 1000 Ang^3
#
#
#
# Elastic Constant Matrix: (Units=GPa)
#
#
# Indices 1 2 3 4 5 6 
#
# 1 92.2117 34.4270 48.5400 0.0000 0.0000 0.0000
# 2 34.4270 81.1165 39.4317 0.0000 0.0000 0.0000
# 3 48.5400 39.4317 82.3658 0.0000 0.0000 0.0000
# 4 0.0000 0.0000 0.0000 21.0626 0.0000 0.0000
# 5 0.0000 0.0000 0.0000 0.0000 32.9574 0.0000
# 6 0.0000 0.0000 0.0000 0.0000 0.0000 22.0642
#
#
#
# Elastic Compliance Matrix: (Units=1/GPa)
#
#
# Indices 1 2 3 4 5 6 
#
# 1 0.016235 -0.002919 -0.008171 0.000000 0.000000 0.000000
# 2 -0.002919 0.016592 -0.006223 0.000000 0.000000 0.000000
# 3 -0.008171 -0.006223 0.019935 0.000000 0.000000 0.000000
# 4 0.000000 0.000000 0.000000 0.047478 0.000000 0.000000
# 5 0.000000 0.000000 0.000000 0.000000 0.030342 0.000000
# 6 0.000000 0.000000 0.000000 0.000000 0.000000 0.045322
#
#
# Mechanical properties :
#
#
# Convention : Reuss Voigt Hill
#
# Bulk Modulus (GPa) = 55.13368 55.61016 55.37192
# Shear Modulus (GPa) = 23.08671 24.10319 23.59495
#
# Velocity S-wave (km/s) = 3.41490 3.48926 3.45228
# Velocity P-wave (km/s) = 6.58769 6.65755 6.62271
#
# Compressibility (1/GPa) = 0.01813773
#
# Stress axis : x y z
#
# Youngs Moduli (GPa) = 61.59443 60.27072 50.16231
#
# Poissons Ratio (x) = 0.17591 0.40985
# Poissons Ratio (y) = 0.17977 0.31217
# Poissons Ratio (z) = 0.50326 0.37507
#
# Static dielectric constant tensor:
#      x y z
#    x 3.305170 0.000000 0.000000 
#    y 0.000000 3.576450 0.000000 
#    z 0.000000 0.000000 3.440910 
# 
# 
# High freq. dielectric constant tensor:
#      x y z
#    x 1.745880 0.000000 0.000000 
#    y 0.000000 1.784340 0.000000 
#    z 0.000000 0.000000 1.763320 
# 
# From -- ./inp_files/2518.got.cif
#   From: 2010.03.12/outbox.cif.g09.slc.cpg/sg61_2_cif.got.tgz:2518.got - 2010.04.10 19:05:03.
