data_PCOD8249366
_publ_section_title
;
Structure prediction by ZEFSAII (Michael W. Deem and Ramdas Pophale) SiO2 
 PCOD8249366
Probable space group: P B C A
;
_chemical_formula_sum "Si O2"
_cell_formula_units_Z 56
_cell_length_a 31.392810
_cell_length_b 5.504594
_cell_length_c 12.828393
_cell_angle_alpha 90.000000
_cell_angle_beta 90.000000
_cell_angle_gamma 90.000000
_cell_volume 2216.806265
_symmetry_space_group_name_H-M "P B C A"
_symmetry_group_IT_number 61
_symmetry_cell_setting 'orthorhombic'
loop_
_space_group_symop_operation_xyz
x,y,z
1/2-x,-y,1/2+z
1/2+x,1/2-y,-z
-x,1/2+y,1/2-z
-x,-y,-z
1/2+x,y,1/2-z
1/2-x,1/2+y,z
x,1/2-y,1/2+z
loop_
_atom_site_type_symbol
_atom_site_label
_atom_site_fract_x
_atom_site_fract_y
_atom_site_fract_z
Si Si1 0.524580 0.022152 0.726713
Si Si2 0.645774 0.149825 0.988040
Si Si3 0.078971 0.512243 0.464937
Si Si4 0.237141 0.860518 0.816505
Si Si5 0.269906 0.632087 0.082902
Si Si6 0.646038 0.809906 0.165669
Si Si7 0.097136 0.813569 0.648755
O O1 0.498293 0.774771 0.747066
O O2 0.536953 0.022553 0.604402
O O3 0.567501 0.013073 0.795054
O O4 0.598170 0.255248 0.000674
O O5 0.660542 0.048299 0.101362
O O6 0.680102 0.340579 0.943634
O O7 0.638531 0.935847 0.904579
O O8 0.117742 0.642968 0.407715
O O9 0.067254 0.665093 0.568474
O O10 0.254235 0.617345 0.877306
O O11 0.263114 0.883136 0.707541
O O12 0.186984 0.841170 0.797236
O O13 0.254607 0.371033 0.035758
O O14 0.617420 0.874308 0.266865
#
# Coordination Sequence:
#
# PCOD8249366 Si02
#       7
#     8   8   8   8   8   8   8
#     4  11  28  50  77 111 153 182 234 300 368 448
#     4  11  25  43  73 101 149 192 255 305 359 439
#     4  10  26  45  74 107 141 190 247 291 368 441
#     4  10  22  38  62  93 134 184 239 288 358 407
#     4  10  23  41  64  98 139 188 243 300 358 410
#     4  10  24  43  66 101 142 191 242 303 359 432
#     4  10  24  46  74 105 141 196 239 293 367 442
#
# _framework density 25.261565999999998
#
# number of rings (size 3 to 8) (size 9 to 14) (size 15 to 20)
#    0.000    1.714    0.000    1.714   18.000    3.429 
#    0.000    0.000    0.000    0.000    0.000    0.000 
#    0.000    0.000    0.000    0.000    0.000    0.000 
#
# Total GULP energy -694300.403725 kJ/mol
# GULP energy per Si atom -12398.221495 kJ/mol
# Density = 2.520407 g / cm^3
# Si number density = 25.261566 Si / 1000 Ang^3
#
#
#
# Elastic Constant Matrix: (Units=GPa)
#
#
# Indices 1 2 3 4 5 6 
#
# 1 56.6216 19.2923 14.1326 0.0000 0.0000 0.0000
# 2 19.2923 145.8741 27.7867 0.0000 0.0000 0.0000
# 3 14.1326 27.7867 86.7914 0.0000 0.0000 0.0000
# 4 0.0000 0.0000 0.0000 15.1748 0.0000 0.0000
# 5 0.0000 0.0000 0.0000 0.0000 28.7854 0.0000
# 6 0.0000 0.0000 0.0000 0.0000 0.0000 43.3323
#
#
#
# Elastic Compliance Matrix: (Units=1/GPa)
#
#
# Indices 1 2 3 4 5 6 
#
# 1 0.018965 -0.002045 -0.002434 0.000000 0.000000 0.000000
# 2 -0.002045 0.007521 -0.002075 0.000000 0.000000 0.000000
# 3 -0.002434 -0.002075 0.012582 0.000000 0.000000 0.000000
# 4 0.000000 0.000000 0.000000 0.065899 0.000000 0.000000
# 5 0.000000 0.000000 0.000000 0.000000 0.034740 0.000000
# 6 0.000000 0.000000 0.000000 0.000000 0.000000 0.023077
#
#
# Mechanical properties :
#
#
# Convention : Reuss Voigt Hill
#
# Bulk Modulus (GPa) = 38.51748 45.74557 42.13152
# Shear Modulus (GPa) = 27.09370 32.66354 29.87862
#
# Velocity S-wave (km/s) = 3.27850 3.59975 3.44287
# Velocity P-wave (km/s) = 5.44169 5.95195 5.70253
#
# Compressibility (1/GPa) = 0.02596224
#
# Stress axis : x y z
#
# Youngs Moduli (GPa) = 52.72828 132.96335 79.47584
#
# Poissons Ratio (x) = 0.27186 0.19341
# Poissons Ratio (y) = 0.10781 0.16490
# Poissons Ratio (z) = 0.12832 0.27589
#
# Static dielectric constant tensor:
#      x y z
#    x 4.232090 0.000000 0.000000 
#    y 0.000000 4.828180 0.000000 
#    z 0.000000 0.000000 4.830870 
# 
# 
# High freq. dielectric constant tensor:
#      x y z
#    x 1.993740 0.000000 0.000000 
#    y 0.000000 2.008530 0.000000 
#    z 0.000000 0.000000 2.030330 
# 
# From -- ./inp_files/610.got.cif
#   From: 2010.03.12/outbox.cif.g09.slc.cpg/sg61_1_cif.got.tgz:610.got - 2010.04.10 19:05:03.
