data_PCOD8249087
_publ_section_title
;
Structure prediction by ZEFSAII (Michael W. Deem and Ramdas Pophale) SiO2 
 PCOD8249087
Probable space group: P B C A
;
_chemical_formula_sum "Si O2"
_cell_formula_units_Z 64
_cell_length_a 17.742263
_cell_length_b 13.820480
_cell_length_c 12.289840
_cell_angle_alpha 90.000000
_cell_angle_beta 90.000000
_cell_angle_gamma 90.000000
_cell_volume 3013.549770
_symmetry_space_group_name_H-M "P B C A"
_symmetry_group_IT_number 61
_symmetry_cell_setting 'orthorhombic'
loop_
_space_group_symop_operation_xyz
x,y,z
1/2-x,-y,1/2+z
1/2+x,1/2-y,-z
-x,1/2+y,1/2-z
-x,-y,-z
1/2+x,y,1/2-z
1/2-x,1/2+y,z
x,1/2-y,1/2+z
loop_
_atom_site_type_symbol
_atom_site_label
_atom_site_fract_x
_atom_site_fract_y
_atom_site_fract_z
Si Si1 0.568175 0.441976 0.056395
Si Si2 0.776158 0.331272 0.803323
Si Si3 0.570128 0.893256 0.704809
Si Si4 0.173474 0.027315 0.325078
Si Si5 0.520941 0.085796 0.079416
Si Si6 0.821435 0.129907 0.850724
Si Si7 0.463856 0.210891 0.516463
Si Si8 0.770263 0.962416 0.984509
O O1 0.593006 0.500228 0.163122
O O2 0.534235 0.337018 0.081639
O O3 0.641921 0.430862 0.981894
O O4 0.500000 0.500000 0.000000
O O5 0.856551 0.341932 0.748161
O O6 0.709168 0.381342 0.737087
O O7 0.766295 0.215026 0.807298
O O8 0.778051 0.380286 0.922728
O O9 0.510419 0.912988 0.798688
O O10 0.537315 0.825344 0.608644
O O11 0.110379 0.074483 0.402535
O O12 0.144969 0.942289 0.242546
O O13 0.236806 0.973458 0.395954
O O14 0.485910 0.177365 0.016715
O O15 0.500000 0.000000 0.000000
O O16 0.887359 0.181585 0.920931
O O17 0.766151 0.066643 0.926048
#
# Coordination Sequence:
#
# PCOD8249087 Si02
#       8
#     8   8   8   8   8   8   8   8
#     4  10  20  40  70  97 133 183 238 281 341 425
#     4  11  24  41  70 104 133 183 235 283 357 432
#     4  11  22  44  72  97 137 191 232 281 355 424
#     4  11  26  45  67 105 147 181 228 306 360 410
#     4  12  28  45  68 107 145 182 241 301 343 424
#     4  11  23  44  73  98 138 192 234 285 361 429
#     4  11  24  42  73 102 132 191 241 285 343 436
#     4  11  23  44  68 102 139 178 235 293 352 422
#
# _framework density 21.237411999999999
#
# number of rings (size 3 to 8) (size 9 to 14) (size 15 to 20)
#    0.000    1.000    5.000    1.500    7.000    4.000 
#    0.000    0.000    0.000    0.000    0.000    0.000 
#    0.000    0.000    0.000    0.000    0.000    0.000 
#
# Total GULP energy -793138.701754 kJ/mol
# GULP energy per Si atom -12392.792215 kJ/mol
# Density = 2.118908 g / cm^3
# Si number density = 21.237412 Si / 1000 Ang^3
#
#
#
# Elastic Constant Matrix: (Units=GPa)
#
#
# Indices 1 2 3 4 5 6 
#
# 1 82.1099 38.4453 29.6150 0.0000 0.0000 0.0000
# 2 38.4453 138.6234 40.8343 0.0000 0.0000 0.0000
# 3 29.6150 40.8343 103.8804 0.0000 0.0000 0.0000
# 4 0.0000 0.0000 0.0000 21.3260 0.0000 0.0000
# 5 0.0000 0.0000 0.0000 0.0000 32.7124 0.0000
# 6 0.0000 0.0000 0.0000 0.0000 0.0000 33.3728
#
#
#
# Elastic Compliance Matrix: (Units=1/GPa)
#
#
# Indices 1 2 3 4 5 6 
#
# 1 0.014748 -0.003225 -0.002937 0.000000 0.000000 0.000000
# 2 -0.003225 0.008864 -0.002565 0.000000 0.000000 0.000000
# 3 -0.002937 -0.002565 0.011472 0.000000 0.000000 0.000000
# 4 0.000000 0.000000 0.000000 0.046891 0.000000 0.000000
# 5 0.000000 0.000000 0.000000 0.000000 0.030569 0.000000
# 6 0.000000 0.000000 0.000000 0.000000 0.000000 0.029965
#
#
# Mechanical properties :
#
#
# Convention : Reuss Voigt Hill
#
# Bulk Modulus (GPa) = 56.72023 60.26699 58.49361
# Shear Modulus (GPa) = 30.14974 31.86350 31.00662
#
# Velocity S-wave (km/s) = 3.77191 3.87763 3.82514
# Velocity P-wave (km/s) = 6.76280 6.96329 6.86378
#
# Compressibility (1/GPa) = 0.01763039
#
# Stress axis : x y z
#
# Youngs Moduli (GPa) = 67.80560 112.81919 87.16966
#
# Poissons Ratio (x) = 0.36385 0.25599
# Poissons Ratio (y) = 0.21868 0.22357
# Poissons Ratio (z) = 0.19913 0.28936
#
# Static dielectric constant tensor:
#      x y z
#    x 3.861380 0.000000 0.000000 
#    y 0.000000 4.369290 0.000000 
#    z 0.000000 0.000000 4.097800 
# 
# 
# High freq. dielectric constant tensor:
#      x y z
#    x 1.829860 0.000000 0.000000 
#    y 0.000000 1.837410 0.000000 
#    z 0.000000 0.000000 1.835480 
# 
# From -- ./inp_files/6295.got.cif
#   From: 2010.03.12/outbox.cif.g09.slc.cpg/sg61_4_cif.got.tgz:6295.got - 2010.04.10 19:05:03.
