data_PCOD8249242
_publ_section_title
;
Structure prediction by ZEFSAII (Michael W. Deem and Ramdas Pophale) SiO2 
 PCOD8249242
Probable space group: P B C A
;
_chemical_formula_sum "Si O2"
_cell_formula_units_Z 40
_cell_length_a 25.371946
_cell_length_b 5.102937
_cell_length_c 13.716244
_cell_angle_alpha 90.000000
_cell_angle_beta 90.000000
_cell_angle_gamma 90.000000
_cell_volume 1775.861890
_symmetry_space_group_name_H-M "P B C A"
_symmetry_group_IT_number 61
_symmetry_cell_setting 'orthorhombic'
loop_
_space_group_symop_operation_xyz
x,y,z
1/2-x,-y,1/2+z
1/2+x,1/2-y,-z
-x,1/2+y,1/2-z
-x,-y,-z
1/2+x,y,1/2-z
1/2-x,1/2+y,z
x,1/2-y,1/2+z
loop_
_atom_site_type_symbol
_atom_site_label
_atom_site_fract_x
_atom_site_fract_y
_atom_site_fract_z
Si Si1 0.283047 0.435063 0.865700
Si Si2 0.964916 0.003514 0.249445
Si Si3 0.397999 0.004226 0.441415
Si Si4 0.782933 0.444747 0.862465
Si Si5 0.397845 0.999674 0.061385
O O1 0.259587 0.153987 0.895081
O O2 0.335813 0.474437 0.925836
O O3 0.296199 0.457181 0.751720
O O4 0.928451 0.931757 0.340473
O O5 0.997609 0.261582 0.274459
O O6 0.928192 0.061607 0.157800
O O7 0.412549 0.718901 0.481694
O O8 0.416104 0.220111 0.520176
O O9 0.739245 0.660133 0.891349
O O10 0.835605 0.503799 0.920906
#
# Coordination Sequence:
#
# PCOD8249242 Si02
#       5
#     8   8   8   8   8
#     4  10  21  39  65  97 138 180 217 262 323 396
#     4  12  28  50  72  96 134 174 224 290 344 388
#     4  12  26  44  71 103 135 175 226 273 334 404
#     4  10  21  39  65  97 138 180 217 262 323 396
#     4  12  26  44  71 103 135 175 226 273 334 404
#
# _framework density 22.524273000000001
#
# number of rings (size 3 to 8) (size 9 to 14) (size 15 to 20)
#    0.000    0.800    2.000    4.800    0.000    9.600 
#    0.000    0.000    0.000    0.000    0.000    0.000 
#    0.000    0.000    0.000    0.000    0.000    0.000 
#
# Total GULP energy -496392.709949 kJ/mol
# GULP energy per Si atom -12409.817749 kJ/mol
# Density = 2.247301 g / cm^3
# Si number density = 22.524273 Si / 1000 Ang^3
#
#
#
# Elastic Constant Matrix: (Units=GPa)
#
#
# Indices 1 2 3 4 5 6 
#
# 1 77.1341 16.9607 36.4521 0.0000 0.0000 0.0000
# 2 16.9607 127.3477 9.8467 0.0000 0.0000 0.0000
# 3 36.4521 9.8467 82.3474 0.0000 0.0000 0.0000
# 4 0.0000 0.0000 0.0000 30.1944 0.0000 0.0000
# 5 0.0000 0.0000 0.0000 0.0000 11.3022 0.0000
# 6 0.0000 0.0000 0.0000 0.0000 0.0000 18.9436
#
#
#
# Elastic Compliance Matrix: (Units=1/GPa)
#
#
# Indices 1 2 3 4 5 6 
#
# 1 0.016739 -0.001672 -0.007210 0.000000 0.000000 0.000000
# 2 -0.001672 0.008093 -0.000228 0.000000 0.000000 0.000000
# 3 -0.007210 -0.000228 0.015362 0.000000 0.000000 0.000000
# 4 0.000000 0.000000 0.000000 0.033119 0.000000 0.000000
# 5 0.000000 0.000000 0.000000 0.000000 0.088479 0.000000
# 6 0.000000 0.000000 0.000000 0.000000 0.000000 0.052788
#
#
# Mechanical properties :
#
#
# Convention : Reuss Voigt Hill
#
# Bulk Modulus (GPa) = 45.50496 45.92760 45.71628
# Shear Modulus (GPa) = 20.82253 26.99268 23.90761
#
# Velocity S-wave (km/s) = 3.04377 3.46552 3.26147
# Velocity P-wave (km/s) = 5.70957 6.03719 5.87566
#
# Compressibility (1/GPa) = 0.02197563
#
# Stress axis : x y z
#
# Youngs Moduli (GPa) = 59.73947 123.56677 65.09374
#
# Poissons Ratio (x) = 0.20660 0.46932
# Poissons Ratio (y) = 0.09988 0.01481
# Poissons Ratio (z) = 0.43072 0.02812
#
# Static dielectric constant tensor:
#      x y z
#    x 3.962320 0.000000 0.000000 
#    y 0.000000 4.172930 0.000000 
#    z 0.000000 0.000000 4.163430 
# 
# 
# High freq. dielectric constant tensor:
#      x y z
#    x 1.887850 0.000000 0.000000 
#    y 0.000000 1.899500 0.000000 
#    z 0.000000 0.000000 1.906840 
# 
# From -- ./inp_files/443.got.cif
#   From: 2010.03.12/outbox.cif.g09.slc.cpg/sg61_1_cif.got.tgz:443.got - 2010.04.10 19:05:03.
