data_PCOD8249026
_publ_section_title
;
Structure prediction by ZEFSAII (Michael W. Deem and Ramdas Pophale) SiO2 
 PCOD8249026
Probable space group: P B C A
;
_chemical_formula_sum "Si O2"
_cell_formula_units_Z 48
_cell_length_a 14.967380
_cell_length_b 16.844418
_cell_length_c 9.672092
_cell_angle_alpha 90.000000
_cell_angle_beta 90.000000
_cell_angle_gamma 90.000000
_cell_volume 2438.496934
_symmetry_space_group_name_H-M "P B C A"
_symmetry_group_IT_number 61
_symmetry_cell_setting 'orthorhombic'
loop_
_space_group_symop_operation_xyz
x,y,z
1/2-x,-y,1/2+z
1/2+x,1/2-y,-z
-x,1/2+y,1/2-z
-x,-y,-z
1/2+x,y,1/2-z
1/2-x,1/2+y,z
x,1/2-y,1/2+z
loop_
_atom_site_type_symbol
_atom_site_label
_atom_site_fract_x
_atom_site_fract_y
_atom_site_fract_z
Si Si1 0.244012 0.412411 0.654952
Si Si2 0.942084 0.666897 0.298385
Si Si3 0.278264 0.312717 0.399323
Si Si4 0.366087 0.347049 0.885483
Si Si5 0.382178 0.708348 0.489050
Si Si6 0.257498 0.096675 0.622417
O O1 0.139338 0.391607 0.665937
O O2 0.295091 0.358981 0.541744
O O3 0.291909 0.394400 0.798444
O O4 0.253710 0.503108 0.613574
O O5 0.933680 0.747484 0.387672
O O6 0.949173 0.681587 0.133159
O O7 0.034962 0.625745 0.342475
O O8 0.356416 0.248629 0.370033
O O9 0.186182 0.265054 0.408540
O O10 0.271114 0.376977 0.279361
O O11 0.346072 0.373359 0.042443
O O12 0.331562 0.634047 0.556548
#
# Coordination Sequence:
#
# PCOD8249026 Si02
#       6
#     8   8   8   8   8   8
#     4  11  23  41  63  91 127 164 202 260 317 367
#     4  11  23  39  65  92 127 158 215 255 306 362
#     4  10  20  38  62  87 118 163 209 247 302 366
#     4  11  23  40  64  92 121 163 214 255 303 372
#     4  10  20  40  61  91 119 164 201 258 299 360
#     4  11  21  40  64  88 127 165 203 254 316 367
#
# _framework density 19.684256999999999
#
# number of rings (size 3 to 8) (size 9 to 14) (size 15 to 20)
#    0.000    1.333    5.000    3.000    4.667    0.667 
#    0.000    2.500    0.000    0.000    0.000    0.000 
#    0.000    0.000    0.000    0.000    0.000    0.000 
#
# Total GULP energy -595267.768379 kJ/mol
# GULP energy per Si atom -12401.411841 kJ/mol
# Density = 1.963945 g / cm^3
# Si number density = 19.684257 Si / 1000 Ang^3
#
#
#
# Elastic Constant Matrix: (Units=GPa)
#
#
# Indices 1 2 3 4 5 6 
#
# 1 89.8218 24.9144 9.9453 0.0000 0.0000 0.0000
# 2 24.9144 105.7276 13.3746 0.0000 0.0000 0.0000
# 3 9.9453 13.3746 77.4285 0.0000 0.0000 0.0000
# 4 0.0000 0.0000 0.0000 29.3430 0.0000 0.0000
# 5 0.0000 0.0000 0.0000 0.0000 12.8542 0.0000
# 6 0.0000 0.0000 0.0000 0.0000 0.0000 9.9816
#
#
#
# Elastic Compliance Matrix: (Units=1/GPa)
#
#
# Indices 1 2 3 4 5 6 
#
# 1 0.011999 -0.002691 -0.001076 0.000000 0.000000 0.000000
# 2 -0.002691 0.010273 -0.001429 0.000000 0.000000 0.000000
# 3 -0.001076 -0.001429 0.013300 0.000000 0.000000 0.000000
# 4 0.000000 0.000000 0.000000 0.034080 0.000000 0.000000
# 5 0.000000 0.000000 0.000000 0.000000 0.077795 0.000000
# 6 0.000000 0.000000 0.000000 0.000000 0.000000 0.100184
#
#
# Mechanical properties :
#
#
# Convention : Reuss Voigt Hill
#
# Bulk Modulus (GPa) = 39.71521 41.04961 40.38241
# Shear Modulus (GPa) = 18.76752 25.41868 22.09310
#
# Velocity S-wave (km/s) = 3.09111 3.59739 3.35382
# Velocity P-wave (km/s) = 5.74107 6.17692 5.96298
#
# Compressibility (1/GPa) = 0.02517927
#
# Stress axis : x y z
#
# Youngs Moduli (GPa) = 83.34137 97.34042 75.18680
#
# Poissons Ratio (x) = 0.26198 0.08092
# Poissons Ratio (y) = 0.22430 0.10743
# Poissons Ratio (z) = 0.08970 0.13909
#
# Static dielectric constant tensor:
#      x y z
#    x 3.354740 0.000000 0.000000 
#    y 0.000000 3.467260 0.000000 
#    z 0.000000 0.000000 3.772980 
# 
# 
# High freq. dielectric constant tensor:
#      x y z
#    x 1.744880 0.000000 0.000000 
#    y 0.000000 1.754590 0.000000 
#    z 0.000000 0.000000 1.788850 
# 
# From -- ./inp_files/2839.got.cif
#   From: 2010.03.12/outbox.cif.g09.slc.cpg/sg61_2_cif.got.tgz:2839.got - 2010.04.10 19:05:03.
