data_PCOD8249238
_publ_section_title
;
Structure prediction by ZEFSAII (Michael W. Deem and Ramdas Pophale) SiO2 
 PCOD8249238
Probable space group: P B C A
;
_chemical_formula_sum "Si O2"
_cell_formula_units_Z 48
_cell_length_a 27.867202
_cell_length_b 9.101693
_cell_length_c 8.834894
_cell_angle_alpha 90.000000
_cell_angle_beta 90.000000
_cell_angle_gamma 90.000000
_cell_volume 2240.871182
_symmetry_space_group_name_H-M "P B C A"
_symmetry_group_IT_number 61
_symmetry_cell_setting 'orthorhombic'
loop_
_space_group_symop_operation_xyz
x,y,z
1/2-x,-y,1/2+z
1/2+x,1/2-y,-z
-x,1/2+y,1/2-z
-x,-y,-z
1/2+x,y,1/2-z
1/2-x,1/2+y,z
x,1/2-y,1/2+z
loop_
_atom_site_type_symbol
_atom_site_label
_atom_site_fract_x
_atom_site_fract_y
_atom_site_fract_z
Si Si1 0.786434 0.558004 0.569958
Si Si2 0.154382 0.658224 0.588883
Si Si3 0.403784 0.162517 0.874547
Si Si4 0.252897 0.295284 0.729835
Si Si5 0.961731 0.598368 0.079806
Si Si6 0.999125 0.649914 0.410102
O O1 0.837118 0.495812 0.503539
O O2 0.787851 0.682221 0.702690
O O3 0.759994 0.624858 0.425083
O O4 0.760329 0.413260 0.636362
O O5 0.142630 0.782933 0.465648
O O6 0.108013 0.649620 0.696615
O O7 0.199847 0.700329 0.692567
O O8 0.448979 0.271152 0.900277
O O9 0.412612 0.994408 0.927589
O O10 0.979071 0.621406 0.247600
O O11 0.000000 0.500000 0.000000
O O12 0.958661 0.752367 0.994038
O O13 0.000000 0.500000 0.500000
#
# Coordination Sequence:
#
# PCOD8249238 Si02
#       6
#     8   8   8   8   8   8
#     4  12  23  43  69  99 129 180 230 275 333 419
#     4  12  23  40  68  98 134 172 218 286 344 383
#     4  11  23  41  64  97 132 168 219 273 337 391
#     4  12  23  43  72  95 132 178 234 270 332 418
#     4  10  21  39  64  94 123 175 220 254 317 409
#     4  11  21  40  70  93 131 175 221 267 322 402
#
# _framework density 21.42024
#
# number of rings (size 3 to 8) (size 9 to 14) (size 15 to 20)
#    0.000    0.667    5.000    5.000    0.000    0.000 
#    0.000    3.333    0.000    0.000    0.000    0.000 
#    0.000    0.000    0.000    0.000    0.000    0.000 
#
# Total GULP energy -594675.831730 kJ/mol
# GULP energy per Si atom -12389.079828 kJ/mol
# Density = 2.137149 g / cm^3
# Si number density = 21.420240 Si / 1000 Ang^3
#
#
#
# Elastic Constant Matrix: (Units=GPa)
#
#
# Indices 1 2 3 4 5 6 
#
# 1 56.5929 36.7259 28.7200 0.0000 0.0000 0.0000
# 2 36.7259 141.3870 53.7507 0.0000 0.0000 0.0000
# 3 28.7200 53.7507 122.8195 0.0000 0.0000 0.0000
# 4 0.0000 0.0000 0.0000 51.1205 0.0000 0.0000
# 5 0.0000 0.0000 0.0000 0.0000 37.9114 0.0000
# 6 0.0000 0.0000 0.0000 0.0000 0.0000 30.9323
#
#
#
# Elastic Compliance Matrix: (Units=1/GPa)
#
#
# Indices 1 2 3 4 5 6 
#
# 1 0.022259 -0.004562 -0.003208 0.000000 0.000000 0.000000
# 2 -0.004562 0.009419 -0.003056 0.000000 0.000000 0.000000
# 3 -0.003208 -0.003056 0.010229 0.000000 0.000000 0.000000
# 4 0.000000 0.000000 0.000000 0.019562 0.000000 0.000000
# 5 0.000000 0.000000 0.000000 0.000000 0.026377 0.000000
# 6 0.000000 0.000000 0.000000 0.000000 0.000000 0.032329
#
#
# Mechanical properties :
#
#
# Convention : Reuss Voigt Hill
#
# Bulk Modulus (GPa) = 49.36885 62.13250 55.75067
# Shear Modulus (GPa) = 33.65206 37.43303 35.54254
#
# Velocity S-wave (km/s) = 3.96793 4.18491 4.07787
# Velocity P-wave (km/s) = 6.64007 7.24022 6.94662
#
# Compressibility (1/GPa) = 0.02025569
#
# Stress axis : x y z
#
# Youngs Moduli (GPa) = 44.92591 106.16368 97.75650
#
# Poissons Ratio (x) = 0.48433 0.31365
# Poissons Ratio (y) = 0.20496 0.29870
# Poissons Ratio (z) = 0.14414 0.32438
#
# Static dielectric constant tensor:
#      x y z
#    x 3.656410 0.000000 0.000000 
#    y 0.000000 4.392540 0.000000 
#    z 0.000000 0.000000 4.082230 
# 
# 
# High freq. dielectric constant tensor:
#      x y z
#    x 1.801140 0.000000 0.000000 
#    y 0.000000 1.853560 0.000000 
#    z 0.000000 0.000000 1.871690 
# 
# From -- ./inp_files/1850.got.cif
#   From: 2010.03.12/outbox.cif.g09.slc.cpg/sg61_1_cif.got.tgz:1850.got - 2010.04.10 19:05:03.
