data_PCOD8249893
_publ_section_title
;
Structure prediction by ZEFSAII (Michael W. Deem and Ramdas Pophale) SiO2 
 PCOD8249893
Probable space group: P B C A
;
_chemical_formula_sum "Si O2"
_cell_formula_units_Z 48
_cell_length_a 8.639449
_cell_length_b 11.768582
_cell_length_c 21.404505
_cell_angle_alpha 90.000000
_cell_angle_beta 90.000000
_cell_angle_gamma 90.000000
_cell_volume 2176.283011
_symmetry_space_group_name_H-M "P B C A"
_symmetry_group_IT_number 61
_symmetry_cell_setting 'orthorhombic'
loop_
_space_group_symop_operation_xyz
x,y,z
1/2-x,-y,1/2+z
1/2+x,1/2-y,-z
-x,1/2+y,1/2-z
-x,-y,-z
1/2+x,y,1/2-z
1/2-x,1/2+y,z
x,1/2-y,1/2+z
loop_
_atom_site_type_symbol
_atom_site_label
_atom_site_fract_x
_atom_site_fract_y
_atom_site_fract_z
Si Si1 0.934329 0.453089 0.436000
Si Si2 0.040261 0.818889 0.368302
Si Si3 0.539791 0.940559 0.810802
Si Si4 0.402484 0.899583 0.680617
Si Si5 0.890582 0.896339 0.483413
Si Si6 0.125764 0.260703 0.894844
O O1 0.972034 0.540757 0.380769
O O2 0.750727 0.441937 0.442233
O O3 0.000000 0.500000 0.500000
O O4 0.006301 0.332656 0.418690
O O5 0.222528 0.794647 0.364596
O O6 0.944118 0.733628 0.324287
O O7 0.985218 0.807257 0.440447
O O8 0.007293 0.946287 0.346778
O O9 0.488435 0.954404 0.739428
O O10 0.721071 0.917672 0.813322
O O11 0.453387 0.834021 0.841109
O O12 0.828033 0.837639 0.545933
O O13 0.000000 0.000000 0.500000
#
# Coordination Sequence:
#
# PCOD8249893 Si02
#       6
#     8   8   8   8   8   8
#     4  12  26  45  76 111 151 196 254 312 378 446
#     4  12  27  48  76 108 153 196 251 312 376 451
#     4  12  29  50  75 110 148 196 256 305 377 460
#     4  12  28  49  76 107 147 198 250 309 379 446
#     4  12  22  46  73 109 152 194 249 314 373 448
#     4  12  26  45  76 110 153 197 249 308 384 448
#
# _framework density 22.055952999999999
#
# number of rings (size 3 to 8) (size 9 to 14) (size 15 to 20)
#    0.000    0.000    3.333    6.000    7.000    0.000 
#    0.000    0.000    0.000    0.000    0.000    0.000 
#    0.000    0.000    0.000    0.000    0.000    0.000 
#
# Total GULP energy -595606.781826 kJ/mol
# GULP energy per Si atom -12408.474621 kJ/mol
# Density = 2.200575 g / cm^3
# Si number density = 22.055953 Si / 1000 Ang^3
#
#
#
# Elastic Constant Matrix: (Units=GPa)
#
#
# Indices 1 2 3 4 5 6 
#
# 1 150.6694 66.6144 53.8732 0.0000 0.0000 0.0000
# 2 66.6144 114.1391 37.6018 0.0000 0.0000 0.0000
# 3 53.8732 37.6018 140.8085 0.0000 0.0000 0.0000
# 4 0.0000 0.0000 0.0000 35.2467 0.0000 0.0000
# 5 0.0000 0.0000 0.0000 0.0000 37.6223 0.0000
# 6 0.0000 0.0000 0.0000 0.0000 0.0000 36.5715
#
#
#
# Elastic Compliance Matrix: (Units=1/GPa)
#
#
# Indices 1 2 3 4 5 6 
#
# 1 0.009629 -0.004831 -0.002394 0.000000 0.000000 0.000000
# 2 -0.004831 0.012030 -0.001364 0.000000 0.000000 0.000000
# 3 -0.002394 -0.001364 0.008382 0.000000 0.000000 0.000000
# 4 0.000000 0.000000 0.000000 0.028371 0.000000 0.000000
# 5 0.000000 0.000000 0.000000 0.000000 0.026580 0.000000
# 6 0.000000 0.000000 0.000000 0.000000 0.000000 0.027344
#
#
# Mechanical properties :
#
#
# Convention : Reuss Voigt Hill
#
# Bulk Modulus (GPa) = 77.74349 80.19952 78.97151
# Shear Modulus (GPa) = 37.36859 38.38994 37.87926
#
# Velocity S-wave (km/s) = 4.12061 4.17654 4.14867
# Velocity P-wave (km/s) = 7.61341 7.72650 7.67016
#
# Compressibility (1/GPa) = 0.01286281
#
# Stress axis : x y z
#
# Youngs Moduli (GPa) = 103.85379 83.12441 119.30236
#
# Poissons Ratio (x) = 0.40158 0.28560
# Poissons Ratio (y) = 0.50172 0.16275
# Poissons Ratio (z) = 0.24862 0.11340
#
# Static dielectric constant tensor:
#      x y z
#    x 3.970300 0.000000 0.000000 
#    y 0.000000 4.028840 0.000000 
#    z 0.000000 0.000000 4.304550 
# 
# 
# High freq. dielectric constant tensor:
#      x y z
#    x 1.882870 0.000000 0.000000 
#    y 0.000000 1.876530 0.000000 
#    z 0.000000 0.000000 1.884430 
# 
# From -- ./inp_files/10829.got.cif
#   From: 2010.03.12/outbox.cif.g09.slc.cpg/sg61_6_cif.got.tgz:10829.got - 2010.04.10 19:05:03.
