data_PCOD8249671
_publ_section_title
;
Structure prediction by ZEFSAII (Michael W. Deem and Ramdas Pophale) SiO2 
 PCOD8249671
Probable space group: P B C A
;
_chemical_formula_sum "Si O2"
_cell_formula_units_Z 32
_cell_length_a 9.719179
_cell_length_b 12.325203
_cell_length_c 10.149499
_cell_angle_alpha 90.000000
_cell_angle_beta 90.000000
_cell_angle_gamma 90.000000
_cell_volume 1215.817155
_symmetry_space_group_name_H-M "P B C A"
_symmetry_group_IT_number 61
_symmetry_cell_setting 'orthorhombic'
loop_
_space_group_symop_operation_xyz
x,y,z
1/2-x,-y,1/2+z
1/2+x,1/2-y,-z
-x,1/2+y,1/2-z
-x,-y,-z
1/2+x,y,1/2-z
1/2-x,1/2+y,z
x,1/2-y,1/2+z
loop_
_atom_site_type_symbol
_atom_site_label
_atom_site_fract_x
_atom_site_fract_y
_atom_site_fract_z
Si Si1 0.208976 0.320365 0.939848
Si Si2 0.029651 0.152474 0.056380
Si Si3 0.886644 0.004965 0.716984
Si Si4 0.874036 0.869819 0.220195
O O1 0.371561 0.311301 0.962481
O O2 0.157056 0.443571 0.917747
O O3 0.165901 0.255811 0.804443
O O4 0.127285 0.263904 0.063793
O O5 0.046257 0.081699 0.185377
O O6 0.079715 0.086133 0.927136
O O7 0.751961 0.061164 0.779228
O O8 0.995129 0.101881 0.686554
#
# Coordination Sequence:
#
# PCOD8249671 Si02
#       4
#     8   8   8   8
#     4  10  26  44  73 106 141 197 235 302 361 431
#     4  10  25  49  68 105 149 188 244 294 369 429
#     4  12  23  46  74 102 149 185 243 299 361 427
#     4  10  27  44  73 107 140 193 244 296 363 433
#
# _framework density 26.319745000000001
#
# number of rings (size 3 to 8) (size 9 to 14) (size 15 to 20)
#    1.500    0.000    2.500    0.750    7.000    2.000 
#    0.000    2.500    0.000    0.000    0.000    0.000 
#    0.000    0.000    0.000    0.000    0.000    0.000 
#
# Total GULP energy -396421.341304 kJ/mol
# GULP energy per Si atom -12388.166916 kJ/mol
# Density = 2.625984 g / cm^3
# Si number density = 26.319745 Si / 1000 Ang^3
#
#
#
# Elastic Constant Matrix: (Units=GPa)
#
#
# Indices 1 2 3 4 5 6 
#
# 1 220.1969 51.7151 7.3224 0.0000 0.0000 0.0000
# 2 51.7151 57.2179 -0.1182 0.0000 0.0000 0.0000
# 3 7.3224 -0.1182 9.8622 0.0000 0.0000 0.0000
# 4 0.0000 0.0000 0.0000 39.2015 0.0000 0.0000
# 5 0.0000 0.0000 0.0000 0.0000 40.5810 0.0000
# 6 0.0000 0.0000 0.0000 0.0000 0.0000 50.2526
#
#
#
# Elastic Compliance Matrix: (Units=1/GPa)
#
#
# Indices 1 2 3 4 5 6 
#
# 1 0.005957 -0.005394 -0.004488 0.000000 0.000000 0.000000
# 2 -0.005394 0.022361 0.004273 0.000000 0.000000 0.000000
# 3 -0.004488 0.004273 0.104781 0.000000 0.000000 0.000000
# 4 0.000000 0.000000 0.000000 0.025509 0.000000 0.000000
# 5 0.000000 0.000000 0.000000 0.000000 0.024642 0.000000
# 6 0.000000 0.000000 0.000000 0.000000 0.000000 0.019899
#
#
# Mechanical properties :
#
#
# Convention : Reuss Voigt Hill
#
# Bulk Modulus (GPa) = 8.20471 45.01284 26.60878
# Shear Modulus (GPa) = 19.60827 41.23088 30.41958
#
# Velocity S-wave (km/s) = 2.73243 3.96225 3.40335
# Velocity P-wave (km/s) = 3.61649 6.17025 5.05722
#
# Compressibility (1/GPa) = 0.12188118
#
# Stress axis : x y z
#
# Youngs Moduli (GPa) = 167.85876 44.72102 9.54374
#
# Poissons Ratio (x) = 0.24121 0.04283
# Poissons Ratio (y) = 0.90538 -0.04078
# Poissons Ratio (z) = 0.75333 -0.19108
#
# Static dielectric constant tensor:
#      x y z
#    x 4.755610 0.000000 0.000000 
#    y 0.000000 5.157330 0.000000 
#    z 0.000000 0.000000 4.412140 
# 
# 
# High freq. dielectric constant tensor:
#      x y z
#    x 2.065150 0.000000 0.000000 
#    y 0.000000 2.067650 0.000000 
#    z 0.000000 0.000000 2.043660 
# 
# From -- ./inp_files/2552.got.cif
#   From: 2010.03.12/outbox.cif.g09.slc.cpg/sg61_2_cif.got.tgz:2552.got - 2010.04.10 19:05:03.
