data_PCOD8249111
_publ_section_title
;
Structure prediction by ZEFSAII (Michael W. Deem and Ramdas Pophale) SiO2 
 PCOD8249111
Probable space group: P B C A
;
_chemical_formula_sum "Si O2"
_cell_formula_units_Z 64
_cell_length_a 23.423001
_cell_length_b 8.798485
_cell_length_c 13.500777
_cell_angle_alpha 90.000000
_cell_angle_beta 90.000000
_cell_angle_gamma 90.000000
_cell_volume 2782.333589
_symmetry_space_group_name_H-M "P B C A"
_symmetry_group_IT_number 61
_symmetry_cell_setting 'orthorhombic'
loop_
_space_group_symop_operation_xyz
x,y,z
1/2-x,-y,1/2+z
1/2+x,1/2-y,-z
-x,1/2+y,1/2-z
-x,-y,-z
1/2+x,y,1/2-z
1/2-x,1/2+y,z
x,1/2-y,1/2+z
loop_
_atom_site_type_symbol
_atom_site_label
_atom_site_fract_x
_atom_site_fract_y
_atom_site_fract_z
Si Si1 0.689791 0.276189 0.177692
Si Si2 0.304080 0.082385 0.803222
Si Si3 0.819751 0.556076 0.884168
Si Si4 0.922393 0.589818 0.653627
Si Si5 0.553369 0.436220 0.377679
Si Si6 0.509576 0.770737 0.962443
Si Si7 0.286798 0.214710 0.586584
Si Si8 0.877912 0.210411 0.070217
O O1 0.749232 0.347075 0.136934
O O2 0.676908 0.378232 0.274388
O O3 0.631027 0.303962 0.116931
O O4 0.697405 0.098529 0.195274
O O5 0.303747 0.129983 0.688556
O O6 0.359953 0.146211 0.860671
O O7 0.883635 0.539962 0.926653
O O8 0.778504 0.670854 0.945508
O O9 0.790218 0.392236 0.890379
O O10 0.942589 0.616393 0.765286
O O11 0.901808 0.417080 0.643577
O O12 0.978125 0.628701 0.588692
O O13 0.524230 0.299730 0.436337
O O14 0.512363 0.583722 0.389120
O O15 0.574831 0.741685 0.988049
O O16 0.324799 0.155340 0.495962
#
# Coordination Sequence:
#
# PCOD8249111 Si02
#       8
#     8   8   8   8   8   8   8   8
#     4  10  22  42  69 102 133 185 233 285 343 425
#     4  11  23  42  67  99 143 181 228 287 357 408
#     4  10  20  42  67 101 135 181 228 283 355 405
#     4  11  26  46  71 103 139 182 238 302 350 419
#     4  10  24  46  72  97 142 182 236 303 350 421
#     4  11  26  46  69 101 133 188 246 282 362 425
#     4  11  23  41  69 100 140 180 223 290 349 420
#     4  12  27  43  67 107 137 185 232 292 348 435
#
# _framework density 23.002274
#
# number of rings (size 3 to 8) (size 9 to 14) (size 15 to 20)
#    0.000    1.250    1.250    5.625    5.250    6.000 
#    0.000    0.000    0.000    0.000    0.000    0.000 
#    0.000    0.000    0.000    0.000    0.000    0.000 
#
# Total GULP energy -793234.740489 kJ/mol
# GULP energy per Si atom -12394.292820 kJ/mol
# Density = 2.294992 g / cm^3
# Si number density = 23.002274 Si / 1000 Ang^3
#
#
#
# Elastic Constant Matrix: (Units=GPa)
#
#
# Indices 1 2 3 4 5 6 
#
# 1 112.2549 26.7599 31.0438 0.0000 0.0000 0.0000
# 2 26.7599 107.0276 13.2944 0.0000 0.0000 0.0000
# 3 31.0438 13.2944 64.2154 0.0000 0.0000 0.0000
# 4 0.0000 0.0000 0.0000 23.8895 0.0000 0.0000
# 5 0.0000 0.0000 0.0000 0.0000 40.8893 0.0000
# 6 0.0000 0.0000 0.0000 0.0000 0.0000 36.5308
#
#
#
# Elastic Compliance Matrix: (Units=1/GPa)
#
#
# Indices 1 2 3 4 5 6 
#
# 1 0.010720 -0.002090 -0.004750 0.000000 0.000000 0.000000
# 2 -0.002090 0.009998 -0.001059 0.000000 0.000000 0.000000
# 3 -0.004750 -0.001059 0.018088 0.000000 0.000000 0.000000
# 4 0.000000 0.000000 0.000000 0.041859 0.000000 0.000000
# 5 0.000000 0.000000 0.000000 0.000000 0.024456 0.000000
# 6 0.000000 0.000000 0.000000 0.000000 0.000000 0.027374
#
#
# Mechanical properties :
#
#
# Convention : Reuss Voigt Hill
#
# Bulk Modulus (GPa) = 43.46467 47.29934 45.38201
# Shear Modulus (GPa) = 32.05883 34.42190 33.24036
#
# Velocity S-wave (km/s) = 3.73731 3.87260 3.80556
# Velocity P-wave (km/s) = 6.12864 6.37210 6.25155
#
# Compressibility (1/GPa) = 0.02300719
#
# Stress axis : x y z
#
# Youngs Moduli (GPa) = 93.28253 100.02395 55.28519
#
# Poissons Ratio (x) = 0.20909 0.26259
# Poissons Ratio (y) = 0.19499 0.05856
# Poissons Ratio (z) = 0.44306 0.10595
#
# Static dielectric constant tensor:
#      x y z
#    x 4.717420 0.000000 0.000000 
#    y 0.000000 4.038210 0.000000 
#    z 0.000000 0.000000 3.955520 
# 
# 
# High freq. dielectric constant tensor:
#      x y z
#    x 1.926540 0.000000 0.000000 
#    y 0.000000 1.906210 0.000000 
#    z 0.000000 0.000000 1.899150 
# 
# From -- ./inp_files/8533.got.cif
#   From: 2010.03.12/outbox.cif.g09.slc.cpg/sg61_5_cif.got.tgz:8533.got - 2010.04.10 19:05:03.
