data_PCOD8249576
_publ_section_title
;
Structure prediction by ZEFSAII (Michael W. Deem and Ramdas Pophale) SiO2 
 PCOD8249576
Probable space group: P B C A
;
_chemical_formula_sum "Si O2"
_cell_formula_units_Z 64
_cell_length_a 11.364093
_cell_length_b 9.194155
_cell_length_c 28.895901
_cell_angle_alpha 90.000000
_cell_angle_beta 90.000000
_cell_angle_gamma 90.000000
_cell_volume 3019.137142
_symmetry_space_group_name_H-M "P B C A"
_symmetry_group_IT_number 61
_symmetry_cell_setting 'orthorhombic'
loop_
_space_group_symop_operation_xyz
x,y,z
1/2-x,-y,1/2+z
1/2+x,1/2-y,-z
-x,1/2+y,1/2-z
-x,-y,-z
1/2+x,y,1/2-z
1/2-x,1/2+y,z
x,1/2-y,1/2+z
loop_
_atom_site_type_symbol
_atom_site_label
_atom_site_fract_x
_atom_site_fract_y
_atom_site_fract_z
Si Si1 0.747091 0.563874 0.905556
Si Si2 0.214601 0.678115 0.157558
Si Si3 0.988200 0.590551 0.953927
Si Si4 0.011681 0.457201 0.799755
Si Si5 0.897146 0.103167 0.134842
Si Si6 0.171395 0.578197 0.876449
Si Si7 0.048969 0.417808 0.543494
Si Si8 0.938208 0.781810 0.787535
O O1 0.702778 0.723769 0.889581
O O2 0.729885 0.473096 0.858862
O O3 0.884651 0.547160 0.918582
O O4 0.673975 0.495665 0.947871
O O5 0.095871 0.646546 0.185297
O O6 0.309711 0.747961 0.191585
O O7 0.948227 0.749993 0.970749
O O8 0.113654 0.571315 0.927895
O O9 0.000000 0.500000 0.000000
O O10 0.984745 0.618175 0.780286
O O11 0.094238 0.476113 0.843747
O O12 0.078465 0.365829 0.760488
O O13 0.805107 0.971753 0.131057
O O14 0.825279 0.252562 0.135316
O O15 0.976272 0.074040 0.090453
O O16 0.979435 0.114147 0.180282
O O17 0.000000 0.500000 0.500000
#
# Coordination Sequence:
#
# PCOD8249576 Si02
#       8
#     8   8   8   8   8   8   8   8
#     4  12  23  46  73  96 132 178 229 283 335 402
#     4  12  23  46  73  96 132 178 227 280 334 398
#     4  11  25  44  67  98 136 173 221 281 336 402
#     4  11  26  43  68 100 133 175 222 276 337 399
#     4  10  23  45  63  89 134 171 211 270 323 392
#     4  10  23  45  63  91 132 173 215 263 329 392
#     4  11  26  43  67 101 132 172 227 276 337 404
#     4  11  25  44  66  99 134 170 224 276 331 401
#
# _framework density 21.19811
#
# number of rings (size 3 to 8) (size 9 to 14) (size 15 to 20)
#    0.000    1.000    5.000    0.750    7.000    3.000 
#    0.000    0.000    0.000    0.000    0.000    0.000 
#    0.000    0.000    0.000    0.000    0.000    0.000 
#
# Total GULP energy -793104.990773 kJ/mol
# GULP energy per Si atom -12392.265481 kJ/mol
# Density = 2.114986 g / cm^3
# Si number density = 21.198110 Si / 1000 Ang^3
#
#
#
# Elastic Constant Matrix: (Units=GPa)
#
#
# Indices 1 2 3 4 5 6 
#
# 1 60.2624 22.5319 1.7858 0.0000 0.0000 0.0000
# 2 22.5319 81.7144 35.1038 0.0000 0.0000 0.0000
# 3 1.7858 35.1038 84.6009 0.0000 0.0000 0.0000
# 4 0.0000 0.0000 0.0000 44.5901 0.0000 0.0000
# 5 0.0000 0.0000 0.0000 0.0000 27.5060 0.0000
# 6 0.0000 0.0000 0.0000 0.0000 0.0000 36.5402
#
#
#
# Elastic Compliance Matrix: (Units=1/GPa)
#
#
# Indices 1 2 3 4 5 6 
#
# 1 0.018814 -0.006105 0.002136 0.000000 0.000000 0.000000
# 2 -0.006105 0.016874 -0.006873 0.000000 0.000000 0.000000
# 3 0.002136 -0.006873 0.014627 0.000000 0.000000 0.000000
# 4 0.000000 0.000000 0.000000 0.022426 0.000000 0.000000
# 5 0.000000 0.000000 0.000000 0.000000 0.036356 0.000000
# 6 0.000000 0.000000 0.000000 0.000000 0.000000 0.027367
#
#
# Mechanical properties :
#
#
# Convention : Reuss Voigt Hill
#
# Bulk Modulus (GPa) = 34.92775 38.38007 36.65391
# Shear Modulus (GPa) = 29.81689 32.87101 31.34395
#
# Velocity S-wave (km/s) = 3.75451 3.94211 3.84945
# Velocity P-wave (km/s) = 5.94203 6.23418 6.08986
#
# Compressibility (1/GPa) = 0.02863053
#
# Stress axis : x y z
#
# Youngs Moduli (GPa) = 53.15318 59.26412 68.36780
#
# Poissons Ratio (x) = 0.36183 -0.14605
# Poissons Ratio (y) = 0.32452 0.46986
# Poissons Ratio (z) = -0.11354 0.40730
#
# Static dielectric constant tensor:
#      x y z
#    x 3.880980 0.000000 0.000000 
#    y 0.000000 3.173700 0.000000 
#    z 0.000000 0.000000 5.812840 
# 
# 
# High freq. dielectric constant tensor:
#      x y z
#    x 1.827450 0.000000 0.000000 
#    y 0.000000 1.843960 0.000000 
#    z 0.000000 0.000000 1.829880 
# 
# From -- ./inp_files/11780.got.cif
#   From: 2010.03.12/outbox.cif.g09.slc.cpg/sg61_6_cif.got.tgz:11780.got - 2010.04.10 19:05:03.
