data_PCOD8249536
_publ_section_title
;
Structure prediction by ZEFSAII (Michael W. Deem and Ramdas Pophale) SiO2 
 PCOD8249536
Probable space group: P B C A
;
_chemical_formula_sum "Si O2"
_cell_formula_units_Z 48
_cell_length_a 16.593413
_cell_length_b 16.228241
_cell_length_c 8.651080
_cell_angle_alpha 90.000000
_cell_angle_beta 90.000000
_cell_angle_gamma 90.000000
_cell_volume 2329.579304
_symmetry_space_group_name_H-M "P B C A"
_symmetry_group_IT_number 61
_symmetry_cell_setting 'orthorhombic'
loop_
_space_group_symop_operation_xyz
x,y,z
1/2-x,-y,1/2+z
1/2+x,1/2-y,-z
-x,1/2+y,1/2-z
-x,-y,-z
1/2+x,y,1/2-z
1/2-x,1/2+y,z
x,1/2-y,1/2+z
loop_
_atom_site_type_symbol
_atom_site_label
_atom_site_fract_x
_atom_site_fract_y
_atom_site_fract_z
Si Si1 0.163725 0.144903 0.150529
Si Si2 0.303260 0.155501 0.623999
Si Si3 0.017343 0.587304 0.932981
Si Si4 0.638554 0.189838 0.005178
Si Si5 0.676612 0.667789 0.510051
Si Si6 0.428583 0.477650 0.115029
O O1 0.129119 0.213242 0.032916
O O2 0.164408 0.186833 0.317081
O O3 0.253617 0.122975 0.090402
O O4 0.109810 0.063907 0.166011
O O5 0.208938 0.142659 0.587893
O O6 0.333420 0.238018 0.540674
O O7 0.356467 0.080674 0.550982
O O8 0.308122 0.161369 0.807911
O O9 0.033124 0.576134 0.751925
O O10 0.944731 0.648685 0.961682
O O11 0.093557 0.622041 0.026944
O O12 0.000000 0.500000 0.000000
O O13 0.500000 0.500000 0.000000
#
# Coordination Sequence:
#
# PCOD8249536 Si02
#       6
#     8   8   8   8   8   8
#     4  11  24  43  67  96 129 177 218 266 330 393
#     4  10  23  43  67  96 129 174 221 271 329 395
#     4  11  25  44  64  98 132 169 218 274 329 385
#     4  11  24  43  70  95 132 174 221 268 335 388
#     4  10  23  42  67  94 130 170 220 266 327 393
#     4  11  27  42  65 101 130 171 223 268 337 385
#
# _framework density 20.604576999999999
#
# number of rings (size 3 to 8) (size 9 to 14) (size 15 to 20)
#    0.000    1.333    1.667    4.000    9.333    4.000 
#    0.000    0.000    0.000    0.000    0.000    0.000 
#    0.000    0.000    0.000    0.000    0.000    0.000 
#
# Total GULP energy -595088.588526 kJ/mol
# GULP energy per Si atom -12397.678928 kJ/mol
# Density = 2.055768 g / cm^3
# Si number density = 20.604577 Si / 1000 Ang^3
#
#
#
# Elastic Constant Matrix: (Units=GPa)
#
#
# Indices 1 2 3 4 5 6 
#
# 1 166.7029 61.0335 51.4186 0.0000 0.0000 0.0000
# 2 61.0335 83.6390 30.2184 0.0000 0.0000 0.0000
# 3 51.4186 30.2184 101.3412 0.0000 0.0000 0.0000
# 4 0.0000 0.0000 0.0000 34.8181 0.0000 0.0000
# 5 0.0000 0.0000 0.0000 0.0000 36.5650 0.0000
# 6 0.0000 0.0000 0.0000 0.0000 0.0000 42.5115
#
#
#
# Elastic Compliance Matrix: (Units=1/GPa)
#
#
# Indices 1 2 3 4 5 6 
#
# 1 0.008879 -0.005437 -0.002884 0.000000 0.000000 0.000000
# 2 -0.005437 0.016729 -0.002230 0.000000 0.000000 0.000000
# 3 -0.002884 -0.002230 0.011996 0.000000 0.000000 0.000000
# 4 0.000000 0.000000 0.000000 0.028721 0.000000 0.000000
# 5 0.000000 0.000000 0.000000 0.000000 0.027349 0.000000
# 6 0.000000 0.000000 0.000000 0.000000 0.000000 0.023523
#
#
# Mechanical properties :
#
#
# Convention : Reuss Voigt Hill
#
# Bulk Modulus (GPa) = 60.59622 70.78045 65.68833
# Shear Modulus (GPa) = 34.77093 36.71311 35.74202
#
# Velocity S-wave (km/s) = 4.11242 4.22571 4.16945
# Velocity P-wave (km/s) = 7.21265 7.63120 7.42487
#
# Compressibility (1/GPa) = 0.01650268
#
# Stress axis : x y z
#
# Youngs Moduli (GPa) = 112.62733 59.77482 83.36372
#
# Poissons Ratio (x) = 0.32501 0.24039
# Poissons Ratio (y) = 0.61239 0.18588
# Poissons Ratio (z) = 0.32478 0.13328
#
# Static dielectric constant tensor:
#      x y z
#    x 3.968130 0.000000 0.000000 
#    y 0.000000 3.795450 0.000000 
#    z 0.000000 0.000000 3.727700 
# 
# 
# High freq. dielectric constant tensor:
#      x y z
#    x 1.820690 0.000000 0.000000 
#    y 0.000000 1.812750 0.000000 
#    z 0.000000 0.000000 1.808530 
# 
# From -- ./inp_files/2843.got.cif
#   From: 2010.03.12/outbox.cif.g09.slc.cpg/sg61_2_cif.got.tgz:2843.got - 2010.04.10 19:05:03.
