data_PCOD8249982
_publ_section_title
;
Structure prediction by ZEFSAII (Michael W. Deem and Ramdas Pophale) SiO2 
 PCOD8249982
Probable space group: P N M A
;
_chemical_formula_sum "Si O2"
_cell_formula_units_Z 56
_cell_length_a 9.636133
_cell_length_b 13.201541
_cell_length_c 30.063268
_cell_angle_alpha 90.000000
_cell_angle_beta 90.000000
_cell_angle_gamma 90.000000
_cell_volume 3824.402583
_symmetry_space_group_name_H-M "P N M A"
_symmetry_group_IT_number 62
_symmetry_cell_setting 'orthorhombic'
loop_
_space_group_symop_operation_xyz
x,y,z
1/2-x,-y,1/2+z
1/2+x,1/2-y,1/2-z
-x,1/2+y,-z
-x,-y,-z
1/2+x,y,1/2-z
1/2-x,1/2+y,1/2+z
x,1/2-y,z
loop_
_atom_site_type_symbol
_atom_site_label
_atom_site_fract_x
_atom_site_fract_y
_atom_site_fract_z
Si Si1 0.051741 0.131265 0.772161
Si Si2 0.062653 0.632305 0.134675
Si Si3 0.119002 0.448514 0.939820
Si Si4 0.893636 0.133030 0.001836
Si Si5 0.391732 0.129260 0.902171
Si Si6 0.691670 0.131385 0.925236
Si Si7 0.348458 0.371157 0.801724
O O1 0.069424 0.250000 0.765871
O O2 0.949969 0.107146 0.813494
O O3 0.976851 0.087051 0.728098
O O4 0.204461 0.085021 0.781099
O O5 0.025965 0.750000 0.124766
O O6 0.218356 0.606403 0.118904
O O7 0.952412 0.564657 0.107997
O O8 0.113091 0.566742 0.953469
O O9 0.277623 0.413076 0.936062
O O10 0.041041 0.381044 0.977017
O O11 0.874696 0.250000 0.014989
O O12 0.771925 0.091735 0.968991
O O13 0.389441 0.250000 0.902779
O O14 0.539008 0.084198 0.919275
O O15 0.366212 0.089477 0.851991
O O16 0.675694 0.250000 0.930620
O O17 0.344731 0.250000 0.801072
#
# Coordination Sequence:
#
# PCOD8249982 Si02
#       7
#     8   8   8   8   8   8   8
#     4   9  16  24  34  50  78 110 137 162 189 227
#     4   9  15  26  40  56  80 112 140 162 193 237
#     4  10  17  27  46  60  77 107 134 169 203 235
#     4   9  18  31  43  60  80 102 134 169 207 246
#     4  10  17  26  39  59  82 107 140 167 190 233
#     4   8  16  26  38  54  78 107 133 162 199 235
#     4   9  17  24  33  52  78 109 138 162 189 225
#
# _framework density 14.642810000000001
#
# number of rings (size 3 to 8) (size 9 to 14) (size 15 to 20)
#    0.000    2.857    1.429    2.143    2.000    0.571 
#    0.000    0.000    0.000    0.000    0.000    0.000 
#    0.000    1.143    0.000    0.000    0.000    0.000 
#
# Total GULP energy -694057.626650 kJ/mol
# GULP energy per Si atom -12393.886190 kJ/mol
# Density = 1.460948 g / cm^3
# Si number density = 14.642810 Si / 1000 Ang^3
#
#
#
# Elastic Constant Matrix: (Units=GPa)
#
#
# Indices 1 2 3 4 5 6 
#
# 1 120.7940 18.8090 39.9849 0.0000 0.0000 0.0000
# 2 18.8090 32.6116 25.3388 0.0000 0.0000 0.0000
# 3 39.9849 25.3388 65.4320 0.0000 0.0000 0.0000
# 4 0.0000 0.0000 0.0000 12.4587 0.0000 0.0000
# 5 0.0000 0.0000 0.0000 0.0000 19.8776 0.0000
# 6 0.0000 0.0000 0.0000 0.0000 0.0000 9.2176
#
#
#
# Elastic Compliance Matrix: (Units=1/GPa)
#
#
# Indices 1 2 3 4 5 6 
#
# 1 0.010430 -0.001521 -0.005785 0.000000 0.000000 0.000000
# 2 -0.001521 0.044083 -0.016142 0.000000 0.000000 0.000000
# 3 -0.005785 -0.016142 0.025069 0.000000 0.000000 0.000000
# 4 0.000000 0.000000 0.000000 0.080265 0.000000 0.000000
# 5 0.000000 0.000000 0.000000 0.000000 0.050308 0.000000
# 6 0.000000 0.000000 0.000000 0.000000 0.000000 0.108488
#
#
# Mechanical properties :
#
#
# Convention : Reuss Voigt Hill
#
# Bulk Modulus (GPa) = 30.59311 43.01142 36.80227
# Shear Modulus (GPa) = 13.28253 17.29113 15.28683
#
# Velocity S-wave (km/s) = 3.01508 3.44009 3.23458
# Velocity P-wave (km/s) = 5.74972 6.72432 6.25603
#
# Compressibility (1/GPa) = 0.03268710
#
# Stress axis : x y z
#
# Youngs Moduli (GPa) = 95.87482 22.68441 39.88979
#
# Poissons Ratio (x) = 0.03450 0.23076
# Poissons Ratio (y) = 0.14583 0.64390
# Poissons Ratio (z) = 0.55462 0.36617
#
# Static dielectric constant tensor:
#      x y z
#    x 3.220950 0.000000 0.000000 
#    y 0.000000 2.304900 0.000000 
#    z 0.000000 0.000000 2.891950 
# 
# 
# High freq. dielectric constant tensor:
#      x y z
#    x 1.576860 0.000000 0.000000 
#    y 0.000000 1.480530 0.000000 
#    z 0.000000 0.000000 1.558590 
# 
# From -- ./inp_files/32277.got.cif
#   From: 2010.03.12/outbox.cif.g09.slc.cpg/sg62_17_cif.got.tgz:32277.got - 2010.04.10 19:12:36.
