data_PCOD8249069
_publ_section_title
;
Structure prediction by ZEFSAII (Michael W. Deem and Ramdas Pophale) SiO2 
 PCOD8249069
Probable space group: P B C A
;
_chemical_formula_sum "Si O2"
_cell_formula_units_Z 48
_cell_length_a 14.104530
_cell_length_b 9.085446
_cell_length_c 13.496520
_cell_angle_alpha 90.000000
_cell_angle_beta 90.000000
_cell_angle_gamma 90.000000
_cell_volume 1729.524319
_symmetry_space_group_name_H-M "P B C A"
_symmetry_group_IT_number 61
_symmetry_cell_setting 'orthorhombic'
loop_
_space_group_symop_operation_xyz
x,y,z
1/2-x,-y,1/2+z
1/2+x,1/2-y,-z
-x,1/2+y,1/2-z
-x,-y,-z
1/2+x,y,1/2-z
1/2-x,1/2+y,z
x,1/2-y,1/2+z
loop_
_atom_site_type_symbol
_atom_site_label
_atom_site_fract_x
_atom_site_fract_y
_atom_site_fract_z
Si Si1 0.650368 0.354883 0.703633
Si Si2 0.255493 0.101403 0.711777
Si Si3 0.514861 0.865295 0.313310
Si Si4 0.365282 0.933146 0.024734
Si Si5 0.390097 0.374350 0.793785
Si Si6 0.450039 0.236408 0.987936
O O1 0.644628 0.505220 0.774055
O O2 0.746010 0.260964 0.734580
O O3 0.565701 0.245639 0.727868
O O4 0.658358 0.398711 0.588752
O O5 0.222629 0.107052 0.597053
O O6 0.194702 0.988513 0.779177
O O7 0.609444 0.774781 0.275004
O O8 0.520190 0.859603 0.432122
O O9 0.486621 0.027624 0.273437
O O10 0.456355 0.838570 0.060384
O O11 0.388129 0.106153 0.038975
O O12 0.388650 0.319735 0.906727
#
# Coordination Sequence:
#
# PCOD8249069 Si02
#       6
#     8   8   8   8   8   8
#     4  10  25  41  66  90 138 174 217 271 323 395
#     4  11  24  45  63 100 129 178 221 268 330 403
#     4  10  22  40  63 101 128 174 216 274 329 388
#     4  10  22  43  67  98 131 171 218 272 342 386
#     4  11  22  38  68  97 133 166 226 269 328 391
#     4  10  20  39  69  96 131 167 212 282 327 391
#
# _framework density 27.753295000000001
#
# number of rings (size 3 to 8) (size 9 to 14) (size 15 to 20)
#    0.000    1.667    1.667    2.500    7.000    1.333 
#    0.000    1.667    0.000    0.000    0.000    0.000 
#    0.000    0.000    0.000    0.000    0.000    0.000 
#
# Total GULP energy -595169.967210 kJ/mol
# GULP energy per Si atom -12399.374317 kJ/mol
# Density = 2.769013 g / cm^3
# Si number density = 27.753295 Si / 1000 Ang^3
#
#
#
# Elastic Constant Matrix: (Units=GPa)
#
#
# Indices 1 2 3 4 5 6 
#
# 1 66.9422 7.8477 -21.1263 0.0000 0.0000 0.0000
# 2 7.8477 181.2329 45.0174 0.0000 0.0000 0.0000
# 3 -21.1263 45.0174 105.8330 0.0000 0.0000 0.0000
# 4 0.0000 0.0000 0.0000 51.2284 0.0000 0.0000
# 5 0.0000 0.0000 0.0000 0.0000 41.7401 0.0000
# 6 0.0000 0.0000 0.0000 0.0000 0.0000 38.0223
#
#
#
# Elastic Compliance Matrix: (Units=1/GPa)
#
#
# Indices 1 2 3 4 5 6 
#
# 1 0.016400 -0.001703 0.003998 0.000000 0.000000 0.000000
# 2 -0.001703 0.006347 -0.003040 0.000000 0.000000 0.000000
# 3 0.003998 -0.003040 0.011540 0.000000 0.000000 0.000000
# 4 0.000000 0.000000 0.000000 0.019520 0.000000 0.000000
# 5 0.000000 0.000000 0.000000 0.000000 0.023958 0.000000
# 6 0.000000 0.000000 0.000000 0.000000 0.000000 0.026300
#
#
# Mechanical properties :
#
#
# Convention : Reuss Voigt Hill
#
# Bulk Modulus (GPa) = 30.49072 46.38730 38.43901
# Shear Modulus (GPa) = 42.92352 47.68279 45.30315
#
# Velocity S-wave (km/s) = 3.93696 4.14949 4.04462
# Velocity P-wave (km/s) = 5.62818 6.30144 5.97430
#
# Compressibility (1/GPa) = 0.03279686
#
# Stress axis : x y z
#
# Youngs Moduli (GPa) = 60.97665 157.56628 86.65589
#
# Poissons Ratio (x) = 0.26838 -0.34647
# Poissons Ratio (y) = 0.10386 0.26340
# Poissons Ratio (z) = -0.24380 0.47894
#
# Static dielectric constant tensor:
#      x y z
#    x 6.101630 0.000000 0.000000 
#    y 0.000000 5.713430 0.000000 
#    z 0.000000 0.000000 4.450940 
# 
# 
# High freq. dielectric constant tensor:
#      x y z
#    x 2.173430 0.000000 0.000000 
#    y 0.000000 2.177620 0.000000 
#    z 0.000000 0.000000 2.093450 
# 
# From -- ./inp_files/8118.got.cif
#   From: 2010.03.12/outbox.cif.g09.slc.cpg/sg61_5_cif.got.tgz:8118.got - 2010.04.10 19:05:03.
