data_PCOD8249937
_publ_section_title
;
Structure prediction by ZEFSAII (Michael W. Deem and Ramdas Pophale) SiO2 
 PCOD8249937
Probable space group: P N M A
;
_chemical_formula_sum "Si O2"
_cell_formula_units_Z 64
_cell_length_a 16.697024
_cell_length_b 18.905261
_cell_length_c 11.747104
_cell_angle_alpha 90.000000
_cell_angle_beta 90.000000
_cell_angle_gamma 90.000000
_cell_volume 3708.109605
_symmetry_space_group_name_H-M "P N M A"
_symmetry_group_IT_number 62
_symmetry_cell_setting 'orthorhombic'
loop_
_space_group_symop_operation_xyz
x,y,z
1/2-x,-y,1/2+z
1/2+x,1/2-y,1/2-z
-x,1/2+y,-z
-x,-y,-z
1/2+x,y,1/2-z
1/2-x,1/2+y,1/2+z
x,1/2-y,z
loop_
_atom_site_type_symbol
_atom_site_label
_atom_site_fract_x
_atom_site_fract_y
_atom_site_fract_z
Si Si1 0.021509 0.946100 0.096771
Si Si2 0.294705 0.542003 0.173292
Si Si3 0.265103 0.169136 0.066606
Si Si4 0.820665 0.431162 0.010881
Si Si5 0.093741 0.557906 0.550266
Si Si6 0.151961 0.410359 0.905299
Si Si7 0.439205 0.526356 0.832216
Si Si8 0.222329 0.092948 0.278785
O O1 0.943550 0.895817 0.107952
O O2 0.041527 0.989615 0.211452
O O3 0.097273 0.901871 0.046361
O O4 0.000000 0.000000 0.000000
O O5 0.374558 0.510432 0.118173
O O6 0.313900 0.592812 0.277964
O O7 0.236594 0.479013 0.210577
O O8 0.248734 0.586772 0.078526
O O9 0.289583 0.250000 0.049570
O O10 0.345806 0.123527 0.052385
O O11 0.227426 0.158384 0.192093
O O12 0.196157 0.150299 0.975829
O O13 0.828169 0.515030 0.034702
O O14 0.792603 0.393838 0.127597
O O15 0.080038 0.537756 0.418774
O O16 0.011635 0.574434 0.617840
O O17 0.366691 0.582974 0.828310
#
# Coordination Sequence:
#
# PCOD8249937 Si02
#       8
#     8   8   8   8   8   8   8   8
#     4  10  19  27  46  83 116 135 155 210 283 327
#     4  10  15  28  50  82 109 133 167 220 273 316
#     4  11  23  40  55  70 104 153 192 213 253 334
#     4  10  17  28  51  81 111 134 161 222 280 317
#     4  10  20  32  54  86 112 139 174 224 280 321
#     4  10  18  31  50  76 105 133 177 216 263 316
#     4  11  18  31  55  89 117 131 167 231 292 321
#     4  10  18  31  51  76 109 142 177 216 262 319
#
# _framework density 17.259467999999998
#
# number of rings (size 3 to 8) (size 9 to 14) (size 15 to 20)
#    0.000    1.750    6.250    1.500    1.750    0.000 
#    0.000    0.625    0.000    1.500    0.000    0.000 
#    0.000    0.000    0.000    0.000    0.000    0.000 
#
# Total GULP energy -793114.151872 kJ/mol
# GULP energy per Si atom -12392.408623 kJ/mol
# Density = 1.722019 g / cm^3
# Si number density = 17.259468 Si / 1000 Ang^3
#
#
#
# Elastic Constant Matrix: (Units=GPa)
#
#
# Indices 1 2 3 4 5 6 
#
# 1 116.5211 33.5956 43.2355 0.0000 0.0000 0.0000
# 2 33.5956 48.6815 31.1406 0.0000 0.0000 0.0000
# 3 43.2355 31.1406 125.6071 0.0000 0.0000 0.0000
# 4 0.0000 0.0000 0.0000 10.2285 0.0000 0.0000
# 5 0.0000 0.0000 0.0000 0.0000 34.7511 0.0000
# 6 0.0000 0.0000 0.0000 0.0000 0.0000 11.6963
#
#
#
# Elastic Compliance Matrix: (Units=1/GPa)
#
#
# Indices 1 2 3 4 5 6 
#
# 1 0.011253 -0.006285 -0.002315 0.000000 0.000000 0.000000
# 2 -0.006285 0.027923 -0.004759 0.000000 0.000000 0.000000
# 3 -0.002315 -0.004759 0.009938 0.000000 0.000000 0.000000
# 4 0.000000 0.000000 0.000000 0.097766 0.000000 0.000000
# 5 0.000000 0.000000 0.000000 0.000000 0.028776 0.000000
# 6 0.000000 0.000000 0.000000 0.000000 0.000000 0.085497
#
#
# Mechanical properties :
#
#
# Convention : Reuss Voigt Hill
#
# Bulk Modulus (GPa) = 44.65168 56.30590 50.47879
# Shear Modulus (GPa) = 16.92971 23.52438 20.22704
#
# Velocity S-wave (km/s) = 3.13532 3.69587 3.42707
# Velocity P-wave (km/s) = 6.24772 7.13489 6.70599
#
# Compressibility (1/GPa) = 0.02239558
#
# Stress axis : x y z
#
# Youngs Moduli (GPa) = 88.86245 35.81213 100.62097
#
# Poissons Ratio (x) = 0.22508 0.23298
# Poissons Ratio (y) = 0.55850 0.47890
# Poissons Ratio (z) = 0.20575 0.17045
#
# Static dielectric constant tensor:
#      x y z
#    x 4.252490 0.000000 0.000000 
#    y 0.000000 2.480030 0.000000 
#    z 0.000000 0.000000 3.497900 
# 
# 
# High freq. dielectric constant tensor:
#      x y z
#    x 1.689940 0.000000 0.000000 
#    y 0.000000 1.571050 0.000000 
#    z 0.000000 0.000000 1.693960 
# 
# From -- ./inp_files/14467.got.cif
#   From: 2010.03.12/outbox.cif.g09.slc.cpg/sg62_8_cif.got.tgz:14467.got - 2010.04.10 19:12:36.
