data_PCOD8249935
_publ_section_title
;
Structure prediction by ZEFSAII (Michael W. Deem and Ramdas Pophale) SiO2 
 PCOD8249935
Probable space group: P N M A
;
_chemical_formula_sum "Si O2"
_cell_formula_units_Z 32
_cell_length_a 5.311436
_cell_length_b 37.375989
_cell_length_c 8.606594
_cell_angle_alpha 90.000000
_cell_angle_beta 90.000000
_cell_angle_gamma 90.000000
_cell_volume 1708.582534
_symmetry_space_group_name_H-M "P N M A"
_symmetry_group_IT_number 62
_symmetry_cell_setting 'orthorhombic'
loop_
_space_group_symop_operation_xyz
x,y,z
1/2-x,-y,1/2+z
1/2+x,1/2-y,1/2-z
-x,1/2+y,-z
-x,-y,-z
1/2+x,y,1/2-z
1/2-x,1/2+y,1/2+z
x,1/2-y,z
loop_
_atom_site_type_symbol
_atom_site_label
_atom_site_fract_x
_atom_site_fract_y
_atom_site_fract_z
Si Si1 0.000453 0.978028 0.656431
Si Si2 0.998215 0.135041 0.065090
Si Si3 0.979257 0.710998 0.850042
Si Si4 0.001786 0.894523 0.589413
O O1 0.750796 0.988726 0.750355
O O2 0.999822 0.936250 0.620975
O O3 0.000000 0.000000 0.500000
O O4 0.998831 0.177733 0.030763
O O5 0.248136 0.116565 0.992484
O O6 0.999107 0.127526 0.250072
O O7 0.747328 0.116966 0.992215
O O8 0.708232 0.707758 0.769951
O O9 0.996308 0.750000 0.934629
#
# Coordination Sequence:
#
# PCOD8249935 Si02
#       4
#     8   8   8   8
#     4  12  23  38  55  78 103 132 170 220 262 308
#     4  10  14  25  41  55  84 114 160 190 226 281
#     4  10  16  20  29  50  76 110 148 186 222 270
#     4  10  16  27  44  61  82 114 159 196 225 285
#
# _framework density 18.728974000000001
#
# number of rings (size 3 to 8) (size 9 to 14) (size 15 to 20)
#    0.000    1.500   10.000    0.750    0.000    0.000 
#    0.000    0.000    0.000    0.000    0.000    0.000 
#    0.000    0.000    0.000    0.000    0.000   42.500 
#
# Total GULP energy -396443.481999 kJ/mol
# GULP energy per Si atom -12388.858812 kJ/mol
# Density = 1.868635 g / cm^3
# Si number density = 18.728974 Si / 1000 Ang^3
#
#
#
# Elastic Constant Matrix: (Units=GPa)
#
#
# Indices 1 2 3 4 5 6 
#
# 1 199.7484 46.8224 31.3725 0.0000 0.0000 0.0000
# 2 46.8224 110.6290 44.9337 0.0000 0.0000 0.0000
# 3 31.3725 44.9337 32.5761 0.0000 0.0000 0.0000
# 4 0.0000 0.0000 0.0000 0.4837 0.0000 0.0000
# 5 0.0000 0.0000 0.0000 0.0000 9.9927 0.0000
# 6 0.0000 0.0000 0.0000 0.0000 0.0000 30.7547
#
#
#
# Elastic Compliance Matrix: (Units=1/GPa)
#
#
# Indices 1 2 3 4 5 6 
#
# 1 0.005908 -0.000431 -0.005095 0.000000 0.000000 0.000000
# 2 -0.000431 0.020586 -0.027981 0.000000 0.000000 0.000000
# 3 -0.005095 -0.027981 0.074199 0.000000 0.000000 0.000000
# 4 0.000000 0.000000 0.000000 2.067299 0.000000 0.000000
# 5 0.000000 0.000000 0.000000 0.000000 0.100073 0.000000
# 6 0.000000 0.000000 0.000000 0.000000 0.000000 0.032515
#
#
# Mechanical properties :
#
#
# Convention : Reuss Voigt Hill
#
# Bulk Modulus (GPa) = 29.69121 65.46784 47.57952
# Shear Modulus (GPa) = 2.10188 22.90121 12.50155
#
# Velocity S-wave (km/s) = 1.06052 3.50061 2.58640
# Velocity P-wave (km/s) = 4.16978 7.16730 5.86333
#
# Compressibility (1/GPa) = 0.03368001
#
# Stress axis : x y z
#
# Youngs Moduli (GPa) = 169.27607 48.57561 13.47722
#
# Poissons Ratio (x) = 0.02093 0.06866
# Poissons Ratio (y) = 0.07295 0.37710
# Poissons Ratio (z) = 0.86243 1.35919
#
# Static dielectric constant tensor:
#      x y z
#    x 5.182870 0.000000 0.000000 
#    y 0.000000 4.309940 0.000000 
#    z 0.000000 0.000000 2.443040 
# 
# 
# High freq. dielectric constant tensor:
#      x y z
#    x 1.776300 0.000000 0.000000 
#    y 0.000000 1.751160 0.000000 
#    z 0.000000 0.000000 1.603250 
# 
# From -- ./inp_files/3810.got.cif
#   From: 2010.03.12/outbox.cif.g09.slc.cpg/sg62_2_cif.got.tgz:3810.got - 2010.04.10 19:12:36.
