data_PCOD8249563
_publ_section_title
;
Structure prediction by ZEFSAII (Michael W. Deem and Ramdas Pophale) SiO2 
 PCOD8249563
Probable space group: P B C A
;
_chemical_formula_sum "Si O2"
_cell_formula_units_Z 32
_cell_length_a 24.066203
_cell_length_b 4.673404
_cell_length_c 9.795126
_cell_angle_alpha 90.000000
_cell_angle_beta 90.000000
_cell_angle_gamma 90.000000
_cell_volume 1101.668492
_symmetry_space_group_name_H-M "P B C A"
_symmetry_group_IT_number 61
_symmetry_cell_setting 'orthorhombic'
loop_
_space_group_symop_operation_xyz
x,y,z
1/2-x,-y,1/2+z
1/2+x,1/2-y,-z
-x,1/2+y,1/2-z
-x,-y,-z
1/2+x,y,1/2-z
1/2-x,1/2+y,z
x,1/2-y,1/2+z
loop_
_atom_site_type_symbol
_atom_site_label
_atom_site_fract_x
_atom_site_fract_y
_atom_site_fract_z
Si Si1 0.570459 0.344839 0.805233
Si Si2 0.211083 0.804458 0.304411
Si Si3 0.360487 0.123015 0.066887
Si Si4 0.949797 0.144851 0.118505
O O1 0.577660 0.666668 0.742359
O O2 0.515771 0.302393 0.902568
O O3 0.559444 0.180121 0.663040
O O4 0.623418 0.193115 0.878881
O O5 0.231162 0.476742 0.301045
O O6 0.177352 0.912260 0.434691
O O7 0.171933 0.830383 0.171884
O O8 0.416505 0.308952 0.025153
#
# Coordination Sequence:
#
# PCOD8249563 Si02
#       4
#     8   8   8   8
#     4  10  23  43  72 114 154 192 241 296 367 460
#     4  12  30  50  74 106 142 190 256 318 366 428
#     4  12  25  50  80 104 150 192 250 300 390 426
#     4  10  23  43  72 114 154 192 241 296 367 460
#
# _framework density 29.046851
#
# number of rings (size 3 to 8) (size 9 to 14) (size 15 to 20)
#    0.000    1.000    2.500    2.250    3.500    6.000 
#    0.000    7.500    0.000    0.000    0.000    0.000 
#    0.000    0.000    0.000    0.000    0.000    0.000 
#
# Total GULP energy -396932.473084 kJ/mol
# GULP energy per Si atom -12404.139784 kJ/mol
# Density = 2.898074 g / cm^3
# Si number density = 29.046851 Si / 1000 Ang^3
#
#
#
# Elastic Constant Matrix: (Units=GPa)
#
#
# Indices 1 2 3 4 5 6 
#
# 1 138.7063 16.7573 53.6995 0.0000 0.0000 0.0000
# 2 16.7573 86.0352 9.2468 0.0000 0.0000 0.0000
# 3 53.6995 9.2468 165.1678 0.0000 0.0000 0.0000
# 4 0.0000 0.0000 0.0000 23.7770 0.0000 0.0000
# 5 0.0000 0.0000 0.0000 0.0000 55.0643 0.0000
# 6 0.0000 0.0000 0.0000 0.0000 0.0000 60.1326
#
#
#
# Elastic Compliance Matrix: (Units=1/GPa)
#
#
# Indices 1 2 3 4 5 6 
#
# 1 0.008401 -0.001351 -0.002656 0.000000 0.000000 0.000000
# 2 -0.001351 0.011911 -0.000228 0.000000 0.000000 0.000000
# 3 -0.002656 -0.000228 0.006931 0.000000 0.000000 0.000000
# 4 0.000000 0.000000 0.000000 0.042057 0.000000 0.000000
# 5 0.000000 0.000000 0.000000 0.000000 0.018161 0.000000
# 6 0.000000 0.000000 0.000000 0.000000 0.000000 0.016630
#
#
# Mechanical properties :
#
#
# Convention : Reuss Voigt Hill
#
# Bulk Modulus (GPa) = 53.26540 61.03515 57.15028
# Shear Modulus (GPa) = 42.08178 48.47516 45.27847
#
# Velocity S-wave (km/s) = 3.81038 4.08960 3.95246
# Velocity P-wave (km/s) = 6.14298 6.58468 6.36766
#
# Compressibility (1/GPa) = 0.01877391
#
# Stress axis : x y z
#
# Youngs Moduli (GPa) = 119.03636 83.95795 144.28767
#
# Poissons Ratio (x) = 0.11341 0.38318
# Poissons Ratio (y) = 0.16080 0.03284
# Poissons Ratio (z) = 0.31612 0.01911
#
# Static dielectric constant tensor:
#      x y z
#    x 5.503510 0.000000 0.000000 
#    y 0.000000 5.305160 0.000000 
#    z 0.000000 0.000000 5.540620 
# 
# 
# High freq. dielectric constant tensor:
#      x y z
#    x 2.192940 0.000000 0.000000 
#    y 0.000000 2.194810 0.000000 
#    z 0.000000 0.000000 2.216480 
# 
# From -- ./inp_files/6550.got.cif
#   From: 2010.03.12/outbox.cif.g09.slc.cpg/sg61_4_cif.got.tgz:6550.got - 2010.04.10 19:05:03.
