data_PCOD8249821
_publ_section_title
;
Structure prediction by ZEFSAII (Michael W. Deem and Ramdas Pophale) SiO2 
 PCOD8249821
Probable space group: P B C A
;
_chemical_formula_sum "Si O2"
_cell_formula_units_Z 32
_cell_length_a 17.599987
_cell_length_b 9.203000
_cell_length_c 8.631387
_cell_angle_alpha 90.000000
_cell_angle_beta 90.000000
_cell_angle_gamma 90.000000
_cell_volume 1398.048888
_symmetry_space_group_name_H-M "P B C A"
_symmetry_group_IT_number 61
_symmetry_cell_setting 'orthorhombic'
loop_
_space_group_symop_operation_xyz
x,y,z
1/2-x,-y,1/2+z
1/2+x,1/2-y,-z
-x,1/2+y,1/2-z
-x,-y,-z
1/2+x,y,1/2-z
1/2-x,1/2+y,z
x,1/2-y,1/2+z
loop_
_atom_site_type_symbol
_atom_site_label
_atom_site_fract_x
_atom_site_fract_y
_atom_site_fract_z
Si Si1 0.711556 0.398990 0.800005
Si Si2 0.704739 0.679769 0.995604
Si Si3 0.545965 0.091764 0.207868
Si Si4 0.541178 0.786394 0.076660
O O1 0.706468 0.564032 0.857176
O O2 0.772629 0.387804 0.661072
O O3 0.736073 0.303906 0.947258
O O4 0.629787 0.346393 0.740373
O O5 0.622210 0.753254 0.001577
O O6 0.488909 0.139699 0.343711
O O7 0.547483 0.916603 0.202037
O O8 0.519875 0.162545 0.048225
#
# Coordination Sequence:
#
# PCOD8249821 Si02
#       4
#     8   8   8   8
#     4  12  25  43  69  98 135 177 225 276 339 404
#     4  12  26  46  69 101 138 178 225 282 337 405
#     4  11  24  43  67  98 133 179 225 279 341 404
#     4  11  25  44  67  97 136 174 225 282 339 403
#
# _framework density 22.889043000000001
#
# number of rings (size 3 to 8) (size 9 to 14) (size 15 to 20)
#    0.000    0.500    0.000    9.000    0.000   12.000 
#    0.000    0.000    0.000    0.000    0.000    0.000 
#    0.000    0.000    0.000    0.000    0.000    0.000 
#
# Total GULP energy -397055.524491 kJ/mol
# GULP energy per Si atom -12407.985140 kJ/mol
# Density = 2.283695 g / cm^3
# Si number density = 22.889043 Si / 1000 Ang^3
#
#
#
# Elastic Constant Matrix: (Units=GPa)
#
#
# Indices 1 2 3 4 5 6 
#
# 1 141.3697 64.8403 35.4581 0.0000 0.0000 0.0000
# 2 64.8403 123.6747 39.7493 0.0000 0.0000 0.0000
# 3 35.4581 39.7493 71.6681 0.0000 0.0000 0.0000
# 4 0.0000 0.0000 0.0000 47.3719 0.0000 0.0000
# 5 0.0000 0.0000 0.0000 0.0000 54.9434 0.0000
# 6 0.0000 0.0000 0.0000 0.0000 0.0000 35.6024
#
#
#
# Elastic Compliance Matrix: (Units=1/GPa)
#
#
# Indices 1 2 3 4 5 6 
#
# 1 0.009639 -0.004284 -0.002393 0.000000 0.000000 0.000000
# 2 -0.004284 0.011744 -0.004394 0.000000 0.000000 0.000000
# 3 -0.002393 -0.004394 0.017574 0.000000 0.000000 0.000000
# 4 0.000000 0.000000 0.000000 0.021110 0.000000 0.000000
# 5 0.000000 0.000000 0.000000 0.000000 0.018201 0.000000
# 6 0.000000 0.000000 0.000000 0.000000 0.000000 0.028088
#
#
# Mechanical properties :
#
#
# Convention : Reuss Voigt Hill
#
# Bulk Modulus (GPa) = 59.47047 68.53420 64.00234
# Shear Modulus (GPa) = 37.28499 40.69451 38.98975
#
# Velocity S-wave (km/s) = 4.04040 4.22109 4.13173
# Velocity P-wave (km/s) = 6.91411 7.33238 7.12631
#
# Compressibility (1/GPa) = 0.01681507
#
# Stress axis : x y z
#
# Youngs Moduli (GPa) = 103.74666 85.14820 56.90238
#
# Poissons Ratio (x) = 0.36482 0.13614
# Poissons Ratio (y) = 0.44450 0.25003
# Poissons Ratio (z) = 0.24822 0.37414
#
# Static dielectric constant tensor:
#      x y z
#    x 4.135800 0.000000 0.000000 
#    y 0.000000 4.175150 0.000000 
#    z 0.000000 0.000000 4.067250 
# 
# 
# High freq. dielectric constant tensor:
#      x y z
#    x 1.914250 0.000000 0.000000 
#    y 0.000000 1.907220 0.000000 
#    z 0.000000 0.000000 1.914400 
# 
# From -- ./inp_files/1672.got.cif
#   From: 2010.03.12/outbox.cif.g09.slc.cpg/sg61_1_cif.got.tgz:1672.got - 2010.04.10 19:05:03.
