data_PCOD8249425
_publ_section_title
;
Structure prediction by ZEFSAII (Michael W. Deem and Ramdas Pophale) SiO2 
 PCOD8249425
Probable space group: P B C A
;
_chemical_formula_sum "Si O2"
_cell_formula_units_Z 56
_cell_length_a 7.910693
_cell_length_b 16.661876
_cell_length_c 20.896721
_cell_angle_alpha 90.000000
_cell_angle_beta 90.000000
_cell_angle_gamma 90.000000
_cell_volume 2754.333809
_symmetry_space_group_name_H-M "P B C A"
_symmetry_group_IT_number 61
_symmetry_cell_setting 'orthorhombic'
loop_
_space_group_symop_operation_xyz
x,y,z
1/2-x,-y,1/2+z
1/2+x,1/2-y,-z
-x,1/2+y,1/2-z
-x,-y,-z
1/2+x,y,1/2-z
1/2-x,1/2+y,z
x,1/2-y,1/2+z
loop_
_atom_site_type_symbol
_atom_site_label
_atom_site_fract_x
_atom_site_fract_y
_atom_site_fract_z
Si Si1 0.255219 0.744499 0.931281
Si Si2 0.492701 0.636917 0.011648
Si Si3 0.475638 0.825410 0.830520
Si Si4 0.064926 0.495477 0.896443
Si Si5 0.270158 0.492452 0.025253
Si Si6 0.075029 0.652922 0.830923
Si Si7 0.718263 0.245545 0.775798
O O1 0.367628 0.706667 0.987439
O O2 0.391686 0.763731 0.878250
O O3 0.129550 0.679369 0.902105
O O4 0.141564 0.821827 0.947572
O O5 0.599683 0.581542 0.961753
O O6 0.367432 0.573992 0.047129
O O7 0.453227 0.912702 0.859250
O O8 0.390887 0.813401 0.760866
O O9 0.668917 0.798185 0.823779
O O10 0.891664 0.519820 0.931039
O O11 0.092498 0.557061 0.837378
O O12 0.214922 0.494911 0.949539
O O13 0.886797 0.685124 0.820077
O O14 0.185120 0.687209 0.773010
#
# Coordination Sequence:
#
# PCOD8249425 Si02
#       7
#     8   8   8   8   8   8   8
#     4  11  24  35  66  90 122 169 206 253 314 360
#     4  11  24  40  58  93 130 162 210 251 298 386
#     4  10  22  41  62  91 120 163 206 263 314 366
#     4  11  22  40  64  91 127 169 199 244 320 380
#     4  10  24  42  56  93 135 165 197 252 296 395
#     4  10  22  41  62  91 120 163 206 263 314 366
#     4   9  22  43  64  88 122 151 222 271 302 358
#
# _framework density 20.331595
#
# number of rings (size 3 to 8) (size 9 to 14) (size 15 to 20)
#    0.000    1.714    2.857    0.000    8.000    1.143 
#    0.000    0.000    0.000    0.000    0.000    0.000 
#    0.000    0.000    0.000    0.000    0.000    0.000 
#
# Total GULP energy -693798.927147 kJ/mol
# GULP energy per Si atom -12389.266556 kJ/mol
# Density = 2.028532 g / cm^3
# Si number density = 20.331595 Si / 1000 Ang^3
#
#
#
# Elastic Constant Matrix: (Units=GPa)
#
#
# Indices 1 2 3 4 5 6 
#
# 1 98.9274 28.0749 20.4884 0.0000 0.0000 0.0000
# 2 28.0749 95.6253 24.7055 0.0000 0.0000 0.0000
# 3 20.4884 24.7055 53.1795 0.0000 0.0000 0.0000
# 4 0.0000 0.0000 0.0000 8.7314 0.0000 0.0000
# 5 0.0000 0.0000 0.0000 0.0000 19.8700 0.0000
# 6 0.0000 0.0000 0.0000 0.0000 0.0000 37.3096
#
#
#
# Elastic Compliance Matrix: (Units=1/GPa)
#
#
# Indices 1 2 3 4 5 6 
#
# 1 0.011502 -0.002536 -0.003253 0.000000 0.000000 0.000000
# 2 -0.002536 0.012443 -0.004803 0.000000 0.000000 0.000000
# 3 -0.003253 -0.004803 0.022289 0.000000 0.000000 0.000000
# 4 0.000000 0.000000 0.000000 0.114529 0.000000 0.000000
# 5 0.000000 0.000000 0.000000 0.000000 0.050327 0.000000
# 6 0.000000 0.000000 0.000000 0.000000 0.000000 0.026803
#
#
# Mechanical properties :
#
#
# Convention : Reuss Voigt Hill
#
# Bulk Modulus (GPa) = 39.92282 43.80776 41.86529
# Shear Modulus (GPa) = 18.69658 24.81309 21.75484
#
# Velocity S-wave (km/s) = 3.03575 3.49724 3.27464
# Velocity P-wave (km/s) = 5.65387 6.15638 5.91047
#
# Compressibility (1/GPa) = 0.02504833
#
# Stress axis : x y z
#
# Youngs Moduli (GPa) = 86.94161 80.36527 44.86503
#
# Poissons Ratio (x) = 0.20384 0.14595
# Poissons Ratio (y) = 0.22052 0.21551
# Poissons Ratio (z) = 0.28282 0.38603
#
# Static dielectric constant tensor:
#      x y z
#    x 4.056920 0.000000 0.000000 
#    y 0.000000 3.710550 0.000000 
#    z 0.000000 0.000000 3.490210 
# 
# 
# High freq. dielectric constant tensor:
#      x y z
#    x 1.815000 0.000000 0.000000 
#    y 0.000000 1.801720 0.000000 
#    z 0.000000 0.000000 1.765360 
# 
# From -- ./inp_files/10130.got.cif
#   From: 2010.03.12/outbox.cif.g09.slc.cpg/sg61_6_cif.got.tgz:10130.got - 2010.04.10 19:05:03.
