data_PCOD8249158
_publ_section_title
;
Structure prediction by ZEFSAII (Michael W. Deem and Ramdas Pophale) SiO2 
 PCOD8249158
Probable space group: P B C A
;
_chemical_formula_sum "Si O2"
_cell_formula_units_Z 48
_cell_length_a 26.366434
_cell_length_b 9.100658
_cell_length_c 9.887272
_cell_angle_alpha 90.000000
_cell_angle_beta 90.000000
_cell_angle_gamma 90.000000
_cell_volume 2372.469688
_symmetry_space_group_name_H-M "P B C A"
_symmetry_group_IT_number 61
_symmetry_cell_setting 'orthorhombic'
loop_
_space_group_symop_operation_xyz
x,y,z
1/2-x,-y,1/2+z
1/2+x,1/2-y,-z
-x,1/2+y,1/2-z
-x,-y,-z
1/2+x,y,1/2-z
1/2-x,1/2+y,z
x,1/2-y,1/2+z
loop_
_atom_site_type_symbol
_atom_site_label
_atom_site_fract_x
_atom_site_fract_y
_atom_site_fract_z
Si Si1 0.534419 0.186941 0.887061
Si Si2 0.133349 0.676757 0.130671
Si Si3 0.481107 0.351610 0.658446
Si Si4 0.690239 0.840451 0.594510
Si Si5 0.706170 0.175317 0.631301
Si Si6 0.648562 0.344188 0.405262
O O1 0.501607 0.301903 0.802958
O O2 0.593749 0.222580 0.868755
O O3 0.521457 0.026290 0.832249
O O4 0.519865 0.202933 0.043932
O O5 0.074032 0.715980 0.126821
O O6 0.150070 0.679716 0.286079
O O7 0.143713 0.517496 0.065323
O O8 0.163752 0.797869 0.046045
O O9 0.737604 0.737055 0.623793
O O10 0.708051 0.008059 0.580246
O O11 0.668140 0.268608 0.540371
O O12 0.687803 0.187617 0.785273
#
# Coordination Sequence:
#
# PCOD8249158 Si02
#       6
#     8   8   8   8   8   8
#     4  10  21  37  58  85 116 150 189 233 280 332
#     4  10  22  39  58  84 116 149 189 233 279 335
#     4  10  21  37  58  85 116 150 189 233 280 332
#     4  11  23  38  58  83 111 146 187 231 281 336
#     4  11  23  38  58  83 111 146 187 231 281 336
#     4  10  22  39  58  84 116 149 189 233 279 335
#
# _framework density 20.232081000000001
#
# number of rings (size 3 to 8) (size 9 to 14) (size 15 to 20)
#    0.000    1.667    0.000    4.000    0.000    7.333 
#    0.000    0.000    0.000    0.000    0.000    0.000 
#    0.000    0.000    0.000    0.000    0.000    0.000 
#
# Total GULP energy -595554.754907 kJ/mol
# GULP energy per Si atom -12407.390727 kJ/mol
# Density = 2.018603 g / cm^3
# Si number density = 20.232081 Si / 1000 Ang^3
#
#
#
# Elastic Constant Matrix: (Units=GPa)
#
#
# Indices 1 2 3 4 5 6 
#
# 1 90.0856 17.7153 -0.9898 0.0000 0.0000 0.0000
# 2 17.7153 55.9457 14.2476 0.0000 0.0000 0.0000
# 3 -0.9898 14.2476 35.8581 0.0000 0.0000 0.0000
# 4 0.0000 0.0000 0.0000 29.5705 0.0000 0.0000
# 5 0.0000 0.0000 0.0000 0.0000 25.9555 0.0000
# 6 0.0000 0.0000 0.0000 0.0000 0.0000 28.6352
#
#
#
# Elastic Compliance Matrix: (Units=1/GPa)
#
#
# Indices 1 2 3 4 5 6 
#
# 1 0.011971 -0.004311 0.002043 0.000000 0.000000 0.000000
# 2 -0.004311 0.021439 -0.008638 0.000000 0.000000 0.000000
# 3 0.002043 -0.008638 0.031376 0.000000 0.000000 0.000000
# 4 0.000000 0.000000 0.000000 0.033818 0.000000 0.000000
# 5 0.000000 0.000000 0.000000 0.000000 0.038527 0.000000
# 6 0.000000 0.000000 0.000000 0.000000 0.000000 0.034922
#
#
# Mechanical properties :
#
#
# Convention : Reuss Voigt Hill
#
# Bulk Modulus (GPa) = 23.26891 27.09284 25.18088
# Shear Modulus (GPa) = 24.01670 26.89334 25.45502
#
# Velocity S-wave (km/s) = 3.44911 3.64983 3.55089
# Velocity P-wave (km/s) = 5.23333 5.58407 5.41154
#
# Compressibility (1/GPa) = 0.04297580
#
# Stress axis : x y z
#
# Youngs Moduli (GPa) = 83.53704 46.64343 31.87142
#
# Poissons Ratio (x) = 0.20108 -0.06512
# Poissons Ratio (y) = 0.36012 0.27529
# Poissons Ratio (z) = -0.17069 0.40288
#
# Static dielectric constant tensor:
#      x y z
#    x 3.824210 0.000000 0.000000 
#    y 0.000000 3.681830 0.000000 
#    z 0.000000 0.000000 3.563200 
# 
# 
# High freq. dielectric constant tensor:
#      x y z
#    x 1.807060 0.000000 0.000000 
#    y 0.000000 1.786970 0.000000 
#    z 0.000000 0.000000 1.793710 
# 
# From -- ./inp_files/1897.got.cif
#   From: 2010.03.12/outbox.cif.g09.slc.cpg/sg61_1_cif.got.tgz:1897.got - 2010.04.10 19:05:03.
