data_PCOD8249550
_publ_section_title
;
Structure prediction by ZEFSAII (Michael W. Deem and Ramdas Pophale) SiO2 
 PCOD8249550
Probable space group: P B C A
;
_chemical_formula_sum "Si O2"
_cell_formula_units_Z 40
_cell_length_a 19.153514
_cell_length_b 9.277696
_cell_length_c 9.288401
_cell_angle_alpha 90.000000
_cell_angle_beta 90.000000
_cell_angle_gamma 90.000000
_cell_volume 1650.553318
_symmetry_space_group_name_H-M "P B C A"
_symmetry_group_IT_number 61
_symmetry_cell_setting 'orthorhombic'
loop_
_space_group_symop_operation_xyz
x,y,z
1/2-x,-y,1/2+z
1/2+x,1/2-y,-z
-x,1/2+y,1/2-z
-x,-y,-z
1/2+x,y,1/2-z
1/2-x,1/2+y,z
x,1/2-y,1/2+z
loop_
_atom_site_type_symbol
_atom_site_label
_atom_site_fract_x
_atom_site_fract_y
_atom_site_fract_z
Si Si1 0.754838 0.859775 0.660493
Si Si2 0.017775 0.158435 0.550262
Si Si3 0.609853 0.326714 0.172641
Si Si4 0.928218 0.086123 0.014646
Si Si5 0.803477 0.369960 0.336718
O O1 0.817833 0.750640 0.702699
O O2 0.693954 0.783846 0.754323
O O3 0.739004 0.863823 0.489434
O O4 0.770666 0.015525 0.725950
O O5 0.059354 0.153885 0.695426
O O6 0.069073 0.229626 0.438427
O O7 0.946682 0.253159 0.569692
O O8 0.000000 0.000000 0.500000
O O9 0.623102 0.491951 0.117915
O O10 0.885155 0.095085 0.865453
O O11 0.000000 0.000000 0.000000
#
# Coordination Sequence:
#
# PCOD8249550 Si02
#       5
#     8   8   8   8   8
#     4  12  26  46  70 102 138 185 237 292 357 425
#     4  11  24  41  69 101 134 179 230 285 346 416
#     4  11  23  45  68  95 137 179 225 285 348 418
#     4  10  23  43  65  96 135 176 223 281 348 420
#     4  12  26  45  70 100 137 181 232 289 350 425
#
# _framework density 24.234299
#
# number of rings (size 3 to 8) (size 9 to 14) (size 15 to 20)
#    0.000    0.800    0.000    8.400    0.000   11.200 
#    0.000    0.000    0.000    0.000    0.000    0.000 
#    0.000    0.000    0.000    0.000    0.000    0.000 
#
# Total GULP energy -495791.746642 kJ/mol
# GULP energy per Si atom -12394.793666 kJ/mol
# Density = 2.417914 g / cm^3
# Si number density = 24.234299 Si / 1000 Ang^3
#
#
#
# Elastic Constant Matrix: (Units=GPa)
#
#
# Indices 1 2 3 4 5 6 
#
# 1 62.4091 12.9255 -4.0163 0.0000 0.0000 0.0000
# 2 12.9255 157.8306 32.1295 0.0000 0.0000 0.0000
# 3 -4.0163 32.1295 106.7499 0.0000 0.0000 0.0000
# 4 0.0000 0.0000 0.0000 47.3245 0.0000 0.0000
# 5 0.0000 0.0000 0.0000 0.0000 42.4235 0.0000
# 6 0.0000 0.0000 0.0000 0.0000 0.0000 25.0054
#
#
#
# Elastic Compliance Matrix: (Units=1/GPa)
#
#
# Indices 1 2 3 4 5 6 
#
# 1 0.016418 -0.001566 0.001089 0.000000 0.000000 0.000000
# 2 -0.001566 0.006899 -0.002135 0.000000 0.000000 0.000000
# 3 0.001089 -0.002135 0.010051 0.000000 0.000000 0.000000
# 4 0.000000 0.000000 0.000000 0.021131 0.000000 0.000000
# 5 0.000000 0.000000 0.000000 0.000000 0.023572 0.000000
# 6 0.000000 0.000000 0.000000 0.000000 0.000000 0.039991
#
#
# Mechanical properties :
#
#
# Convention : Reuss Voigt Hill
#
# Bulk Modulus (GPa) = 35.53276 45.45188 40.49232
# Shear Modulus (GPa) = 37.68811 42.01407 39.85109
#
# Velocity S-wave (km/s) = 3.94782 4.16824 4.05953
# Velocity P-wave (km/s) = 5.95604 6.47778 6.22238
#
# Compressibility (1/GPa) = 0.02814304
#
# Stress axis : x y z
#
# Youngs Moduli (GPa) = 60.90955 144.95141 99.48903
#
# Poissons Ratio (x) = 0.22703 -0.10835
# Poissons Ratio (y) = 0.09540 0.21244
# Poissons Ratio (z) = -0.06634 0.30952
#
# Static dielectric constant tensor:
#      x y z
#    x 4.795710 0.000000 0.000000 
#    y 0.000000 5.025280 0.000000 
#    z 0.000000 0.000000 4.320730 
# 
# 
# High freq. dielectric constant tensor:
#      x y z
#    x 1.979170 0.000000 0.000000 
#    y 0.000000 1.986940 0.000000 
#    z 0.000000 0.000000 1.963700 
# 
# From -- ./inp_files/1773.got.cif
#   From: 2010.03.12/outbox.cif.g09.slc.cpg/sg61_1_cif.got.tgz:1773.got - 2010.04.10 19:05:03.
