data_PCOD8249572
_publ_section_title
;
Structure prediction by ZEFSAII (Michael W. Deem and Ramdas Pophale) SiO2 
 PCOD8249572
Probable space group: P B C A
;
_chemical_formula_sum "Si O2"
_cell_formula_units_Z 56
_cell_length_a 13.267082
_cell_length_b 19.322490
_cell_length_c 9.425678
_cell_angle_alpha 90.000000
_cell_angle_beta 90.000000
_cell_angle_gamma 90.000000
_cell_volume 2416.301391
_symmetry_space_group_name_H-M "P B C A"
_symmetry_group_IT_number 61
_symmetry_cell_setting 'orthorhombic'
loop_
_space_group_symop_operation_xyz
x,y,z
1/2-x,-y,1/2+z
1/2+x,1/2-y,-z
-x,1/2+y,1/2-z
-x,-y,-z
1/2+x,y,1/2-z
1/2-x,1/2+y,z
x,1/2-y,1/2+z
loop_
_atom_site_type_symbol
_atom_site_label
_atom_site_fract_x
_atom_site_fract_y
_atom_site_fract_z
Si Si1 0.572789 0.045893 0.902953
Si Si2 0.009480 0.310993 0.078909
Si Si3 0.140208 0.384099 0.641586
Si Si4 0.888930 0.747992 0.171656
Si Si5 0.707318 0.536004 0.816467
Si Si6 0.007003 0.568842 0.585081
Si Si7 0.719203 0.652417 0.590371
O O1 0.566584 0.120572 0.974251
O O2 0.689469 0.021745 0.903150
O O3 0.534678 0.054539 0.742161
O O4 0.500000 0.000000 0.000000
O O5 0.891082 0.318248 0.068133
O O6 0.033946 0.295663 0.241808
O O7 0.058784 0.251867 0.982202
O O8 0.116197 0.329364 0.764434
O O9 0.153777 0.461010 0.711274
O O10 0.057313 0.378006 0.511989
O O11 0.244411 0.361938 0.568875
O O12 0.781324 0.786293 0.167844
O O13 0.627618 0.585042 0.903140
O O14 0.728508 0.578790 0.672480
O O15 0.000000 0.500000 0.500000
#
# Coordination Sequence:
#
# PCOD8249572 Si02
#       7
#     8   8   8   8   8   8   8
#     4  12  25  45  74 113 148 191 260 318 379 455
#     4  12  28  47  77 106 152 202 253 323 376 472
#     4  11  25  50  72 113 153 201 258 319 387 464
#     4  12  28  51  74 108 157 200 260 317 391 467
#     4  11  24  44  78 108 149 201 248 322 385 444
#     4  10  23  44  69 103 151 193 237 317 381 448
#     4  12  25  51  77 111 151 205 260 314 390 465
#
# _framework density 23.175916999999998
#
# number of rings (size 3 to 8) (size 9 to 14) (size 15 to 20)
#    0.000    0.571    5.714    0.857    6.000    0.000 
#    2.571    0.000    0.000    0.000    0.000    0.000 
#    0.000    0.000    0.000    0.000    0.000    0.000 
#
# Total GULP energy -693946.857349 kJ/mol
# GULP energy per Si atom -12391.908167 kJ/mol
# Density = 2.312317 g / cm^3
# Si number density = 23.175917 Si / 1000 Ang^3
#
#
#
# Elastic Constant Matrix: (Units=GPa)
#
#
# Indices 1 2 3 4 5 6 
#
# 1 146.8202 28.0958 16.6664 0.0000 0.0000 0.0000
# 2 28.0958 105.6642 20.6474 0.0000 0.0000 0.0000
# 3 16.6664 20.6474 82.7864 0.0000 0.0000 0.0000
# 4 0.0000 0.0000 0.0000 38.6035 0.0000 0.0000
# 5 0.0000 0.0000 0.0000 0.0000 31.6782 0.0000
# 6 0.0000 0.0000 0.0000 0.0000 0.0000 28.2497
#
#
#
# Elastic Compliance Matrix: (Units=1/GPa)
#
#
# Indices 1 2 3 4 5 6 
#
# 1 0.007259 -0.001729 -0.001030 0.000000 0.000000 0.000000
# 2 -0.001729 0.010361 -0.002236 0.000000 0.000000 0.000000
# 3 -0.001030 -0.002236 0.012844 0.000000 0.000000 0.000000
# 4 0.000000 0.000000 0.000000 0.025904 0.000000 0.000000
# 5 0.000000 0.000000 0.000000 0.000000 0.031567 0.000000
# 6 0.000000 0.000000 0.000000 0.000000 0.000000 0.035399
#
#
# Mechanical properties :
#
#
# Convention : Reuss Voigt Hill
#
# Bulk Modulus (GPa) = 48.84271 51.78778 50.31525
# Shear Modulus (GPa) = 35.67641 37.69701 36.68671
#
# Velocity S-wave (km/s) = 3.92774 4.03744 3.98297
# Velocity P-wave (km/s) = 6.45678 6.64293 6.55052
#
# Compressibility (1/GPa) = 0.02047389
#
# Stress axis : x y z
#
# Youngs Moduli (GPa) = 137.76348 96.52004 77.85544
#
# Poissons Ratio (x) = 0.16686 0.08020
# Poissons Ratio (y) = 0.23817 0.17408
# Poissons Ratio (z) = 0.14192 0.21581
#
# Static dielectric constant tensor:
#      x y z
#    x 5.346730 0.000000 0.000000 
#    y 0.000000 4.282720 0.000000 
#    z 0.000000 0.000000 4.536850 
# 
# 
# High freq. dielectric constant tensor:
#      x y z
#    x 1.922950 0.000000 0.000000 
#    y 0.000000 1.927060 0.000000 
#    z 0.000000 0.000000 1.916150 
# 
# From -- ./inp_files/3055.got.cif
#   From: 2010.03.12/outbox.cif.g09.slc.cpg/sg61_2_cif.got.tgz:3055.got - 2010.04.10 19:05:03.
