data_PCOD8249014
_publ_section_title
;
Structure prediction by ZEFSAII (Michael W. Deem and Ramdas Pophale) SiO2 
 PCOD8249014
Probable space group: P B C A
;
_chemical_formula_sum "Si O2"
_cell_formula_units_Z 64
_cell_length_a 8.185634
_cell_length_b 24.359993
_cell_length_c 14.754942
_cell_angle_alpha 90.000000
_cell_angle_beta 90.000000
_cell_angle_gamma 90.000000
_cell_volume 2942.164752
_symmetry_space_group_name_H-M "P B C A"
_symmetry_group_IT_number 61
_symmetry_cell_setting 'orthorhombic'
loop_
_space_group_symop_operation_xyz
x,y,z
1/2-x,-y,1/2+z
1/2+x,1/2-y,-z
-x,1/2+y,1/2-z
-x,-y,-z
1/2+x,y,1/2-z
1/2-x,1/2+y,z
x,1/2-y,1/2+z
loop_
_atom_site_type_symbol
_atom_site_label
_atom_site_fract_x
_atom_site_fract_y
_atom_site_fract_z
Si Si1 0.946425 0.043012 0.301025
Si Si2 0.791504 0.035211 0.702232
Si Si3 0.170444 0.773461 0.476539
Si Si4 0.492775 0.893392 0.326819
Si Si5 0.529993 0.293526 0.306948
Si Si6 0.496766 0.167920 0.496717
Si Si7 0.336588 0.885994 0.668243
Si Si8 0.830647 0.223156 0.323625
O O1 0.817986 0.075883 0.364242
O O2 0.055857 0.086109 0.245414
O O3 0.839696 0.009466 0.230511
O O4 0.066314 0.998789 0.352730
O O5 0.685294 0.080044 0.647121
O O6 0.875896 0.062872 0.790522
O O7 0.359056 0.790771 0.471898
O O8 0.097744 0.789497 0.575814
O O9 0.078430 0.805313 0.395782
O O10 0.148087 0.707584 0.461078
O O11 0.458531 0.849192 0.248779
O O12 0.565463 0.866740 0.417489
O O13 0.709585 0.275210 0.337277
O O14 0.465842 0.241950 0.247586
O O15 0.552803 0.126259 0.418978
O O16 0.263259 0.830549 0.712442
#
# Coordination Sequence:
#
# PCOD8249014 Si02
#       8
#     8   8   8   8   8   8   8   8
#     4   9  19  40  62  86 114 149 210 262 309 374
#     4   9  20  38  64  86 113 149 207 264 308 365
#     4  11  22  40  52  88 135 168 205 254 297 364
#     4  11  21  38  62  91 116 166 206 251 313 375
#     4  12  22  37  62  88 126 172 206 245 311 373
#     4  11  23  39  57  87 131 163 208 256 300 377
#     4  10  20  38  60  86 119 162 197 255 316 363
#     4  11  23  36  57  92 125 167 206 249 298 382
#
# _framework density 21.752690000000001
#
# number of rings (size 3 to 8) (size 9 to 14) (size 15 to 20)
#    0.000    1.500    3.750    3.000    0.000    0.000 
#    0.000    6.250    0.000    1.500    0.000    0.000 
#    0.000    0.000    0.000    0.000    0.000    0.000 
#
# Total GULP energy -792977.273196 kJ/mol
# GULP energy per Si atom -12390.269894 kJ/mol
# Density = 2.170318 g / cm^3
# Si number density = 21.752690 Si / 1000 Ang^3
#
#
#
# Elastic Constant Matrix: (Units=GPa)
#
#
# Indices 1 2 3 4 5 6 
#
# 1 39.4197 20.1873 0.5910 0.0000 0.0000 0.0000
# 2 20.1873 97.4910 20.3657 0.0000 0.0000 0.0000
# 3 0.5910 20.3657 73.5653 0.0000 0.0000 0.0000
# 4 0.0000 0.0000 0.0000 12.6256 0.0000 0.0000
# 5 0.0000 0.0000 0.0000 0.0000 22.5715 0.0000
# 6 0.0000 0.0000 0.0000 0.0000 0.0000 50.2282
#
#
#
# Elastic Compliance Matrix: (Units=1/GPa)
#
#
# Indices 1 2 3 4 5 6 
#
# 1 0.028531 -0.006220 0.001493 0.000000 0.000000 0.000000
# 2 -0.006220 0.012243 -0.003339 0.000000 0.000000 0.000000
# 3 0.001493 -0.003339 0.014506 0.000000 0.000000 0.000000
# 4 0.000000 0.000000 0.000000 0.079204 0.000000 0.000000
# 5 0.000000 0.000000 0.000000 0.000000 0.044304 0.000000
# 6 0.000000 0.000000 0.000000 0.000000 0.000000 0.019909
#
#
# Mechanical properties :
#
#
# Convention : Reuss Voigt Hill
#
# Bulk Modulus (GPa) = 25.54489 32.52933 29.03711
# Shear Modulus (GPa) = 21.94154 28.37385 25.15770
#
# Velocity S-wave (km/s) = 3.17942 3.61554 3.40447
# Velocity P-wave (km/s) = 5.02465 5.69352 5.36951
#
# Compressibility (1/GPa) = 0.03914678
#
# Stress axis : x y z
#
# Youngs Moduli (GPa) = 35.04990 81.68053 68.93778
#
# Poissons Ratio (x) = 0.50802 -0.10290
# Poissons Ratio (y) = 0.21800 0.23021
# Poissons Ratio (z) = -0.05232 0.27276
#
# Static dielectric constant tensor:
#      x y z
#    x 4.272680 0.000000 0.000000 
#    y 0.000000 4.348510 0.000000 
#    z 0.000000 0.000000 3.592300 
# 
# 
# High freq. dielectric constant tensor:
#      x y z
#    x 1.865040 0.000000 0.000000 
#    y 0.000000 1.865770 0.000000 
#    z 0.000000 0.000000 1.812170 
# 
# From -- ./inp_files/4327.got.cif
#   From: 2010.03.12/outbox.cif.g09.slc.cpg/sg61_3_cif.got.tgz:4327.got - 2010.04.10 19:05:03.
