data_PCOD8249267
_publ_section_title
;
Structure prediction by ZEFSAII (Michael W. Deem and Ramdas Pophale) SiO2 
 PCOD8249267
Probable space group: P B C A
;
_chemical_formula_sum "Si O2"
_cell_formula_units_Z 64
_cell_length_a 21.528497
_cell_length_b 14.135090
_cell_length_c 9.803196
_cell_angle_alpha 90.000000
_cell_angle_beta 90.000000
_cell_angle_gamma 90.000000
_cell_volume 2983.183544
_symmetry_space_group_name_H-M "P B C A"
_symmetry_group_IT_number 61
_symmetry_cell_setting 'orthorhombic'
loop_
_space_group_symop_operation_xyz
x,y,z
1/2-x,-y,1/2+z
1/2+x,1/2-y,-z
-x,1/2+y,1/2-z
-x,-y,-z
1/2+x,y,1/2-z
1/2-x,1/2+y,z
x,1/2-y,1/2+z
loop_
_atom_site_type_symbol
_atom_site_label
_atom_site_fract_x
_atom_site_fract_y
_atom_site_fract_z
Si Si1 0.822064 0.486459 0.087723
Si Si2 0.549754 0.416492 0.626199
Si Si3 0.102468 0.234392 0.784460
Si Si4 0.683985 0.682028 0.959879
Si Si5 0.372178 0.291919 0.316823
Si Si6 0.185286 0.277134 0.542834
Si Si7 0.499752 0.888083 0.166152
Si Si8 0.278123 0.516829 0.121336
O O1 0.883616 0.547544 0.075633
O O2 0.835451 0.376601 0.109530
O O3 0.778499 0.523225 0.213622
O O4 0.789991 0.501159 0.940972
O O5 0.560125 0.329469 0.730378
O O6 0.510796 0.380862 0.496269
O O7 0.514795 0.502431 0.703959
O O8 0.160871 0.234716 0.684076
O O9 0.059643 0.143658 0.753799
O O10 0.129791 0.233831 0.935628
O O11 0.658640 0.736659 0.826771
O O12 0.753354 0.718142 0.997074
O O13 0.679086 0.570552 0.927174
O O14 0.637565 0.701450 0.085635
O O15 0.443880 0.318337 0.296012
O O16 0.196740 0.388271 0.553955
#
# Coordination Sequence:
#
# PCOD8249267 Si02
#       8
#     8   8   8   8   8   8   8   8
#     4  10  21  40  63  92 129 169 211 270 321 397
#     4  10  21  44  67  91 131 178 221 273 328 391
#     4  12  24  43  69  98 131 176 217 283 326 396
#     4  11  24  42  63  96 129 176 206 278 332 394
#     4  10  23  41  64  90 131 163 224 261 326 397
#     4  12  25  43  67  99 134 170 225 270 338 402
#     4  10  24  43  68  96 127 178 226 265 332 402
#     4  11  24  38  63  95 133 166 216 268 336 388
#
# _framework density 21.453589999999998
#
# number of rings (size 3 to 8) (size 9 to 14) (size 15 to 20)
#    0.000    1.250    3.750    1.500    5.250    0.000 
#    2.250    0.625    0.000    0.000    0.000    0.000 
#    0.000    0.000    0.000    0.000    0.000    0.000 
#
# Total GULP energy -793707.985072 kJ/mol
# GULP energy per Si atom -12401.687267 kJ/mol
# Density = 2.140476 g / cm^3
# Si number density = 21.453590 Si / 1000 Ang^3
#
#
#
# Elastic Constant Matrix: (Units=GPa)
#
#
# Indices 1 2 3 4 5 6 
#
# 1 79.7086 32.9747 24.6511 0.0000 0.0000 0.0000
# 2 32.9747 80.7563 10.9568 0.0000 0.0000 0.0000
# 3 24.6511 10.9568 52.4724 0.0000 0.0000 0.0000
# 4 0.0000 0.0000 0.0000 27.0095 0.0000 0.0000
# 5 0.0000 0.0000 0.0000 0.0000 31.3650 0.0000
# 6 0.0000 0.0000 0.0000 0.0000 0.0000 29.4722
#
#
#
# Elastic Compliance Matrix: (Units=1/GPa)
#
#
# Indices 1 2 3 4 5 6 
#
# 1 0.017165 -0.006087 -0.006793 0.000000 0.000000 0.000000
# 2 -0.006087 0.014903 -0.000252 0.000000 0.000000 0.000000
# 3 -0.006793 -0.000252 0.022301 0.000000 0.000000 0.000000
# 4 0.000000 0.000000 0.000000 0.037024 0.000000 0.000000
# 5 0.000000 0.000000 0.000000 0.000000 0.031883 0.000000
# 6 0.000000 0.000000 0.000000 0.000000 0.000000 0.033930
#
#
# Mechanical properties :
#
#
# Convention : Reuss Voigt Hill
#
# Bulk Modulus (GPa) = 35.58121 38.90028 37.24075
# Shear Modulus (GPa) = 25.92850 27.19299 26.56075
#
# Velocity S-wave (km/s) = 3.48024 3.56410 3.52242
# Velocity P-wave (km/s) = 5.72457 5.92526 5.82578
#
# Compressibility (1/GPa) = 0.02810472
#
# Stress axis : x y z
#
# Youngs Moduli (GPa) = 58.25927 67.10214 44.84013
#
# Poissons Ratio (x) = 0.40846 0.30459
# Poissons Ratio (y) = 0.35463 0.01131
# Poissons Ratio (z) = 0.39574 0.01692
#
# Static dielectric constant tensor:
#      x y z
#    x 3.828100 0.000000 0.000000 
#    y 0.000000 4.086490 0.000000 
#    z 0.000000 0.000000 3.715010 
# 
# 
# High freq. dielectric constant tensor:
#      x y z
#    x 1.836100 0.000000 0.000000 
#    y 0.000000 1.849980 0.000000 
#    z 0.000000 0.000000 1.829650 
# 
# From -- ./inp_files/4320.got.cif
#   From: 2010.03.12/outbox.cif.g09.slc.cpg/sg61_3_cif.got.tgz:4320.got - 2010.04.10 19:05:03.
