data_PCOD8249173
_publ_section_title
;
Structure prediction by ZEFSAII (Michael W. Deem and Ramdas Pophale) SiO2 
 PCOD8249173
Probable space group: P B C A
;
_chemical_formula_sum "Si O2"
_cell_formula_units_Z 40
_cell_length_a 12.923777
_cell_length_b 4.878950
_cell_length_c 27.604263
_cell_angle_alpha 90.000000
_cell_angle_beta 90.000000
_cell_angle_gamma 90.000000
_cell_volume 1740.571947
_symmetry_space_group_name_H-M "P B C A"
_symmetry_group_IT_number 61
_symmetry_cell_setting 'orthorhombic'
loop_
_space_group_symop_operation_xyz
x,y,z
1/2-x,-y,1/2+z
1/2+x,1/2-y,-z
-x,1/2+y,1/2-z
-x,-y,-z
1/2+x,y,1/2-z
1/2-x,1/2+y,z
x,1/2-y,1/2+z
loop_
_atom_site_type_symbol
_atom_site_label
_atom_site_fract_x
_atom_site_fract_y
_atom_site_fract_z
Si Si1 0.474405 0.114765 0.778884
Si Si2 0.822282 0.771997 0.559621
Si Si3 0.513814 0.918810 0.114711
Si Si4 0.318239 0.743536 0.552576
Si Si5 0.317585 0.389331 0.838831
O O1 0.547210 0.342156 0.752803
O O2 0.522586 0.007243 0.830180
O O3 0.366422 0.282564 0.787858
O O4 0.769185 0.484763 0.574083
O O5 0.850696 0.789669 0.503220
O O6 0.930051 0.827453 0.587695
O O7 0.417096 0.815314 0.084646
O O8 0.597607 0.672588 0.119285
O O9 0.221715 0.546431 0.564568
O O10 0.290472 0.713593 0.843445
#
# Coordination Sequence:
#
# PCOD8249173 Si02
#       5
#     8   8   8   8   8
#     4  10  23  40  60  86 126 156 200 252 303 358
#     4  10  21  38  63  95 125 155 204 255 309 370
#     4  10  23  38  69  84 133 155 212 249 318 353
#     4  10  23  41  59  89 127 167 208 246 301 376
#     4  10  21  37  63  92 117 152 198 253 302 352
#
# _framework density 22.980948999999999
#
# number of rings (size 3 to 8) (size 9 to 14) (size 15 to 20)
#    1.200    0.800    0.000    3.000    0.000    6.400 
#    0.000   12.000    0.000    0.000    0.000    0.000 
#    0.000    0.000    0.000    0.000    0.000    0.000 
#
# Total GULP energy -495638.656460 kJ/mol
# GULP energy per Si atom -12390.966411 kJ/mol
# Density = 2.292864 g / cm^3
# Si number density = 22.980949 Si / 1000 Ang^3
#
#
#
# Elastic Constant Matrix: (Units=GPa)
#
#
# Indices 1 2 3 4 5 6 
#
# 1 80.9098 11.8164 56.1104 0.0000 0.0000 0.0000
# 2 11.8164 97.9381 37.1243 0.0000 0.0000 0.0000
# 3 56.1104 37.1243 134.3606 0.0000 0.0000 0.0000
# 4 0.0000 0.0000 0.0000 27.8451 0.0000 0.0000
# 5 0.0000 0.0000 0.0000 0.0000 28.3691 0.0000
# 6 0.0000 0.0000 0.0000 0.0000 0.0000 23.1520
#
#
#
# Elastic Compliance Matrix: (Units=1/GPa)
#
#
# Indices 1 2 3 4 5 6 
#
# 1 0.017445 0.000734 -0.007488 0.000000 0.000000 0.000000
# 2 0.000734 0.011436 -0.003466 0.000000 0.000000 0.000000
# 3 -0.007488 -0.003466 0.011527 0.000000 0.000000 0.000000
# 4 0.000000 0.000000 0.000000 0.035913 0.000000 0.000000
# 5 0.000000 0.000000 0.000000 0.000000 0.035250 0.000000
# 6 0.000000 0.000000 0.000000 0.000000 0.000000 0.043193
#
#
# Mechanical properties :
#
#
# Convention : Reuss Voigt Hill
#
# Bulk Modulus (GPa) = 50.08151 58.14562 54.11357
# Shear Modulus (GPa) = 27.49357 29.75040 28.62199
#
# Velocity S-wave (km/s) = 3.46260 3.60191 3.53294
# Velocity P-wave (km/s) = 6.15029 6.53108 6.34354
#
# Compressibility (1/GPa) = 0.01996745
#
# Stress axis : x y z
#
# Youngs Moduli (GPa) = 57.32252 87.44397 86.74969
#
# Poissons Ratio (x) = -0.06415 0.64958
# Poissons Ratio (y) = -0.04205 0.30069
# Poissons Ratio (z) = 0.42923 0.30309
#
# Static dielectric constant tensor:
#      x y z
#    x 3.784410 0.000000 0.000000 
#    y 0.000000 4.128500 0.000000 
#    z 0.000000 0.000000 4.407390 
# 
# 
# High freq. dielectric constant tensor:
#      x y z
#    x 1.880090 0.000000 0.000000 
#    y 0.000000 1.920100 0.000000 
#    z 0.000000 0.000000 1.919260 
# 
# From -- ./inp_files/11417.got.cif
#   From: 2010.03.12/outbox.cif.g09.slc.cpg/sg61_6_cif.got.tgz:11417.got - 2010.04.10 19:05:03.
