data_PCOD8249718
_publ_section_title
;
Structure prediction by ZEFSAII (Michael W. Deem and Ramdas Pophale) SiO2 
 PCOD8249718
Probable space group: P B C A
;
_chemical_formula_sum "Si O2"
_cell_formula_units_Z 40
_cell_length_a 14.499208
_cell_length_b 7.759706
_cell_length_c 15.663885
_cell_angle_alpha 90.000000
_cell_angle_beta 90.000000
_cell_angle_gamma 90.000000
_cell_volume 1762.337300
_symmetry_space_group_name_H-M "P B C A"
_symmetry_group_IT_number 61
_symmetry_cell_setting 'orthorhombic'
loop_
_space_group_symop_operation_xyz
x,y,z
1/2-x,-y,1/2+z
1/2+x,1/2-y,-z
-x,1/2+y,1/2-z
-x,-y,-z
1/2+x,y,1/2-z
1/2-x,1/2+y,z
x,1/2-y,1/2+z
loop_
_atom_site_type_symbol
_atom_site_label
_atom_site_fract_x
_atom_site_fract_y
_atom_site_fract_z
Si Si1 0.873756 0.280184 0.395318
Si Si2 0.235942 0.461579 0.517605
Si Si3 0.926275 0.871170 0.097759
Si Si4 0.358453 0.317781 0.793527
Si Si5 0.676429 0.439245 0.648573
O O1 0.827486 0.140141 0.456502
O O2 0.799637 0.436300 0.398341
O O3 0.896500 0.211872 0.301400
O O4 0.969768 0.346345 0.437187
O O5 0.145666 0.363661 0.480644
O O6 0.269971 0.585725 0.441569
O O7 0.904205 0.702225 0.156132
O O8 0.921206 0.045111 0.155054
O O9 0.254824 0.391492 0.782053
O O10 0.360879 0.132908 0.841168
#
# Coordination Sequence:
#
# PCOD8249718 Si02
#       5
#     8   8   8   8   8
#     4  12  26  43  72 108 136 183 242 296 338 417
#     4  11  22  47  69 101 141 183 233 293 347 413
#     4  11  25  46  71  99 146 186 233 283 359 416
#     4  11  23  43  70 101 142 182 234 283 348 416
#     4  11  21  45  73  93 144 196 217 280 364 410
#
# _framework density 22.697130000000001
#
# number of rings (size 3 to 8) (size 9 to 14) (size 15 to 20)
#    0.000    0.800    6.000    3.000    2.800    0.800 
#    3.600    0.000    0.000    0.000    0.000    0.000 
#    0.000    0.000    0.000    0.000    0.000    0.000 
#
# Total GULP energy -495631.500051 kJ/mol
# GULP energy per Si atom -12390.787501 kJ/mol
# Density = 2.264547 g / cm^3
# Si number density = 22.697130 Si / 1000 Ang^3
#
#
#
# Elastic Constant Matrix: (Units=GPa)
#
#
# Indices 1 2 3 4 5 6 
#
# 1 85.9117 42.5858 27.7926 0.0000 0.0000 0.0000
# 2 42.5858 143.8828 14.1965 0.0000 0.0000 0.0000
# 3 27.7926 14.1965 55.6679 0.0000 0.0000 0.0000
# 4 0.0000 0.0000 0.0000 23.0865 0.0000 0.0000
# 5 0.0000 0.0000 0.0000 0.0000 23.7521 0.0000
# 6 0.0000 0.0000 0.0000 0.0000 0.0000 38.8945
#
#
#
# Elastic Compliance Matrix: (Units=1/GPa)
#
#
# Indices 1 2 3 4 5 6 
#
# 1 0.015860 -0.004014 -0.006895 0.000000 0.000000 0.000000
# 2 -0.004014 0.008145 -0.000073 0.000000 0.000000 0.000000
# 3 -0.006895 -0.000073 0.021425 0.000000 0.000000 0.000000
# 4 0.000000 0.000000 0.000000 0.043315 0.000000 0.000000
# 5 0.000000 0.000000 0.000000 0.000000 0.042102 0.000000
# 6 0.000000 0.000000 0.000000 0.000000 0.000000 0.025711
#
#
# Mechanical properties :
#
#
# Convention : Reuss Voigt Hill
#
# Bulk Modulus (GPa) = 42.61418 50.51245 46.56331
# Shear Modulus (GPa) = 26.83229 30.53913 28.68571
#
# Velocity S-wave (km/s) = 3.44203 3.67209 3.55892
# Velocity P-wave (km/s) = 5.88325 6.34684 6.11943
#
# Compressibility (1/GPa) = 0.02346637
#
# Stress axis : x y z
#
# Youngs Moduli (GPa) = 63.05211 122.76954 46.67550
#
# Poissons Ratio (x) = 0.49278 0.32181
# Poissons Ratio (y) = 0.25308 0.00342
# Poissons Ratio (z) = 0.43471 0.00900
#
# Static dielectric constant tensor:
#      x y z
#    x 3.959540 0.000000 0.000000 
#    y 0.000000 4.219140 0.000000 
#    z 0.000000 0.000000 3.792360 
# 
# 
# High freq. dielectric constant tensor:
#      x y z
#    x 1.888880 0.000000 0.000000 
#    y 0.000000 1.908750 0.000000 
#    z 0.000000 0.000000 1.873610 
# 
# From -- ./inp_files/7706.got.cif
#   From: 2010.03.12/outbox.cif.g09.slc.cpg/sg61_4_cif.got.tgz:7706.got - 2010.04.10 19:05:03.
