data_PCOD8249964
_publ_section_title
;
Structure prediction by ZEFSAII (Michael W. Deem and Ramdas Pophale) SiO2 
 PCOD8249964
Probable space group: P N M A
;
_chemical_formula_sum "Si O2"
_cell_formula_units_Z 64
_cell_length_a 5.222438
_cell_length_b 28.683326
_cell_length_c 24.574049
_cell_angle_alpha 90.000000
_cell_angle_beta 90.000000
_cell_angle_gamma 90.000000
_cell_volume 3681.116156
_symmetry_space_group_name_H-M "P N M A"
_symmetry_group_IT_number 62
_symmetry_cell_setting 'orthorhombic'
loop_
_space_group_symop_operation_xyz
x,y,z
1/2-x,-y,1/2+z
1/2+x,1/2-y,1/2-z
-x,1/2+y,-z
-x,-y,-z
1/2+x,y,1/2-z
1/2-x,1/2+y,1/2+z
x,1/2-y,z
loop_
_atom_site_type_symbol
_atom_site_label
_atom_site_fract_x
_atom_site_fract_y
_atom_site_fract_z
Si Si1 0.230131 0.305476 0.455655
Si Si2 0.704490 0.605356 0.192481
Si Si3 0.699978 0.303562 0.642724
Si Si4 0.788540 0.803674 0.423657
Si Si5 0.267463 0.805328 0.607716
Si Si6 0.811945 0.965933 0.783610
Si Si7 0.246085 0.636378 0.714289
Si Si8 0.703184 0.565896 0.314626
O O1 0.215863 0.250000 0.458054
O O2 0.224717 0.327095 0.516568
O O3 0.486955 0.322589 0.426070
O O4 0.985054 0.324249 0.422555
O O5 0.742495 0.661690 0.193527
O O6 0.668605 0.583217 0.251885
O O7 0.445725 0.592273 0.159086
O O8 0.936931 0.581901 0.158331
O O9 0.685345 0.250000 0.663845
O O10 0.435462 0.322029 0.616144
O O11 0.927537 0.310287 0.599574
O O12 0.720666 0.750000 0.431608
O O13 0.265361 0.750000 0.613784
O O14 0.281383 0.825875 0.667831
O O15 0.607005 0.969716 0.734747
O O16 0.760432 0.010333 0.822186
O O17 0.766854 0.915776 0.811980
O O18 0.468416 0.643479 0.758797
#
# Coordination Sequence:
#
# PCOD8249964 Si02
#       8
#     8   8   8   8   8   8   8   8
#     4   9  17  30  49  67  87 120 159 196 223 256
#     4  10  18  28  45  65  88 119 153 183 228 266
#     4  10  19  30  43  65  97 122 146 185 227 277
#     4   9  17  30  47  65  88 120 152 188 237 266
#     4  10  19  31  46  68  97 126 159 187 212 260
#     4  10  16  30  47  65  86 116 147 192 238 252
#     4  10  21  31  46  68  97 130 151 186 219 272
#     4  10  17  30  45  63  86 119 149 195 228 259
#
# _framework density 17.386029000000001
#
# number of rings (size 3 to 8) (size 9 to 14) (size 15 to 20)
#    0.000    2.250    2.500    2.250    0.000    3.500 
#    0.000    2.500    0.000    0.000    0.000    0.000 
#    0.000   20.000    0.000    0.000    0.000    0.000 
#
# Total GULP energy -792969.980739 kJ/mol
# GULP energy per Si atom -12390.155949 kJ/mol
# Density = 1.734646 g / cm^3
# Si number density = 17.386029 Si / 1000 Ang^3
#
#
#
# Elastic Constant Matrix: (Units=GPa)
#
#
# Indices 1 2 3 4 5 6 
#
# 1 122.3706 11.1845 -0.6631 0.0000 0.0000 0.0000
# 2 11.1845 50.2353 10.4381 0.0000 0.0000 0.0000
# 3 -0.6631 10.4381 25.2338 0.0000 0.0000 0.0000
# 4 0.0000 0.0000 0.0000 2.3033 0.0000 0.0000
# 5 0.0000 0.0000 0.0000 0.0000 16.2607 0.0000
# 6 0.0000 0.0000 0.0000 0.0000 0.0000 18.6995
#
#
#
# Elastic Compliance Matrix: (Units=1/GPa)
#
#
# Indices 1 2 3 4 5 6 
#
# 1 0.008369 -0.002088 0.001084 0.000000 0.000000 0.000000
# 2 -0.002088 0.022299 -0.009279 0.000000 0.000000 0.000000
# 3 0.001084 -0.009279 0.043496 0.000000 0.000000 0.000000
# 4 0.000000 0.000000 0.000000 0.434169 0.000000 0.000000
# 5 0.000000 0.000000 0.000000 0.000000 0.061498 0.000000
# 6 0.000000 0.000000 0.000000 0.000000 0.000000 0.053477
#
#
# Mechanical properties :
#
#
# Convention : Reuss Voigt Hill
#
# Bulk Modulus (GPa) = 18.65785 26.63985 22.64885
# Shear Modulus (GPa) = 7.55583 19.24471 13.40027
#
# Velocity S-wave (km/s) = 2.08695 3.33063 2.77925
# Velocity P-wave (km/s) = 4.06964 5.49059 4.83263
#
# Compressibility (1/GPa) = 0.05359673
#
# Stress axis : x y z
#
# Youngs Moduli (GPa) = 119.49359 44.84444 22.99055
#
# Poissons Ratio (x) = 0.09365 -0.02492
# Poissons Ratio (y) = 0.24955 0.21333
# Poissons Ratio (z) = -0.12951 0.41611
#
# Static dielectric constant tensor:
#      x y z
#    x 4.101540 0.000000 0.000000 
#    y 0.000000 3.212690 0.000000 
#    z 0.000000 0.000000 2.826120 
# 
# 
# High freq. dielectric constant tensor:
#      x y z
#    x 1.710360 0.000000 0.000000 
#    y 0.000000 1.650860 0.000000 
#    z 0.000000 0.000000 1.610500 
# 
# From -- ./inp_files/28481.got.cif
#   From: 2010.03.12/outbox.cif.g09.slc.cpg/sg62_15_cif.got.tgz:28481.got - 2010.04.10 19:12:36.
