data_PCOD8249574
_publ_section_title
;
Structure prediction by ZEFSAII (Michael W. Deem and Ramdas Pophale) SiO2 
 PCOD8249574
Probable space group: P B C A
;
_chemical_formula_sum "Si O2"
_cell_formula_units_Z 56
_cell_length_a 12.924318
_cell_length_b 8.356544
_cell_length_c 21.538798
_cell_angle_alpha 90.000000
_cell_angle_beta 90.000000
_cell_angle_gamma 90.000000
_cell_volume 2326.246875
_symmetry_space_group_name_H-M "P B C A"
_symmetry_group_IT_number 61
_symmetry_cell_setting 'orthorhombic'
loop_
_space_group_symop_operation_xyz
x,y,z
1/2-x,-y,1/2+z
1/2+x,1/2-y,-z
-x,1/2+y,1/2-z
-x,-y,-z
1/2+x,y,1/2-z
1/2-x,1/2+y,z
x,1/2-y,1/2+z
loop_
_atom_site_type_symbol
_atom_site_label
_atom_site_fract_x
_atom_site_fract_y
_atom_site_fract_z
Si Si1 0.643429 0.271804 0.227059
Si Si2 0.679634 0.752149 0.818627
Si Si3 0.228189 0.501146 0.592027
Si Si4 0.391225 0.771811 0.028020
Si Si5 0.464548 0.391947 0.777412
Si Si6 0.813618 0.878395 0.595416
Si Si7 0.105431 0.734196 0.903422
O O1 0.742379 0.322301 0.267350
O O2 0.570000 0.425680 0.217950
O O3 0.587174 0.128270 0.265589
O O4 0.680413 0.210880 0.160776
O O5 0.728934 0.904882 0.850393
O O6 0.652947 0.629869 0.874634
O O7 0.576719 0.806399 0.784668
O O8 0.160606 0.398046 0.544335
O O9 0.325344 0.583651 0.557830
O O10 0.510588 0.775411 0.048582
O O11 0.390657 0.795465 0.953891
O O12 0.436305 0.291729 0.837731
O O13 0.694186 0.856388 0.571881
O O14 0.840790 0.062618 0.603946
#
# Coordination Sequence:
#
# PCOD8249574 Si02
#       7
#     8   8   8   8   8   8   8
#     4  12  27  44  70 111 149 195 243 311 388 450
#     4  11  23  43  67 102 147 180 235 303 373 441
#     4  10  23  44  73 106 144 191 244 308 363 449
#     4  11  26  51  75 107 151 201 258 306 377 450
#     4  12  26  43  73 104 148 188 247 307 389 452
#     4  12  27  50  74 106 156 198 253 317 371 450
#     4  12  27  49  74 108 149 198 256 311 383 448
#
# _framework density 24.07311
#
# number of rings (size 3 to 8) (size 9 to 14) (size 15 to 20)
#    0.000    0.571    2.857    4.714    8.000    0.000 
#    2.571    3.571    0.000    0.000    0.000    0.000 
#    0.000    0.000    0.000    0.000    0.000    0.000 
#
# Total GULP energy -694435.255312 kJ/mol
# GULP energy per Si atom -12400.629559 kJ/mol
# Density = 2.401832 g / cm^3
# Si number density = 24.073110 Si / 1000 Ang^3
#
#
#
# Elastic Constant Matrix: (Units=GPa)
#
#
# Indices 1 2 3 4 5 6 
#
# 1 103.1832 46.3939 19.3530 0.0000 0.0000 0.0000
# 2 46.3939 91.9682 21.1810 0.0000 0.0000 0.0000
# 3 19.3530 21.1810 80.7104 0.0000 0.0000 0.0000
# 4 0.0000 0.0000 0.0000 28.2287 0.0000 0.0000
# 5 0.0000 0.0000 0.0000 0.0000 28.7139 0.0000
# 6 0.0000 0.0000 0.0000 0.0000 0.0000 21.8624
#
#
#
# Elastic Compliance Matrix: (Units=1/GPa)
#
#
# Indices 1 2 3 4 5 6 
#
# 1 0.012692 -0.006069 -0.001451 0.000000 0.000000 0.000000
# 2 -0.006069 0.014474 -0.002343 0.000000 0.000000 0.000000
# 3 -0.001451 -0.002343 0.013353 0.000000 0.000000 0.000000
# 4 0.000000 0.000000 0.000000 0.035425 0.000000 0.000000
# 5 0.000000 0.000000 0.000000 0.000000 0.034826 0.000000
# 6 0.000000 0.000000 0.000000 0.000000 0.000000 0.045741
#
#
# Mechanical properties :
#
#
# Convention : Reuss Voigt Hill
#
# Bulk Modulus (GPa) = 48.09100 49.96863 49.02981
# Shear Modulus (GPa) = 27.29736 28.35660 27.82698
#
# Velocity S-wave (km/s) = 3.37105 3.43583 3.40359
# Velocity P-wave (km/s) = 5.93063 6.04500 5.98809
#
# Compressibility (1/GPa) = 0.02079391
#
# Stress axis : x y z
#
# Youngs Moduli (GPa) = 78.78867 69.08783 74.89048
#
# Poissons Ratio (x) = 0.41926 0.10865
# Poissons Ratio (y) = 0.47813 0.17550
# Poissons Ratio (z) = 0.11431 0.16190
#
# Static dielectric constant tensor:
#      x y z
#    x 4.580360 0.000000 0.000000 
#    y 0.000000 4.495620 0.000000 
#    z 0.000000 0.000000 4.381780 
# 
# 
# High freq. dielectric constant tensor:
#      x y z
#    x 1.954030 0.000000 0.000000 
#    y 0.000000 1.967340 0.000000 
#    z 0.000000 0.000000 1.965850 
# 
# From -- ./inp_files/10457.got.cif
#   From: 2010.03.12/outbox.cif.g09.slc.cpg/sg61_6_cif.got.tgz:10457.got - 2010.04.10 19:05:03.
