data_PCOD8249990
_publ_section_title
;
Structure prediction by ZEFSAII (Michael W. Deem and Ramdas Pophale) SiO2 
 PCOD8249990
Probable space group: P N M A
;
_chemical_formula_sum "Si O2"
_cell_formula_units_Z 64
_cell_length_a 14.806602
_cell_length_b 13.227561
_cell_length_c 19.913221
_cell_angle_alpha 90.000000
_cell_angle_beta 90.000000
_cell_angle_gamma 90.000000
_cell_volume 3900.108502
_symmetry_space_group_name_H-M "P N M A"
_symmetry_group_IT_number 62
_symmetry_cell_setting 'orthorhombic'
loop_
_space_group_symop_operation_xyz
x,y,z
1/2-x,-y,1/2+z
1/2+x,1/2-y,1/2-z
-x,1/2+y,-z
-x,-y,-z
1/2+x,y,1/2-z
1/2-x,1/2+y,1/2+z
x,1/2-y,z
loop_
_atom_site_type_symbol
_atom_site_label
_atom_site_fract_x
_atom_site_fract_y
_atom_site_fract_z
Si Si1 0.467379 0.634127 0.229339
Si Si2 0.232859 0.371398 0.925371
Si Si3 0.053651 0.452346 0.867013
Si Si4 0.714719 0.132350 0.838600
Si Si5 0.668801 0.630591 0.208572
Si Si6 0.792500 0.513959 0.948693
Si Si7 0.452822 0.637129 0.594360
Si Si8 0.432499 0.360338 0.532186
O O1 0.478729 0.750000 0.250467
O O2 0.423876 0.575920 0.291471
O O3 0.393471 0.622290 0.170920
O O4 0.565963 0.588758 0.211816
O O5 0.231485 0.250000 0.932681
O O6 0.133958 0.416205 0.914249
O O7 0.292998 0.409204 0.862640
O O8 0.266044 0.422162 0.996264
O O9 0.029368 0.571754 0.867462
O O10 0.964452 0.393187 0.893294
O O11 0.738816 0.250000 0.855282
O O12 0.771162 0.096031 0.772578
O O13 0.733169 0.056657 0.900053
O O14 0.670393 0.750000 0.205434
O O15 0.852035 0.590990 0.903080
O O16 0.856975 0.439114 0.991702
O O17 0.452058 0.750000 0.625173
O O18 0.481424 0.637640 0.516404
O O19 0.388164 0.250000 0.535985
#
# Coordination Sequence:
#
# PCOD8249990 Si02
#       8
#     8   8   8   8   8   8   8   8
#     4  10  19  32  52  77 103 127 159 210 261 303
#     4  11  19  30  49  74 102 131 170 210 247 304
#     4  11  17  29  49  73  97 131 161 198 259 306
#     4  10  20  33  51  78 106 131 164 208 259 309
#     4   9  18  32  50  75 103 132 163 204 256 299
#     4  11  19  30  44  70 101 138 164 200 252 300
#     4  10  19  29  43  68 102 131 163 200 242 302
#     4  10  17  26  42  68 100 127 154 191 246 306
#
# _framework density 16.409799
#
# number of rings (size 3 to 8) (size 9 to 14) (size 15 to 20)
#    0.000    1.750    3.750    4.125    0.000    1.000 
#    0.000    0.625    0.000    1.500    0.000    1.750 
#    0.000    0.000    0.000    0.000    0.000    0.000 
#
# Total GULP energy -792990.608093 kJ/mol
# GULP energy per Si atom -12390.478251 kJ/mol
# Density = 1.637245 g / cm^3
# Si number density = 16.409799 Si / 1000 Ang^3
#
#
#
# Elastic Constant Matrix: (Units=GPa)
#
#
# Indices 1 2 3 4 5 6 
#
# 1 67.8335 22.8472 30.6526 0.0000 0.0000 0.0000
# 2 22.8472 93.9560 37.2852 0.0000 0.0000 0.0000
# 3 30.6526 37.2852 85.0026 0.0000 0.0000 0.0000
# 4 0.0000 0.0000 0.0000 27.7013 0.0000 0.0000
# 5 0.0000 0.0000 0.0000 0.0000 23.6008 0.0000
# 6 0.0000 0.0000 0.0000 0.0000 0.0000 17.2108
#
#
#
# Elastic Compliance Matrix: (Units=1/GPa)
#
#
# Indices 1 2 3 4 5 6 
#
# 1 0.017972 -0.002177 -0.005526 0.000000 0.000000 0.000000
# 2 -0.002177 0.013150 -0.004983 0.000000 0.000000 0.000000
# 3 -0.005526 -0.004983 0.015943 0.000000 0.000000 0.000000
# 4 0.000000 0.000000 0.000000 0.036099 0.000000 0.000000
# 5 0.000000 0.000000 0.000000 0.000000 0.042371 0.000000
# 6 0.000000 0.000000 0.000000 0.000000 0.000000 0.058103
#
#
# Mechanical properties :
#
#
# Convention : Reuss Voigt Hill
#
# Bulk Modulus (GPa) = 46.09833 47.59579 46.84706
# Shear Modulus (GPa) = 23.12216 24.10305 23.61261
#
# Velocity S-wave (km/s) = 3.75780 3.83668 3.79744
# Velocity P-wave (km/s) = 6.85427 6.97813 6.91647
#
# Compressibility (1/GPa) = 0.02169276
#
# Stress axis : x y z
#
# Youngs Moduli (GPa) = 55.64086 76.04460 62.72456
#
# Poissons Ratio (x) = 0.16558 0.34661
# Poissons Ratio (y) = 0.12116 0.31255
# Poissons Ratio (z) = 0.30746 0.37893
#
# Static dielectric constant tensor:
#      x y z
#    x 3.061920 0.000000 0.000000 
#    y 0.000000 3.127650 0.000000 
#    z 0.000000 0.000000 2.959320 
# 
# 
# High freq. dielectric constant tensor:
#      x y z
#    x 1.611450 0.000000 0.000000 
#    y 0.000000 1.617940 0.000000 
#    z 0.000000 0.000000 1.611860 
# 
# From -- ./inp_files/24102.got.cif
#   From: 2010.03.12/outbox.cif.g09.slc.cpg/sg62_13_cif.got.tgz:24102.got - 2010.04.10 19:12:36.
