data_PCOD8249598
_publ_section_title
;
Structure prediction by ZEFSAII (Michael W. Deem and Ramdas Pophale) SiO2 
 PCOD8249598
Probable space group: P B C A
;
_chemical_formula_sum "Si O2"
_cell_formula_units_Z 64
_cell_length_a 11.604715
_cell_length_b 18.166091
_cell_length_c 15.106304
_cell_angle_alpha 90.000000
_cell_angle_beta 90.000000
_cell_angle_gamma 90.000000
_cell_volume 3184.594822
_symmetry_space_group_name_H-M "P B C A"
_symmetry_group_IT_number 61
_symmetry_cell_setting 'orthorhombic'
loop_
_space_group_symop_operation_xyz
x,y,z
1/2-x,-y,1/2+z
1/2+x,1/2-y,-z
-x,1/2+y,1/2-z
-x,-y,-z
1/2+x,y,1/2-z
1/2-x,1/2+y,z
x,1/2-y,1/2+z
loop_
_atom_site_type_symbol
_atom_site_label
_atom_site_fract_x
_atom_site_fract_y
_atom_site_fract_z
Si Si1 0.900163 0.799361 0.356394
Si Si2 0.387291 0.860813 0.849742
Si Si3 0.585654 0.193571 0.660370
Si Si4 0.338054 0.077151 0.433399
Si Si5 0.442534 0.866539 0.652618
Si Si6 0.696005 0.412300 0.015856
Si Si7 0.146648 0.797401 0.071099
Si Si8 0.063400 0.851803 0.501488
O O1 0.894182 0.836648 0.259517
O O2 0.964341 0.721008 0.350752
O O3 0.771412 0.785470 0.388648
O O4 0.969160 0.852784 0.422696
O O5 0.356881 0.773987 0.852153
O O6 0.284334 0.906922 0.890790
O O7 0.402213 0.889897 0.750229
O O8 0.502326 0.875521 0.907100
O O9 0.643204 0.140885 0.589414
O O10 0.447998 0.198961 0.648437
O O11 0.437777 0.091741 0.362463
O O12 0.361259 0.126839 0.518589
O O13 0.346202 0.993754 0.464732
O O14 0.346436 0.889101 0.581282
O O15 0.834940 0.409291 0.019067
O O16 0.118647 0.729339 0.006902
#
# Coordination Sequence:
#
# PCOD8249598 Si02
#       8
#     8   8   8   8   8   8   8   8
#     4  11  22  40  70  99 123 165 212 277 317 365
#     4  10  24  42  66  96 122 168 219 266 316 377
#     4  10  24  40  65  98 128 162 220 267 317 371
#     4  12  24  43  65  87 133 177 209 255 320 389
#     4  11  23  41  69  93 125 166 218 262 318 383
#     4  12  25  43  62  96 133 173 209 261 321 385
#     4  11  21  42  67  90 125 168 214 263 318 373
#     4  11  22  41  66  94 129 157 216 274 311 369
#
# _framework density 20.096747000000001
#
# number of rings (size 3 to 8) (size 9 to 14) (size 15 to 20)
#    0.000    1.000    5.000    1.875    3.500    2.500 
#    4.500    0.000    0.000    0.000    0.000    0.000 
#    0.000    0.000    0.000    0.000    0.000    0.000 
#
# Total GULP energy -793902.182974 kJ/mol
# GULP energy per Si atom -12404.721609 kJ/mol
# Density = 2.005101 g / cm^3
# Si number density = 20.096747 Si / 1000 Ang^3
#
#
#
# Elastic Constant Matrix: (Units=GPa)
#
#
# Indices 1 2 3 4 5 6 
#
# 1 105.7996 11.9000 39.3779 0.0000 0.0000 0.0000
# 2 11.9000 69.1574 33.6185 0.0000 0.0000 0.0000
# 3 39.3779 33.6185 132.3326 0.0000 0.0000 0.0000
# 4 0.0000 0.0000 0.0000 12.3103 0.0000 0.0000
# 5 0.0000 0.0000 0.0000 0.0000 24.6308 0.0000
# 6 0.0000 0.0000 0.0000 0.0000 0.0000 17.0501
#
#
#
# Elastic Compliance Matrix: (Units=1/GPa)
#
#
# Indices 1 2 3 4 5 6 
#
# 1 0.010636 -0.000333 -0.003080 0.000000 0.000000 0.000000
# 2 -0.000333 0.016507 -0.004095 0.000000 0.000000 0.000000
# 3 -0.003080 -0.004095 0.009514 0.000000 0.000000 0.000000
# 4 0.000000 0.000000 0.000000 0.081233 0.000000 0.000000
# 5 0.000000 0.000000 0.000000 0.000000 0.040599 0.000000
# 6 0.000000 0.000000 0.000000 0.000000 0.000000 0.058651
#
#
# Mechanical properties :
#
#
# Convention : Reuss Voigt Hill
#
# Bulk Modulus (GPa) = 46.20771 53.00916 49.60843
# Shear Modulus (GPa) = 20.88825 25.62446 23.25635
#
# Velocity S-wave (km/s) = 3.22745 3.57467 3.40548
# Velocity P-wave (km/s) = 6.07710 6.59332 6.34046
#
# Compressibility (1/GPa) = 0.02164141
#
# Stress axis : x y z
#
# Youngs Moduli (GPa) = 94.02269 60.57853 105.11323
#
# Poissons Ratio (x) = 0.02015 0.32378
# Poissons Ratio (y) = 0.03128 0.43040
# Poissons Ratio (z) = 0.28962 0.24805
#
# Static dielectric constant tensor:
#      x y z
#    x 3.797970 0.000000 0.000000 
#    y 0.000000 3.461850 0.000000 
#    z 0.000000 0.000000 3.796480 
# 
# 
# High freq. dielectric constant tensor:
#      x y z
#    x 1.797800 0.000000 0.000000 
#    y 0.000000 1.759830 0.000000 
#    z 0.000000 0.000000 1.792370 
# 
# From -- ./inp_files/7640.got.cif
#   From: 2010.03.12/outbox.cif.g09.slc.cpg/sg61_4_cif.got.tgz:7640.got - 2010.04.10 19:05:03.
