data_PCOD8249398
_publ_section_title
;
Structure prediction by ZEFSAII (Michael W. Deem and Ramdas Pophale) SiO2 
 PCOD8249398
Probable space group: P B C A
;
_chemical_formula_sum "Si O2"
_cell_formula_units_Z 40
_cell_length_a 12.348204
_cell_length_b 14.091532
_cell_length_c 11.356614
_cell_angle_alpha 90.000000
_cell_angle_beta 90.000000
_cell_angle_gamma 90.000000
_cell_volume 1976.108889
_symmetry_space_group_name_H-M "P B C A"
_symmetry_group_IT_number 61
_symmetry_cell_setting 'orthorhombic'
loop_
_space_group_symop_operation_xyz
x,y,z
1/2-x,-y,1/2+z
1/2+x,1/2-y,-z
-x,1/2+y,1/2-z
-x,-y,-z
1/2+x,y,1/2-z
1/2-x,1/2+y,z
x,1/2-y,1/2+z
loop_
_atom_site_type_symbol
_atom_site_label
_atom_site_fract_x
_atom_site_fract_y
_atom_site_fract_z
Si Si1 0.770554 0.851990 0.937902
Si Si2 0.591038 0.706823 0.272458
Si Si3 0.414414 0.379796 0.388679
Si Si4 0.084434 0.193476 0.443199
Si Si5 0.416414 0.563219 0.243863
O O1 0.708138 0.807140 0.827925
O O2 0.852923 0.928387 0.880437
O O3 0.688110 0.903912 0.027146
O O4 0.833472 0.766701 0.000468
O O5 0.604769 0.775799 0.163061
O O6 0.510575 0.750637 0.373019
O O7 0.537652 0.607014 0.227968
O O8 0.526910 0.376103 0.460881
O O9 0.423613 0.454074 0.282325
O O10 0.143429 0.123296 0.349109
#
# Coordination Sequence:
#
# PCOD8249398 Si02
#       5
#     8   8   8   8   8
#     4  11  21  39  65  88 127 168 207 258 317 372
#     4   9  22  39  61  89 124 163 207 254 312 383
#     4  11  21  39  66  92 122 174 201 263 322 365
#     4   9  19  39  62  83 126 167 199 263 308 369
#     4  10  22  40  60  95 124 159 215 260 304 386
#
# _framework density 20.241799
#
# number of rings (size 3 to 8) (size 9 to 14) (size 15 to 20)
#    1.200    0.800    2.000    1.800    0.000    1.600 
#    3.600    1.000    0.000    0.000    0.000    0.000 
#    0.000    0.000    0.000    0.000    0.000    0.000 
#
# Total GULP energy -495608.935266 kJ/mol
# GULP energy per Si atom -12390.223382 kJ/mol
# Density = 2.019573 g / cm^3
# Si number density = 20.241799 Si / 1000 Ang^3
#
#
#
# Elastic Constant Matrix: (Units=GPa)
#
#
# Indices 1 2 3 4 5 6 
#
# 1 56.5265 6.4535 7.4432 0.0000 0.0000 0.0000
# 2 6.4535 62.9835 18.8554 0.0000 0.0000 0.0000
# 3 7.4432 18.8554 52.7199 0.0000 0.0000 0.0000
# 4 0.0000 0.0000 0.0000 39.0557 0.0000 0.0000
# 5 0.0000 0.0000 0.0000 0.0000 41.9585 0.0000
# 6 0.0000 0.0000 0.0000 0.0000 0.0000 14.3326
#
#
#
# Elastic Compliance Matrix: (Units=1/GPa)
#
#
# Indices 1 2 3 4 5 6 
#
# 1 0.018109 -0.001221 -0.002120 0.000000 0.000000 0.000000
# 2 -0.001221 0.017863 -0.006216 0.000000 0.000000 0.000000
# 3 -0.002120 -0.006216 0.021491 0.000000 0.000000 0.000000
# 4 0.000000 0.000000 0.000000 0.025604 0.000000 0.000000
# 5 0.000000 0.000000 0.000000 0.000000 0.023833 0.000000
# 6 0.000000 0.000000 0.000000 0.000000 0.000000 0.069771
#
#
# Mechanical properties :
#
#
# Convention : Reuss Voigt Hill
#
# Bulk Modulus (GPa) = 26.07657 26.41491 26.24574
# Shear Modulus (GPa) = 23.97281 28.36789 26.17035
#
# Velocity S-wave (km/s) = 3.44513 3.74766 3.59957
# Velocity P-wave (km/s) = 5.36057 5.63956 5.50183
#
# Compressibility (1/GPa) = 0.03834860
#
# Stress axis : x y z
#
# Youngs Moduli (GPa) = 55.22006 55.98073 46.53151
#
# Poissons Ratio (x) = 0.06834 0.09865
# Poissons Ratio (y) = 0.06742 0.28926
# Poissons Ratio (z) = 0.11707 0.34800
#
# Static dielectric constant tensor:
#      x y z
#    x 3.584940 0.000000 0.000000 
#    y 0.000000 3.160150 0.000000 
#    z 0.000000 0.000000 3.748040 
# 
# 
# High freq. dielectric constant tensor:
#      x y z
#    x 1.783080 0.000000 0.000000 
#    y 0.000000 1.755500 0.000000 
#    z 0.000000 0.000000 1.797790 
# 
# From -- ./inp_files/5586.got.cif
#   From: 2010.03.12/outbox.cif.g09.slc.cpg/sg61_3_cif.got.tgz:5586.got - 2010.04.10 19:05:03.
