data_PCOD8249057
_publ_section_title
;
Structure prediction by ZEFSAII (Michael W. Deem and Ramdas Pophale) SiO2 
 PCOD8249057
Probable space group: P B C A
;
_chemical_formula_sum "Si O2"
_cell_formula_units_Z 40
_cell_length_a 18.228438
_cell_length_b 10.105015
_cell_length_c 8.669225
_cell_angle_alpha 90.000000
_cell_angle_beta 90.000000
_cell_angle_gamma 90.000000
_cell_volume 1596.859450
_symmetry_space_group_name_H-M "P B C A"
_symmetry_group_IT_number 61
_symmetry_cell_setting 'orthorhombic'
loop_
_space_group_symop_operation_xyz
x,y,z
1/2-x,-y,1/2+z
1/2+x,1/2-y,-z
-x,1/2+y,1/2-z
-x,-y,-z
1/2+x,y,1/2-z
1/2-x,1/2+y,z
x,1/2-y,1/2+z
loop_
_atom_site_type_symbol
_atom_site_label
_atom_site_fract_x
_atom_site_fract_y
_atom_site_fract_z
Si Si1 0.922096 0.519652 0.578159
Si Si2 0.694126 0.998461 0.344993
Si Si3 0.155968 0.196639 0.410999
Si Si4 0.204653 0.657193 0.950807
Si Si5 0.577834 0.526660 0.424646
O O1 0.863816 0.442665 0.470740
O O2 0.892443 0.670088 0.597887
O O3 0.927557 0.447999 0.742761
O O4 0.000000 0.500000 0.500000
O O5 0.655630 0.121590 0.253550
O O6 0.766707 0.043579 0.433018
O O7 0.714560 0.882315 0.227908
O O8 0.242012 0.216616 0.465739
O O9 0.123133 0.105923 0.543543
O O10 0.118056 0.657370 0.997994
O O11 0.500000 0.500000 0.500000
#
# Coordination Sequence:
#
# PCOD8249057 Si02
#       5
#     8   8   8   8   8
#     4  11  21  38  65  95 132 172 213 266 324 385
#     4  10  21  37  62  92 123 163 212 265 318 377
#     4  10  22  42  66  93 125 168 216 265 321 382
#     4  10  20  39  64  91 122 164 210 258 312 377
#     4  11  24  44  67  95 133 171 214 268 325 383
#
# _framework density 25.049167000000001
#
# number of rings (size 3 to 8) (size 9 to 14) (size 15 to 20)
#    0.000    1.600    0.000    7.200    0.000    3.200 
#    0.000   16.000    0.000    0.000    0.000    0.000 
#    0.000    0.000    0.000    0.000    0.000    0.000 
#
# Total GULP energy -495657.667592 kJ/mol
# GULP energy per Si atom -12391.441690 kJ/mol
# Density = 2.499215 g / cm^3
# Si number density = 25.049167 Si / 1000 Ang^3
#
#
#
# Elastic Constant Matrix: (Units=GPa)
#
#
# Indices 1 2 3 4 5 6 
#
# 1 165.2514 21.1287 48.9253 0.0000 0.0000 0.0000
# 2 21.1287 55.7495 -5.5263 0.0000 0.0000 0.0000
# 3 48.9253 -5.5263 170.4575 0.0000 0.0000 0.0000
# 4 0.0000 0.0000 0.0000 21.3369 0.0000 0.0000
# 5 0.0000 0.0000 0.0000 0.0000 57.1489 0.0000
# 6 0.0000 0.0000 0.0000 0.0000 0.0000 32.7381
#
#
#
# Elastic Compliance Matrix: (Units=1/GPa)
#
#
# Indices 1 2 3 4 5 6 
#
# 1 0.007046 -0.002880 -0.002116 0.000000 0.000000 0.000000
# 2 -0.002880 0.019172 0.001448 0.000000 0.000000 0.000000
# 3 -0.002116 0.001448 0.006521 0.000000 0.000000 0.000000
# 4 0.000000 0.000000 0.000000 0.046867 0.000000 0.000000
# 5 0.000000 0.000000 0.000000 0.000000 0.017498 0.000000
# 6 0.000000 0.000000 0.000000 0.000000 0.000000 0.030545
#
#
# Mechanical properties :
#
#
# Convention : Reuss Voigt Hill
#
# Bulk Modulus (GPa) = 38.99542 57.83486 48.41514
# Shear Modulus (GPa) = 34.89346 44.04017 39.46681
#
# Velocity S-wave (km/s) = 3.73634 4.19758 3.97366
# Velocity P-wave (km/s) = 5.84936 6.82873 6.35793
#
# Compressibility (1/GPa) = 0.02564404
#
# Stress axis : x y z
#
# Youngs Moduli (GPa) = 141.92380 52.15807 153.35572
#
# Poissons Ratio (x) = 0.15022 0.32446
# Poissons Ratio (y) = 0.40876 -0.22210
# Poissons Ratio (z) = 0.30028 -0.07554
#
# Static dielectric constant tensor:
#      x y z
#    x 4.826100 0.000000 0.000000 
#    y 0.000000 4.322170 0.000000 
#    z 0.000000 0.000000 4.869540 
# 
# 
# High freq. dielectric constant tensor:
#      x y z
#    x 2.007450 0.000000 0.000000 
#    y 0.000000 1.976390 0.000000 
#    z 0.000000 0.000000 2.021580 
# 
# From -- ./inp_files/3300.got.cif
#   From: 2010.03.12/outbox.cif.g09.slc.cpg/sg61_2_cif.got.tgz:3300.got - 2010.04.10 19:05:03.
