data_PCOD8249523
_publ_section_title
;
Structure prediction by ZEFSAII (Michael W. Deem and Ramdas Pophale) SiO2 
 PCOD8249523
Probable space group: P B C A
;
_chemical_formula_sum "Si O2"
_cell_formula_units_Z 64
_cell_length_a 10.690803
_cell_length_b 9.509154
_cell_length_c 28.593526
_cell_angle_alpha 90.000000
_cell_angle_beta 90.000000
_cell_angle_gamma 90.000000
_cell_volume 2906.831924
_symmetry_space_group_name_H-M "P B C A"
_symmetry_group_IT_number 61
_symmetry_cell_setting 'orthorhombic'
loop_
_space_group_symop_operation_xyz
x,y,z
1/2-x,-y,1/2+z
1/2+x,1/2-y,-z
-x,1/2+y,1/2-z
-x,-y,-z
1/2+x,y,1/2-z
1/2-x,1/2+y,z
x,1/2-y,1/2+z
loop_
_atom_site_type_symbol
_atom_site_label
_atom_site_fract_x
_atom_site_fract_y
_atom_site_fract_z
Si Si1 0.136865 0.671295 0.446165
Si Si2 0.363135 0.328705 0.053835
Si Si3 0.863809 0.637758 0.586888
Si Si4 0.621163 0.055081 0.786737
Si Si5 0.836291 0.855876 0.191488
Si Si6 0.863809 0.862242 0.913112
Si Si7 0.836291 0.644124 0.308512
Si Si8 0.121163 0.055081 0.286737
O O1 0.144511 0.715611 0.500000
O O2 0.246385 0.757012 0.419469
O O3 0.160665 0.504298 0.442115
O O4 0.996637 0.708781 0.427565
O O5 0.503363 0.291220 0.072435
O O6 0.339335 0.495702 0.057885
O O7 0.253615 0.242988 0.080531
O O8 0.875781 0.587631 0.640882
O O9 0.572372 0.101342 0.734264
O O10 0.680974 0.187747 0.813408
O O11 0.709387 0.920788 0.788368
O O12 0.500000 0.000000 0.814496
O O13 0.819026 0.687747 0.186592
O O14 0.709388 0.920789 0.211632
O O15 0.875781 0.912369 0.859118
O O16 0.927628 0.601342 0.265736
#
# Coordination Sequence:
#
# PCOD8249523 Si02
#       8
#     8   8   8   8   8   8   8   8
#     4  11  24  44  67  98 131 171 216 277 340 392
#     4  11  24  44  67  98 131 171 216 277 340 392
#     4  11  24  42  70  95 133 171 221 274 322 408
#     4  10  23  40  65  87 137 166 219 273 320 387
#     4  10  23  41  60  98 121 178 219 262 327 382
#     4  11  24  42  70  95 133 171 221 274 322 408
#     4  10  23  41  60  98 121 178 219 262 327 382
#     4  10  23  40  65  87 137 166 219 273 320 387
#
# _framework density 22.017095000000001
#
# number of rings (size 3 to 8) (size 9 to 14) (size 15 to 20)
#    0.000    1.500    0.000    4.500    7.000    9.000 
#    0.000    2.500    0.000    0.000    0.000    0.000 
#    0.000    0.000    0.000    0.000    0.000    0.000 
#
# Total GULP energy -792878.105209 kJ/mol
# GULP energy per Si atom -12388.720394 kJ/mol
# Density = 2.196698 g / cm^3
# Si number density = 22.017095 Si / 1000 Ang^3
#
#
#
# Elastic Constant Matrix: (Units=GPa)
#
#
# Indices 1 2 3 4 5 6 
#
# 1 135.8520 72.3349 16.4130 0.0000 0.0000 0.0000
# 2 72.3349 118.7483 6.1355 0.0000 0.0000 0.0000
# 3 16.4130 6.1355 123.9562 0.0000 0.0000 0.0000
# 4 0.0000 0.0000 0.0000 14.9572 0.0000 0.0000
# 5 0.0000 0.0000 0.0000 0.0000 6.5165 0.0000
# 6 0.0000 0.0000 0.0000 0.0000 0.0000 36.4985
#
#
#
# Elastic Compliance Matrix: (Units=1/GPa)
#
#
# Indices 1 2 3 4 5 6 
#
# 1 0.011051 -0.006673 -0.001133 0.000000 0.000000 0.000000
# 2 -0.006673 0.012472 0.000266 0.000000 0.000000 0.000000
# 3 -0.001133 0.000266 0.008204 0.000000 0.000000 0.000000
# 4 0.000000 0.000000 0.000000 0.066858 0.000000 0.000000
# 5 0.000000 0.000000 0.000000 0.000000 0.153457 0.000000
# 6 0.000000 0.000000 0.000000 0.000000 0.000000 0.027398
#
#
# Mechanical properties :
#
#
# Convention : Reuss Voigt Hill
#
# Bulk Modulus (GPa) = 60.06788 63.14703 61.60746
# Shear Modulus (GPa) = 16.66282 30.50596 23.58439
#
# Velocity S-wave (km/s) = 2.75401 3.72635 3.27645
# Velocity P-wave (km/s) = 6.12000 6.87440 6.50814
#
# Compressibility (1/GPa) = 0.01664783
#
# Stress axis : x y z
#
# Youngs Moduli (GPa) = 90.49005 80.17777 121.88872
#
# Poissons Ratio (x) = 0.53503 0.13809
# Poissons Ratio (y) = 0.60385 -0.03245
# Poissons Ratio (z) = 0.10252 -0.02135
#
# Static dielectric constant tensor:
#      x y z
#    x 3.947750 0.000000 0.000000 
#    y 0.000000 4.018480 0.000000 
#    z 0.000000 0.000000 3.965880 
# 
# 
# High freq. dielectric constant tensor:
#      x y z
#    x 1.863410 0.000000 0.000000 
#    y 0.000000 1.865930 0.000000 
#    z 0.000000 0.000000 1.867570 
# 
# From -- ./inp_files/11791.got.cif
#   From: 2010.03.12/outbox.cif.g09.slc.cpg/sg61_6_cif.got.tgz:11791.got - 2010.04.10 19:05:03.
