data_PCOD8249796
_publ_section_title
;
Structure prediction by ZEFSAII (Michael W. Deem and Ramdas Pophale) SiO2 
 PCOD8249796
Probable space group: P B C A
;
_chemical_formula_sum "Si O2"
_cell_formula_units_Z 48
_cell_length_a 17.237589
_cell_length_b 13.407106
_cell_length_c 9.825118
_cell_angle_alpha 90.000000
_cell_angle_beta 90.000000
_cell_angle_gamma 90.000000
_cell_volume 2270.645518
_symmetry_space_group_name_H-M "P B C A"
_symmetry_group_IT_number 61
_symmetry_cell_setting 'orthorhombic'
loop_
_space_group_symop_operation_xyz
x,y,z
1/2-x,-y,1/2+z
1/2+x,1/2-y,-z
-x,1/2+y,1/2-z
-x,-y,-z
1/2+x,y,1/2-z
1/2-x,1/2+y,z
x,1/2-y,1/2+z
loop_
_atom_site_type_symbol
_atom_site_label
_atom_site_fract_x
_atom_site_fract_y
_atom_site_fract_z
Si Si1 0.432516 0.843559 0.229151
Si Si2 0.616232 0.659027 0.109590
Si Si3 0.825502 0.017328 0.891932
Si Si4 0.847597 0.033670 0.362589
Si Si5 0.603294 0.886694 0.137309
Si Si6 0.439659 0.840405 0.541286
O O1 0.517222 0.886707 0.197479
O O2 0.429020 0.807800 0.384951
O O3 0.410988 0.750477 0.134575
O O4 0.369106 0.928799 0.205869
O O5 0.631838 0.624127 0.262764
O O6 0.632943 0.776220 0.101709
O O7 0.528484 0.632731 0.069935
O O8 0.673572 0.604149 0.005135
O O9 0.838219 0.064392 0.744065
O O10 0.743150 0.963149 0.896197
O O11 0.891382 0.937782 0.924617
O O12 0.896365 0.048152 0.500413
#
# Coordination Sequence:
#
# PCOD8249796 Si02
#       6
#     8   8   8   8   8   8
#     4  11  25  45  69 102 133 176 230 275 328 390
#     4  11  23  46  70  95 135 177 230 273 335 392
#     4  12  24  46  66 100 137 180 219 274 344 394
#     4  12  26  43  67 102 138 175 222 276 336 406
#     4  11  25  41  71  99 130 180 227 276 330 399
#     4  11  25  44  73  97 135 179 225 279 326 393
#
# _framework density 21.139362999999999
#
# number of rings (size 3 to 8) (size 9 to 14) (size 15 to 20)
#    0.000    0.667    3.333    4.000    9.333    2.667 
#    0.000    0.000    0.000    0.000    0.000    0.000 
#    0.000    0.000    0.000    0.000    0.000    0.000 
#
# Total GULP energy -595658.954737 kJ/mol
# GULP energy per Si atom -12409.561557 kJ/mol
# Density = 2.109125 g / cm^3
# Si number density = 21.139363 Si / 1000 Ang^3
#
#
#
# Elastic Constant Matrix: (Units=GPa)
#
#
# Indices 1 2 3 4 5 6 
#
# 1 50.5588 39.5358 38.8957 0.0000 0.0000 0.0000
# 2 39.5358 74.4901 43.9124 0.0000 0.0000 0.0000
# 3 38.8957 43.9124 165.9599 0.0000 0.0000 0.0000
# 4 0.0000 0.0000 0.0000 46.5885 0.0000 0.0000
# 5 0.0000 0.0000 0.0000 0.0000 21.6112 0.0000
# 6 0.0000 0.0000 0.0000 0.0000 0.0000 7.9254
#
#
#
# Elastic Compliance Matrix: (Units=1/GPa)
#
#
# Indices 1 2 3 4 5 6 
#
# 1 0.035919 -0.016708 -0.003998 0.000000 0.000000 0.000000
# 2 -0.016708 0.023677 -0.002349 0.000000 0.000000 0.000000
# 3 -0.003998 -0.002349 0.007584 0.000000 0.000000 0.000000
# 4 0.000000 0.000000 0.000000 0.021465 0.000000 0.000000
# 5 0.000000 0.000000 0.000000 0.000000 0.046272 0.000000
# 6 0.000000 0.000000 0.000000 0.000000 0.000000 0.126177
#
#
# Mechanical properties :
#
#
# Convention : Reuss Voigt Hill
#
# Bulk Modulus (GPa) = 47.45700 59.52185 53.48943
# Shear Modulus (GPa) = 15.91209 26.46934 21.19071
#
# Velocity S-wave (km/s) = 2.74656 3.54239 3.16955
# Velocity P-wave (km/s) = 5.70582 6.70443 6.22518
#
# Compressibility (1/GPa) = 0.02107171
#
# Stress axis : x y z
#
# Youngs Moduli (GPa) = 27.84017 42.23500 131.85617
#
# Poissons Ratio (x) = 0.70565 0.52710
# Poissons Ratio (y) = 0.46514 0.30975
# Poissons Ratio (z) = 0.11129 0.09922
#
# Static dielectric constant tensor:
#      x y z
#    x 3.639370 0.000000 0.000000 
#    y 0.000000 3.882740 0.000000 
#    z 0.000000 0.000000 4.118510 
# 
# 
# High freq. dielectric constant tensor:
#      x y z
#    x 1.819790 0.000000 0.000000 
#    y 0.000000 1.835570 0.000000 
#    z 0.000000 0.000000 1.850870 
# 
# From -- ./inp_files/3413.got.cif
#   From: 2010.03.12/outbox.cif.g09.slc.cpg/sg61_2_cif.got.tgz:3413.got - 2010.04.10 19:05:03.
