data_PCOD8249996
_publ_section_title
;
Structure prediction by ZEFSAII (Michael W. Deem and Ramdas Pophale) SiO2 
 PCOD8249996
Probable space group: P N M A
;
_chemical_formula_sum "Si O2"
_cell_formula_units_Z 36
_cell_length_a 5.193535
_cell_length_b 19.896603
_cell_length_c 20.768023
_cell_angle_alpha 90.000000
_cell_angle_beta 90.000000
_cell_angle_gamma 90.000000
_cell_volume 2146.036743
_symmetry_space_group_name_H-M "P N M A"
_symmetry_group_IT_number 62
_symmetry_cell_setting 'orthorhombic'
loop_
_space_group_symop_operation_xyz
x,y,z
1/2-x,-y,1/2+z
1/2+x,1/2-y,1/2-z
-x,1/2+y,-z
-x,-y,-z
1/2+x,y,1/2-z
1/2-x,1/2+y,1/2+z
x,1/2-y,z
loop_
_atom_site_type_symbol
_atom_site_label
_atom_site_fract_x
_atom_site_fract_y
_atom_site_fract_z
Si Si1 0.006839 0.094832 0.447020
Si Si2 0.007422 0.049560 0.593544
Si Si3 0.491581 0.671499 0.531471
Si Si4 0.968931 0.750000 0.208771
Si Si5 0.991161 0.626079 0.115180
O O1 0.999569 0.068252 0.519177
O O2 0.262576 0.137811 0.434816
O O3 0.759576 0.141130 0.434209
O O4 0.003383 0.031139 0.398866
O O5 0.267642 0.076837 0.625466
O O6 0.764481 0.082952 0.628955
O O7 0.500157 0.750000 0.545161
O O8 0.488845 0.658590 0.455350
O O9 0.677450 0.750000 0.234337
O O10 0.014141 0.684538 0.166495
#
# Coordination Sequence:
#
# PCOD8249996 Si02
#       5
#     8   8   8   4   8
#     4   9  17  26  41  64  85 110 144 188 210 254
#     4   9  17  29  45  61  82 107 148 187 223 260
#     4  10  17  27  42  62  90 118 150 175 218 261
#     4  12  24  36  48  66  88 114 160 206 242 266
#     4  10  19  32  46  60  80 116 151 190 233 263
#
# _framework density 16.775109
#
# number of rings (size 3 to 8) (size 9 to 14) (size 15 to 20)
#    0.000    2.222    1.111    3.333    0.000    5.333 
#    0.000    0.000    0.000    0.000    0.000    0.000 
#    0.000    0.000    0.000    0.000    0.000  280.000 
#
# Total GULP energy -446427.820936 kJ/mol
# GULP energy per Si atom -12400.772804 kJ/mol
# Density = 1.673693 g / cm^3
# Si number density = 16.775109 Si / 1000 Ang^3
#
#
#
# Elastic Constant Matrix: (Units=GPa)
#
#
# Indices 1 2 3 4 5 6 
#
# 1 135.3702 55.4232 10.4182 0.0000 0.0000 0.0000
# 2 55.4232 145.9939 21.8151 0.0000 0.0000 0.0000
# 3 10.4182 21.8151 22.4982 0.0000 0.0000 0.0000
# 4 0.0000 0.0000 0.0000 10.0200 0.0000 0.0000
# 5 0.0000 0.0000 0.0000 0.0000 11.9961 0.0000
# 6 0.0000 0.0000 0.0000 0.0000 0.0000 31.2850
#
#
#
# Elastic Compliance Matrix: (Units=1/GPa)
#
#
# Indices 1 2 3 4 5 6 
#
# 1 0.008765 -0.003182 -0.000973 0.000000 0.000000 0.000000
# 2 -0.003182 0.009165 -0.007414 0.000000 0.000000 0.000000
# 3 -0.000973 -0.007414 0.052087 0.000000 0.000000 0.000000
# 4 0.000000 0.000000 0.000000 0.099800 0.000000 0.000000
# 5 0.000000 0.000000 0.000000 0.000000 0.083361 0.000000
# 6 0.000000 0.000000 0.000000 0.000000 0.000000 0.031964
#
#
# Mechanical properties :
#
#
# Convention : Reuss Voigt Hill
#
# Bulk Modulus (GPa) = 21.33128 53.24168 37.28648
# Shear Modulus (GPa) = 15.43656 25.07394 20.25525
#
# Velocity S-wave (km/s) = 3.03678 3.87034 3.47862
# Velocity P-wave (km/s) = 5.00397 7.19584 6.19757
#
# Compressibility (1/GPa) = 0.04687951
#
# Stress axis : x y z
#
# Youngs Moduli (GPa) = 114.09278 109.10718 19.19860
#
# Poissons Ratio (x) = 0.34717 0.01869
# Poissons Ratio (y) = 0.36303 0.14233
# Poissons Ratio (z) = 0.11106 0.80887
#
# Static dielectric constant tensor:
#      x y z
#    x 3.462290 0.000000 0.000000 
#    y 0.000000 3.313450 0.000000 
#    z 0.000000 0.000000 2.540500 
# 
# 
# High freq. dielectric constant tensor:
#      x y z
#    x 1.671470 0.000000 0.000000 
#    y 0.000000 1.660980 0.000000 
#    z 0.000000 0.000000 1.566470 
# 
# From -- ./inp_files/25226.got.cif
#   From: 2010.03.12/outbox.cif.g09.slc.cpg/sg62_13_cif.got.tgz:25226.got - 2010.04.10 19:12:36.
