data_PCOD8249509
_publ_section_title
;
Structure prediction by ZEFSAII (Michael W. Deem and Ramdas Pophale) SiO2 
 PCOD8249509
Probable space group: P B C A
;
_chemical_formula_sum "Si O2"
_cell_formula_units_Z 48
_cell_length_a 8.615754
_cell_length_b 10.872799
_cell_length_c 23.312302
_cell_angle_alpha 90.000000
_cell_angle_beta 90.000000
_cell_angle_gamma 90.000000
_cell_volume 2183.834941
_symmetry_space_group_name_H-M "P B C A"
_symmetry_group_IT_number 61
_symmetry_cell_setting 'orthorhombic'
loop_
_space_group_symop_operation_xyz
x,y,z
1/2-x,-y,1/2+z
1/2+x,1/2-y,-z
-x,1/2+y,1/2-z
-x,-y,-z
1/2+x,y,1/2-z
1/2-x,1/2+y,z
x,1/2-y,1/2+z
loop_
_atom_site_type_symbol
_atom_site_label
_atom_site_fract_x
_atom_site_fract_y
_atom_site_fract_z
Si Si1 0.977378 0.651785 0.745365
Si Si2 0.602169 0.816784 0.563649
Si Si3 0.240167 0.015225 0.215543
Si Si4 0.292881 0.911126 0.594095
Si Si5 0.315852 0.662782 0.542324
Si Si6 0.284581 0.203156 0.309857
O O1 0.904349 0.554647 0.790118
O O2 0.843412 0.693084 0.701735
O O3 0.106616 0.585729 0.707367
O O4 0.049372 0.763958 0.781373
O O5 0.473810 0.924765 0.573854
O O6 0.501923 0.695647 0.542793
O O7 0.736703 0.855200 0.519623
O O8 0.696505 0.801360 0.622389
O O9 0.223665 0.108422 0.162595
O O10 0.228972 0.078917 0.278272
O O11 0.225985 0.780959 0.570126
O O12 0.201743 0.033680 0.575450
#
# Coordination Sequence:
#
# PCOD8249509 Si02
#       6
#     8   8   8   8   8   8
#     4  10  23  37  65  97 135 173 225 269 363 406
#     4  10  23  44  68  97 140 178 239 284 347 408
#     4  11  22  41  64  99 132 180 218 285 351 416
#     4  10  23  42  70  92 138 174 235 285 346 409
#     4  10  24  44  69  97 134 187 233 284 346 402
#     4  11  22  43  64 101 137 175 225 291 339 425
#
# _framework density 21.979683000000001
#
# number of rings (size 3 to 8) (size 9 to 14) (size 15 to 20)
#    1.000    0.667    0.000    4.500    4.667    2.000 
#    9.000    0.000    0.000    0.000    0.000    0.000 
#    0.000    0.000    0.000    0.000    0.000    0.000 
#
# Total GULP energy -594673.208008 kJ/mol
# GULP energy per Si atom -12389.025167 kJ/mol
# Density = 2.192966 g / cm^3
# Si number density = 21.979683 Si / 1000 Ang^3
#
#
#
# Elastic Constant Matrix: (Units=GPa)
#
#
# Indices 1 2 3 4 5 6 
#
# 1 71.7888 10.8436 35.8363 0.0000 0.0000 0.0000
# 2 10.8436 91.8507 16.2095 0.0000 0.0000 0.0000
# 3 35.8363 16.2095 117.2328 0.0000 0.0000 0.0000
# 4 0.0000 0.0000 0.0000 25.8708 0.0000 0.0000
# 5 0.0000 0.0000 0.0000 0.0000 33.7196 0.0000
# 6 0.0000 0.0000 0.0000 0.0000 0.0000 24.8832
#
#
#
# Elastic Compliance Matrix: (Units=1/GPa)
#
#
# Indices 1 2 3 4 5 6 
#
# 1 0.016543 -0.001087 -0.004907 0.000000 0.000000 0.000000
# 2 -0.001087 0.011231 -0.001221 0.000000 0.000000 0.000000
# 3 -0.004907 -0.001221 0.010199 0.000000 0.000000 0.000000
# 4 0.000000 0.000000 0.000000 0.038654 0.000000 0.000000
# 5 0.000000 0.000000 0.000000 0.000000 0.029656 0.000000
# 6 0.000000 0.000000 0.000000 0.000000 0.000000 0.040188
#
#
# Mechanical properties :
#
#
# Convention : Reuss Voigt Hill
#
# Bulk Modulus (GPa) = 42.47331 45.18343 43.82837
# Shear Modulus (GPa) = 29.63003 31.42690 30.52847
#
# Velocity S-wave (km/s) = 3.67558 3.78539 3.73089
# Velocity P-wave (km/s) = 6.11384 6.30136 6.20831
#
# Compressibility (1/GPa) = 0.02354420
#
# Stress axis : x y z
#
# Youngs Moduli (GPa) = 60.44724 89.03942 98.05153
#
# Poissons Ratio (x) = 0.09680 0.48111
# Poissons Ratio (y) = 0.06571 0.11968
# Poissons Ratio (z) = 0.29660 0.10868
#
# Static dielectric constant tensor:
#      x y z
#    x 3.963960 0.000000 0.000000 
#    y 0.000000 3.862190 0.000000 
#    z 0.000000 0.000000 3.783050 
# 
# 
# High freq. dielectric constant tensor:
#      x y z
#    x 1.864100 0.000000 0.000000 
#    y 0.000000 1.858590 0.000000 
#    z 0.000000 0.000000 1.851610 
# 
# From -- ./inp_files/6577.got.cif
#   From: 2010.03.12/outbox.cif.g09.slc.cpg/sg61_4_cif.got.tgz:6577.got - 2010.04.10 19:05:03.
