data_PCOD8249773
_publ_section_title
;
Structure prediction by ZEFSAII (Michael W. Deem and Ramdas Pophale) SiO2 
 PCOD8249773
Probable space group: P B C A
;
_chemical_formula_sum "Si O2"
_cell_formula_units_Z 64
_cell_length_a 12.651991
_cell_length_b 26.294864
_cell_length_c 9.293522
_cell_angle_alpha 90.000000
_cell_angle_beta 90.000000
_cell_angle_gamma 90.000000
_cell_volume 3091.791042
_symmetry_space_group_name_H-M "P B C A"
_symmetry_group_IT_number 61
_symmetry_cell_setting 'orthorhombic'
loop_
_space_group_symop_operation_xyz
x,y,z
1/2-x,-y,1/2+z
1/2+x,1/2-y,-z
-x,1/2+y,1/2-z
-x,-y,-z
1/2+x,y,1/2-z
1/2-x,1/2+y,z
x,1/2-y,1/2+z
loop_
_atom_site_type_symbol
_atom_site_label
_atom_site_fract_x
_atom_site_fract_y
_atom_site_fract_z
Si Si1 0.086230 0.170048 0.103824
Si Si2 0.270219 0.481856 0.649950
Si Si3 0.321613 0.859723 0.309789
Si Si4 0.158860 0.809330 0.911637
Si Si5 0.758559 0.755421 0.328786
Si Si6 0.927198 0.564626 0.894057
Si Si7 0.669296 0.553420 0.647848
Si Si8 0.307578 0.895513 0.839534
O O1 0.138974 0.225757 0.112390
O O2 0.111103 0.137567 0.245858
O O3 0.962213 0.175873 0.087574
O O4 0.128790 0.139259 0.967564
O O5 0.377829 0.514033 0.678963
O O6 0.257794 0.470110 0.480266
O O7 0.174917 0.517628 0.710181
O O8 0.268676 0.429583 0.739229
O O9 0.299497 0.802352 0.264133
O O10 0.404953 0.885612 0.201454
O O11 0.211739 0.890773 0.311021
O O12 0.185975 0.782503 0.761994
O O13 0.230671 0.859425 0.932027
O O14 0.183251 0.771726 0.041827
O O15 0.051444 0.557462 0.911712
O O16 0.876152 0.570250 0.052243
#
# Coordination Sequence:
#
# PCOD8249773 Si02
#       8
#     8   8   8   8   8   8   8   8
#     4  11  26  42  67  97 129 176 216 269 332 388
#     4  11  23  43  65  96 132 167 218 268 313 395
#     4  11  24  45  64  98 131 163 225 274 315 401
#     4  11  26  42  69  95 133 175 215 273 328 383
#     4  11  24  46  63  97 135 167 222 271 322 395
#     4  11  25  42  71  95 129 178 214 264 344 383
#     4  11  25  44  69  95 130 177 215 275 327 384
#     4  11  24  44  64  99 137 164 222 272 318 397
#
# _framework density 20.699975999999999
#
# number of rings (size 3 to 8) (size 9 to 14) (size 15 to 20)
#    0.000    1.000    5.000    0.375    5.250    0.000 
#    0.000    1.250    0.000    0.000    0.000    0.000 
#    0.000    0.000    0.000    0.000    0.000    0.000 
#
# Total GULP energy -793857.693163 kJ/mol
# GULP energy per Si atom -12404.026456 kJ/mol
# Density = 2.065286 g / cm^3
# Si number density = 20.699976 Si / 1000 Ang^3
#
#
#
# Elastic Constant Matrix: (Units=GPa)
#
#
# Indices 1 2 3 4 5 6 
#
# 1 126.9795 38.3267 43.6906 0.0000 0.0000 0.0000
# 2 38.3267 93.5462 24.8334 0.0000 0.0000 0.0000
# 3 43.6906 24.8334 87.7910 0.0000 0.0000 0.0000
# 4 0.0000 0.0000 0.0000 43.8936 0.0000 0.0000
# 5 0.0000 0.0000 0.0000 0.0000 25.4158 0.0000
# 6 0.0000 0.0000 0.0000 0.0000 0.0000 23.4510
#
#
#
# Elastic Compliance Matrix: (Units=1/GPa)
#
#
# Indices 1 2 3 4 5 6 
#
# 1 0.010262 -0.003080 -0.004236 0.000000 0.000000 0.000000
# 2 -0.003080 0.012482 -0.001998 0.000000 0.000000 0.000000
# 3 -0.004236 -0.001998 0.014064 0.000000 0.000000 0.000000
# 4 0.000000 0.000000 0.000000 0.022782 0.000000 0.000000
# 5 0.000000 0.000000 0.000000 0.000000 0.039346 0.000000
# 6 0.000000 0.000000 0.000000 0.000000 0.000000 0.042642
#
#
# Mechanical properties :
#
#
# Convention : Reuss Voigt Hill
#
# Bulk Modulus (GPa) = 55.00401 58.00201 56.50301
# Shear Modulus (GPa) = 30.07210 31.98316 31.02763
#
# Velocity S-wave (km/s) = 3.81564 3.93502 3.87579
# Velocity P-wave (km/s) = 6.78542 6.98047 6.88363
#
# Compressibility (1/GPa) = 0.01818049
#
# Stress axis : x y z
#
# Youngs Moduli (GPa) = 97.44232 80.11376 71.10364
#
# Poissons Ratio (x) = 0.24676 0.30120
# Poissons Ratio (y) = 0.30013 0.14206
# Poissons Ratio (z) = 0.41277 0.16007
#
# Static dielectric constant tensor:
#      x y z
#    x 3.467040 0.000000 0.000000 
#    y 0.000000 3.948160 0.000000 
#    z 0.000000 0.000000 3.900810 
# 
# 
# High freq. dielectric constant tensor:
#      x y z
#    x 1.789970 0.000000 0.000000 
#    y 0.000000 1.828350 0.000000 
#    z 0.000000 0.000000 1.823440 
# 
# From -- ./inp_files/2438.got.cif
#   From: 2010.03.12/outbox.cif.g09.slc.cpg/sg61_2_cif.got.tgz:2438.got - 2010.04.10 19:05:03.
