data_PCOD8249448
_publ_section_title
;
Structure prediction by ZEFSAII (Michael W. Deem and Ramdas Pophale) SiO2 
 PCOD8249448
Probable space group: P B C A
;
_chemical_formula_sum "Si O2"
_cell_formula_units_Z 32
_cell_length_a 8.935689
_cell_length_b 11.726012
_cell_length_c 12.666476
_cell_angle_alpha 90.000000
_cell_angle_beta 90.000000
_cell_angle_gamma 90.000000
_cell_volume 1327.193310
_symmetry_space_group_name_H-M "P B C A"
_symmetry_group_IT_number 61
_symmetry_cell_setting 'orthorhombic'
loop_
_space_group_symop_operation_xyz
x,y,z
1/2-x,-y,1/2+z
1/2+x,1/2-y,-z
-x,1/2+y,1/2-z
-x,-y,-z
1/2+x,y,1/2-z
1/2-x,1/2+y,z
x,1/2-y,1/2+z
loop_
_atom_site_type_symbol
_atom_site_label
_atom_site_fract_x
_atom_site_fract_y
_atom_site_fract_z
Si Si1 0.803147 0.854833 0.904973
Si Si2 0.009325 0.207838 0.460484
Si Si3 0.308526 0.551138 0.312071
Si Si4 0.495867 0.447690 0.143782
O O1 0.653840 0.849344 0.977768
O O2 0.760968 0.857632 0.780493
O O3 0.912383 0.747349 0.930340
O O4 0.898167 0.969381 0.934873
O O5 0.119126 0.117243 0.408713
O O6 0.981523 0.316589 0.385940
O O7 0.428535 0.462792 0.262217
O O8 0.167932 0.483648 0.356161
#
# Coordination Sequence:
#
# PCOD8249448 Si02
#       4
#     8   8   8   8
#     4  10  23  42  62 100 128 164 226 257 318 402
#     4  12  23  43  70  90 136 175 204 281 323 372
#     4  10  22  42  62  97 128 164 227 256 316 400
#     4  10  23  42  63  93 131 170 210 271 319 386
#
# _framework density 24.111032000000002
#
# number of rings (size 3 to 8) (size 9 to 14) (size 15 to 20)
#    1.500    0.000    2.500    2.250    3.500    0.000 
#    0.000    2.500    0.000    0.000    0.000    0.000 
#    0.000    0.000    0.000    0.000    0.000    0.000 
#
# Total GULP energy -396630.256460 kJ/mol
# GULP energy per Si atom -12394.695514 kJ/mol
# Density = 2.405615 g / cm^3
# Si number density = 24.111032 Si / 1000 Ang^3
#
#
#
# Elastic Constant Matrix: (Units=GPa)
#
#
# Indices 1 2 3 4 5 6 
#
# 1 149.1901 42.2926 1.4782 0.0000 0.0000 0.0000
# 2 42.2926 82.8032 5.3290 0.0000 0.0000 0.0000
# 3 1.4782 5.3290 28.2114 0.0000 0.0000 0.0000
# 4 0.0000 0.0000 0.0000 14.8295 0.0000 0.0000
# 5 0.0000 0.0000 0.0000 0.0000 37.5474 0.0000
# 6 0.0000 0.0000 0.0000 0.0000 0.0000 37.1503
#
#
#
# Elastic Compliance Matrix: (Units=1/GPa)
#
#
# Indices 1 2 3 4 5 6 
#
# 1 0.007841 -0.004027 0.000350 0.000000 0.000000 0.000000
# 2 -0.004027 0.014294 -0.002489 0.000000 0.000000 0.000000
# 3 0.000350 -0.002489 0.035898 0.000000 0.000000 0.000000
# 4 0.000000 0.000000 0.000000 0.067433 0.000000 0.000000
# 5 0.000000 0.000000 0.000000 0.000000 0.026633 0.000000
# 6 0.000000 0.000000 0.000000 0.000000 0.000000 0.026918
#
#
# Mechanical properties :
#
#
# Convention : Reuss Voigt Hill
#
# Bulk Modulus (GPa) = 21.88163 39.82271 30.85217
# Shear Modulus (GPa) = 24.20319 31.97908 28.09113
#
# Velocity S-wave (km/s) = 3.17175 3.64583 3.41702
# Velocity P-wave (km/s) = 4.74430 5.85448 5.32839
#
# Compressibility (1/GPa) = 0.04570044
#
# Stress axis : x y z
#
# Youngs Moduli (GPa) = 127.53317 69.95903 27.85634
#
# Poissons Ratio (x) = 0.28176 -0.00975
# Poissons Ratio (y) = 0.51363 0.06934
# Poissons Ratio (z) = -0.04463 0.17413
#
# Static dielectric constant tensor:
#      x y z
#    x 4.385230 0.000000 0.000000 
#    y 0.000000 4.008850 0.000000 
#    z 0.000000 0.000000 4.035500 
# 
# 
# High freq. dielectric constant tensor:
#      x y z
#    x 1.974130 0.000000 0.000000 
#    y 0.000000 1.941370 0.000000 
#    z 0.000000 0.000000 1.944240 
# 
# From -- ./inp_files/1964.got.cif
#   From: 2010.03.12/outbox.cif.g09.slc.cpg/sg61_1_cif.got.tgz:1964.got - 2010.04.10 19:05:03.
