data_PCOD8249659
_publ_section_title
;
Structure prediction by ZEFSAII (Michael W. Deem and Ramdas Pophale) SiO2 
 PCOD8249659
Probable space group: P B C A
;
_chemical_formula_sum "Si O2"
_cell_formula_units_Z 40
_cell_length_a 19.816489
_cell_length_b 7.558159
_cell_length_c 11.582099
_cell_angle_alpha 90.000000
_cell_angle_beta 90.000000
_cell_angle_gamma 90.000000
_cell_volume 1734.722483
_symmetry_space_group_name_H-M "P B C A"
_symmetry_group_IT_number 61
_symmetry_cell_setting 'orthorhombic'
loop_
_space_group_symop_operation_xyz
x,y,z
1/2-x,-y,1/2+z
1/2+x,1/2-y,-z
-x,1/2+y,1/2-z
-x,-y,-z
1/2+x,y,1/2-z
1/2-x,1/2+y,z
x,1/2-y,1/2+z
loop_
_atom_site_type_symbol
_atom_site_label
_atom_site_fract_x
_atom_site_fract_y
_atom_site_fract_z
Si Si1 0.662051 0.938967 0.792949
Si Si2 0.443765 0.315999 0.879490
Si Si3 0.382932 0.969852 0.957149
Si Si4 0.191565 0.328319 0.749184
Si Si5 0.087217 0.393035 0.559060
O O1 0.597143 0.841866 0.739174
O O2 0.728579 0.823706 0.771251
O O3 0.653866 0.958805 0.929299
O O4 0.668245 0.127741 0.729993
O O5 0.520864 0.377818 0.858945
O O6 0.411921 0.431301 0.982769
O O7 0.439209 0.109668 0.914817
O O8 0.417137 0.780149 0.978020
O O9 0.325523 0.947749 0.859749
O O10 0.153771 0.405271 0.636666
#
# Coordination Sequence:
#
# PCOD8249659 Si02
#       5
#     8   8   8   8   8
#     4  11  26  44  68 105 134 185 229 282 342 411
#     4  11  24  44  70  97 139 176 230 282 347 396
#     4  11  25  45  70 100 137 185 228 282 344 403
#     4  11  25  44  69  98 143 176 233 285 335 409
#     4  10  25  45  66 102 134 181 228 286 335 412
#
# _framework density 23.058444999999999
#
# number of rings (size 3 to 8) (size 9 to 14) (size 15 to 20)
#    0.000    1.200    2.000    1.800    8.400    6.400 
#    0.000    0.000    0.000    0.000    0.000    0.000 
#    0.000    0.000    0.000    0.000    0.000    0.000 
#
# Total GULP energy -496220.217266 kJ/mol
# GULP energy per Si atom -12405.505432 kJ/mol
# Density = 2.300596 g / cm^3
# Si number density = 23.058445 Si / 1000 Ang^3
#
#
#
# Elastic Constant Matrix: (Units=GPa)
#
#
# Indices 1 2 3 4 5 6 
#
# 1 62.0389 -10.0836 -2.0575 0.0000 0.0000 0.0000
# 2 -10.0836 78.2629 23.1123 0.0000 0.0000 0.0000
# 3 -2.0575 23.1123 71.9486 0.0000 0.0000 0.0000
# 4 0.0000 0.0000 0.0000 31.2416 0.0000 0.0000
# 5 0.0000 0.0000 0.0000 0.0000 30.1131 0.0000
# 6 0.0000 0.0000 0.0000 0.0000 0.0000 32.1247
#
#
#
# Elastic Compliance Matrix: (Units=1/GPa)
#
#
# Indices 1 2 3 4 5 6 
#
# 1 0.016467 0.002190 -0.000233 0.000000 0.000000 0.000000
# 2 0.002190 0.014408 -0.004566 0.000000 0.000000 0.000000
# 3 -0.000233 -0.004566 0.015359 0.000000 0.000000 0.000000
# 4 0.000000 0.000000 0.000000 0.032009 0.000000 0.000000
# 5 0.000000 0.000000 0.000000 0.000000 0.033208 0.000000
# 6 0.000000 0.000000 0.000000 0.000000 0.000000 0.031129
#
#
# Mechanical properties :
#
#
# Convention : Reuss Voigt Hill
#
# Bulk Modulus (GPa) = 24.37952 26.02142 25.20047
# Shear Modulus (GPa) = 30.96585 32.11449 31.54017
#
# Velocity S-wave (km/s) = 3.66858 3.73600 3.70244
# Velocity P-wave (km/s) = 5.34233 5.46989 5.40649
#
# Compressibility (1/GPa) = 0.04101804
#
# Stress axis : x y z
#
# Youngs Moduli (GPa) = 60.72665 69.40588 65.10924
#
# Poissons Ratio (x) = -0.15203 0.01515
# Poissons Ratio (y) = -0.13302 0.29727
# Poissons Ratio (z) = 0.01413 0.31689
#
# Static dielectric constant tensor:
#      x y z
#    x 3.955760 0.000000 0.000000 
#    y 0.000000 4.314240 0.000000 
#    z 0.000000 0.000000 3.967950 
# 
# 
# High freq. dielectric constant tensor:
#      x y z
#    x 1.904210 0.000000 0.000000 
#    y 0.000000 1.925040 0.000000 
#    z 0.000000 0.000000 1.908040 
# 
# From -- ./inp_files/2159.got.cif
#   From: 2010.03.12/outbox.cif.g09.slc.cpg/sg61_2_cif.got.tgz:2159.got - 2010.04.10 19:05:03.
