data_PCOD8249384
_publ_section_title
;
Structure prediction by ZEFSAII (Michael W. Deem and Ramdas Pophale) SiO2 
 PCOD8249384
Probable space group: P B C A
;
_chemical_formula_sum "Si O2"
_cell_formula_units_Z 64
_cell_length_a 29.230885
_cell_length_b 8.829564
_cell_length_c 11.967437
_cell_angle_alpha 90.000000
_cell_angle_beta 90.000000
_cell_angle_gamma 90.000000
_cell_volume 3088.747260
_symmetry_space_group_name_H-M "P B C A"
_symmetry_group_IT_number 61
_symmetry_cell_setting 'orthorhombic'
loop_
_space_group_symop_operation_xyz
x,y,z
1/2-x,-y,1/2+z
1/2+x,1/2-y,-z
-x,1/2+y,1/2-z
-x,-y,-z
1/2+x,y,1/2-z
1/2-x,1/2+y,z
x,1/2-y,1/2+z
loop_
_atom_site_type_symbol
_atom_site_label
_atom_site_fract_x
_atom_site_fract_y
_atom_site_fract_z
Si Si1 0.990562 0.237246 0.604062
Si Si2 0.317514 0.060949 0.499291
Si Si3 0.249295 0.165562 0.328928
Si Si4 0.323090 0.797791 0.008519
Si Si5 0.245348 0.084454 0.674234
Si Si6 0.419386 0.435541 0.022889
Si Si7 0.043128 0.456865 0.751903
Si Si8 0.924695 0.768362 0.547789
O O1 0.954079 0.304561 0.515826
O O2 0.001063 0.370239 0.692862
O O3 0.034856 0.180116 0.535465
O O4 0.972202 0.092116 0.668447
O O5 0.297263 0.114977 0.381841
O O6 0.285842 0.138611 0.592966
O O7 0.368356 0.127896 0.508622
O O8 0.315847 0.881232 0.512322
O O9 0.205115 0.129991 0.405206
O O10 0.249828 0.342461 0.298041
O O11 0.247160 0.091227 0.204808
O O12 0.304164 0.878176 0.120527
O O13 0.376872 0.833431 0.999203
O O14 0.425098 0.477101 0.153597
O O15 0.425639 0.585422 0.946471
O O16 0.069541 0.333304 0.827272
#
# Coordination Sequence:
#
# PCOD8249384 Si02
#       8
#     8   8   8   8   8   8   8   8
#     4  11  22  42  63  94 126 158 213 263 315 380
#     4  10  22  40  59  91 122 159 204 256 300 378
#     4  11  22  39  63  86 122 161 203 248 314 356
#     4  10  22  39  61  91 121 158 211 249 303 379
#     4  11  22  39  63  87 123 163 202 254 306 366
#     4  10  23  42  61  91 128 156 210 264 311 375
#     4  11  22  39  67  88 119 173 196 257 329 369
#     4  10  22  40  64  90 120 164 211 257 306 383
#
# _framework density 20.720375000000001
#
# number of rings (size 3 to 8) (size 9 to 14) (size 15 to 20)
#    0.000    1.500    2.500    3.375    1.750    2.000 
#    4.500    0.000    0.000    0.000    0.000    0.000 
#    0.000    0.000    0.000    0.000    0.000    0.000 
#
# Total GULP energy -793501.860826 kJ/mol
# GULP energy per Si atom -12398.466575 kJ/mol
# Density = 2.067321 g / cm^3
# Si number density = 20.720375 Si / 1000 Ang^3
#
#
#
# Elastic Constant Matrix: (Units=GPa)
#
#
# Indices 1 2 3 4 5 6 
#
# 1 164.0761 36.4937 63.0921 0.0000 0.0000 0.0000
# 2 36.4937 46.7754 40.0420 0.0000 0.0000 0.0000
# 3 63.0921 40.0420 117.6633 0.0000 0.0000 0.0000
# 4 0.0000 0.0000 0.0000 50.2587 0.0000 0.0000
# 5 0.0000 0.0000 0.0000 0.0000 21.7757 0.0000
# 6 0.0000 0.0000 0.0000 0.0000 0.0000 28.2182
#
#
#
# Elastic Compliance Matrix: (Units=1/GPa)
#
#
# Indices 1 2 3 4 5 6 
#
# 1 0.008101 -0.003671 -0.003095 0.000000 0.000000 0.000000
# 2 -0.003671 0.031831 -0.008864 0.000000 0.000000 0.000000
# 3 -0.003095 -0.008864 0.013175 0.000000 0.000000 0.000000
# 4 0.000000 0.000000 0.000000 0.019897 0.000000 0.000000
# 5 0.000000 0.000000 0.000000 0.000000 0.045923 0.000000
# 6 0.000000 0.000000 0.000000 0.000000 0.000000 0.035438
#
#
# Mechanical properties :
#
#
# Convention : Reuss Voigt Hill
#
# Bulk Modulus (GPa) = 45.77213 67.53003 56.65108
# Shear Modulus (GPa) = 25.91926 32.64298 29.28112
#
# Velocity S-wave (km/s) = 3.54065 3.97344 3.76327
# Velocity P-wave (km/s) = 6.23324 7.32891 6.80317
#
# Compressibility (1/GPa) = 0.02184736
#
# Stress axis : x y z
#
# Youngs Moduli (GPa) = 123.43729 31.41593 75.90384
#
# Poissons Ratio (x) = 0.11534 0.23489
# Poissons Ratio (y) = 0.45320 0.67279
# Poissons Ratio (z) = 0.38198 0.27846
#
# Static dielectric constant tensor:
#      x y z
#    x 3.810200 0.000000 0.000000 
#    y 0.000000 3.613320 0.000000 
#    z 0.000000 0.000000 3.753070 
# 
# 
# High freq. dielectric constant tensor:
#      x y z
#    x 1.806220 0.000000 0.000000 
#    y 0.000000 1.806280 0.000000 
#    z 0.000000 0.000000 1.818370 
# 
# From -- ./inp_files/2464.got.cif
#   From: 2010.03.12/outbox.cif.g09.slc.cpg/sg61_2_cif.got.tgz:2464.got - 2010.04.10 19:05:03.
