data_PCOD8249008
_publ_section_title
;
Structure prediction by ZEFSAII (Michael W. Deem and Ramdas Pophale) SiO2 
 PCOD8249008
Probable space group: P B C A
;
_chemical_formula_sum "Si O2"
_cell_formula_units_Z 32
_cell_length_a 15.738001
_cell_length_b 5.109557
_cell_length_c 18.383037
_cell_angle_alpha 90.000000
_cell_angle_beta 90.000000
_cell_angle_gamma 90.000000
_cell_volume 1478.257456
_symmetry_space_group_name_H-M "P B C A"
_symmetry_group_IT_number 61
_symmetry_cell_setting 'orthorhombic'
loop_
_space_group_symop_operation_xyz
x,y,z
1/2-x,-y,1/2+z
1/2+x,1/2-y,-z
-x,1/2+y,1/2-z
-x,-y,-z
1/2+x,y,1/2-z
1/2-x,1/2+y,z
x,1/2-y,1/2+z
loop_
_atom_site_type_symbol
_atom_site_label
_atom_site_fract_x
_atom_site_fract_y
_atom_site_fract_z
Si Si1 0.063040 0.970037 0.846962
Si Si2 0.893893 0.192869 0.881484
Si Si3 0.594439 0.295440 0.298013
Si Si4 0.805224 0.196069 0.034461
O O1 0.113992 0.136903 0.785871
O O2 0.996233 0.155805 0.890317
O O3 0.128627 0.839425 0.900906
O O4 0.008651 0.740669 0.806087
O O5 0.871659 0.476463 0.850665
O O6 0.858761 0.970392 0.824965
O O7 0.851567 0.150832 0.958692
O O8 0.770996 0.489908 0.041377
#
# Coordination Sequence:
#
# PCOD8249008 Si02
#       4
#     8   8   8   8
#     4  10  22  41  70  96 119 161 221 264 308 365
#     4  10  21  41  65  93 119 167 210 261 301 377
#     4  10  20  37  74  91 118 147 224 268 306 351
#     4  12  28  42  59  92 138 171 204 254 325 382
#
# _framework density 21.647107999999999
#
# number of rings (size 3 to 8) (size 9 to 14) (size 15 to 20)
#    1.500    0.000    2.500    2.250    3.500    1.000 
#    0.000    7.500    0.000    0.000    0.000    0.000 
#    0.000    0.000    0.000    0.000    0.000    0.000 
#
# Total GULP energy -396674.622963 kJ/mol
# GULP energy per Si atom -12396.081968 kJ/mol
# Density = 2.159784 g / cm^3
# Si number density = 21.647108 Si / 1000 Ang^3
#
#
#
# Elastic Constant Matrix: (Units=GPa)
#
#
# Indices 1 2 3 4 5 6 
#
# 1 40.2382 -7.6448 50.7039 0.0000 0.0000 0.0000
# 2 -7.6448 99.1365 -0.9101 0.0000 0.0000 0.0000
# 3 50.7039 -0.9101 217.9305 0.0000 0.0000 0.0000
# 4 0.0000 0.0000 0.0000 33.6836 0.0000 0.0000
# 5 0.0000 0.0000 0.0000 0.0000 71.1846 0.0000
# 6 0.0000 0.0000 0.0000 0.0000 0.0000 25.8013
#
#
#
# Elastic Compliance Matrix: (Units=1/GPa)
#
#
# Indices 1 2 3 4 5 6 
#
# 1 0.035863 0.002689 -0.008333 0.000000 0.000000 0.000000
# 2 0.002689 0.010289 -0.000583 0.000000 0.000000 0.000000
# 3 -0.008333 -0.000583 0.006525 0.000000 0.000000 0.000000
# 4 0.000000 0.000000 0.000000 0.029688 0.000000 0.000000
# 5 0.000000 0.000000 0.000000 0.000000 0.014048 0.000000
# 6 0.000000 0.000000 0.000000 0.000000 0.000000 0.038758
#
#
# Mechanical properties :
#
#
# Convention : Reuss Voigt Hill
#
# Bulk Modulus (GPa) = 24.86064 49.06703 36.96383
# Shear Modulus (GPa) = 31.04991 47.14433 39.09712
#
# Velocity S-wave (km/s) = 3.79141 4.67182 4.25445
# Velocity P-wave (km/s) = 5.53858 7.19841 6.42234
#
# Compressibility (1/GPa) = 0.04022423
#
# Stress axis : x y z
#
# Youngs Moduli (GPa) = 27.88405 97.19009 153.25982
#
# Poissons Ratio (x) = -0.26135 1.27706
# Poissons Ratio (y) = -0.07498 0.08930
# Poissons Ratio (z) = 0.23235 0.05663
#
# Static dielectric constant tensor:
#      x y z
#    x 3.531020 0.000000 0.000000 
#    y 0.000000 3.955050 0.000000 
#    z 0.000000 0.000000 3.723400 
# 
# 
# High freq. dielectric constant tensor:
#      x y z
#    x 1.814380 0.000000 0.000000 
#    y 0.000000 1.858730 0.000000 
#    z 0.000000 0.000000 1.854650 
# 
# From -- ./inp_files/360.got.cif
#   From: 2010.03.12/outbox.cif.g09.slc.cpg/sg61_1_cif.got.tgz:360.got - 2010.04.10 19:05:03.
