data_PCOD8249323
_publ_section_title
;
Structure prediction by ZEFSAII (Michael W. Deem and Ramdas Pophale) SiO2 
 PCOD8249323
Probable space group: P B C A
;
_chemical_formula_sum "Si O2"
_cell_formula_units_Z 40
_cell_length_a 8.902606
_cell_length_b 8.902699
_cell_length_c 22.878036
_cell_angle_alpha 90.000000
_cell_angle_beta 90.000000
_cell_angle_gamma 90.000000
_cell_volume 1813.249568
_symmetry_space_group_name_H-M "P B C A"
_symmetry_group_IT_number 61
_symmetry_cell_setting 'orthorhombic'
loop_
_space_group_symop_operation_xyz
x,y,z
1/2-x,-y,1/2+z
1/2+x,1/2-y,-z
-x,1/2+y,1/2-z
-x,-y,-z
1/2+x,y,1/2-z
1/2-x,1/2+y,z
x,1/2-y,1/2+z
loop_
_atom_site_type_symbol
_atom_site_label
_atom_site_fract_x
_atom_site_fract_y
_atom_site_fract_z
Si Si1 0.269462 0.241795 0.049148
Si Si2 0.912556 0.508290 0.394145
Si Si3 0.056755 0.783423 0.436196
Si Si4 0.623199 0.624431 0.691509
Si Si5 0.929720 0.036017 0.220996
O O1 0.400294 0.344855 0.076732
O O2 0.111001 0.332548 0.042840
O O3 0.241428 0.100995 0.092616
O O4 0.321565 0.183159 0.985911
O O5 0.052031 0.602698 0.422289
O O6 0.937266 0.496545 0.324949
O O7 0.103529 0.872706 0.378206
O O8 0.494352 0.514039 0.716340
O O9 0.786137 0.562169 0.705522
O O10 0.607680 0.787928 0.721092
#
# Coordination Sequence:
#
# PCOD8249323 Si02
#       5
#     8   8   8   8   8
#     4  10  21  42  67  95 142 175 228 278 349 408
#     4   9  23  41  65  96 137 177 225 281 346 405
#     4   9  23  40  68 102 133 178 231 282 345 411
#     4  11  25  46  70 102 135 184 231 285 349 410
#     4  11  25  46  70  99 140 178 235 287 345 418
#
# _framework density 22.059840999999999
#
# number of rings (size 3 to 8) (size 9 to 14) (size 15 to 20)
#    1.200    0.800    0.000    1.800    5.600    4.000 
#    3.600    0.000    0.000    0.000    0.000    0.000 
#    0.000    0.000    0.000    0.000    0.000    0.000 
#
# Total GULP energy -495784.515403 kJ/mol
# GULP energy per Si atom -12394.612885 kJ/mol
# Density = 2.200963 g / cm^3
# Si number density = 22.059841 Si / 1000 Ang^3
#
#
#
# Elastic Constant Matrix: (Units=GPa)
#
#
# Indices 1 2 3 4 5 6 
#
# 1 91.7657 22.6074 49.2680 0.0000 0.0000 0.0000
# 2 22.6074 82.5918 24.4174 0.0000 0.0000 0.0000
# 3 49.2680 24.4174 71.2966 0.0000 0.0000 0.0000
# 4 0.0000 0.0000 0.0000 27.7350 0.0000 0.0000
# 5 0.0000 0.0000 0.0000 0.0000 49.0277 0.0000
# 6 0.0000 0.0000 0.0000 0.0000 0.0000 35.2157
#
#
#
# Elastic Compliance Matrix: (Units=1/GPa)
#
#
# Indices 1 2 3 4 5 6 
#
# 1 0.017459 -0.001349 -0.011603 0.000000 0.000000 0.000000
# 2 -0.001349 0.013576 -0.003717 0.000000 0.000000 0.000000
# 3 -0.011603 -0.003717 0.023317 0.000000 0.000000 0.000000
# 4 0.000000 0.000000 0.000000 0.036056 0.000000 0.000000
# 5 0.000000 0.000000 0.000000 0.000000 0.020397 0.000000
# 6 0.000000 0.000000 0.000000 0.000000 0.000000 0.028396
#
#
# Mechanical properties :
#
#
# Convention : Reuss Voigt Hill
#
# Bulk Modulus (GPa) = 47.58735 48.69331 48.14033
# Shear Modulus (GPa) = 27.84848 32.35310 30.10079
#
# Velocity S-wave (km/s) = 3.55689 3.83378 3.69793
# Velocity P-wave (km/s) = 6.20382 6.45898 6.33268
#
# Compressibility (1/GPa) = 0.02101399
#
# Stress axis : x y z
#
# Youngs Moduli (GPa) = 57.27703 73.65969 42.88728
#
# Poissons Ratio (x) = 0.09935 0.49761
# Poissons Ratio (y) = 0.07725 0.15943
# Poissons Ratio (z) = 0.66457 0.27383
#
# Static dielectric constant tensor:
#      x y z
#    x 3.757040 0.000000 0.000000 
#    y 0.000000 3.811480 0.000000 
#    z 0.000000 0.000000 3.875590 
# 
# 
# High freq. dielectric constant tensor:
#      x y z
#    x 1.856800 0.000000 0.000000 
#    y 0.000000 1.860770 0.000000 
#    z 0.000000 0.000000 1.867070 
# 
# From -- ./inp_files/10801.got.cif
#   From: 2010.03.12/outbox.cif.g09.slc.cpg/sg61_6_cif.got.tgz:10801.got - 2010.04.10 19:05:03.
