data_PCOD8249368
_publ_section_title
;
Structure prediction by ZEFSAII (Michael W. Deem and Ramdas Pophale) SiO2 
 PCOD8249368
Probable space group: P B C A
;
_chemical_formula_sum "Si O2"
_cell_formula_units_Z 64
_cell_length_a 14.816915
_cell_length_b 16.151472
_cell_length_c 12.705651
_cell_angle_alpha 90.000000
_cell_angle_beta 90.000000
_cell_angle_gamma 90.000000
_cell_volume 3040.652713
_symmetry_space_group_name_H-M "P B C A"
_symmetry_group_IT_number 61
_symmetry_cell_setting 'orthorhombic'
loop_
_space_group_symop_operation_xyz
x,y,z
1/2-x,-y,1/2+z
1/2+x,1/2-y,-z
-x,1/2+y,1/2-z
-x,-y,-z
1/2+x,y,1/2-z
1/2-x,1/2+y,z
x,1/2-y,1/2+z
loop_
_atom_site_type_symbol
_atom_site_label
_atom_site_fract_x
_atom_site_fract_y
_atom_site_fract_z
Si Si1 0.887426 0.442634 0.172592
Si Si2 0.447944 0.154809 0.387239
Si Si3 0.738704 0.896129 0.994608
Si Si4 0.686415 0.785707 0.435771
Si Si5 0.532230 0.787146 0.274349
Si Si6 0.071488 0.119909 0.925602
Si Si7 0.264896 0.548860 0.656010
Si Si8 0.553359 0.503253 0.244311
O O1 0.951731 0.368459 0.206528
O O2 0.800934 0.455559 0.244994
O O3 0.962240 0.517161 0.183290
O O4 0.852516 0.424673 0.054586
O O5 0.367056 0.191035 0.457615
O O6 0.495192 0.221084 0.312270
O O7 0.528426 0.119406 0.458731
O O8 0.408681 0.088608 0.303673
O O9 0.758259 0.965952 0.908622
O O10 0.736897 0.801778 0.951471
O O11 0.822232 0.895434 0.074688
O O12 0.623104 0.766201 0.337217
O O13 0.750815 0.864815 0.408885
O O14 0.451565 0.796073 0.360210
O O15 0.023085 0.047467 0.859875
O O16 0.368723 0.544702 0.691770
#
# Coordination Sequence:
#
# PCOD8249368 Si02
#       8
#     8   8   8   8   8   8   8   8
#     4  10  22  42  62  90 133 166 210 276 328 380
#     4  11  20  40  67  94 122 174 223 263 336 405
#     4  12  22  43  65  92 132 175 212 274 334 390
#     4  10  23  40  64  96 130 173 220 271 331 399
#     4   9  20  41  62  89 127 164 214 271 323 384
#     4  10  22  38  63  92 124 167 219 270 322 396
#     4  11  24  42  65  96 130 172 224 266 332 400
#     4  11  22  40  65  91 132 170 209 279 329 389
#
# _framework density 21.048113000000001
#
# number of rings (size 3 to 8) (size 9 to 14) (size 15 to 20)
#    0.000    1.500    2.500    3.375    0.000    2.500 
#    2.250    0.000    0.000    0.000    0.000    0.000 
#    0.000    0.000    0.000    0.000    0.000    0.000 
#
# Total GULP energy -792963.135252 kJ/mol
# GULP energy per Si atom -12390.048988 kJ/mol
# Density = 2.100021 g / cm^3
# Si number density = 21.048113 Si / 1000 Ang^3
#
#
#
# Elastic Constant Matrix: (Units=GPa)
#
#
# Indices 1 2 3 4 5 6 
#
# 1 89.5735 20.6679 26.7750 0.0000 0.0000 0.0000
# 2 20.6679 106.8202 40.8065 0.0000 0.0000 0.0000
# 3 26.7750 40.8065 73.1192 0.0000 0.0000 0.0000
# 4 0.0000 0.0000 0.0000 35.6140 0.0000 0.0000
# 5 0.0000 0.0000 0.0000 0.0000 30.5849 0.0000
# 6 0.0000 0.0000 0.0000 0.0000 0.0000 21.4355
#
#
#
# Elastic Compliance Matrix: (Units=1/GPa)
#
#
# Indices 1 2 3 4 5 6 
#
# 1 0.012598 -0.000858 -0.004134 0.000000 0.000000 0.000000
# 2 -0.000858 0.011957 -0.006359 0.000000 0.000000 0.000000
# 3 -0.004134 -0.006359 0.018739 0.000000 0.000000 0.000000
# 4 0.000000 0.000000 0.000000 0.028079 0.000000 0.000000
# 5 0.000000 0.000000 0.000000 0.000000 0.032696 0.000000
# 6 0.000000 0.000000 0.000000 0.000000 0.000000 0.046652
#
#
# Mechanical properties :
#
#
# Convention : Reuss Voigt Hill
#
# Bulk Modulus (GPa) = 48.56389 49.55685 49.06037
# Shear Modulus (GPa) = 27.73389 29.61113 28.67251
#
# Velocity S-wave (km/s) = 3.63387 3.75484 3.69485
# Velocity P-wave (km/s) = 6.38197 6.51108 6.44685
#
# Compressibility (1/GPa) = 0.02059143
#
# Stress axis : x y z
#
# Youngs Moduli (GPa) = 79.37894 83.63595 53.36546
#
# Poissons Ratio (x) = 0.07177 0.22062
# Poissons Ratio (y) = 0.06812 0.33932
# Poissons Ratio (z) = 0.32817 0.53180
#
# Static dielectric constant tensor:
#      x y z
#    x 3.725590 0.000000 0.000000 
#    y 0.000000 4.054240 0.000000 
#    z 0.000000 0.000000 3.869790 
# 
# 
# High freq. dielectric constant tensor:
#      x y z
#    x 1.815850 0.000000 0.000000 
#    y 0.000000 1.820480 0.000000 
#    z 0.000000 0.000000 1.830300 
# 
# From -- ./inp_files/5975.got.cif
#   From: 2010.03.12/outbox.cif.g09.slc.cpg/sg61_3_cif.got.tgz:5975.got - 2010.04.10 19:05:03.
