data_PCOD8249304
_publ_section_title
;
Structure prediction by ZEFSAII (Michael W. Deem and Ramdas Pophale) SiO2 
 PCOD8249304
Probable space group: P B C A
;
_chemical_formula_sum "Si O2"
_cell_formula_units_Z 64
_cell_length_a 7.610491
_cell_length_b 11.980685
_cell_length_c 33.166949
_cell_angle_alpha 90.000000
_cell_angle_beta 90.000000
_cell_angle_gamma 90.000000
_cell_volume 3024.125772
_symmetry_space_group_name_H-M "P B C A"
_symmetry_group_IT_number 61
_symmetry_cell_setting 'orthorhombic'
loop_
_space_group_symop_operation_xyz
x,y,z
1/2-x,-y,1/2+z
1/2+x,1/2-y,-z
-x,1/2+y,1/2-z
-x,-y,-z
1/2+x,y,1/2-z
1/2-x,1/2+y,z
x,1/2-y,1/2+z
loop_
_atom_site_type_symbol
_atom_site_label
_atom_site_fract_x
_atom_site_fract_y
_atom_site_fract_z
Si Si1 0.400322 0.969569 0.038585
Si Si2 0.209732 0.280675 0.863771
Si Si3 0.983733 0.738455 0.923779
Si Si4 0.906805 0.293653 0.926521
Si Si5 0.937236 0.128097 0.994963
Si Si6 0.552345 0.139674 0.700213
Si Si7 0.275701 0.762371 0.727668
Si Si8 0.397765 0.388127 0.794516
O O1 0.519694 0.893258 0.067897
O O2 0.258186 0.882744 0.021372
O O3 0.340373 0.085651 0.057702
O O4 0.500000 0.000000 0.000000
O O5 0.390769 0.271599 0.887680
O O6 0.156884 0.166216 0.841131
O O7 0.249723 0.371798 0.829005
O O8 0.046882 0.317553 0.891453
O O9 0.778762 0.746446 0.910266
O O10 0.036196 0.813046 0.962451
O O11 0.008676 0.212595 0.959376
O O12 0.000000 0.000000 0.000000
O O13 0.667075 0.172837 0.738817
O O14 0.367089 0.204964 0.698773
O O15 0.517940 0.009116 0.702176
O O16 0.440725 0.800664 0.700666
O O17 0.191861 0.869218 0.750819
#
# Coordination Sequence:
#
# PCOD8249304 Si02
#       8
#     8   8   8   8   8   8   8   8
#     4  11  22  39  69  89 116 166 220 278 331 388
#     4  11  27  41  63  95 138 170 214 264 329 397
#     4  11  25  43  62  93 130 167 220 277 332 394
#     4  11  25  44  61  94 128 169 222 272 328 396
#     4  11  23  41  66  91 121 164 221 280 333 383
#     4  10  21  41  67 100 134 171 217 265 322 392
#     4   9  20  40  70 101 133 166 221 271 310 391
#     4  10  21  41  68 100 132 178 213 266 331 386
#
# _framework density 21.163139999999999
#
# number of rings (size 3 to 8) (size 9 to 14) (size 15 to 20)
#    0.000    1.500    2.500    1.500    7.000    1.000 
#    0.000    1.250    0.000    0.000    0.000    0.000 
#    0.000    0.000    0.000    0.000    0.000    0.000 
#
# Total GULP energy -792869.970294 kJ/mol
# GULP energy per Si atom -12388.593286 kJ/mol
# Density = 2.111497 g / cm^3
# Si number density = 21.163140 Si / 1000 Ang^3
#
#
#
# Elastic Constant Matrix: (Units=GPa)
#
#
# Indices 1 2 3 4 5 6 
#
# 1 105.3175 25.6170 49.4576 0.0000 0.0000 0.0000
# 2 25.6170 111.6928 30.4628 0.0000 0.0000 0.0000
# 3 49.4576 30.4628 88.7192 0.0000 0.0000 0.0000
# 4 0.0000 0.0000 0.0000 12.3297 0.0000 0.0000
# 5 0.0000 0.0000 0.0000 0.0000 39.4594 0.0000
# 6 0.0000 0.0000 0.0000 0.0000 0.0000 27.4089
#
#
#
# Elastic Compliance Matrix: (Units=1/GPa)
#
#
# Indices 1 2 3 4 5 6 
#
# 1 0.012985 -0.001108 -0.006858 0.000000 0.000000 0.000000
# 2 -0.001108 0.009973 -0.002807 0.000000 0.000000 0.000000
# 3 -0.006858 -0.002807 0.016059 0.000000 0.000000 0.000000
# 4 0.000000 0.000000 0.000000 0.081105 0.000000 0.000000
# 5 0.000000 0.000000 0.000000 0.000000 0.025343 0.000000
# 6 0.000000 0.000000 0.000000 0.000000 0.000000 0.036485
#
#
# Mechanical properties :
#
#
# Convention : Reuss Voigt Hill
#
# Bulk Modulus (GPa) = 57.23845 57.42271 57.33058
# Shear Modulus (GPa) = 23.88707 29.18572 26.53640
#
# Velocity S-wave (km/s) = 3.36327 3.71763 3.54488
# Velocity P-wave (km/s) = 6.49516 6.75425 6.62598
#
# Compressibility (1/GPa) = 0.01747077
#
# Stress axis : x y z
#
# Youngs Moduli (GPa) = 77.01019 100.27398 62.27187
#
# Poissons Ratio (x) = 0.11107 0.42709
# Poissons Ratio (y) = 0.08530 0.17478
# Poissons Ratio (z) = 0.52817 0.28145
#
# Static dielectric constant tensor:
#      x y z
#    x 3.893050 0.000000 0.000000 
#    y 0.000000 3.575790 0.000000 
#    z 0.000000 0.000000 3.746210 
# 
# 
# High freq. dielectric constant tensor:
#      x y z
#    x 1.835380 0.000000 0.000000 
#    y 0.000000 1.831260 0.000000 
#    z 0.000000 0.000000 1.819130 
# 
# From -- ./inp_files/11716.got.cif
#   From: 2010.03.12/outbox.cif.g09.slc.cpg/sg61_6_cif.got.tgz:11716.got - 2010.04.10 19:05:03.
