data_PCOD8249460
_publ_section_title
;
Structure prediction by ZEFSAII (Michael W. Deem and Ramdas Pophale) SiO2 
 PCOD8249460
Probable space group: P B C A
;
_chemical_formula_sum "Si O2"
_cell_formula_units_Z 64
_cell_length_a 13.787882
_cell_length_b 8.792490
_cell_length_c 24.286897
_cell_angle_alpha 90.000000
_cell_angle_beta 90.000000
_cell_angle_gamma 90.000000
_cell_volume 2944.296021
_symmetry_space_group_name_H-M "P B C A"
_symmetry_group_IT_number 61
_symmetry_cell_setting 'orthorhombic'
loop_
_space_group_symop_operation_xyz
x,y,z
1/2-x,-y,1/2+z
1/2+x,1/2-y,-z
-x,1/2+y,1/2-z
-x,-y,-z
1/2+x,y,1/2-z
1/2-x,1/2+y,z
x,1/2-y,1/2+z
loop_
_atom_site_type_symbol
_atom_site_label
_atom_site_fract_x
_atom_site_fract_y
_atom_site_fract_z
Si Si1 0.122514 0.652755 0.051450
Si Si2 0.464798 0.740504 0.256001
Si Si3 0.236974 0.586685 0.378591
Si Si4 0.246043 0.392812 0.105203
Si Si5 0.197396 0.369635 0.682825
Si Si6 0.863698 0.437111 0.734771
Si Si7 0.551175 0.375600 0.625925
Si Si8 0.635942 0.853958 0.075348
O O1 0.165060 0.494934 0.075095
O O2 0.197936 0.790379 0.060702
O O3 0.020813 0.695624 0.080451
O O4 0.101642 0.635365 0.987225
O O5 0.384084 0.632293 0.229070
O O6 0.566750 0.710229 0.224154
O O7 0.490552 0.668007 0.315170
O O8 0.431920 0.914661 0.257288
O O9 0.206878 0.538414 0.316993
O O10 0.337501 0.686607 0.377132
O O11 0.259427 0.437774 0.415576
O O12 0.149187 0.679762 0.406351
O O13 0.322820 0.500334 0.137356
O O14 0.195442 0.290969 0.151771
O O15 0.300928 0.405573 0.710789
O O16 0.556618 0.559203 0.613812
#
# Coordination Sequence:
#
# PCOD8249460 Si02
#       8
#     8   8   8   8   8   8   8   8
#     4  11  22  44  67 100 129 178 235 282 352 404
#     4  12  26  40  69  95 136 181 220 280 345 412
#     4  10  23  42  68  97 137 175 227 282 339 403
#     4  10  23  38  65  91 136 168 222 281 329 416
#     4  11  22  43  61  92 136 179 216 272 342 410
#     4  12  27  42  67  99 137 179 235 272 345 416
#     4  10  24  40  70  97 130 171 234 278 334 410
#     4  10  22  42  71  92 133 181 220 291 343 395
#
# _framework density 21.736946
#
# number of rings (size 3 to 8) (size 9 to 14) (size 15 to 20)
#    0.750    0.500    2.500    3.375    5.250    0.000 
#    0.000    0.000    0.000    2.250    0.000    0.000 
#    0.000    0.000    0.000    0.000    0.000    0.000 
#
# Total GULP energy -793120.201912 kJ/mol
# GULP energy per Si atom -12392.503155 kJ/mol
# Density = 2.168747 g / cm^3
# Si number density = 21.736946 Si / 1000 Ang^3
#
#
#
# Elastic Constant Matrix: (Units=GPa)
#
#
# Indices 1 2 3 4 5 6 
#
# 1 75.3522 9.2687 2.0182 0.0000 0.0000 0.0000
# 2 9.2687 68.9104 15.4629 0.0000 0.0000 0.0000
# 3 2.0182 15.4629 69.2615 0.0000 0.0000 0.0000
# 4 0.0000 0.0000 0.0000 29.4221 0.0000 0.0000
# 5 0.0000 0.0000 0.0000 0.0000 29.7636 0.0000
# 6 0.0000 0.0000 0.0000 0.0000 0.0000 25.2526
#
#
#
# Elastic Compliance Matrix: (Units=1/GPa)
#
#
# Indices 1 2 3 4 5 6 
#
# 1 0.013494 -0.001818 0.000013 0.000000 0.000000 0.000000
# 2 -0.001818 0.015522 -0.003412 0.000000 0.000000 0.000000
# 3 0.000013 -0.003412 0.015199 0.000000 0.000000 0.000000
# 4 0.000000 0.000000 0.000000 0.033988 0.000000 0.000000
# 5 0.000000 0.000000 0.000000 0.000000 0.033598 0.000000
# 6 0.000000 0.000000 0.000000 0.000000 0.000000 0.039600
#
#
# Mechanical properties :
#
#
# Convention : Reuss Voigt Hill
#
# Bulk Modulus (GPa) = 29.60293 29.66931 29.63612
# Shear Modulus (GPa) = 28.88556 29.33928 29.11242
#
# Velocity S-wave (km/s) = 3.64932 3.67787 3.66362
# Velocity P-wave (km/s) = 5.60402 5.63156 5.61781
#
# Compressibility (1/GPa) = 0.03378044
#
# Stress axis : x y z
#
# Youngs Moduli (GPa) = 74.10546 64.42551 65.79169
#
# Poissons Ratio (x) = 0.11712 -0.00083
# Poissons Ratio (y) = 0.13471 0.22450
# Poissons Ratio (z) = -0.00094 0.21984
#
# Static dielectric constant tensor:
#      x y z
#    x 3.733440 0.000000 0.000000 
#    y 0.000000 3.825890 0.000000 
#    z 0.000000 0.000000 3.772100 
# 
# 
# High freq. dielectric constant tensor:
#      x y z
#    x 1.843570 0.000000 0.000000 
#    y 0.000000 1.847880 0.000000 
#    z 0.000000 0.000000 1.853230 
# 
# From -- ./inp_files/11068.got.cif
#   From: 2010.03.12/outbox.cif.g09.slc.cpg/sg61_6_cif.got.tgz:11068.got - 2010.04.10 19:05:03.
