data_PCOD8249450
_publ_section_title
;
Structure prediction by ZEFSAII (Michael W. Deem and Ramdas Pophale) SiO2 
 PCOD8249450
Probable space group: P B C A
;
_chemical_formula_sum "Si O2"
_cell_formula_units_Z 64
_cell_length_a 15.149719
_cell_length_b 8.899491
_cell_length_c 21.367393
_cell_angle_alpha 90.000000
_cell_angle_beta 90.000000
_cell_angle_gamma 90.000000
_cell_volume 2880.854229
_symmetry_space_group_name_H-M "P B C A"
_symmetry_group_IT_number 61
_symmetry_cell_setting 'orthorhombic'
loop_
_space_group_symop_operation_xyz
x,y,z
1/2-x,-y,1/2+z
1/2+x,1/2-y,-z
-x,1/2+y,1/2-z
-x,-y,-z
1/2+x,y,1/2-z
1/2-x,1/2+y,z
x,1/2-y,1/2+z
loop_
_atom_site_type_symbol
_atom_site_label
_atom_site_fract_x
_atom_site_fract_y
_atom_site_fract_z
Si Si1 0.911114 0.432330 0.704963
Si Si2 0.193349 0.639277 0.959142
Si Si3 0.109740 0.241602 0.288228
Si Si4 0.247052 0.115382 0.373443
Si Si5 0.428420 0.750983 0.653196
Si Si6 0.048856 0.773682 0.037868
Si Si7 0.046281 0.589501 0.161727
Si Si8 0.620960 0.106135 0.473227
O O1 0.947449 0.604265 0.704939
O O2 0.817393 0.457714 0.672554
O O3 0.893100 0.377724 0.776671
O O4 0.975031 0.323504 0.665745
O O5 0.199859 0.800198 0.927060
O O6 0.185480 0.509009 0.906962
O O7 0.101668 0.647184 0.997763
O O8 0.279906 0.617662 0.001821
O O9 0.194287 0.237656 0.332726
O O10 0.133037 0.225916 0.214436
O O11 0.051670 0.099013 0.308964
O O12 0.439215 0.576477 0.634399
O O13 0.379019 0.830475 0.596654
O O14 0.055830 0.717339 0.109124
O O15 0.095956 0.932554 0.029733
O O16 0.946802 0.795071 0.016110
#
# Coordination Sequence:
#
# PCOD8249450 Si02
#       8
#     8   8   8   8   8   8   8   8
#     4  10  22  43  63  93 133 169 211 272 336 392
#     4  12  26  43  66 100 131 172 230 276 328 408
#     4  10  22  42  63  94 129 168 214 271 332 392
#     4  12  24  42  66  93 130 170 220 277 331 395
#     4  10  23  40  67  96 128 169 221 270 327 396
#     4  11  25  45  69  96 135 184 221 273 343 399
#     4  10  23  40  67  99 127 168 225 269 321 403
#     4  11  25  45  67  94 138 184 217 276 346 395
#
# _framework density 22.215634000000001
#
# number of rings (size 3 to 8) (size 9 to 14) (size 15 to 20)
#    0.000    1.250    2.500    2.250    7.000    2.500 
#    0.000    2.500    0.000    0.000    0.000    0.000 
#    0.000    0.000    0.000    0.000    0.000    0.000 
#
# Total GULP energy -793225.161680 kJ/mol
# GULP energy per Si atom -12394.143151 kJ/mol
# Density = 2.216507 g / cm^3
# Si number density = 22.215634 Si / 1000 Ang^3
#
#
#
# Elastic Constant Matrix: (Units=GPa)
#
#
# Indices 1 2 3 4 5 6 
#
# 1 59.0178 18.1668 32.8877 0.0000 0.0000 0.0000
# 2 18.1668 81.0410 47.1494 0.0000 0.0000 0.0000
# 3 32.8877 47.1494 141.6338 0.0000 0.0000 0.0000
# 4 0.0000 0.0000 0.0000 36.0026 0.0000 0.0000
# 5 0.0000 0.0000 0.0000 0.0000 36.5561 0.0000
# 6 0.0000 0.0000 0.0000 0.0000 0.0000 25.0374
#
#
#
# Elastic Compliance Matrix: (Units=1/GPa)
#
#
# Indices 1 2 3 4 5 6 
#
# 1 0.019769 -0.002184 -0.003863 0.000000 0.000000 0.000000
# 2 -0.002184 0.015545 -0.004668 0.000000 0.000000 0.000000
# 3 -0.003863 -0.004668 0.009511 0.000000 0.000000 0.000000
# 4 0.000000 0.000000 0.000000 0.027776 0.000000 0.000000
# 5 0.000000 0.000000 0.000000 0.000000 0.027355 0.000000
# 6 0.000000 0.000000 0.000000 0.000000 0.000000 0.039940
#
#
# Mechanical properties :
#
#
# Convention : Reuss Voigt Hill
#
# Bulk Modulus (GPa) = 42.74369 53.12225 47.93297
# Shear Modulus (GPa) = 29.56397 31.75180 30.65789
#
# Velocity S-wave (km/s) = 3.65193 3.78465 3.71888
# Velocity P-wave (km/s) = 6.08805 6.56217 6.32955
#
# Compressibility (1/GPa) = 0.02339527
#
# Stress axis : x y z
#
# Youngs Moduli (GPa) = 50.58378 64.33096 105.13692
#
# Poissons Ratio (x) = 0.14049 0.40619
# Poissons Ratio (y) = 0.11047 0.49074
# Poissons Ratio (z) = 0.19543 0.30027
#
# Static dielectric constant tensor:
#      x y z
#    x 3.683560 0.000000 0.000000 
#    y 0.000000 4.004190 0.000000 
#    z 0.000000 0.000000 4.248740 
# 
# 
# High freq. dielectric constant tensor:
#      x y z
#    x 1.844540 0.000000 0.000000 
#    y 0.000000 1.885730 0.000000 
#    z 0.000000 0.000000 1.893430 
# 
# From -- ./inp_files/11079.got.cif
#   From: 2010.03.12/outbox.cif.g09.slc.cpg/sg61_6_cif.got.tgz:11079.got - 2010.04.10 19:05:03.
