data_PCOD8249358
_publ_section_title
;
Structure prediction by ZEFSAII (Michael W. Deem and Ramdas Pophale) SiO2 
 PCOD8249358
Probable space group: P B C A
;
_chemical_formula_sum "Si O2"
_cell_formula_units_Z 48
_cell_length_a 9.510898
_cell_length_b 16.841740
_cell_length_c 13.942760
_cell_angle_alpha 90.000000
_cell_angle_beta 90.000000
_cell_angle_gamma 90.000000
_cell_volume 2233.352291
_symmetry_space_group_name_H-M "P B C A"
_symmetry_group_IT_number 61
_symmetry_cell_setting 'orthorhombic'
loop_
_space_group_symop_operation_xyz
x,y,z
1/2-x,-y,1/2+z
1/2+x,1/2-y,-z
-x,1/2+y,1/2-z
-x,-y,-z
1/2+x,y,1/2-z
1/2-x,1/2+y,z
x,1/2-y,1/2+z
loop_
_atom_site_type_symbol
_atom_site_label
_atom_site_fract_x
_atom_site_fract_y
_atom_site_fract_z
Si Si1 0.035520 0.830174 0.771294
Si Si2 0.480937 0.278443 0.980899
Si Si3 0.191599 0.143792 0.511871
Si Si4 0.799212 0.923210 0.690646
Si Si5 0.725084 0.911476 0.284708
Si Si6 0.048642 0.171021 0.824056
O O1 0.978650 0.811065 0.877129
O O2 0.199106 0.852378 0.772117
O O3 0.952327 0.906852 0.733318
O O4 0.012171 0.757620 0.699652
O O5 0.539605 0.187835 0.986773
O O6 0.312844 0.287848 0.000816
O O7 0.560187 0.332373 0.060634
O O8 0.198260 0.080017 0.425325
O O9 0.212691 0.091610 0.607764
O O10 0.743557 0.006719 0.730192
O O11 0.558746 0.895332 0.284394
O O12 0.799619 0.842480 0.222377
#
# Coordination Sequence:
#
# PCOD8249358 Si02
#       6
#     8   8   8   8   8   8
#     4  11  22  40  64  91 121 164 212 257 307 367
#     4  10  22  37  64  92 120 157 212 262 302 367
#     4  10  22  41  63  93 125 162 212 256 314 365
#     4  11  24  41  62  93 131 165 204 259 320 374
#     4  11  24  41  62  93 131 165 204 259 320 374
#     4  11  22  40  64  91 121 164 212 257 307 367
#
# _framework density 21.492356000000001
#
# number of rings (size 3 to 8) (size 9 to 14) (size 15 to 20)
#    0.000    1.333    3.333    2.000    4.667    1.333 
#    0.000   10.000    0.000    0.000    0.000    0.000 
#    0.000    0.000    0.000    0.000    0.000    0.000 
#
# Total GULP energy -595181.686497 kJ/mol
# GULP energy per Si atom -12399.618469 kJ/mol
# Density = 2.144344 g / cm^3
# Si number density = 21.492356 Si / 1000 Ang^3
#
#
#
# Elastic Constant Matrix: (Units=GPa)
#
#
# Indices 1 2 3 4 5 6 
#
# 1 45.7860 12.7742 30.5523 0.0000 0.0000 0.0000
# 2 12.7742 83.9893 25.8739 0.0000 0.0000 0.0000
# 3 30.5523 25.8739 114.7853 0.0000 0.0000 0.0000
# 4 0.0000 0.0000 0.0000 37.6373 0.0000 0.0000
# 5 0.0000 0.0000 0.0000 0.0000 25.8827 0.0000
# 6 0.0000 0.0000 0.0000 0.0000 0.0000 33.0708
#
#
#
# Elastic Compliance Matrix: (Units=1/GPa)
#
#
# Indices 1 2 3 4 5 6 
#
# 1 0.026874 -0.002024 -0.006697 0.000000 0.000000 0.000000
# 2 -0.002024 0.012947 -0.002380 0.000000 0.000000 0.000000
# 3 -0.006697 -0.002380 0.011031 0.000000 0.000000 0.000000
# 4 0.000000 0.000000 0.000000 0.026569 0.000000 0.000000
# 5 0.000000 0.000000 0.000000 0.000000 0.038636 0.000000
# 6 0.000000 0.000000 0.000000 0.000000 0.000000 0.030238
#
#
# Mechanical properties :
#
#
# Convention : Reuss Voigt Hill
#
# Bulk Modulus (GPa) = 34.90314 42.55125 38.72720
# Shear Modulus (GPa) = 28.08241 31.00885 29.54563
#
# Velocity S-wave (km/s) = 3.61865 3.80252 3.71172
# Velocity P-wave (km/s) = 5.80814 6.25461 6.03551
#
# Compressibility (1/GPa) = 0.02865072
#
# Stress axis : x y z
#
# Youngs Moduli (GPa) = 37.21038 77.23653 90.65530
#
# Poissons Ratio (x) = 0.15635 0.60710
# Poissons Ratio (y) = 0.07533 0.21573
# Poissons Ratio (z) = 0.24919 0.18379
#
# Static dielectric constant tensor:
#      x y z
#    x 3.901320 0.000000 0.000000 
#    y 0.000000 3.478020 0.000000 
#    z 0.000000 0.000000 4.077720 
# 
# 
# High freq. dielectric constant tensor:
#      x y z
#    x 1.845090 0.000000 0.000000 
#    y 0.000000 1.812730 0.000000 
#    z 0.000000 0.000000 1.863690 
# 
# From -- ./inp_files/7053.got.cif
#   From: 2010.03.12/outbox.cif.g09.slc.cpg/sg61_4_cif.got.tgz:7053.got - 2010.04.10 19:05:03.
