data_PCOD8249036
_publ_section_title
;
Structure prediction by ZEFSAII (Michael W. Deem and Ramdas Pophale) SiO2 
 PCOD8249036
Probable space group: P B C A
;
_chemical_formula_sum "Si O2"
_cell_formula_units_Z 56
_cell_length_a 21.529252
_cell_length_b 9.913027
_cell_length_c 13.084464
_cell_angle_alpha 90.000000
_cell_angle_beta 90.000000
_cell_angle_gamma 90.000000
_cell_volume 2792.487044
_symmetry_space_group_name_H-M "P B C A"
_symmetry_group_IT_number 61
_symmetry_cell_setting 'orthorhombic'
loop_
_space_group_symop_operation_xyz
x,y,z
1/2-x,-y,1/2+z
1/2+x,1/2-y,-z
-x,1/2+y,1/2-z
-x,-y,-z
1/2+x,y,1/2-z
1/2-x,1/2+y,z
x,1/2-y,1/2+z
loop_
_atom_site_type_symbol
_atom_site_label
_atom_site_fract_x
_atom_site_fract_y
_atom_site_fract_z
Si Si1 0.544530 0.248609 0.837992
Si Si2 0.157668 0.565638 0.721792
Si Si3 0.982582 0.465623 0.287824
Si Si4 0.228227 0.694627 0.890660
Si Si5 0.152347 0.224952 0.292605
Si Si6 0.299147 0.472800 0.003492
Si Si7 0.922452 0.636229 0.548583
O O1 0.519159 0.373128 0.767255
O O2 0.505687 0.113369 0.813826
O O3 0.616872 0.220979 0.808855
O O4 0.541589 0.295547 0.954369
O O5 0.086798 0.584253 0.685345
O O6 0.171633 0.671551 0.812210
O O7 0.171292 0.428042 0.780654
O O8 0.202715 0.569361 0.622942
O O9 0.026035 0.440531 0.385144
O O10 0.286812 0.688715 0.813964
O O11 0.244258 0.580918 0.976903
O O12 0.214879 0.837570 0.941255
O O13 0.105683 0.239721 0.388317
O O14 0.367906 0.532160 0.981940
#
# Coordination Sequence:
#
# PCOD8249036 Si02
#       7
#     8   8   8   8   8   8   8
#     4  10  20  39  63  84 122 160 201 251 307 367
#     4  11  23  41  61  91 129 155 209 262 303 361
#     4  10  22  37  62  89 121 159 202 255 307 367
#     4  11  24  40  61  92 123 159 215 251 311 367
#     4   9  20  40  58  86 119 164 197 253 302 367
#     4  11  24  39  67  89 122 171 204 259 314 371
#     4  10  20  38  65  87 120 166 205 244 323 373
#
# _framework density 20.053806999999999
#
# number of rings (size 3 to 8) (size 9 to 14) (size 15 to 20)
#    0.000    1.714    4.286    0.429    4.000    0.000 
#    0.000    7.857    0.000    0.000    0.000    0.000 
#    0.000    0.000    0.000    0.000    0.000    0.000 
#
# Total GULP energy -693894.939341 kJ/mol
# GULP energy per Si atom -12390.981060 kJ/mol
# Density = 2.000816 g / cm^3
# Si number density = 20.053807 Si / 1000 Ang^3
#
#
#
# Elastic Constant Matrix: (Units=GPa)
#
#
# Indices 1 2 3 4 5 6 
#
# 1 49.4323 -3.2054 16.9719 0.0000 0.0000 0.0000
# 2 -3.2054 45.9402 21.9033 0.0000 0.0000 0.0000
# 3 16.9719 21.9033 74.0150 0.0000 0.0000 0.0000
# 4 0.0000 0.0000 0.0000 26.4757 0.0000 0.0000
# 5 0.0000 0.0000 0.0000 0.0000 22.7169 0.0000
# 6 0.0000 0.0000 0.0000 0.0000 0.0000 23.8317
#
#
#
# Elastic Compliance Matrix: (Units=1/GPa)
#
#
# Indices 1 2 3 4 5 6 
#
# 1 0.022818 0.004758 -0.006640 0.000000 0.000000 0.000000
# 2 0.004758 0.026335 -0.008884 0.000000 0.000000 0.000000
# 3 -0.006640 -0.008884 0.017663 0.000000 0.000000 0.000000
# 4 0.000000 0.000000 0.000000 0.037771 0.000000 0.000000
# 5 0.000000 0.000000 0.000000 0.000000 0.044020 0.000000
# 6 0.000000 0.000000 0.000000 0.000000 0.000000 0.041961
#
#
# Mechanical properties :
#
#
# Convention : Reuss Voigt Hill
#
# Bulk Modulus (GPa) = 22.08358 26.74746 24.41552
# Shear Modulus (GPa) = 22.00751 23.51936 22.76343
#
# Velocity S-wave (km/s) = 3.31633 3.42835 3.37281
# Velocity P-wave (km/s) = 5.06953 5.38872 5.23156
#
# Compressibility (1/GPa) = 0.04528252
#
# Stress axis : x y z
#
# Youngs Moduli (GPa) = 43.82496 37.97182 56.61684
#
# Poissons Ratio (x) = -0.18067 0.37595
# Poissons Ratio (y) = -0.20852 0.50301
# Poissons Ratio (z) = 0.29101 0.33736
#
# Static dielectric constant tensor:
#      x y z
#    x 3.765430 0.000000 0.000000 
#    y 0.000000 3.613030 0.000000 
#    z 0.000000 0.000000 3.678830 
# 
# 
# High freq. dielectric constant tensor:
#      x y z
#    x 1.782270 0.000000 0.000000 
#    y 0.000000 1.773870 0.000000 
#    z 0.000000 0.000000 1.781730 
# 
# From -- ./inp_files/8368.got.cif
#   From: 2010.03.12/outbox.cif.g09.slc.cpg/sg61_5_cif.got.tgz:8368.got - 2010.04.10 19:05:03.
