data_PCOD8249868
_publ_section_title
;
Structure prediction by ZEFSAII (Michael W. Deem and Ramdas Pophale) SiO2 
 PCOD8249868
Probable space group: P B C A
;
_chemical_formula_sum "Si O2"
_cell_formula_units_Z 40
_cell_length_a 10.204546
_cell_length_b 10.331072
_cell_length_c 16.799204
_cell_angle_alpha 90.000000
_cell_angle_beta 90.000000
_cell_angle_gamma 90.000000
_cell_volume 1771.037593
_symmetry_space_group_name_H-M "P B C A"
_symmetry_group_IT_number 61
_symmetry_cell_setting 'orthorhombic'
loop_
_space_group_symop_operation_xyz
x,y,z
1/2-x,-y,1/2+z
1/2+x,1/2-y,-z
-x,1/2+y,1/2-z
-x,-y,-z
1/2+x,y,1/2-z
1/2-x,1/2+y,z
x,1/2-y,1/2+z
loop_
_atom_site_type_symbol
_atom_site_label
_atom_site_fract_x
_atom_site_fract_y
_atom_site_fract_z
Si Si1 0.709253 0.065682 0.527994
Si Si2 0.854608 0.966972 0.667334
Si Si3 0.046420 0.207900 0.859078
Si Si4 0.627938 0.058958 0.784291
Si Si5 0.725651 0.686642 0.926138
O O1 0.829334 0.063162 0.592626
O O2 0.580902 0.089456 0.581731
O O3 0.720228 0.184177 0.467176
O O4 0.689539 0.927191 0.487231
O O5 0.748986 0.987379 0.738925
O O6 0.004619 0.965931 0.698455
O O7 0.848300 0.823782 0.628401
O O8 0.062168 0.170465 0.767617
O O9 0.896350 0.241619 0.876351
O O10 0.669868 0.125893 0.866024
#
# Coordination Sequence:
#
# PCOD8249868 Si02
#       5
#     8   8   8   8   8
#     4  11  26  46  72 105 146 186 239 299 357 422
#     4  11  25  48  72 106 146 188 240 294 360 426
#     4  11  25  46  70 105 142 190 238 292 359 424
#     4  11  26  44  71 107 142 189 235 298 351 432
#     4  12  25  46  72 106 140 191 239 295 357 424
#
# _framework density 22.585629000000001
#
# number of rings (size 3 to 8) (size 9 to 14) (size 15 to 20)
#    0.000    0.800    4.000    1.800    8.400    1.600 
#    0.000    0.000    0.000    0.000    0.000    0.000 
#    0.000    0.000    0.000    0.000    0.000    0.000 
#
# Total GULP energy -495662.410794 kJ/mol
# GULP energy per Si atom -12391.560270 kJ/mol
# Density = 2.253422 g / cm^3
# Si number density = 22.585629 Si / 1000 Ang^3
#
#
#
# Elastic Constant Matrix: (Units=GPa)
#
#
# Indices 1 2 3 4 5 6 
#
# 1 104.8387 9.0532 36.5685 0.0000 0.0000 0.0000
# 2 9.0532 79.0708 13.5840 0.0000 0.0000 0.0000
# 3 36.5685 13.5840 88.6302 0.0000 0.0000 0.0000
# 4 0.0000 0.0000 0.0000 37.8851 0.0000 0.0000
# 5 0.0000 0.0000 0.0000 0.0000 28.8877 0.0000
# 6 0.0000 0.0000 0.0000 0.0000 0.0000 13.9329
#
#
#
# Elastic Compliance Matrix: (Units=1/GPa)
#
#
# Indices 1 2 3 4 5 6 
#
# 1 0.011161 -0.000500 -0.004528 0.000000 0.000000 0.000000
# 2 -0.000500 0.013011 -0.001788 0.000000 0.000000 0.000000
# 3 -0.004528 -0.001788 0.013425 0.000000 0.000000 0.000000
# 4 0.000000 0.000000 0.000000 0.026396 0.000000 0.000000
# 5 0.000000 0.000000 0.000000 0.000000 0.034617 0.000000
# 6 0.000000 0.000000 0.000000 0.000000 0.000000 0.071773
#
#
# Mechanical properties :
#
#
# Convention : Reuss Voigt Hill
#
# Bulk Modulus (GPa) = 41.72722 43.43901 42.58312
# Shear Modulus (GPa) = 26.04115 30.36341 28.20228
#
# Velocity S-wave (km/s) = 3.39926 3.67054 3.53750
# Velocity P-wave (km/s) = 5.82425 6.10234 5.96492
#
# Compressibility (1/GPa) = 0.02396517
#
# Stress axis : x y z
#
# Youngs Moduli (GPa) = 89.59613 76.85631 74.48627
#
# Poissons Ratio (x) = 0.03842 0.33731
# Poissons Ratio (y) = 0.04479 0.13318
# Poissons Ratio (z) = 0.40573 0.13741
#
# Static dielectric constant tensor:
#      x y z
#    x 3.987550 0.000000 0.000000 
#    y 0.000000 4.038260 0.000000 
#    z 0.000000 0.000000 4.248270 
# 
# 
# High freq. dielectric constant tensor:
#      x y z
#    x 1.885710 0.000000 0.000000 
#    y 0.000000 1.893770 0.000000 
#    z 0.000000 0.000000 1.907960 
# 
# From -- ./inp_files/3291.got.cif
#   From: 2010.03.12/outbox.cif.g09.slc.cpg/sg61_2_cif.got.tgz:3291.got - 2010.04.10 19:05:03.
