data_PCOD8249794
_publ_section_title
;
Structure prediction by ZEFSAII (Michael W. Deem and Ramdas Pophale) SiO2 
 PCOD8249794
Probable space group: P B C A
;
_chemical_formula_sum "Si O2"
_cell_formula_units_Z 64
_cell_length_a 27.499740
_cell_length_b 8.993680
_cell_length_c 12.000761
_cell_angle_alpha 90.000000
_cell_angle_beta 90.000000
_cell_angle_gamma 90.000000
_cell_volume 2968.074553
_symmetry_space_group_name_H-M "P B C A"
_symmetry_group_IT_number 61
_symmetry_cell_setting 'orthorhombic'
loop_
_space_group_symop_operation_xyz
x,y,z
1/2-x,-y,1/2+z
1/2+x,1/2-y,-z
-x,1/2+y,1/2-z
-x,-y,-z
1/2+x,y,1/2-z
1/2-x,1/2+y,z
x,1/2-y,1/2+z
loop_
_atom_site_type_symbol
_atom_site_label
_atom_site_fract_x
_atom_site_fract_y
_atom_site_fract_z
Si Si1 0.157627 0.581686 0.683810
Si Si2 0.637228 0.593561 0.389961
Si Si3 0.792517 0.359346 0.087968
Si Si4 0.047386 0.580058 0.958053
Si Si5 0.804093 0.477700 0.544494
Si Si6 0.925931 0.608789 0.249176
Si Si7 0.108981 0.074343 0.816866
Si Si8 0.018102 0.900859 0.898662
O O1 0.134495 0.743268 0.663549
O O2 0.182384 0.568231 0.804415
O O3 0.197267 0.543517 0.589016
O O4 0.115351 0.459306 0.671601
O O5 0.682026 0.580596 0.475628
O O6 0.588514 0.549517 0.452638
O O7 0.640819 0.473222 0.291034
O O8 0.736603 0.407153 0.083715
O O9 0.795509 0.182008 0.101834
O O10 0.062320 0.518950 0.838778
O O11 0.041064 0.755372 0.951642
O O12 0.000000 0.500000 0.000000
O O13 0.856698 0.543979 0.577129
O O14 0.905721 0.753927 0.187407
O O15 0.973577 0.647257 0.320128
O O16 0.059201 0.981455 0.825631
O O17 0.000000 0.000000 0.000000
#
# Coordination Sequence:
#
# PCOD8249794 Si02
#       8
#     8   8   8   8   8   8   8   8
#     4  11  24  47  71 100 138 182 233 288 360 417
#     4  11  23  46  69  96 140 183 235 288 358 427
#     4  11  25  46  72 103 134 186 232 294 362 425
#     4  12  24  41  67 102 137 189 239 292 356 423
#     4  11  27  45  74 103 139 182 235 297 359 428
#     4  12  25  42  69 103 142 188 234 295 348 431
#     4  12  26  45  68 106 146 187 242 294 361 429
#     4  12  24  44  68 101 146 190 241 288 362 431
#
# _framework density 21.562801
#
# number of rings (size 3 to 8) (size 9 to 14) (size 15 to 20)
#    0.000    0.500    2.500    6.750    3.500    2.000 
#    0.000    0.000    0.000    0.000    0.000    0.000 
#    0.000    0.000    0.000    0.000    0.000    0.000 
#
# Total GULP energy -794032.201796 kJ/mol
# GULP energy per Si atom -12406.753153 kJ/mol
# Density = 2.151372 g / cm^3
# Si number density = 21.562801 Si / 1000 Ang^3
#
#
#
# Elastic Constant Matrix: (Units=GPa)
#
#
# Indices 1 2 3 4 5 6 
#
# 1 109.1175 30.3100 20.2674 0.0000 0.0000 0.0000
# 2 30.3100 94.6477 19.5218 0.0000 0.0000 0.0000
# 3 20.2674 19.5218 94.9395 0.0000 0.0000 0.0000
# 4 0.0000 0.0000 0.0000 31.9744 0.0000 0.0000
# 5 0.0000 0.0000 0.0000 0.0000 33.8427 0.0000
# 6 0.0000 0.0000 0.0000 0.0000 0.0000 41.3058
#
#
#
# Elastic Compliance Matrix: (Units=1/GPa)
#
#
# Indices 1 2 3 4 5 6 
#
# 1 0.010283 -0.002966 -0.001585 0.000000 0.000000 0.000000
# 2 -0.002966 0.011889 -0.001811 0.000000 0.000000 0.000000
# 3 -0.001585 -0.001811 0.011244 0.000000 0.000000 0.000000
# 4 0.000000 0.000000 0.000000 0.031275 0.000000 0.000000
# 5 0.000000 0.000000 0.000000 0.000000 0.029548 0.000000
# 6 0.000000 0.000000 0.000000 0.000000 0.000000 0.024210
#
#
# Mechanical properties :
#
#
# Convention : Reuss Voigt Hill
#
# Bulk Modulus (GPa) = 48.33205 48.76699 48.54952
# Shear Modulus (GPa) = 36.21327 36.66495 36.43911
#
# Velocity S-wave (km/s) = 4.10253 4.12804 4.11531
# Velocity P-wave (km/s) = 6.70106 6.73694 6.71902
#
# Compressibility (1/GPa) = 0.02069020
#
# Stress axis : x y z
#
# Youngs Moduli (GPa) = 97.25030 84.11167 88.93692
#
# Poissons Ratio (x) = 0.24947 0.14099
# Poissons Ratio (y) = 0.28844 0.16111
# Poissons Ratio (z) = 0.15417 0.15237
#
# Static dielectric constant tensor:
#      x y z
#    x 3.860720 0.000000 0.000000 
#    y 0.000000 3.614910 0.000000 
#    z 0.000000 0.000000 4.005520 
# 
# 
# High freq. dielectric constant tensor:
#      x y z
#    x 1.852090 0.000000 0.000000 
#    y 0.000000 1.848920 0.000000 
#    z 0.000000 0.000000 1.860330 
# 
# From -- ./inp_files/6770.got.cif
#   From: 2010.03.12/outbox.cif.g09.slc.cpg/sg61_4_cif.got.tgz:6770.got - 2010.04.10 19:05:03.
