data_PCOD8249910
_publ_section_title
;
Structure prediction by ZEFSAII (Michael W. Deem and Ramdas Pophale) SiO2 
 PCOD8249910
Probable space group: P B C A
;
_chemical_formula_sum "Si O2"
_cell_formula_units_Z 64
_cell_length_a 8.678162
_cell_length_b 28.035627
_cell_length_c 11.607830
_cell_angle_alpha 90.000000
_cell_angle_beta 90.000000
_cell_angle_gamma 90.000000
_cell_volume 2824.158490
_symmetry_space_group_name_H-M "P B C A"
_symmetry_group_IT_number 61
_symmetry_cell_setting 'orthorhombic'
loop_
_space_group_symop_operation_xyz
x,y,z
1/2-x,-y,1/2+z
1/2+x,1/2-y,-z
-x,1/2+y,1/2-z
-x,-y,-z
1/2+x,y,1/2-z
1/2-x,1/2+y,z
x,1/2-y,1/2+z
loop_
_atom_site_type_symbol
_atom_site_label
_atom_site_fract_x
_atom_site_fract_y
_atom_site_fract_z
Si Si1 0.002664 0.328844 0.867145
Si Si2 0.198421 0.435241 0.416907
Si Si3 0.143517 0.800224 0.856864
Si Si4 0.098698 0.888992 0.000259
Si Si5 0.265483 0.961947 0.846643
Si Si6 0.271986 0.856908 0.224057
Si Si7 0.563169 0.695371 0.613845
Si Si8 0.086342 0.932928 0.628473
O O1 0.896196 0.300931 0.777586
O O2 0.000828 0.384369 0.833009
O O3 0.172524 0.305431 0.875109
O O4 0.914361 0.325545 0.987526
O O5 0.177257 0.489533 0.377208
O O6 0.200005 0.403476 0.301666
O O7 0.349179 0.430248 0.498186
O O8 0.053485 0.420628 0.493569
O O9 0.058645 0.842352 0.925597
O O10 0.063515 0.752203 0.903068
O O11 0.227888 0.920623 0.938619
O O12 0.154195 0.872675 0.125551
O O13 0.222024 0.945817 0.717359
O O14 0.449119 0.971716 0.858117
O O15 0.207472 0.815904 0.306255
O O16 0.417693 0.831318 0.168718
#
# Coordination Sequence:
#
# PCOD8249910 Si02
#       8
#     8   8   8   8   8   8   8   8
#     4  12  25  49  73 107 149 195 242 311 375 441
#     4  12  29  45  79 106 149 203 245 310 378 456
#     4  12  28  45  78 106 148 193 250 313 370 449
#     4  12  26  48  72 106 153 192 250 313 375 445
#     4  12  27  46  76 109 149 193 256 310 376 454
#     4  12  26  49  71 108 150 195 245 311 373 451
#     4  12  27  49  75 107 148 197 251 304 382 449
#     4  12  24  49  73 108 150 195 248 313 379 445
#
# _framework density 22.661617
#
# number of rings (size 3 to 8) (size 9 to 14) (size 15 to 20)
#    0.000    0.000    6.250    2.250    7.000    2.000 
#    0.000    0.000    0.000    0.000    0.000    0.000 
#    0.000    0.000    0.000    0.000    0.000    0.000 
#
# Total GULP energy -793698.842142 kJ/mol
# GULP energy per Si atom -12401.544408 kJ/mol
# Density = 2.261004 g / cm^3
# Si number density = 22.661617 Si / 1000 Ang^3
#
#
#
# Elastic Constant Matrix: (Units=GPa)
#
#
# Indices 1 2 3 4 5 6 
#
# 1 68.9813 26.2960 38.2804 0.0000 0.0000 0.0000
# 2 26.2960 130.8025 37.7297 0.0000 0.0000 0.0000
# 3 38.2804 37.7297 132.8056 0.0000 0.0000 0.0000
# 4 0.0000 0.0000 0.0000 33.8260 0.0000 0.0000
# 5 0.0000 0.0000 0.0000 0.0000 43.5760 0.0000
# 6 0.0000 0.0000 0.0000 0.0000 0.0000 34.7230
#
#
#
# Elastic Compliance Matrix: (Units=1/GPa)
#
#
# Indices 1 2 3 4 5 6 
#
# 1 0.017868 -0.002294 -0.004498 0.000000 0.000000 0.000000
# 2 -0.002294 0.008622 -0.001788 0.000000 0.000000 0.000000
# 3 -0.004498 -0.001788 0.009334 0.000000 0.000000 0.000000
# 4 0.000000 0.000000 0.000000 0.029563 0.000000 0.000000
# 5 0.000000 0.000000 0.000000 0.000000 0.022948 0.000000
# 6 0.000000 0.000000 0.000000 0.000000 0.000000 0.028799
#
#
# Mechanical properties :
#
#
# Convention : Reuss Voigt Hill
#
# Bulk Modulus (GPa) = 53.58419 59.68905 56.63662
# Shear Modulus (GPa) = 35.58264 37.77723 36.67994
#
# Velocity S-wave (km/s) = 3.96684 4.08734 4.02754
# Velocity P-wave (km/s) = 6.68414 6.97650 6.83189
#
# Compressibility (1/GPa) = 0.01866222
#
# Stress axis : x y z
#
# Youngs Moduli (GPa) = 55.96694 115.97994 107.13005
#
# Poissons Ratio (x) = 0.26612 0.48191
# Poissons Ratio (y) = 0.12842 0.19157
# Poissons Ratio (z) = 0.25176 0.20739
#
# Static dielectric constant tensor:
#      x y z
#    x 3.957430 0.000000 0.000000 
#    y 0.000000 4.146960 0.000000 
#    z 0.000000 0.000000 4.234930 
# 
# 
# High freq. dielectric constant tensor:
#      x y z
#    x 1.892340 0.000000 0.000000 
#    y 0.000000 1.901400 0.000000 
#    z 0.000000 0.000000 1.910750 
# 
# From -- ./inp_files/4953.got.cif
#   From: 2010.03.12/outbox.cif.g09.slc.cpg/sg61_3_cif.got.tgz:4953.got - 2010.04.10 19:05:03.
