data_PCOD8249230
_publ_section_title
;
Structure prediction by ZEFSAII (Michael W. Deem and Ramdas Pophale) SiO2 
 PCOD8249230
Probable space group: P B C A
;
_chemical_formula_sum "Si O2"
_cell_formula_units_Z 64
_cell_length_a 9.735318
_cell_length_b 18.589570
_cell_length_c 18.365505
_cell_angle_alpha 90.000000
_cell_angle_beta 90.000000
_cell_angle_gamma 90.000000
_cell_volume 3323.704162
_symmetry_space_group_name_H-M "P B C A"
_symmetry_group_IT_number 61
_symmetry_cell_setting 'orthorhombic'
loop_
_space_group_symop_operation_xyz
x,y,z
1/2-x,-y,1/2+z
1/2+x,1/2-y,-z
-x,1/2+y,1/2-z
-x,-y,-z
1/2+x,y,1/2-z
1/2-x,1/2+y,z
x,1/2-y,1/2+z
loop_
_atom_site_type_symbol
_atom_site_label
_atom_site_fract_x
_atom_site_fract_y
_atom_site_fract_z
Si Si1 0.201000 0.242830 0.681465
Si Si2 0.626927 0.050639 0.483163
Si Si3 0.992790 0.756743 0.192723
Si Si4 0.475328 0.591324 0.311586
Si Si5 0.869721 0.968081 0.539052
Si Si6 0.479628 0.800247 0.464671
Si Si7 0.203313 0.408809 0.673611
Si Si8 0.708862 0.318658 0.472326
O O1 0.350113 0.240125 0.718307
O O2 0.173082 0.324901 0.656502
O O3 0.185748 0.189645 0.613704
O O4 0.095549 0.213020 0.740914
O O5 0.594132 0.132665 0.499827
O O6 0.668275 0.044921 0.398137
O O7 0.500000 0.000000 0.500000
O O8 0.751382 0.028091 0.535777
O O9 0.947382 0.675404 0.174237
O O10 0.973112 0.807151 0.122616
O O11 0.406557 0.548843 0.377949
O O12 0.397449 0.565566 0.238441
O O13 0.638174 0.576473 0.304698
O O14 0.812413 0.900549 0.494296
O O15 0.000000 0.000000 0.500000
O O16 0.402547 0.727805 0.485546
O O17 0.636600 0.793948 0.492448
#
# Coordination Sequence:
#
# PCOD8249230 Si02
#       8
#     8   8   8   8   8   8   8   8
#     4   9  19  37  60  90 122 155 204 263 313 366
#     4  12  25  43  63  95 133 172 215 266 321 385
#     4   9  19  37  60  90 121 154 206 262 311 372
#     4  10  21  39  63  92 123 167 214 260 320 387
#     4  12  25  43  65  93 133 171 216 266 322 386
#     4  11  23  40  65  92 125 162 214 262 315 376
#     4  10  21  39  63  91 126 166 214 262 318 387
#     4  11  23  40  65  93 123 164 213 262 315 377
#
# _framework density 19.255624999999998
#
# number of rings (size 3 to 8) (size 9 to 14) (size 15 to 20)
#    0.000    1.500    5.000    0.000    3.500    1.000 
#    0.000    2.500    0.000    0.000    0.000    0.000 
#    0.000    0.000    0.000    0.000    0.000    0.000 
#
# Total GULP energy -793745.253082 kJ/mol
# GULP energy per Si atom -12402.269579 kJ/mol
# Density = 1.921180 g / cm^3
# Si number density = 19.255625 Si / 1000 Ang^3
#
#
#
# Elastic Constant Matrix: (Units=GPa)
#
#
# Indices 1 2 3 4 5 6 
#
# 1 131.9897 29.1974 59.6468 0.0000 0.0000 0.0000
# 2 29.1974 31.9024 31.9918 0.0000 0.0000 0.0000
# 3 59.6468 31.9918 111.1485 0.0000 0.0000 0.0000
# 4 0.0000 0.0000 0.0000 29.0753 0.0000 0.0000
# 5 0.0000 0.0000 0.0000 0.0000 40.0211 0.0000
# 6 0.0000 0.0000 0.0000 0.0000 0.0000 32.5546
#
#
#
# Elastic Compliance Matrix: (Units=1/GPa)
#
#
# Indices 1 2 3 4 5 6 
#
# 1 0.010683 -0.005663 -0.004103 0.000000 0.000000 0.000000
# 2 -0.005663 0.047066 -0.010508 0.000000 0.000000 0.000000
# 3 -0.004103 -0.010508 0.014223 0.000000 0.000000 0.000000
# 4 0.000000 0.000000 0.000000 0.034393 0.000000 0.000000
# 5 0.000000 0.000000 0.000000 0.000000 0.024987 0.000000
# 6 0.000000 0.000000 0.000000 0.000000 0.000000 0.030718
#
#
# Mechanical properties :
#
#
# Convention : Reuss Voigt Hill
#
# Bulk Modulus (GPa) = 31.82230 57.41251 44.61740
# Shear Modulus (GPa) = 23.46395 30.61053 27.03724
#
# Velocity S-wave (km/s) = 3.49456 3.99142 3.75123
# Velocity P-wave (km/s) = 5.73103 7.15001 6.47948
#
# Compressibility (1/GPa) = 0.03142451
#
# Stress axis : x y z
#
# Youngs Moduli (GPa) = 93.60460 21.24690 70.30669
#
# Poissons Ratio (x) = 0.12032 0.28848
# Poissons Ratio (y) = 0.53006 0.73878
# Poissons Ratio (z) = 0.38407 0.22326
#
# Static dielectric constant tensor:
#      x y z
#    x 3.727520 0.000000 0.000000 
#    y 0.000000 3.642430 0.000000 
#    z 0.000000 0.000000 3.590020 
# 
# 
# High freq. dielectric constant tensor:
#      x y z
#    x 1.767410 0.000000 0.000000 
#    y 0.000000 1.727590 0.000000 
#    z 0.000000 0.000000 1.751500 
# 
# From -- ./inp_files/4060.got.cif
#   From: 2010.03.12/outbox.cif.g09.slc.cpg/sg61_3_cif.got.tgz:4060.got - 2010.04.10 19:05:03.
