data_PCOD8249229
_publ_section_title
;
Structure prediction by ZEFSAII (Michael W. Deem and Ramdas Pophale) SiO2 
 PCOD8249229
Probable space group: P B C A
;
_chemical_formula_sum "Si O2"
_cell_formula_units_Z 48
_cell_length_a 15.412137
_cell_length_b 5.107648
_cell_length_c 28.043435
_cell_angle_alpha 90.000000
_cell_angle_beta 90.000000
_cell_angle_gamma 90.000000
_cell_volume 2207.572774
_symmetry_space_group_name_H-M "P B C A"
_symmetry_group_IT_number 61
_symmetry_cell_setting 'orthorhombic'
loop_
_space_group_symop_operation_xyz
x,y,z
1/2-x,-y,1/2+z
1/2+x,1/2-y,-z
-x,1/2+y,1/2-z
-x,-y,-z
1/2+x,y,1/2-z
1/2-x,1/2+y,z
x,1/2-y,1/2+z
loop_
_atom_site_type_symbol
_atom_site_label
_atom_site_fract_x
_atom_site_fract_y
_atom_site_fract_z
Si Si1 0.382122 0.219770 0.171215
Si Si2 0.600433 0.206202 0.384675
Si Si3 0.307123 0.810921 0.414174
Si Si4 0.194346 0.829244 0.773912
Si Si5 0.306071 0.756200 0.520892
Si Si6 0.444744 0.956944 0.343149
O O1 0.346213 0.478609 0.143873
O O2 0.329514 0.159372 0.218626
O O3 0.485033 0.266703 0.182933
O O4 0.368159 0.980893 0.135573
O O5 0.618238 0.192026 0.441039
O O6 0.497328 0.163147 0.376548
O O7 0.234268 0.594622 0.404671
O O8 0.345070 0.788079 0.467723
O O9 0.384651 0.777339 0.376695
O O10 0.233449 0.546637 0.786621
O O11 0.108101 0.879167 0.804168
O O12 0.271330 0.462894 0.528055
#
# Coordination Sequence:
#
# PCOD8249229 Si02
#       6
#     8   8   8   8   8   8
#     4  10  25  41  62  92 124 162 205 258 313 370
#     4  10  23  39  64  92 123 170 196 262 309 376
#     4  10  22  40  64  92 123 163 210 257 307 369
#     4  12  27  42  67  93 122 165 212 260 315 376
#     4  10  21  39  63  91 126 164 208 256 306 368
#     4  10  26  41  66  88 130 161 208 258 317 370
#
# _framework density 21.74334
#
# number of rings (size 3 to 8) (size 9 to 14) (size 15 to 20)
#    1.000    0.667    0.000    3.000    7.000    4.667 
#    0.000    0.833    0.000    0.000    0.000    0.000 
#    0.000    0.000    0.000    0.000    0.000    0.000 
#
# Total GULP energy -595148.221164 kJ/mol
# GULP energy per Si atom -12398.921274 kJ/mol
# Density = 2.169385 g / cm^3
# Si number density = 21.743340 Si / 1000 Ang^3
#
#
#
# Elastic Constant Matrix: (Units=GPa)
#
#
# Indices 1 2 3 4 5 6 
#
# 1 33.4305 8.4124 10.4849 0.0000 0.0000 0.0000
# 2 8.4124 107.8027 17.2141 0.0000 0.0000 0.0000
# 3 10.4849 17.2141 53.2533 0.0000 0.0000 0.0000
# 4 0.0000 0.0000 0.0000 29.2772 0.0000 0.0000
# 5 0.0000 0.0000 0.0000 0.0000 44.9497 0.0000
# 6 0.0000 0.0000 0.0000 0.0000 0.0000 13.2650
#
#
#
# Elastic Compliance Matrix: (Units=1/GPa)
#
#
# Indices 1 2 3 4 5 6 
#
# 1 0.032134 -0.001579 -0.005816 0.000000 0.000000 0.000000
# 2 -0.001579 0.009859 -0.002876 0.000000 0.000000 0.000000
# 3 -0.005816 -0.002876 0.020853 0.000000 0.000000 0.000000
# 4 0.000000 0.000000 0.000000 0.034156 0.000000 0.000000
# 5 0.000000 0.000000 0.000000 0.000000 0.022247 0.000000
# 6 0.000000 0.000000 0.000000 0.000000 0.000000 0.075387
#
#
# Mechanical properties :
#
#
# Convention : Reuss Voigt Hill
#
# Bulk Modulus (GPa) = 23.63872 29.63436 26.63654
# Shear Modulus (GPa) = 21.80744 28.05672 24.93208
#
# Velocity S-wave (km/s) = 3.17037 3.59605 3.38990
# Velocity P-wave (km/s) = 4.92920 5.55886 5.25347
#
# Compressibility (1/GPa) = 0.04230347
#
# Stress axis : x y z
#
# Youngs Moduli (GPa) = 31.11936 101.43386 47.95468
#
# Poissons Ratio (x) = 0.16015 0.27893
# Poissons Ratio (y) = 0.04913 0.13792
# Poissons Ratio (z) = 0.18101 0.29172
#
# Static dielectric constant tensor:
#      x y z
#    x 3.667180 0.000000 0.000000 
#    y 0.000000 3.925330 0.000000 
#    z 0.000000 0.000000 3.966300 
# 
# 
# High freq. dielectric constant tensor:
#      x y z
#    x 1.834940 0.000000 0.000000 
#    y 0.000000 1.863700 0.000000 
#    z 0.000000 0.000000 1.861150 
# 
# From -- ./inp_files/11494.got.cif
#   From: 2010.03.12/outbox.cif.g09.slc.cpg/sg61_6_cif.got.tgz:11494.got - 2010.04.10 19:05:03.
