data_PCOD8249619
_publ_section_title
;
Structure prediction by ZEFSAII (Michael W. Deem and Ramdas Pophale) SiO2 
 PCOD8249619
Probable space group: P B C A
;
_chemical_formula_sum "Si O2"
_cell_formula_units_Z 56
_cell_length_a 13.921391
_cell_length_b 21.100352
_cell_length_c 8.932439
_cell_angle_alpha 90.000000
_cell_angle_beta 90.000000
_cell_angle_gamma 90.000000
_cell_volume 2623.870463
_symmetry_space_group_name_H-M "P B C A"
_symmetry_group_IT_number 61
_symmetry_cell_setting 'orthorhombic'
loop_
_space_group_symop_operation_xyz
x,y,z
1/2-x,-y,1/2+z
1/2+x,1/2-y,-z
-x,1/2+y,1/2-z
-x,-y,-z
1/2+x,y,1/2-z
1/2-x,1/2+y,z
x,1/2-y,1/2+z
loop_
_atom_site_type_symbol
_atom_site_label
_atom_site_fract_x
_atom_site_fract_y
_atom_site_fract_z
Si Si1 0.936700 0.836864 0.512944
Si Si2 0.346384 0.543004 0.344512
Si Si3 0.620021 0.533614 0.161024
Si Si4 0.649770 0.246310 0.752195
Si Si5 0.384738 0.079762 0.013376
Si Si6 0.560653 0.078374 0.467846
Si Si7 0.787698 0.669687 0.496838
O O1 0.877375 0.900937 0.543931
O O2 0.905640 0.802635 0.359791
O O3 0.924597 0.788690 0.653601
O O4 0.046072 0.859823 0.489212
O O5 0.231854 0.543342 0.363874
O O6 0.391287 0.475093 0.389635
O O7 0.380280 0.552504 0.175724
O O8 0.590965 0.544910 0.331979
O O9 0.553853 0.581931 0.062410
O O10 0.584838 0.464086 0.112680
O O11 0.723227 0.289590 0.846594
O O12 0.726207 0.210707 0.645753
O O13 0.278070 0.108124 0.010628
O O14 0.599625 0.148248 0.502868
#
# Coordination Sequence:
#
# PCOD8249619 Si02
#       7
#     8   8   8   8   8   8   8
#     4  11  24  43  67  95 131 174 221 275 325 396
#     4  12  22  41  64 101 135 169 212 274 338 399
#     4  11  22  38  63  95 134 171 203 262 333 399
#     4  10  24  44  66  87 129 179 225 277 318 384
#     4  12  24  40  69  98 132 171 216 275 341 399
#     4  11  23  38  62  93 136 172 208 260 333 399
#     4  11  22  44  63  94 128 174 224 272 326 392
#
# _framework density 21.342517000000001
#
# number of rings (size 3 to 8) (size 9 to 14) (size 15 to 20)
#    0.000    0.857    5.714    0.429    2.000    3.429 
#    0.000    5.714    0.000    0.000    0.000    0.000 
#    0.000    0.000    0.000    0.000    0.000    0.000 
#
# Total GULP energy -694150.095198 kJ/mol
# GULP energy per Si atom -12395.537414 kJ/mol
# Density = 2.129394 g / cm^3
# Si number density = 21.342517 Si / 1000 Ang^3
#
#
#
# Elastic Constant Matrix: (Units=GPa)
#
#
# Indices 1 2 3 4 5 6 
#
# 1 74.3749 17.5277 14.8322 0.0000 0.0000 0.0000
# 2 17.5277 105.0942 49.0821 0.0000 0.0000 0.0000
# 3 14.8322 49.0821 95.5143 0.0000 0.0000 0.0000
# 4 0.0000 0.0000 0.0000 39.5109 0.0000 0.0000
# 5 0.0000 0.0000 0.0000 0.0000 18.4147 0.0000
# 6 0.0000 0.0000 0.0000 0.0000 0.0000 32.1990
#
#
#
# Elastic Compliance Matrix: (Units=1/GPa)
#
#
# Indices 1 2 3 4 5 6 
#
# 1 0.014116 -0.001751 -0.001292 0.000000 0.000000 0.000000
# 2 -0.001751 0.012737 -0.006273 0.000000 0.000000 0.000000
# 3 -0.001292 -0.006273 0.013894 0.000000 0.000000 0.000000
# 4 0.000000 0.000000 0.000000 0.025310 0.000000 0.000000
# 5 0.000000 0.000000 0.000000 0.000000 0.054304 0.000000
# 6 0.000000 0.000000 0.000000 0.000000 0.000000 0.031057
#
#
# Mechanical properties :
#
#
# Convention : Reuss Voigt Hill
#
# Bulk Modulus (GPa) = 45.22020 48.65194 46.93607
# Shear Modulus (GPa) = 28.18144 30.92767 29.55455
#
# Velocity S-wave (km/s) = 3.63772 3.81085 3.72529
# Velocity P-wave (km/s) = 6.23521 6.49682 6.36736
#
# Compressibility (1/GPa) = 0.02211401
#
# Stress axis : x y z
#
# Youngs Moduli (GPa) = 70.84312 78.51078 71.97325
#
# Poissons Ratio (x) = 0.13744 0.09302
# Poissons Ratio (y) = 0.12402 0.45152
# Poissons Ratio (z) = 0.09156 0.49253
#
# Static dielectric constant tensor:
#      x y z
#    x 3.913740 0.000000 0.000000 
#    y 0.000000 3.970550 0.000000 
#    z 0.000000 0.000000 3.960600 
# 
# 
# High freq. dielectric constant tensor:
#      x y z
#    x 1.828840 0.000000 0.000000 
#    y 0.000000 1.841970 0.000000 
#    z 0.000000 0.000000 1.846260 
# 
# From -- ./inp_files/3045.got.cif
#   From: 2010.03.12/outbox.cif.g09.slc.cpg/sg61_2_cif.got.tgz:3045.got - 2010.04.10 19:05:03.
