data_PCOD8249855
_publ_section_title
;
Structure prediction by ZEFSAII (Michael W. Deem and Ramdas Pophale) SiO2 
 PCOD8249855
Probable space group: P B C A
;
_chemical_formula_sum "Si O2"
_cell_formula_units_Z 24
_cell_length_a 7.163189
_cell_length_b 13.733240
_cell_length_c 10.670587
_cell_angle_alpha 90.000000
_cell_angle_beta 90.000000
_cell_angle_gamma 90.000000
_cell_volume 1049.706124
_symmetry_space_group_name_H-M "P B C A"
_symmetry_group_IT_number 61
_symmetry_cell_setting 'orthorhombic'
loop_
_space_group_symop_operation_xyz
x,y,z
1/2-x,-y,1/2+z
1/2+x,1/2-y,-z
-x,1/2+y,1/2-z
-x,-y,-z
1/2+x,y,1/2-z
1/2-x,1/2+y,z
x,1/2-y,1/2+z
loop_
_atom_site_type_symbol
_atom_site_label
_atom_site_fract_x
_atom_site_fract_y
_atom_site_fract_z
Si Si1 0.633769 0.636506 0.562623
Si Si2 0.971724 0.836709 0.894417
Si Si3 0.349297 0.927966 0.857286
O O1 0.540357 0.726780 0.635150
O O2 0.842604 0.663926 0.517749
O O3 0.637980 0.545081 0.657116
O O4 0.518977 0.610478 0.438777
O O5 0.854613 0.878450 0.778305
O O6 0.152127 0.903154 0.922600
#
# Coordination Sequence:
#
# PCOD8249855 Si02
#       3
#     8   8   8
#     4  11  25  45  70 102 143 181 235 290 345 417
#     4  12  23  47  72 102 139 189 232 287 353 411
#     4  11  25  44  68 106 139 183 233 286 352 412
#
# _framework density 22.863541000000001
#
# number of rings (size 3 to 8) (size 9 to 14) (size 15 to 20)
#    0.000    0.667    6.667    1.000    0.000    2.667 
#    6.000    0.000    0.000    0.000    0.000    0.000 
#    0.000    0.000    0.000    0.000    0.000    0.000 
#
# Total GULP energy -297721.588881 kJ/mol
# GULP energy per Si atom -12405.066203 kJ/mol
# Density = 2.281150 g / cm^3
# Si number density = 22.863541 Si / 1000 Ang^3
#
#
#
# Elastic Constant Matrix: (Units=GPa)
#
#
# Indices 1 2 3 4 5 6 
#
# 1 128.1960 46.9132 20.2066 0.0000 0.0000 0.0000
# 2 46.9132 180.5336 62.3893 0.0000 0.0000 0.0000
# 3 20.2066 62.3893 60.6766 0.0000 0.0000 0.0000
# 4 0.0000 0.0000 0.0000 31.3985 0.0000 0.0000
# 5 0.0000 0.0000 0.0000 0.0000 21.0044 0.0000
# 6 0.0000 0.0000 0.0000 0.0000 0.0000 39.8284
#
#
#
# Elastic Compliance Matrix: (Units=1/GPa)
#
#
# Indices 1 2 3 4 5 6 
#
# 1 0.008651 -0.001943 -0.000883 0.000000 0.000000 0.000000
# 2 -0.001943 0.009029 -0.008636 0.000000 0.000000 0.000000
# 3 -0.000883 -0.008636 0.025655 0.000000 0.000000 0.000000
# 4 0.000000 0.000000 0.000000 0.031849 0.000000 0.000000
# 5 0.000000 0.000000 0.000000 0.000000 0.047609 0.000000
# 6 0.000000 0.000000 0.000000 0.000000 0.000000 0.025108
#
#
# Mechanical properties :
#
#
# Convention : Reuss Voigt Hill
#
# Bulk Modulus (GPa) = 48.99675 69.82493 59.41084
# Shear Modulus (GPa) = 28.14870 34.43941 31.29406
#
# Velocity S-wave (km/s) = 3.51260 3.88532 3.70365
# Velocity P-wave (km/s) = 6.15855 7.12277 6.65813
#
# Compressibility (1/GPa) = 0.02040952
#
# Stress axis : x y z
#
# Youngs Moduli (GPa) = 115.59739 110.75957 38.97845
#
# Poissons Ratio (x) = 0.21517 0.03443
# Poissons Ratio (y) = 0.22457 0.33664
# Poissons Ratio (z) = 0.10211 0.95657
#
# Static dielectric constant tensor:
#      x y z
#    x 4.307630 0.000000 0.000000 
#    y 0.000000 4.399860 0.000000 
#    z 0.000000 0.000000 3.473300 
# 
# 
# High freq. dielectric constant tensor:
#      x y z
#    x 1.926740 0.000000 0.000000 
#    y 0.000000 1.918710 0.000000 
#    z 0.000000 0.000000 1.862920 
# 
# From -- ./inp_files/128.got.cif
#   From: 2010.03.12/outbox.cif.g09.slc.cpg/sg61_1_cif.got.tgz:128.got - 2010.04.10 19:05:03.
