data_PCOD8249504
_publ_section_title
;
Structure prediction by ZEFSAII (Michael W. Deem and Ramdas Pophale) SiO2 
 PCOD8249504
Probable space group: P B C A
;
_chemical_formula_sum "Si O2"
_cell_formula_units_Z 64
_cell_length_a 24.750765
_cell_length_b 14.003108
_cell_length_c 8.404872
_cell_angle_alpha 90.000000
_cell_angle_beta 90.000000
_cell_angle_gamma 90.000000
_cell_volume 2913.024712
_symmetry_space_group_name_H-M "P B C A"
_symmetry_group_IT_number 61
_symmetry_cell_setting 'orthorhombic'
loop_
_space_group_symop_operation_xyz
x,y,z
1/2-x,-y,1/2+z
1/2+x,1/2-y,-z
-x,1/2+y,1/2-z
-x,-y,-z
1/2+x,y,1/2-z
1/2-x,1/2+y,z
x,1/2-y,1/2+z
loop_
_atom_site_type_symbol
_atom_site_label
_atom_site_fract_x
_atom_site_fract_y
_atom_site_fract_z
Si Si1 0.288489 0.519013 0.009955
Si Si2 0.134834 0.798800 0.198815
Si Si3 0.363032 0.691906 0.580741
Si Si4 0.938989 0.050194 0.653632
Si Si5 0.058023 0.031769 0.689914
Si Si6 0.877477 0.111667 0.126878
Si Si7 0.627639 0.119460 0.271266
Si Si8 0.744225 0.130822 0.782515
O O1 0.322702 0.561257 0.155898
O O2 0.241294 0.459732 0.097532
O O3 0.322882 0.448545 0.897164
O O4 0.262896 0.601241 0.901665
O O5 0.102873 0.863219 0.326070
O O6 0.127876 0.686418 0.228538
O O7 0.198670 0.817347 0.203233
O O8 0.109114 0.826730 0.029497
O O9 0.398801 0.616109 0.676104
O O10 0.356588 0.667440 0.396330
O O11 0.389698 0.796779 0.605497
O O12 0.304152 0.699713 0.663479
O O13 0.941966 0.032840 0.466689
O O14 0.921081 0.954477 0.747232
O O15 0.998640 0.075933 0.719821
O O16 0.074647 0.963161 0.836266
#
# Coordination Sequence:
#
# PCOD8249504 Si02
#       8
#     8   8   8   8   8   8   8   8
#     4  11  23  40  65  96 133 182 217 267 330 397
#     4  11  25  41  63  98 131 175 214 270 324 395
#     4  11  24  40  67  99 131 175 220 267 330 395
#     4  10  22  46  67  95 131 169 220 268 335 378
#     4  10  23  43  70  95 129 172 215 276 321 392
#     4  11  23  43  65  97 133 171 224 264 329 388
#     4  11  23  44  65  95 136 171 223 274 326 397
#     4  11  23  39  64  98 134 175 217 267 327 397
#
# _framework density 21.970289000000001
#
# number of rings (size 3 to 8) (size 9 to 14) (size 15 to 20)
#    0.000    1.250    3.750    2.250    1.750    7.500 
#    0.000    2.500    0.000    0.000    0.000    0.000 
#    0.000    0.000    0.000    0.000    0.000    0.000 
#
# Total GULP energy -793670.084905 kJ/mol
# GULP energy per Si atom -12401.095077 kJ/mol
# Density = 2.192028 g / cm^3
# Si number density = 21.970289 Si / 1000 Ang^3
#
#
#
# Elastic Constant Matrix: (Units=GPa)
#
#
# Indices 1 2 3 4 5 6 
#
# 1 109.0442 24.8196 20.5311 0.0000 0.0000 0.0000
# 2 24.8196 93.8798 23.1187 0.0000 0.0000 0.0000
# 3 20.5311 23.1187 68.6220 0.0000 0.0000 0.0000
# 4 0.0000 0.0000 0.0000 49.9493 0.0000 0.0000
# 5 0.0000 0.0000 0.0000 0.0000 28.8210 0.0000
# 6 0.0000 0.0000 0.0000 0.0000 0.0000 14.9447
#
#
#
# Elastic Compliance Matrix: (Units=1/GPa)
#
#
# Indices 1 2 3 4 5 6 
#
# 1 0.010083 -0.002097 -0.002310 0.000000 0.000000 0.000000
# 2 -0.002097 0.012052 -0.003433 0.000000 0.000000 0.000000
# 3 -0.002310 -0.003433 0.016420 0.000000 0.000000 0.000000
# 4 0.000000 0.000000 0.000000 0.020020 0.000000 0.000000
# 5 0.000000 0.000000 0.000000 0.000000 0.034697 0.000000
# 6 0.000000 0.000000 0.000000 0.000000 0.000000 0.066913
#
#
# Mechanical properties :
#
#
# Convention : Reuss Voigt Hill
#
# Bulk Modulus (GPa) = 43.71588 45.38721 44.55155
# Shear Modulus (GPa) = 27.24944 32.28144 29.76544
#
# Velocity S-wave (km/s) = 3.52559 3.83733 3.68476
# Velocity P-wave (km/s) = 6.04268 6.35113 6.19882
#
# Compressibility (1/GPa) = 0.02287498
#
# Stress axis : x y z
#
# Youngs Moduli (GPa) = 99.17854 82.97637 60.90007
#
# Poissons Ratio (x) = 0.17398 0.14070
# Poissons Ratio (y) = 0.20795 0.20906
# Poissons Ratio (z) = 0.22913 0.28485
#
# Static dielectric constant tensor:
#      x y z
#    x 3.850590 0.000000 0.000000 
#    y 0.000000 4.014970 0.000000 
#    z 0.000000 0.000000 4.098610 
# 
# 
# High freq. dielectric constant tensor:
#      x y z
#    x 1.847930 0.000000 0.000000 
#    y 0.000000 1.867830 0.000000 
#    z 0.000000 0.000000 1.871490 
# 
# From -- ./inp_files/4347.got.cif
#   From: 2010.03.12/outbox.cif.g09.slc.cpg/sg61_3_cif.got.tgz:4347.got - 2010.04.10 19:05:03.
