data_PCOD8249557
_publ_section_title
;
Structure prediction by ZEFSAII (Michael W. Deem and Ramdas Pophale) SiO2 
 PCOD8249557
Probable space group: P B C A
;
_chemical_formula_sum "Si O2"
_cell_formula_units_Z 32
_cell_length_a 4.842015
_cell_length_b 22.267648
_cell_length_c 11.043648
_cell_angle_alpha 90.000000
_cell_angle_beta 90.000000
_cell_angle_gamma 90.000000
_cell_volume 1190.729282
_symmetry_space_group_name_H-M "P B C A"
_symmetry_group_IT_number 61
_symmetry_cell_setting 'orthorhombic'
loop_
_space_group_symop_operation_xyz
x,y,z
1/2-x,-y,1/2+z
1/2+x,1/2-y,-z
-x,1/2+y,1/2-z
-x,-y,-z
1/2+x,y,1/2-z
1/2-x,1/2+y,z
x,1/2-y,1/2+z
loop_
_atom_site_type_symbol
_atom_site_label
_atom_site_fract_x
_atom_site_fract_y
_atom_site_fract_z
Si Si1 0.063518 0.342982 0.486129
Si Si2 0.894207 0.264006 0.834076
Si Si3 0.839440 0.951244 0.168575
Si Si4 0.758313 0.583705 0.168231
O O1 0.301391 0.305241 0.553790
O O2 0.224886 0.399897 0.429207
O O3 0.904992 0.304123 0.383839
O O4 0.818591 0.365793 0.572342
O O5 0.699583 0.276096 0.717978
O O6 0.654140 0.944337 0.288466
O O7 0.790121 0.017460 0.111275
O O8 0.574968 0.592618 0.291001
#
# Coordination Sequence:
#
# PCOD8249557 Si02
#       4
#     8   8   8   8
#     4  12  25  46  72  98 137 192 232 284 356 418
#     4  12  28  46  66 100 140 182 238 292 338 406
#     4  10  23  43  69 103 138 174 226 288 347 417
#     4  10  23  43  69 103 138 174 226 288 347 417
#
# _framework density 26.874285
#
# number of rings (size 3 to 8) (size 9 to 14) (size 15 to 20)
#    0.000    1.000    0.000    5.250    0.000   10.000 
#    0.000    7.500    0.000    0.000    0.000    0.000 
#    0.000    0.000    0.000    0.000    0.000    0.000 
#
# Total GULP energy -396957.858977 kJ/mol
# GULP energy per Si atom -12404.933093 kJ/mol
# Density = 2.681312 g / cm^3
# Si number density = 26.874285 Si / 1000 Ang^3
#
#
#
# Elastic Constant Matrix: (Units=GPa)
#
#
# Indices 1 2 3 4 5 6 
#
# 1 85.2905 43.9189 17.6468 0.0000 0.0000 0.0000
# 2 43.9189 69.7101 28.5210 0.0000 0.0000 0.0000
# 3 17.6468 28.5210 71.9798 0.0000 0.0000 0.0000
# 4 0.0000 0.0000 0.0000 71.8101 0.0000 0.0000
# 5 0.0000 0.0000 0.0000 0.0000 25.6528 0.0000
# 6 0.0000 0.0000 0.0000 0.0000 0.0000 34.4946
#
#
#
# Elastic Compliance Matrix: (Units=1/GPa)
#
#
# Indices 1 2 3 4 5 6 
#
# 1 0.017355 -0.010972 0.000093 0.000000 0.000000 0.000000
# 2 -0.010972 0.024057 -0.006842 0.000000 0.000000 0.000000
# 3 0.000093 -0.006842 0.016581 0.000000 0.000000 0.000000
# 4 0.000000 0.000000 0.000000 0.013926 0.000000 0.000000
# 5 0.000000 0.000000 0.000000 0.000000 0.038982 0.000000
# 6 0.000000 0.000000 0.000000 0.000000 0.000000 0.028990
#
#
# Mechanical properties :
#
#
# Convention : Reuss Voigt Hill
#
# Bulk Modulus (GPa) = 44.34562 45.23933 44.79247
# Shear Modulus (GPa) = 27.34445 35.51776 31.43111
#
# Velocity S-wave (km/s) = 3.19328 3.63936 3.42359
# Velocity P-wave (km/s) = 5.48935 5.87624 5.68609
#
# Compressibility (1/GPa) = 0.02255014
#
# Stress axis : x y z
#
# Youngs Moduli (GPa) = 57.61886 41.56729 60.30896
#
# Poissons Ratio (x) = 0.45609 -0.00559
# Poissons Ratio (y) = 0.63221 0.41266
# Poissons Ratio (z) = -0.00534 0.28442
#
# Static dielectric constant tensor:
#      x y z
#    x 4.591540 0.000000 0.000000 
#    y 0.000000 5.360940 0.000000 
#    z 0.000000 0.000000 4.615190 
# 
# 
# High freq. dielectric constant tensor:
#      x y z
#    x 2.081000 0.000000 0.000000 
#    y 0.000000 2.107810 0.000000 
#    z 0.000000 0.000000 2.066750 
# 
# From -- ./inp_files/887.got.cif
#   From: 2010.03.12/outbox.cif.g09.slc.cpg/sg61_1_cif.got.tgz:887.got - 2010.04.10 19:05:03.
