data_PCOD8249294
_publ_section_title
;
Structure prediction by ZEFSAII (Michael W. Deem and Ramdas Pophale) SiO2 
 PCOD8249294
Probable space group: P B C A
;
_chemical_formula_sum "Si O2"
_cell_formula_units_Z 48
_cell_length_a 23.420474
_cell_length_b 5.094708
_cell_length_c 17.403008
_cell_angle_alpha 90.000000
_cell_angle_beta 90.000000
_cell_angle_gamma 90.000000
_cell_volume 2076.535203
_symmetry_space_group_name_H-M "P B C A"
_symmetry_group_IT_number 61
_symmetry_cell_setting 'orthorhombic'
loop_
_space_group_symop_operation_xyz
x,y,z
1/2-x,-y,1/2+z
1/2+x,1/2-y,-z
-x,1/2+y,1/2-z
-x,-y,-z
1/2+x,y,1/2-z
1/2-x,1/2+y,z
x,1/2-y,1/2+z
loop_
_atom_site_type_symbol
_atom_site_label
_atom_site_fract_x
_atom_site_fract_y
_atom_site_fract_z
Si Si1 0.787769 0.925772 0.964049
Si Si2 0.022394 0.297397 0.140672
Si Si3 0.382559 0.381719 0.134792
Si Si4 0.434262 0.088995 0.004957
Si Si5 0.414969 0.109272 0.272479
Si Si6 0.610859 0.419684 0.072174
O O1 0.763304 0.633533 0.964063
O O2 0.827120 0.950483 0.887836
O O3 0.827033 0.982287 0.038193
O O4 0.011656 0.466305 0.059255
O O5 0.058752 0.445645 0.203877
O O6 0.961874 0.264362 0.179545
O O7 0.057255 0.035275 0.120633
O O8 0.389337 0.133560 0.076289
O O9 0.374329 0.309631 0.225129
O O10 0.437072 0.368744 0.958937
O O11 0.407233 0.871190 0.950089
O O12 0.381932 0.933456 0.335146
#
# Coordination Sequence:
#
# PCOD8249294 Si02
#       6
#     8   8   8   8   8   8
#     4  11  23  44  72  90 121 174 229 282 335 386
#     4  11  21  42  65  99 136 189 214 254 331 413
#     4  10  22  44  65  98 132 177 227 267 320 414
#     4  10  21  41  64  89 138 167 227 258 324 396
#     4  11  25  38  68  99 146 176 215 272 338 402
#     4  11  24  43  65 102 130 170 217 292 331 386
#
# _framework density 23.115431000000001
#
# number of rings (size 3 to 8) (size 9 to 14) (size 15 to 20)
#    0.000    1.333    5.000    2.000    4.667    1.333 
#    0.000    1.667    0.000    0.000    0.000    0.000 
#    0.000    0.000    0.000    0.000    0.000    0.000 
#
# Total GULP energy -594890.109143 kJ/mol
# GULP energy per Si atom -12393.543940 kJ/mol
# Density = 2.306282 g / cm^3
# Si number density = 23.115431 Si / 1000 Ang^3
#
#
#
# Elastic Constant Matrix: (Units=GPa)
#
#
# Indices 1 2 3 4 5 6 
#
# 1 61.9768 17.8346 37.2691 0.0000 0.0000 0.0000
# 2 17.8346 82.3462 38.4190 0.0000 0.0000 0.0000
# 3 37.2691 38.4190 200.8884 0.0000 0.0000 0.0000
# 4 0.0000 0.0000 0.0000 30.8064 0.0000 0.0000
# 5 0.0000 0.0000 0.0000 0.0000 27.0668 0.0000
# 6 0.0000 0.0000 0.0000 0.0000 0.0000 33.2036
#
#
#
# Elastic Compliance Matrix: (Units=1/GPa)
#
#
# Indices 1 2 3 4 5 6 
#
# 1 0.018680 -0.002667 -0.002955 0.000000 0.000000 0.000000
# 2 -0.002667 0.013714 -0.002128 0.000000 0.000000 0.000000
# 3 -0.002955 -0.002128 0.005933 0.000000 0.000000 0.000000
# 4 0.000000 0.000000 0.000000 0.032461 0.000000 0.000000
# 5 0.000000 0.000000 0.000000 0.000000 0.036946 0.000000
# 6 0.000000 0.000000 0.000000 0.000000 0.000000 0.030117
#
#
# Mechanical properties :
#
#
# Convention : Reuss Voigt Hill
#
# Bulk Modulus (GPa) = 43.80861 59.13965 51.47413
# Shear Modulus (GPa) = 31.06355 34.99459 33.02907
#
# Velocity S-wave (km/s) = 3.66983 3.89512 3.78415
# Velocity P-wave (km/s) = 6.07866 6.77269 6.43503
#
# Compressibility (1/GPa) = 0.02282656
#
# Stress axis : x y z
#
# Youngs Moduli (GPa) = 53.53401 72.91678 168.54385
#
# Poissons Ratio (x) = 0.19445 0.49813
# Poissons Ratio (y) = 0.14276 0.35867
# Poissons Ratio (z) = 0.15822 0.15517
#
# Static dielectric constant tensor:
#      x y z
#    x 4.165190 0.000000 0.000000 
#    y 0.000000 4.443810 0.000000 
#    z 0.000000 0.000000 5.368530 
# 
# 
# High freq. dielectric constant tensor:
#      x y z
#    x 1.878960 0.000000 0.000000 
#    y 0.000000 1.923820 0.000000 
#    z 0.000000 0.000000 1.945820 
# 
# From -- ./inp_files/9839.got.cif
#   From: 2010.03.12/outbox.cif.g09.slc.cpg/sg61_5_cif.got.tgz:9839.got - 2010.04.10 19:05:03.
