data_PCOD8249457
_publ_section_title
;
Structure prediction by ZEFSAII (Michael W. Deem and Ramdas Pophale) SiO2 
 PCOD8249457
Probable space group: P B C A
;
_chemical_formula_sum "Si O2"
_cell_formula_units_Z 48
_cell_length_a 12.895827
_cell_length_b 10.292027
_cell_length_c 16.016619
_cell_angle_alpha 90.000000
_cell_angle_beta 90.000000
_cell_angle_gamma 90.000000
_cell_volume 2125.792938
_symmetry_space_group_name_H-M "P B C A"
_symmetry_group_IT_number 61
_symmetry_cell_setting 'orthorhombic'
loop_
_space_group_symop_operation_xyz
x,y,z
1/2-x,-y,1/2+z
1/2+x,1/2-y,-z
-x,1/2+y,1/2-z
-x,-y,-z
1/2+x,y,1/2-z
1/2-x,1/2+y,z
x,1/2-y,1/2+z
loop_
_atom_site_type_symbol
_atom_site_label
_atom_site_fract_x
_atom_site_fract_y
_atom_site_fract_z
Si Si1 0.107193 0.124951 0.566771
Si Si2 0.811556 0.037595 0.875107
Si Si3 0.111971 0.938942 0.419810
Si Si4 0.482866 0.875258 0.317796
Si Si5 0.084190 0.401519 0.764086
Si Si6 0.672940 0.128300 0.536048
O O1 0.135609 0.242649 0.507796
O O2 0.991287 0.144738 0.605148
O O3 0.197748 0.103071 0.636086
O O4 0.099779 0.993609 0.512940
O O5 0.828100 0.918891 0.808634
O O6 0.823913 0.989209 0.970043
O O7 0.900945 0.145450 0.856694
O O8 0.214182 0.848400 0.421233
O O9 0.129547 0.055889 0.353709
O O10 0.450793 0.747531 0.266349
O O11 0.405231 0.911053 0.391436
O O12 0.487233 0.001872 0.257131
#
# Coordination Sequence:
#
# PCOD8249457 Si02
#       6
#     8   8   8   8   8   8
#     4  10  22  42  69  93 142 179 235 285 343 427
#     4   9  24  41  67 106 133 189 231 287 352 415
#     4  10  23  41  64 100 127 189 229 282 350 412
#     4  10  23  44  70 104 139 180 232 287 359 417
#     4  10  23  45  66 106 138 181 229 294 350 417
#     4  11  22  42  71 100 140 183 234 291 347 427
#
# _framework density 22.579809999999998
#
# number of rings (size 3 to 8) (size 9 to 14) (size 15 to 20)
#    1.000    1.000    1.667    0.500    4.667    2.667 
#    6.000    0.000    0.000    0.000    0.000    0.000 
#    0.000    0.000    0.000    0.000    0.000    0.000 
#
# Total GULP energy -594768.324696 kJ/mol
# GULP energy per Si atom -12391.006765 kJ/mol
# Density = 2.252842 g / cm^3
# Si number density = 22.579810 Si / 1000 Ang^3
#
#
#
# Elastic Constant Matrix: (Units=GPa)
#
#
# Indices 1 2 3 4 5 6 
#
# 1 132.9460 0.0138 21.5114 0.0000 0.0000 0.0000
# 2 0.0138 58.0999 6.7311 0.0000 0.0000 0.0000
# 3 21.5114 6.7311 74.3447 0.0000 0.0000 0.0000
# 4 0.0000 0.0000 0.0000 39.9515 0.0000 0.0000
# 5 0.0000 0.0000 0.0000 0.0000 35.4655 0.0000
# 6 0.0000 0.0000 0.0000 0.0000 0.0000 22.2367
#
#
#
# Elastic Compliance Matrix: (Units=1/GPa)
#
#
# Indices 1 2 3 4 5 6 
#
# 1 0.007895 0.000266 -0.002309 0.000000 0.000000 0.000000
# 2 0.000266 0.017403 -0.001653 0.000000 0.000000 0.000000
# 3 -0.002309 -0.001653 0.014268 0.000000 0.000000 0.000000
# 4 0.000000 0.000000 0.000000 0.025030 0.000000 0.000000
# 5 0.000000 0.000000 0.000000 0.000000 0.028196 0.000000
# 6 0.000000 0.000000 0.000000 0.000000 0.000000 0.044971
#
#
# Mechanical properties :
#
#
# Convention : Reuss Voigt Hill
#
# Bulk Modulus (GPa) = 31.07909 35.76702 33.42306
# Shear Modulus (GPa) = 32.07580 35.33969 33.70775
#
# Velocity S-wave (km/s) = 3.77311 3.96043 3.86790
# Velocity P-wave (km/s) = 5.72502 6.06531 5.89762
#
# Compressibility (1/GPa) = 0.03217598
#
# Stress axis : x y z
#
# Youngs Moduli (GPa) = 126.65667 57.46095 70.08473
#
# Poissons Ratio (x) = -0.01526 0.16179
# Poissons Ratio (y) = -0.03364 0.11582
# Poissons Ratio (z) = 0.29239 0.09495
#
# Static dielectric constant tensor:
#      x y z
#    x 4.410820 0.000000 0.000000 
#    y 0.000000 3.588080 0.000000 
#    z 0.000000 0.000000 4.072230 
# 
# 
# High freq. dielectric constant tensor:
#      x y z
#    x 1.895820 0.000000 0.000000 
#    y 0.000000 1.860330 0.000000 
#    z 0.000000 0.000000 1.894910 
# 
# From -- ./inp_files/10269.got.cif
#   From: 2010.03.12/outbox.cif.g09.slc.cpg/sg61_6_cif.got.tgz:10269.got - 2010.04.10 19:05:03.
