data_PCOD8249432
_publ_section_title
;
Structure prediction by ZEFSAII (Michael W. Deem and Ramdas Pophale) SiO2 
 PCOD8249432
Probable space group: P B C A
;
_chemical_formula_sum "Si O2"
_cell_formula_units_Z 40
_cell_length_a 12.999988
_cell_length_b 5.150102
_cell_length_c 25.715872
_cell_angle_alpha 90.000000
_cell_angle_beta 90.000000
_cell_angle_gamma 90.000000
_cell_volume 1721.710140
_symmetry_space_group_name_H-M "P B C A"
_symmetry_group_IT_number 61
_symmetry_cell_setting 'orthorhombic'
loop_
_space_group_symop_operation_xyz
x,y,z
1/2-x,-y,1/2+z
1/2+x,1/2-y,-z
-x,1/2+y,1/2-z
-x,-y,-z
1/2+x,y,1/2-z
1/2-x,1/2+y,z
x,1/2-y,1/2+z
loop_
_atom_site_type_symbol
_atom_site_label
_atom_site_fract_x
_atom_site_fract_y
_atom_site_fract_z
Si Si1 0.314287 0.177770 0.436829
Si Si2 0.495847 0.494106 0.125227
Si Si3 0.184477 0.661993 0.558653
Si Si4 0.447498 0.721255 0.770500
Si Si5 0.187629 0.181308 0.184339
O O1 0.237379 0.947827 0.420747
O O2 0.421687 0.157406 0.407002
O O3 0.338656 0.168695 0.497721
O O4 0.426287 0.319275 0.086586
O O5 0.554111 0.310098 0.167092
O O6 0.422646 0.699736 0.155505
O O7 0.241345 0.396334 0.575661
O O8 0.470528 0.442767 0.743811
O O9 0.336143 0.802589 0.746516
O O10 0.265772 0.404333 0.167602
#
# Coordination Sequence:
#
# PCOD8249432 Si02
#       5
#     8   8   8   8   8
#     4  10  24  42  62  92 130 168 212 261 318 377
#     4  11  23  41  68  94 125 170 217 260 315 380
#     4  10  22  41  64  96 130 163 207 264 321 381
#     4  10  23  40  58  86 124 163 205 255 308 365
#     4  11  23  40  62  92 126 162 205 258 312 369
#
# _framework density 23.232716
#
# number of rings (size 3 to 8) (size 9 to 14) (size 15 to 20)
#    0.000    1.600    0.000    4.200    0.000   11.200 
#    0.000    6.000    0.000    0.000    0.000    0.000 
#    0.000    0.000    0.000    0.000    0.000    0.000 
#
# Total GULP energy -496035.592405 kJ/mol
# GULP energy per Si atom -12400.889810 kJ/mol
# Density = 2.317984 g / cm^3
# Si number density = 23.232716 Si / 1000 Ang^3
#
#
#
# Elastic Constant Matrix: (Units=GPa)
#
#
# Indices 1 2 3 4 5 6 
#
# 1 96.6129 14.5025 50.7729 0.0000 0.0000 0.0000
# 2 14.5025 106.0701 27.0500 0.0000 0.0000 0.0000
# 3 50.7729 27.0500 82.5753 0.0000 0.0000 0.0000
# 4 0.0000 0.0000 0.0000 26.7983 0.0000 0.0000
# 5 0.0000 0.0000 0.0000 0.0000 53.0325 0.0000
# 6 0.0000 0.0000 0.0000 0.0000 0.0000 24.7813
#
#
#
# Elastic Compliance Matrix: (Units=1/GPa)
#
#
# Indices 1 2 3 4 5 6 
#
# 1 0.015303 0.000335 -0.009519 0.000000 0.000000 0.000000
# 2 0.000335 0.010294 -0.003578 0.000000 0.000000 0.000000
# 3 -0.009519 -0.003578 0.019135 0.000000 0.000000 0.000000
# 4 0.000000 0.000000 0.000000 0.037316 0.000000 0.000000
# 5 0.000000 0.000000 0.000000 0.000000 0.018856 0.000000
# 6 0.000000 0.000000 0.000000 0.000000 0.000000 0.040353
#
#
# Mechanical properties :
#
#
# Convention : Reuss Voigt Hill
#
# Bulk Modulus (GPa) = 52.06101 52.21213 52.13657
# Shear Modulus (GPa) = 28.87090 33.78461 31.32776
#
# Velocity S-wave (km/s) = 3.52900 3.81751 3.67609
# Velocity P-wave (km/s) = 6.24998 6.47715 6.36458
#
# Compressibility (1/GPa) = 0.01920823
#
# Stress axis : x y z
#
# Youngs Moduli (GPa) = 65.34759 97.13976 52.25943
#
# Poissons Ratio (x) = -0.03257 0.49746
# Poissons Ratio (y) = -0.02191 0.18700
# Poissons Ratio (z) = 0.62204 0.34760
#
# Static dielectric constant tensor:
#      x y z
#    x 4.023090 0.000000 0.000000 
#    y 0.000000 4.089730 0.000000 
#    z 0.000000 0.000000 4.511350 
# 
# 
# High freq. dielectric constant tensor:
#      x y z
#    x 1.904850 0.000000 0.000000 
#    y 0.000000 1.916160 0.000000 
#    z 0.000000 0.000000 1.940780 
# 
# From -- ./inp_files/1287.got.cif
#   From: 2010.03.12/outbox.cif.g09.slc.cpg/sg61_1_cif.got.tgz:1287.got - 2010.04.10 19:05:03.
