data_PCOD8249355
_publ_section_title
;
Structure prediction by ZEFSAII (Michael W. Deem and Ramdas Pophale) SiO2 
 PCOD8249355
Probable space group: P B C A
;
_chemical_formula_sum "Si O2"
_cell_formula_units_Z 64
_cell_length_a 9.353212
_cell_length_b 16.396086
_cell_length_c 20.046781
_cell_angle_alpha 90.000000
_cell_angle_beta 90.000000
_cell_angle_gamma 90.000000
_cell_volume 3074.295517
_symmetry_space_group_name_H-M "P B C A"
_symmetry_group_IT_number 61
_symmetry_cell_setting 'orthorhombic'
loop_
_space_group_symop_operation_xyz
x,y,z
1/2-x,-y,1/2+z
1/2+x,1/2-y,-z
-x,1/2+y,1/2-z
-x,-y,-z
1/2+x,y,1/2-z
1/2-x,1/2+y,z
x,1/2-y,1/2+z
loop_
_atom_site_type_symbol
_atom_site_label
_atom_site_fract_x
_atom_site_fract_y
_atom_site_fract_z
Si Si1 0.761425 0.394090 0.464934
Si Si2 0.638917 0.240615 0.197311
Si Si3 0.649222 0.583421 0.601002
Si Si4 0.950701 0.833476 0.077489
Si Si5 0.845616 0.073476 0.452439
Si Si6 0.639370 0.093121 0.109271
Si Si7 0.460213 0.225102 0.826275
Si Si8 0.628179 0.276043 0.943284
O O1 0.928039 0.398031 0.442795
O O2 0.703519 0.480348 0.436848
O O3 0.737535 0.385556 0.544714
O O4 0.708877 0.309841 0.429388
O O5 0.527887 0.283251 0.145807
O O6 0.666337 0.148520 0.173600
O O7 0.799211 0.273827 0.200241
O O8 0.573253 0.252854 0.269729
O O9 0.583973 0.573351 0.526605
O O10 0.677130 0.496920 0.635249
O O11 0.532877 0.632919 0.644443
O O12 0.801350 0.623106 0.588760
O O13 0.941390 0.768490 0.016719
O O14 0.722869 0.141522 0.441314
O O15 0.970916 0.098368 0.403587
O O16 0.501428 0.284630 0.888158
#
# Coordination Sequence:
#
# PCOD8249355 Si02
#       8
#     8   8   8   8   8   8   8   8
#     4  11  21  36  66  99 130 162 209 274 325 387
#     4  11  25  42  65  90 131 168 228 257 326 394
#     4   9  21  40  62  92 130 161 212 267 328 384
#     4  10  22  38  63  98 122 168 215 269 335 390
#     4  10  22  36  63 104 126 162 214 266 325 400
#     4  11  20  39  64  92 129 163 209 271 326 379
#     4  11  25  44  62  94 125 181 212 272 318 399
#     4  11  22  37  67  91 131 164 216 266 334 382
#
# _framework density 20.817777
#
# number of rings (size 3 to 8) (size 9 to 14) (size 15 to 20)
#    0.000    1.500    1.250    4.500    7.000    5.500 
#    0.000    3.750    0.000    0.000    0.000    0.000 
#    0.000    0.000    0.000    0.000    0.000    0.000 
#
# Total GULP energy -792863.808770 kJ/mol
# GULP energy per Si atom -12388.497012 kJ/mol
# Density = 2.077039 g / cm^3
# Si number density = 20.817777 Si / 1000 Ang^3
#
#
#
# Elastic Constant Matrix: (Units=GPa)
#
#
# Indices 1 2 3 4 5 6 
#
# 1 54.2295 14.7395 38.5962 0.0000 0.0000 0.0000
# 2 14.7395 119.9870 35.0785 0.0000 0.0000 0.0000
# 3 38.5962 35.0785 92.1917 0.0000 0.0000 0.0000
# 4 0.0000 0.0000 0.0000 21.5693 0.0000 0.0000
# 5 0.0000 0.0000 0.0000 0.0000 37.5558 0.0000
# 6 0.0000 0.0000 0.0000 0.0000 0.0000 21.0676
#
#
#
# Elastic Compliance Matrix: (Units=1/GPa)
#
#
# Indices 1 2 3 4 5 6 
#
# 1 0.026267 -0.000013 -0.010992 0.000000 0.000000 0.000000
# 2 -0.000013 0.009377 -0.003562 0.000000 0.000000 0.000000
# 3 -0.010992 -0.003562 0.016804 0.000000 0.000000 0.000000
# 4 0.000000 0.000000 0.000000 0.046362 0.000000 0.000000
# 5 0.000000 0.000000 0.000000 0.000000 0.026627 0.000000
# 6 0.000000 0.000000 0.000000 0.000000 0.000000 0.047466
#
#
# Mechanical properties :
#
#
# Convention : Reuss Voigt Hill
#
# Bulk Modulus (GPa) = 42.89348 49.24849 46.07099
# Shear Modulus (GPa) = 23.83115 27.90480 25.86797
#
# Velocity S-wave (km/s) = 3.38709 3.66516 3.52886
# Velocity P-wave (km/s) = 5.99545 6.45132 6.22756
#
# Compressibility (1/GPa) = 0.02331356
#
# Stress axis : x y z
#
# Youngs Moduli (GPa) = 38.07107 106.63974 59.50928
#
# Poissons Ratio (x) = 0.00141 0.65410
# Poissons Ratio (y) = 0.00050 0.21200
# Poissons Ratio (z) = 0.41846 0.37990
#
# Static dielectric constant tensor:
#      x y z
#    x 3.769300 0.000000 0.000000 
#    y 0.000000 4.006690 0.000000 
#    z 0.000000 0.000000 3.663680 
# 
# 
# High freq. dielectric constant tensor:
#      x y z
#    x 1.821930 0.000000 0.000000 
#    y 0.000000 1.823550 0.000000 
#    z 0.000000 0.000000 1.780370 
# 
# From -- ./inp_files/10171.got.cif
#   From: 2010.03.12/outbox.cif.g09.slc.cpg/sg61_6_cif.got.tgz:10171.got - 2010.04.10 19:05:03.
