data_PCOD8249193
_publ_section_title
;
Structure prediction by ZEFSAII (Michael W. Deem and Ramdas Pophale) SiO2 
 PCOD8249193
Probable space group: P B C A
;
_chemical_formula_sum "Si O2"
_cell_formula_units_Z 56
_cell_length_a 12.574338
_cell_length_b 16.078008
_cell_length_c 13.138685
_cell_angle_alpha 90.000000
_cell_angle_beta 90.000000
_cell_angle_gamma 90.000000
_cell_volume 2656.251979
_symmetry_space_group_name_H-M "P B C A"
_symmetry_group_IT_number 61
_symmetry_cell_setting 'orthorhombic'
loop_
_space_group_symop_operation_xyz
x,y,z
1/2-x,-y,1/2+z
1/2+x,1/2-y,-z
-x,1/2+y,1/2-z
-x,-y,-z
1/2+x,y,1/2-z
1/2-x,1/2+y,z
x,1/2-y,1/2+z
loop_
_atom_site_type_symbol
_atom_site_label
_atom_site_fract_x
_atom_site_fract_y
_atom_site_fract_z
Si Si1 0.409447 0.321297 0.556817
Si Si2 0.140051 0.508153 0.170383
Si Si3 0.400801 0.734617 0.826132
Si Si4 0.249363 0.199178 0.480084
Si Si5 0.146962 0.543067 0.562130
Si Si6 0.556423 0.163039 0.881201
Si Si7 0.916532 0.549687 0.627564
O O1 0.398374 0.411033 0.609704
O O2 0.491168 0.266712 0.622412
O O3 0.295446 0.277099 0.544463
O O4 0.444648 0.325334 0.438344
O O5 0.256711 0.480152 0.136145
O O6 0.057084 0.431824 0.157817
O O7 0.133480 0.518614 0.293220
O O8 0.293080 0.783383 0.863713
O O9 0.422806 0.734086 0.704560
O O10 0.371556 0.640712 0.853461
O O11 0.333606 0.124268 0.490871
O O12 0.142958 0.170587 0.532754
O O13 0.123774 0.468574 0.485443
O O14 0.044871 0.553963 0.634196
#
# Coordination Sequence:
#
# PCOD8249193 Si02
#       7
#     8   8   8   8   8   8   8
#     4  11  21  39  61  91 120 160 213 262 313 378
#     4  10  22  41  60  92 119 169 214 255 319 389
#     4  10  21  40  60  92 122 162 204 259 325 375
#     4  10  21  38  62  89 123 156 208 257 315 376
#     4  10  21  42  64  91 129 167 213 263 323 389
#     4   9  22  40  59  83 127 160 198 260 314 378
#     4  10  21  42  65  89 129 171 210 265 328 386
#
# _framework density 21.082336000000002
#
# number of rings (size 3 to 8) (size 9 to 14) (size 15 to 20)
#    0.000    2.000    1.429    1.286    0.000    3.429 
#   25.714    0.000    0.000    0.000    0.000    0.000 
#    0.000    0.000    0.000    0.000    0.000    0.000 
#
# Total GULP energy -693841.585505 kJ/mol
# GULP energy per Si atom -12390.028313 kJ/mol
# Density = 2.103435 g / cm^3
# Si number density = 21.082336 Si / 1000 Ang^3
#
#
#
# Elastic Constant Matrix: (Units=GPa)
#
#
# Indices 1 2 3 4 5 6 
#
# 1 68.0995 25.1967 32.8157 0.0000 0.0000 0.0000
# 2 25.1967 76.3555 30.2775 0.0000 0.0000 0.0000
# 3 32.8157 30.2775 88.9033 0.0000 0.0000 0.0000
# 4 0.0000 0.0000 0.0000 26.8666 0.0000 0.0000
# 5 0.0000 0.0000 0.0000 0.0000 28.0326 0.0000
# 6 0.0000 0.0000 0.0000 0.0000 0.0000 23.1818
#
#
#
# Elastic Compliance Matrix: (Units=1/GPa)
#
#
# Indices 1 2 3 4 5 6 
#
# 1 0.018864 -0.004005 -0.005599 0.000000 0.000000 0.000000
# 2 -0.004005 0.015992 -0.003968 0.000000 0.000000 0.000000
# 3 -0.005599 -0.003968 0.014666 0.000000 0.000000 0.000000
# 4 0.000000 0.000000 0.000000 0.037221 0.000000 0.000000
# 5 0.000000 0.000000 0.000000 0.000000 0.035673 0.000000
# 6 0.000000 0.000000 0.000000 0.000000 0.000000 0.043137
#
#
# Mechanical properties :
#
#
# Convention : Reuss Voigt Hill
#
# Bulk Modulus (GPa) = 44.68628 45.54868 45.11748
# Shear Modulus (GPa) = 24.98042 25.28741 25.13392
#
# Velocity S-wave (km/s) = 3.44597 3.46708 3.45654
# Velocity P-wave (km/s) = 6.08893 6.13837 6.11370
#
# Compressibility (1/GPa) = 0.02237823
#
# Stress axis : x y z
#
# Youngs Moduli (GPa) = 53.01008 62.53270 68.18339
#
# Poissons Ratio (x) = 0.25043 0.38178
# Poissons Ratio (y) = 0.21229 0.27055
# Poissons Ratio (z) = 0.29682 0.24813
#
# Static dielectric constant tensor:
#      x y z
#    x 3.761080 0.000000 0.000000 
#    y 0.000000 3.900040 0.000000 
#    z 0.000000 0.000000 4.104480 
# 
# 
# High freq. dielectric constant tensor:
#      x y z
#    x 1.822430 0.000000 0.000000 
#    y 0.000000 1.823310 0.000000 
#    z 0.000000 0.000000 1.827750 
# 
# From -- ./inp_files/7517.got.cif
#   From: 2010.03.12/outbox.cif.g09.slc.cpg/sg61_4_cif.got.tgz:7517.got - 2010.04.10 19:05:03.
