data_PCOD8249485
_publ_section_title
;
Structure prediction by ZEFSAII (Michael W. Deem and Ramdas Pophale) SiO2 
 PCOD8249485
Probable space group: P B C A
;
_chemical_formula_sum "Si O2"
_cell_formula_units_Z 40
_cell_length_a 18.591478
_cell_length_b 7.619072
_cell_length_c 13.611372
_cell_angle_alpha 90.000000
_cell_angle_beta 90.000000
_cell_angle_gamma 90.000000
_cell_volume 1928.048250
_symmetry_space_group_name_H-M "P B C A"
_symmetry_group_IT_number 61
_symmetry_cell_setting 'orthorhombic'
loop_
_space_group_symop_operation_xyz
x,y,z
1/2-x,-y,1/2+z
1/2+x,1/2-y,-z
-x,1/2+y,1/2-z
-x,-y,-z
1/2+x,y,1/2-z
1/2-x,1/2+y,z
x,1/2-y,1/2+z
loop_
_atom_site_type_symbol
_atom_site_label
_atom_site_fract_x
_atom_site_fract_y
_atom_site_fract_z
Si Si1 0.325484 0.087733 0.448024
Si Si2 0.560953 0.906124 0.387282
Si Si3 0.665245 0.188702 0.066078
Si Si4 0.528964 0.226096 0.958007
Si Si5 0.405507 0.387664 0.334503
O O1 0.364794 0.101500 0.552383
O O2 0.242881 0.128810 0.470926
O O3 0.358291 0.223653 0.370814
O O4 0.334903 0.892699 0.402719
O O5 0.502706 0.775530 0.434765
O O6 0.574248 0.847186 0.276670
O O7 0.528746 0.102008 0.388919
O O8 0.640777 0.066904 0.157637
O O9 0.609596 0.153333 0.975452
O O10 0.477445 0.087847 0.902113
#
# Coordination Sequence:
#
# PCOD8249485 Si02
#       5
#     8   8   8   8   8
#     4  10  22  44  62  89 135 161 205 269 305 371
#     4   9  21  42  64  94 127 161 208 262 312 367
#     4  11  21  42  64  89 128 170 204 257 318 364
#     4   9  21  41  63  92 131 159 205 270 305 368
#     4  11  22  41  67  94 120 171 213 251 317 380
#
# _framework density 20.746369000000001
#
# number of rings (size 3 to 8) (size 9 to 14) (size 15 to 20)
#    0.000    2.000    2.000    1.800    2.800    0.000 
#    7.200    4.000    0.000    0.000    0.000    0.000 
#    0.000    0.000    0.000    0.000    0.000    0.000 
#
# Total GULP energy -496017.354648 kJ/mol
# GULP energy per Si atom -12400.433866 kJ/mol
# Density = 2.069915 g / cm^3
# Si number density = 20.746369 Si / 1000 Ang^3
#
#
#
# Elastic Constant Matrix: (Units=GPa)
#
#
# Indices 1 2 3 4 5 6 
#
# 1 150.6164 43.3864 42.4830 0.0000 0.0000 0.0000
# 2 43.3864 119.3593 30.9193 0.0000 0.0000 0.0000
# 3 42.4830 30.9193 96.5842 0.0000 0.0000 0.0000
# 4 0.0000 0.0000 0.0000 9.4246 0.0000 0.0000
# 5 0.0000 0.0000 0.0000 0.0000 15.7378 0.0000
# 6 0.0000 0.0000 0.0000 0.0000 0.0000 34.6101
#
#
#
# Elastic Compliance Matrix: (Units=1/GPa)
#
#
# Indices 1 2 3 4 5 6 
#
# 1 0.008076 -0.002198 -0.002849 0.000000 0.000000 0.000000
# 2 -0.002198 0.009734 -0.002149 0.000000 0.000000 0.000000
# 3 -0.002849 -0.002149 0.012295 0.000000 0.000000 0.000000
# 4 0.000000 0.000000 0.000000 0.106105 0.000000 0.000000
# 5 0.000000 0.000000 0.000000 0.000000 0.063541 0.000000
# 6 0.000000 0.000000 0.000000 0.000000 0.000000 0.028893
#
#
# Mechanical properties :
#
#
# Convention : Reuss Voigt Hill
#
# Bulk Modulus (GPa) = 63.64188 66.68192 65.16190
# Shear Modulus (GPa) = 20.13911 28.60592 24.37252
#
# Velocity S-wave (km/s) = 3.11903 3.71730 3.43123
# Velocity P-wave (km/s) = 6.61165 7.11588 6.86839
#
# Compressibility (1/GPa) = 0.01571292
#
# Stress axis : x y z
#
# Youngs Moduli (GPa) = 123.82460 102.73613 81.33545
#
# Poissons Ratio (x) = 0.22577 0.23170
# Poissons Ratio (y) = 0.27212 0.17482
# Poissons Ratio (z) = 0.35274 0.22082
#
# Static dielectric constant tensor:
#      x y z
#    x 4.061810 0.000000 0.000000 
#    y 0.000000 3.941780 0.000000 
#    z 0.000000 0.000000 3.245960 
# 
# 
# High freq. dielectric constant tensor:
#      x y z
#    x 1.829000 0.000000 0.000000 
#    y 0.000000 1.828520 0.000000 
#    z 0.000000 0.000000 1.769090 
# 
# From -- ./inp_files/2204.got.cif
#   From: 2010.03.12/outbox.cif.g09.slc.cpg/sg61_2_cif.got.tgz:2204.got - 2010.04.10 19:05:03.
