data_PCOD8249063
_publ_section_title
;
Structure prediction by ZEFSAII (Michael W. Deem and Ramdas Pophale) SiO2 
 PCOD8249063
Probable space group: P B C A
;
_chemical_formula_sum "Si O2"
_cell_formula_units_Z 64
_cell_length_a 17.165532
_cell_length_b 13.839293
_cell_length_c 12.698735
_cell_angle_alpha 90.000000
_cell_angle_beta 90.000000
_cell_angle_gamma 90.000000
_cell_volume 3016.696589
_symmetry_space_group_name_H-M "P B C A"
_symmetry_group_IT_number 61
_symmetry_cell_setting 'orthorhombic'
loop_
_space_group_symop_operation_xyz
x,y,z
1/2-x,-y,1/2+z
1/2+x,1/2-y,-z
-x,1/2+y,1/2-z
-x,-y,-z
1/2+x,y,1/2-z
1/2-x,1/2+y,z
x,1/2-y,1/2+z
loop_
_atom_site_type_symbol
_atom_site_label
_atom_site_fract_x
_atom_site_fract_y
_atom_site_fract_z
Si Si1 0.442709 0.449821 0.277523
Si Si2 0.646467 0.591007 0.300123
Si Si3 0.210686 0.411789 0.315337
Si Si4 0.932927 0.211909 0.991541
Si Si5 0.490661 0.632047 0.193026
Si Si6 0.677285 0.810803 0.319488
Si Si7 0.055968 0.312730 0.307740
Si Si8 0.141783 0.913821 0.463778
O O1 0.432615 0.539232 0.195435
O O2 0.385994 0.358978 0.257401
O O3 0.528804 0.405965 0.261078
O O4 0.416445 0.483541 0.395432
O O5 0.686748 0.521582 0.213993
O O6 0.554760 0.605810 0.281057
O O7 0.685979 0.696859 0.294529
O O8 0.654717 0.547469 0.418135
O O9 0.241599 0.363079 0.206351
O O10 0.139115 0.344832 0.354058
O O11 0.273062 0.408400 0.409399
O O12 0.965474 0.142518 0.082161
O O13 0.907350 0.314232 0.036706
O O14 0.853509 0.169166 0.938459
O O15 0.999522 0.217775 0.902744
O O16 0.439575 0.724292 0.225441
#
# Coordination Sequence:
#
# PCOD8249063 Si02
#       8
#     8   8   8   8   8   8   8   8
#     4  10  20  39  66  91 126 174 215 268 328 394
#     4  11  22  42  68  93 125 185 221 267 342 407
#     4  11  24  42  65 100 138 163 227 295 318 399
#     4  10  21  43  72  90 129 188 216 264 339 402
#     4  12  21  39  70  97 130 171 226 275 320 399
#     4   9  21  43  65  91 136 174 219 264 346 395
#     4  11  22  42  63 103 127 165 228 282 324 389
#     4  10  21  45  65  90 139 185 219 266 358 405
#
# _framework density 21.215259
#
# number of rings (size 3 to 8) (size 9 to 14) (size 15 to 20)
#    0.000    1.500    6.250    0.750    0.000    5.500 
#   11.250    0.000    0.000    0.000    0.000    0.000 
#    0.000    0.000    0.000    0.000    0.000    0.000 
#
# Total GULP energy -792839.919961 kJ/mol
# GULP energy per Si atom -12388.123749 kJ/mol
# Density = 2.116697 g / cm^3
# Si number density = 21.215259 Si / 1000 Ang^3
#
#
#
# Elastic Constant Matrix: (Units=GPa)
#
#
# Indices 1 2 3 4 5 6 
#
# 1 86.8301 17.1193 32.3504 0.0000 0.0000 0.0000
# 2 17.1193 90.9140 31.9457 0.0000 0.0000 0.0000
# 3 32.3504 31.9457 99.6283 0.0000 0.0000 0.0000
# 4 0.0000 0.0000 0.0000 30.5283 0.0000 0.0000
# 5 0.0000 0.0000 0.0000 0.0000 37.6610 0.0000
# 6 0.0000 0.0000 0.0000 0.0000 0.0000 27.0039
#
#
#
# Elastic Compliance Matrix: (Units=1/GPa)
#
#
# Indices 1 2 3 4 5 6 
#
# 1 0.013199 -0.001104 -0.003932 0.000000 0.000000 0.000000
# 2 -0.001104 0.012488 -0.003646 0.000000 0.000000 0.000000
# 3 -0.003932 -0.003646 0.012483 0.000000 0.000000 0.000000
# 4 0.000000 0.000000 0.000000 0.032757 0.000000 0.000000
# 5 0.000000 0.000000 0.000000 0.000000 0.026553 0.000000
# 6 0.000000 0.000000 0.000000 0.000000 0.000000 0.037032
#
#
# Mechanical properties :
#
#
# Convention : Reuss Voigt Hill
#
# Bulk Modulus (GPa) = 48.06015 48.91146 48.48581
# Shear Modulus (GPa) = 31.48395 32.10244 31.79319
#
# Velocity S-wave (km/s) = 3.85648 3.89418 3.87538
# Velocity P-wave (km/s) = 6.52171 6.58213 6.55199
#
# Compressibility (1/GPa) = 0.02080726
#
# Stress axis : x y z
#
# Youngs Moduli (GPa) = 75.76144 80.07437 80.10797
#
# Poissons Ratio (x) = 0.08839 0.31499
# Poissons Ratio (y) = 0.08363 0.29207
# Poissons Ratio (z) = 0.29790 0.29195
#
# Static dielectric constant tensor:
#      x y z
#    x 3.917930 0.000000 0.000000 
#    y 0.000000 3.941500 0.000000 
#    z 0.000000 0.000000 4.044830 
# 
# 
# High freq. dielectric constant tensor:
#      x y z
#    x 1.819000 0.000000 0.000000 
#    y 0.000000 1.829820 0.000000 
#    z 0.000000 0.000000 1.828130 
# 
# From -- ./inp_files/6309.got.cif
#   From: 2010.03.12/outbox.cif.g09.slc.cpg/sg61_4_cif.got.tgz:6309.got - 2010.04.10 19:05:03.
