data_PCOD8249249
_publ_section_title
;
Structure prediction by ZEFSAII (Michael W. Deem and Ramdas Pophale) SiO2 
 PCOD8249249
Probable space group: P B C A
;
_chemical_formula_sum "Si O2"
_cell_formula_units_Z 48
_cell_length_a 8.852394
_cell_length_b 29.499197
_cell_length_c 8.433779
_cell_angle_alpha 90.000000
_cell_angle_beta 90.000000
_cell_angle_gamma 90.000000
_cell_volume 2202.384520
_symmetry_space_group_name_H-M "P B C A"
_symmetry_group_IT_number 61
_symmetry_cell_setting 'orthorhombic'
loop_
_space_group_symop_operation_xyz
x,y,z
1/2-x,-y,1/2+z
1/2+x,1/2-y,-z
-x,1/2+y,1/2-z
-x,-y,-z
1/2+x,y,1/2-z
1/2-x,1/2+y,z
x,1/2-y,1/2+z
loop_
_atom_site_type_symbol
_atom_site_label
_atom_site_fract_x
_atom_site_fract_y
_atom_site_fract_z
Si Si1 0.610819 0.036957 0.064913
Si Si2 0.461421 0.399082 0.363194
Si Si3 0.104700 0.518546 0.637544
Si Si4 0.506760 0.712643 0.058826
Si Si5 0.831681 0.655501 0.649246
Si Si6 0.212275 0.753554 0.208961
O O1 0.649179 0.024157 0.247309
O O2 0.526247 0.085209 0.035639
O O3 0.753352 0.039061 0.950751
O O4 0.500000 0.000000 0.000000
O O5 0.470082 0.440730 0.237586
O O6 0.566874 0.358889 0.298770
O O7 0.290231 0.383035 0.391433
O O8 0.000000 0.500000 0.500000
O O9 0.365008 0.741095 0.121203
O O10 0.646126 0.711894 0.183405
O O11 0.443233 0.663301 0.003286
O O12 0.570741 0.737216 0.903908
O O13 0.743955 0.702164 0.684699
#
# Coordination Sequence:
#
# PCOD8249249 Si02
#       6
#     8   8   8   8   8   8
#     4  10  21  39  67  96 130 176 230 264 329 409
#     4  11  23  42  66  99 137 180 221 285 349 406
#     4  11  23  42  71  98 131 179 229 273 330 415
#     4  12  23  42  69  98 131 179 238 287 347 423
#     4  12  23  41  70  97 138 177 224 286 362 388
#     4  12  23  42  70  96 130 181 241 285 341 430
#
# _framework density 21.794559
#
# number of rings (size 3 to 8) (size 9 to 14) (size 15 to 20)
#    0.000    0.667    6.667    2.000    2.333    0.000 
#    0.000    1.667    0.000    0.000    0.000    0.000 
#    0.000    0.000    0.000    0.000    0.000    0.000 
#
# Total GULP energy -594765.307632 kJ/mol
# GULP energy per Si atom -12390.943909 kJ/mol
# Density = 2.174495 g / cm^3
# Si number density = 21.794559 Si / 1000 Ang^3
#
#
#
# Elastic Constant Matrix: (Units=GPa)
#
#
# Indices 1 2 3 4 5 6 
#
# 1 98.8833 21.1630 26.6527 0.0000 0.0000 0.0000
# 2 21.1630 57.2282 24.2232 0.0000 0.0000 0.0000
# 3 26.6527 24.2232 96.0576 0.0000 0.0000 0.0000
# 4 0.0000 0.0000 0.0000 39.6997 0.0000 0.0000
# 5 0.0000 0.0000 0.0000 0.0000 41.0798 0.0000
# 6 0.0000 0.0000 0.0000 0.0000 0.0000 41.9225
#
#
#
# Elastic Compliance Matrix: (Units=1/GPa)
#
#
# Indices 1 2 3 4 5 6 
#
# 1 0.011441 -0.003232 -0.002359 0.000000 0.000000 0.000000
# 2 -0.003232 0.020475 -0.004266 0.000000 0.000000 0.000000
# 3 -0.002359 -0.004266 0.012141 0.000000 0.000000 0.000000
# 4 0.000000 0.000000 0.000000 0.025189 0.000000 0.000000
# 5 0.000000 0.000000 0.000000 0.000000 0.024343 0.000000
# 6 0.000000 0.000000 0.000000 0.000000 0.000000 0.023854
#
#
# Mechanical properties :
#
#
# Convention : Reuss Voigt Hill
#
# Bulk Modulus (GPa) = 41.08332 44.02744 42.55538
# Shear Modulus (GPa) = 34.41833 36.54907 35.48370
#
# Velocity S-wave (km/s) = 3.97825 4.09954 4.03935
# Velocity P-wave (km/s) = 6.32401 6.53095 6.42831
#
# Compressibility (1/GPa) = 0.02434078
#
# Stress axis : x y z
#
# Youngs Moduli (GPa) = 87.40804 48.84003 82.36590
#
# Poissons Ratio (x) = 0.15786 0.19433
# Poissons Ratio (y) = 0.28251 0.35141
# Poissons Ratio (z) = 0.20622 0.20837
#
# Static dielectric constant tensor:
#      x y z
#    x 4.124170 0.000000 0.000000 
#    y 0.000000 4.196190 0.000000 
#    z 0.000000 0.000000 4.539730 
# 
# 
# High freq. dielectric constant tensor:
#      x y z
#    x 1.882430 0.000000 0.000000 
#    y 0.000000 1.828380 0.000000 
#    z 0.000000 0.000000 1.851090 
# 
# From -- ./inp_files/1851.got.cif
#   From: 2010.03.12/outbox.cif.g09.slc.cpg/sg61_1_cif.got.tgz:1851.got - 2010.04.10 19:05:03.
