data_PCOD8249411
_publ_section_title
;
Structure prediction by ZEFSAII (Michael W. Deem and Ramdas Pophale) SiO2 
 PCOD8249411
Probable space group: P B C A
;
_chemical_formula_sum "Si O2"
_cell_formula_units_Z 64
_cell_length_a 12.904524
_cell_length_b 12.960129
_cell_length_c 18.975879
_cell_angle_alpha 90.000000
_cell_angle_beta 90.000000
_cell_angle_gamma 90.000000
_cell_volume 3173.607519
_symmetry_space_group_name_H-M "P B C A"
_symmetry_group_IT_number 61
_symmetry_cell_setting 'orthorhombic'
loop_
_space_group_symop_operation_xyz
x,y,z
1/2-x,-y,1/2+z
1/2+x,1/2-y,-z
-x,1/2+y,1/2-z
-x,-y,-z
1/2+x,y,1/2-z
1/2-x,1/2+y,z
x,1/2-y,1/2+z
loop_
_atom_site_type_symbol
_atom_site_label
_atom_site_fract_x
_atom_site_fract_y
_atom_site_fract_z
Si Si1 0.974055 0.587409 0.944530
Si Si2 0.347703 0.261858 0.414824
Si Si3 0.249189 0.169365 0.173904
Si Si4 0.823788 0.745038 0.470999
Si Si5 0.070463 0.463793 0.707897
Si Si6 0.709188 0.647305 0.736515
Si Si7 0.995961 0.585234 0.440630
Si Si8 0.888276 0.516030 0.799777
O O1 0.866759 0.638753 0.968776
O O2 0.960178 0.558303 0.862495
O O3 0.068955 0.664935 0.950453
O O4 0.000000 0.500000 0.000000
O O5 0.244917 0.262142 0.460421
O O6 0.308219 0.313077 0.342452
O O7 0.398618 0.145718 0.414780
O O8 0.241382 0.222668 0.098629
O O9 0.312903 0.249575 0.219912
O O10 0.139575 0.141190 0.212762
O O11 0.308040 0.061772 0.164418
O O12 0.918538 0.667026 0.474333
O O13 0.125388 0.562472 0.742160
O O14 0.050047 0.478155 0.625089
O O15 0.961367 0.450819 0.747378
O O16 0.825261 0.604056 0.755429
O O17 0.000000 0.500000 0.500000
#
# Coordination Sequence:
#
# PCOD8249411 Si02
#       8
#     8   8   8   8   8   8   8   8
#     4  11  23  43  66  95 130 174 215 275 327 403
#     4  11  24  42  66  98 130 169 222 276 328 401
#     4  10  22  40  65  92 123 175 213 258 336 396
#     4  10  23  43  63  93 131 168 216 268 328 394
#     4  10  23  41  63  93 131 169 217 271 329 392
#     4  11  23  41  67  92 132 172 217 274 332 393
#     4  10  24  42  67  96 133 172 221 271 334 399
#     4  11  22  40  68  95 128 171 220 267 336 392
#
# _framework density 20.166323999999999
#
# number of rings (size 3 to 8) (size 9 to 14) (size 15 to 20)
#    0.000    1.500    2.500    1.500    3.500    4.000 
#    0.000    0.000    0.000    0.000    0.000    0.000 
#    0.000    0.000    0.000    0.000    0.000    0.000 
#
# Total GULP energy -793107.648110 kJ/mol
# GULP energy per Si atom -12392.307002 kJ/mol
# Density = 2.012042 g / cm^3
# Si number density = 20.166324 Si / 1000 Ang^3
#
#
#
# Elastic Constant Matrix: (Units=GPa)
#
#
# Indices 1 2 3 4 5 6 
#
# 1 60.7084 18.6170 44.8644 0.0000 0.0000 0.0000
# 2 18.6170 91.6549 64.4364 0.0000 0.0000 0.0000
# 3 44.8644 64.4364 128.4126 0.0000 0.0000 0.0000
# 4 0.0000 0.0000 0.0000 41.9978 0.0000 0.0000
# 5 0.0000 0.0000 0.0000 0.0000 41.5011 0.0000
# 6 0.0000 0.0000 0.0000 0.0000 0.0000 13.9058
#
#
#
# Elastic Compliance Matrix: (Units=1/GPa)
#
#
# Indices 1 2 3 4 5 6 
#
# 1 0.022332 0.001467 -0.008538 0.000000 0.000000 0.000000
# 2 0.001467 0.016954 -0.009020 0.000000 0.000000 0.000000
# 3 -0.008538 -0.009020 0.015296 0.000000 0.000000 0.000000
# 4 0.000000 0.000000 0.000000 0.023811 0.000000 0.000000
# 5 0.000000 0.000000 0.000000 0.000000 0.024096 0.000000
# 6 0.000000 0.000000 0.000000 0.000000 0.000000 0.071913
#
#
# Mechanical properties :
#
#
# Convention : Reuss Voigt Hill
#
# Bulk Modulus (GPa) = 44.64329 59.62349 52.13339
# Shear Modulus (GPa) = 23.35893 29.67149 26.51521
#
# Velocity S-wave (km/s) = 3.40709 3.83996 3.62999
# Velocity P-wave (km/s) = 6.13704 7.02072 6.59370
#
# Compressibility (1/GPa) = 0.02239978
#
# Stress axis : x y z
#
# Youngs Moduli (GPa) = 44.77802 58.98426 65.37461
#
# Poissons Ratio (x) = -0.08650 0.55819
# Poissons Ratio (y) = -0.06567 0.58965
# Poissons Ratio (z) = 0.38233 0.53201
#
# Static dielectric constant tensor:
#      x y z
#    x 3.794280 0.000000 0.000000 
#    y 0.000000 3.443700 0.000000 
#    z 0.000000 0.000000 3.712230 
# 
# 
# High freq. dielectric constant tensor:
#      x y z
#    x 1.792630 0.000000 0.000000 
#    y 0.000000 1.792680 0.000000 
#    z 0.000000 0.000000 1.790000 
# 
# From -- ./inp_files/9530.got.cif
#   From: 2010.03.12/outbox.cif.g09.slc.cpg/sg61_5_cif.got.tgz:9530.got - 2010.04.10 19:05:03.
