data_PCOD8249434
_publ_section_title
;
Structure prediction by ZEFSAII (Michael W. Deem and Ramdas Pophale) SiO2 
 PCOD8249434
Probable space group: P B C A
;
_chemical_formula_sum "Si O2"
_cell_formula_units_Z 56
_cell_length_a 10.156937
_cell_length_b 19.027460
_cell_length_c 12.632777
_cell_angle_alpha 90.000000
_cell_angle_beta 90.000000
_cell_angle_gamma 90.000000
_cell_volume 2441.419484
_symmetry_space_group_name_H-M "P B C A"
_symmetry_group_IT_number 61
_symmetry_cell_setting 'orthorhombic'
loop_
_space_group_symop_operation_xyz
x,y,z
1/2-x,-y,1/2+z
1/2+x,1/2-y,-z
-x,1/2+y,1/2-z
-x,-y,-z
1/2+x,y,1/2-z
1/2-x,1/2+y,z
x,1/2-y,1/2+z
loop_
_atom_site_type_symbol
_atom_site_label
_atom_site_fract_x
_atom_site_fract_y
_atom_site_fract_z
Si Si1 0.199698 0.000179 0.035465
Si Si2 0.301751 0.376772 0.404999
Si Si3 0.562017 0.690786 0.215356
Si Si4 0.460242 0.466329 0.833353
Si Si5 0.819424 0.584687 0.792777
Si Si6 0.934992 0.798156 0.418186
Si Si7 0.839799 0.759149 0.634898
O O1 0.110300 0.026326 0.132407
O O2 0.293857 0.943047 0.088871
O O3 0.279199 0.066783 0.995635
O O4 0.125271 0.962445 0.940057
O O5 0.306212 0.412143 0.287101
O O6 0.433988 0.341499 0.442564
O O7 0.178465 0.323038 0.394154
O O8 0.558005 0.606904 0.228063
O O9 0.481279 0.719019 0.112774
O O10 0.483882 0.725803 0.314320
O O11 0.715885 0.714494 0.207154
O O12 0.425972 0.532655 0.760050
O O13 0.868579 0.664725 0.815158
O O14 0.840994 0.798090 0.520397
#
# Coordination Sequence:
#
# PCOD8249434 Si02
#       7
#     8   8   8   8   8   8   8
#     4  10  22  41  65  93 138 179 227 283 349 426
#     4  10  23  44  66  99 137 185 231 292 357 413
#     4  11  25  45  68 103 136 180 235 290 345 414
#     4  10  23  40  64  99 129 182 226 281 351 411
#     4  11  22  42  67  98 138 179 228 287 350 429
#     4  11  24  44  69 102 134 185 232 289 351 422
#     4  11  25  44  72 100 138 185 234 291 350 417
#
# _framework density 22.937474999999999
#
# number of rings (size 3 to 8) (size 9 to 14) (size 15 to 20)
#    0.000    1.429    1.429    2.571    4.000    2.857 
#    5.143    0.000    0.000    0.000    0.000    0.000 
#    0.000    0.000    0.000    0.000    0.000    0.000 
#
# Total GULP energy -694022.586035 kJ/mol
# GULP energy per Si atom -12393.260465 kJ/mol
# Density = 2.288527 g / cm^3
# Si number density = 22.937475 Si / 1000 Ang^3
#
#
#
# Elastic Constant Matrix: (Units=GPa)
#
#
# Indices 1 2 3 4 5 6 
#
# 1 63.5753 1.1895 25.3203 0.0000 0.0000 0.0000
# 2 1.1895 76.3795 10.7664 0.0000 0.0000 0.0000
# 3 25.3203 10.7664 91.9115 0.0000 0.0000 0.0000
# 4 0.0000 0.0000 0.0000 32.4533 0.0000 0.0000
# 5 0.0000 0.0000 0.0000 0.0000 31.7975 0.0000
# 6 0.0000 0.0000 0.0000 0.0000 0.0000 22.2986
#
#
#
# Elastic Compliance Matrix: (Units=1/GPa)
#
#
# Indices 1 2 3 4 5 6 
#
# 1 0.017681 0.000418 -0.004920 0.000000 0.000000 0.000000
# 2 0.000418 0.013322 -0.001676 0.000000 0.000000 0.000000
# 3 -0.004920 -0.001676 0.012432 0.000000 0.000000 0.000000
# 4 0.000000 0.000000 0.000000 0.030814 0.000000 0.000000
# 5 0.000000 0.000000 0.000000 0.000000 0.031449 0.000000
# 6 0.000000 0.000000 0.000000 0.000000 0.000000 0.044846
#
#
# Mechanical properties :
#
#
# Convention : Reuss Voigt Hill
#
# Bulk Modulus (GPa) = 32.17502 34.04652 33.11077
# Shear Modulus (GPa) = 28.85868 30.28256 29.57062
#
# Velocity S-wave (km/s) = 3.55088 3.63743 3.59442
# Velocity P-wave (km/s) = 5.55603 5.70233 5.62965
#
# Compressibility (1/GPa) = 0.03108001
#
# Stress axis : x y z
#
# Youngs Moduli (GPa) = 56.55789 75.06261 80.43975
#
# Poissons Ratio (x) = -0.03139 0.39575
# Poissons Ratio (y) = -0.02365 0.13480
# Poissons Ratio (z) = 0.27826 0.12579
#
# Static dielectric constant tensor:
#      x y z
#    x 3.942170 0.000000 0.000000 
#    y 0.000000 4.196830 0.000000 
#    z 0.000000 0.000000 4.080920 
# 
# 
# High freq. dielectric constant tensor:
#      x y z
#    x 1.892340 0.000000 0.000000 
#    y 0.000000 1.914150 0.000000 
#    z 0.000000 0.000000 1.907930 
# 
# From -- ./inp_files/5352.got.cif
#   From: 2010.03.12/outbox.cif.g09.slc.cpg/sg61_3_cif.got.tgz:5352.got - 2010.04.10 19:05:03.
