data_PCOD8249609
_publ_section_title
;
Structure prediction by ZEFSAII (Michael W. Deem and Ramdas Pophale) SiO2 
 PCOD8249609
Probable space group: P B C A
;
_chemical_formula_sum "Si O2"
_cell_formula_units_Z 40
_cell_length_a 9.166827
_cell_length_b 16.937211
_cell_length_c 12.829695
_cell_angle_alpha 90.000000
_cell_angle_beta 90.000000
_cell_angle_gamma 90.000000
_cell_volume 1991.944644
_symmetry_space_group_name_H-M "P B C A"
_symmetry_group_IT_number 61
_symmetry_cell_setting 'orthorhombic'
loop_
_space_group_symop_operation_xyz
x,y,z
1/2-x,-y,1/2+z
1/2+x,1/2-y,-z
-x,1/2+y,1/2-z
-x,-y,-z
1/2+x,y,1/2-z
1/2-x,1/2+y,z
x,1/2-y,1/2+z
loop_
_atom_site_type_symbol
_atom_site_label
_atom_site_fract_x
_atom_site_fract_y
_atom_site_fract_z
Si Si1 0.270116 0.035613 0.330568
Si Si2 0.666910 0.299698 0.667404
Si Si3 0.901925 0.296755 0.284651
Si Si4 0.521976 0.442649 0.319743
Si Si5 0.753111 0.880953 0.472244
O O1 0.205979 0.116280 0.277740
O O2 0.329432 0.059408 0.446675
O O3 0.399528 0.999445 0.263475
O O4 0.138513 0.974122 0.343509
O O5 0.497592 0.279526 0.685868
O O6 0.767385 0.230445 0.713859
O O7 0.685530 0.307760 0.541698
O O8 0.852703 0.345868 0.385761
O O9 0.008414 0.354125 0.222074
O O10 0.618017 0.434336 0.423556
#
# Coordination Sequence:
#
# PCOD8249609 Si02
#       5
#     8   8   8   8   8
#     4  10  24  42  67  95 129 172 217 262 325 384
#     4  10  25  41  67  95 130 172 215 267 322 388
#     4  12  22  45  66  97 134 167 216 273 321 387
#     4  12  21  46  65  95 134 168 214 272 320 383
#     4  10  25  39  68  95 126 171 221 253 338 373
#
# _framework density 20.080877999999998
#
# number of rings (size 3 to 8) (size 9 to 14) (size 15 to 20)
#    1.200    0.000    4.000    1.800    2.800    0.800 
#    0.000    0.000    0.000    0.000    0.000    0.000 
#    0.000    0.000    0.000    0.000    0.000    0.000 
#
# Total GULP energy -495670.265572 kJ/mol
# GULP energy per Si atom -12391.756639 kJ/mol
# Density = 2.003517 g / cm^3
# Si number density = 20.080878 Si / 1000 Ang^3
#
#
#
# Elastic Constant Matrix: (Units=GPa)
#
#
# Indices 1 2 3 4 5 6 
#
# 1 55.7986 14.3972 17.7096 0.0000 0.0000 0.0000
# 2 14.3972 76.4124 23.8848 0.0000 0.0000 0.0000
# 3 17.7096 23.8848 108.0214 0.0000 0.0000 0.0000
# 4 0.0000 0.0000 0.0000 43.5523 0.0000 0.0000
# 5 0.0000 0.0000 0.0000 0.0000 17.9354 0.0000
# 6 0.0000 0.0000 0.0000 0.0000 0.0000 43.6802
#
#
#
# Elastic Compliance Matrix: (Units=1/GPa)
#
#
# Indices 1 2 3 4 5 6 
#
# 1 0.019474 -0.002870 -0.002558 0.000000 0.000000 0.000000
# 2 -0.002870 0.014481 -0.002732 0.000000 0.000000 0.000000
# 3 -0.002558 -0.002732 0.010281 0.000000 0.000000 0.000000
# 4 0.000000 0.000000 0.000000 0.022961 0.000000 0.000000
# 5 0.000000 0.000000 0.000000 0.000000 0.055756 0.000000
# 6 0.000000 0.000000 0.000000 0.000000 0.000000 0.022894
#
#
# Mechanical properties :
#
#
# Convention : Reuss Voigt Hill
#
# Bulk Modulus (GPa) = 35.81975 39.13507 37.47741
# Shear Modulus (GPa) = 29.15947 33.31628 31.23788
#
# Velocity S-wave (km/s) = 3.81478 4.07763 3.94839
# Velocity P-wave (km/s) = 6.10572 6.45759 6.28412
#
# Compressibility (1/GPa) = 0.02791756
#
# Stress axis : x y z
#
# Youngs Moduli (GPa) = 51.35070 69.05426 97.26867
#
# Poissons Ratio (x) = 0.19815 0.24883
# Poissons Ratio (y) = 0.14735 0.26569
# Poissons Ratio (z) = 0.13136 0.18863
#
# Static dielectric constant tensor:
#      x y z
#    x 3.370430 0.000000 0.000000 
#    y 0.000000 3.667270 0.000000 
#    z 0.000000 0.000000 3.586640 
# 
# 
# High freq. dielectric constant tensor:
#      x y z
#    x 1.777920 0.000000 0.000000 
#    y 0.000000 1.791050 0.000000 
#    z 0.000000 0.000000 1.776770 
# 
# From -- ./inp_files/2697.got.cif
#   From: 2010.03.12/outbox.cif.g09.slc.cpg/sg61_2_cif.got.tgz:2697.got - 2010.04.10 19:05:03.
