data_PCOD8249528
_publ_section_title
;
Structure prediction by ZEFSAII (Michael W. Deem and Ramdas Pophale) SiO2 
 PCOD8249528
Probable space group: P B C A
;
_chemical_formula_sum "Si O2"
_cell_formula_units_Z 48
_cell_length_a 8.635474
_cell_length_b 8.903589
_cell_length_c 28.837313
_cell_angle_alpha 90.000000
_cell_angle_beta 90.000000
_cell_angle_gamma 90.000000
_cell_volume 2217.206160
_symmetry_space_group_name_H-M "P B C A"
_symmetry_group_IT_number 61
_symmetry_cell_setting 'orthorhombic'
loop_
_space_group_symop_operation_xyz
x,y,z
1/2-x,-y,1/2+z
1/2+x,1/2-y,-z
-x,1/2+y,1/2-z
-x,-y,-z
1/2+x,y,1/2-z
1/2-x,1/2+y,z
x,1/2-y,1/2+z
loop_
_atom_site_type_symbol
_atom_site_label
_atom_site_fract_x
_atom_site_fract_y
_atom_site_fract_z
Si Si1 0.620074 0.893043 0.522512
Si Si2 0.458824 0.507700 0.206321
Si Si3 0.543504 0.926542 0.131195
Si Si4 0.851645 0.846388 0.281682
Si Si5 0.420783 0.607585 0.535312
Si Si6 0.332570 0.100777 0.375764
O O1 0.526655 0.750449 0.538109
O O2 0.750158 0.855487 0.484001
O O3 0.677010 0.963817 0.571201
O O4 0.500000 0.000000 0.500000
O O5 0.330081 0.376602 0.209484
O O6 0.389000 0.668526 0.223610
O O7 0.599011 0.445754 0.237524
O O8 0.528755 0.525764 0.154338
O O9 0.434916 0.916577 0.174677
O O10 0.427864 0.959386 0.087452
O O11 0.649713 0.779292 0.125215
O O12 0.661211 0.062318 0.142757
O O13 0.500000 0.500000 0.500000
#
# Coordination Sequence:
#
# PCOD8249528 Si02
#       6
#     8   8   8   8   8   8
#     4  11  24  40  63  93 127 169 218 268 326 389
#     4  11  24  43  67  96 129 170 217 266 331 391
#     4  10  23  41  63  93 129 167 215 265 322 386
#     4  11  24  43  66  96 129 169 216 269 326 396
#     4  11  22  41  63  92 128 170 217 267 325 385
#     4  10  23  41  62  92 128 166 212 263 320 385
#
# _framework density 21.648866000000002
#
# number of rings (size 3 to 8) (size 9 to 14) (size 15 to 20)
#    0.000    1.333    1.667    3.000    4.667    5.333 
#    3.000    0.000    0.000    0.000    0.000    0.000 
#    0.000    0.000    0.000    0.000    0.000    0.000 
#
# Total GULP energy -594925.982800 kJ/mol
# GULP energy per Si atom -12394.291308 kJ/mol
# Density = 2.159959 g / cm^3
# Si number density = 21.648866 Si / 1000 Ang^3
#
#
#
# Elastic Constant Matrix: (Units=GPa)
#
#
# Indices 1 2 3 4 5 6 
#
# 1 109.3565 7.4782 29.9377 0.0000 0.0000 0.0000
# 2 7.4782 42.1467 19.6215 0.0000 0.0000 0.0000
# 3 29.9377 19.6215 98.1001 0.0000 0.0000 0.0000
# 4 0.0000 0.0000 0.0000 28.2048 0.0000 0.0000
# 5 0.0000 0.0000 0.0000 0.0000 38.4180 0.0000
# 6 0.0000 0.0000 0.0000 0.0000 0.0000 39.8625
#
#
#
# Elastic Compliance Matrix: (Units=1/GPa)
#
#
# Indices 1 2 3 4 5 6 
#
# 1 0.009984 -0.000389 -0.002969 0.000000 0.000000 0.000000
# 2 -0.000389 0.026178 -0.005117 0.000000 0.000000 0.000000
# 3 -0.002969 -0.005117 0.012123 0.000000 0.000000 0.000000
# 4 0.000000 0.000000 0.000000 0.035455 0.000000 0.000000
# 5 0.000000 0.000000 0.000000 0.000000 0.026029 0.000000
# 6 0.000000 0.000000 0.000000 0.000000 0.000000 0.025086
#
#
# Mechanical properties :
#
#
# Convention : Reuss Voigt Hill
#
# Bulk Modulus (GPa) = 31.91397 40.40869 36.16133
# Shear Modulus (GPa) = 30.81640 34.13479 32.47560
#
# Velocity S-wave (km/s) = 3.77698 3.97514 3.87732
# Velocity P-wave (km/s) = 5.81329 6.30674 6.06504
#
# Compressibility (1/GPa) = 0.03133424
#
# Stress axis : x y z
#
# Youngs Moduli (GPa) = 100.16215 38.19997 82.48620
#
# Poissons Ratio (x) = 0.01487 0.24490
# Poissons Ratio (y) = 0.03899 0.42210
# Poissons Ratio (z) = 0.29738 0.19548
#
# Static dielectric constant tensor:
#      x y z
#    x -10.620490 0.000000 0.000000 
#    y 0.000000 3.680030 0.000000 
#    z 0.000000 0.000000 4.679510 
# 
# 
# High freq. dielectric constant tensor:
#      x y z
#    x 1.853380 0.000000 0.000000 
#    y 0.000000 1.845670 0.000000 
#    z 0.000000 0.000000 1.867180 
# 
# From -- ./inp_files/11680.got.cif
#   From: 2010.03.12/outbox.cif.g09.slc.cpg/sg61_6_cif.got.tgz:11680.got - 2010.04.10 19:05:03.
