data_PCOD8249546
_publ_section_title
;
Structure prediction by ZEFSAII (Michael W. Deem and Ramdas Pophale) SiO2 
 PCOD8249546
Probable space group: P B C A
;
_chemical_formula_sum "Si O2"
_cell_formula_units_Z 48
_cell_length_a 18.605422
_cell_length_b 10.727030
_cell_length_c 9.856192
_cell_angle_alpha 90.000000
_cell_angle_beta 90.000000
_cell_angle_gamma 90.000000
_cell_volume 1967.107867
_symmetry_space_group_name_H-M "P B C A"
_symmetry_group_IT_number 61
_symmetry_cell_setting 'orthorhombic'
loop_
_space_group_symop_operation_xyz
x,y,z
1/2-x,-y,1/2+z
1/2+x,1/2-y,-z
-x,1/2+y,1/2-z
-x,-y,-z
1/2+x,y,1/2-z
1/2-x,1/2+y,z
x,1/2-y,1/2+z
loop_
_atom_site_type_symbol
_atom_site_label
_atom_site_fract_x
_atom_site_fract_y
_atom_site_fract_z
Si Si1 0.438508 0.305336 0.748417
Si Si2 0.522302 0.226842 0.510558
Si Si3 0.092138 0.451357 0.105107
Si Si4 0.336709 0.636052 0.877647
Si Si5 0.244182 0.014117 0.555393
Si Si6 0.725107 0.737137 0.277621
O O1 0.483233 0.205464 0.656460
O O2 0.446030 0.424247 0.652763
O O3 0.356785 0.266919 0.774464
O O4 0.475260 0.336579 0.892358
O O5 0.531317 0.371844 0.470008
O O6 0.603124 0.172120 0.511891
O O7 0.125553 0.382985 0.235059
O O8 0.160848 0.477432 0.007026
O O9 0.276478 0.744702 0.855284
O O10 0.296556 0.509151 0.926593
O O11 0.250234 0.888392 0.647680
O O12 0.269136 0.138749 0.630678
#
# Coordination Sequence:
#
# PCOD8249546 Si02
#       6
#     8   8   8   8   8   8
#     4  11  27  44  72 100 147 184 240 289 362 426
#     4  12  25  48  68 104 142 190 229 298 361 427
#     4  10  24  45  65 104 137 188 237 296 351 427
#     4  11  23  44  72 100 142 182 242 292 355 421
#     4  10  23  42  72 100 138 184 239 293 348 416
#     4  10  25  45  67 107 138 188 239 297 348 426
#
# _framework density 24.401305000000001
#
# number of rings (size 3 to 8) (size 9 to 14) (size 15 to 20)
#    0.000    1.333    1.667    2.500    7.000    8.667 
#    0.000    0.000    0.000    0.000    0.000    0.000 
#    0.000    0.000    0.000    0.000    0.000    0.000 
#
# Total GULP energy -594977.972072 kJ/mol
# GULP energy per Si atom -12395.374418 kJ/mol
# Density = 2.434577 g / cm^3
# Si number density = 24.401305 Si / 1000 Ang^3
#
#
#
# Elastic Constant Matrix: (Units=GPa)
#
#
# Indices 1 2 3 4 5 6 
#
# 1 140.0551 14.3249 48.2879 0.0000 0.0000 0.0000
# 2 14.3249 70.7637 -6.9723 0.0000 0.0000 0.0000
# 3 48.2879 -6.9723 89.1408 0.0000 0.0000 0.0000
# 4 0.0000 0.0000 0.0000 19.5789 0.0000 0.0000
# 5 0.0000 0.0000 0.0000 0.0000 22.9947 0.0000
# 6 0.0000 0.0000 0.0000 0.0000 0.0000 23.4263
#
#
#
# Elastic Compliance Matrix: (Units=1/GPa)
#
#
# Indices 1 2 3 4 5 6 
#
# 1 0.009155 -0.002360 -0.005144 0.000000 0.000000 0.000000
# 2 -0.002360 0.014850 0.002440 0.000000 0.000000 0.000000
# 3 -0.005144 0.002440 0.014196 0.000000 0.000000 0.000000
# 4 0.000000 0.000000 0.000000 0.051076 0.000000 0.000000
# 5 0.000000 0.000000 0.000000 0.000000 0.043488 0.000000
# 6 0.000000 0.000000 0.000000 0.000000 0.000000 0.042687
#
#
# Mechanical properties :
#
#
# Convention : Reuss Voigt Hill
#
# Bulk Modulus (GPa) = 35.62245 45.69339 40.65792
# Shear Modulus (GPa) = 25.64939 29.48790 27.56865
#
# Velocity S-wave (km/s) = 3.24566 3.48006 3.36490
# Velocity P-wave (km/s) = 5.35500 5.90882 5.63871
#
# Compressibility (1/GPa) = 0.02807219
#
# Stress axis : x y z
#
# Youngs Moduli (GPa) = 109.23088 67.34143 70.44485
#
# Poissons Ratio (x) = 0.15893 0.36236
# Poissons Ratio (y) = 0.25779 -0.17188
# Poissons Ratio (z) = 0.56187 -0.16431
#
# Static dielectric constant tensor:
#      x y z
#    x 4.886900 0.000000 0.000000 
#    y 0.000000 4.427670 0.000000 
#    z 0.000000 0.000000 4.270940 
# 
# 
# High freq. dielectric constant tensor:
#      x y z
#    x 1.989900 0.000000 0.000000 
#    y 0.000000 1.963030 0.000000 
#    z 0.000000 0.000000 1.961510 
# 
# From -- ./inp_files/6424.got.cif
#   From: 2010.03.12/outbox.cif.g09.slc.cpg/sg61_4_cif.got.tgz:6424.got - 2010.04.10 19:05:03.
