data_PCOD8249654
_publ_section_title
;
Structure prediction by ZEFSAII (Michael W. Deem and Ramdas Pophale) SiO2 
 PCOD8249654
Probable space group: P B C A
;
_chemical_formula_sum "Si O2"
_cell_formula_units_Z 48
_cell_length_a 8.948806
_cell_length_b 22.154659
_cell_length_c 11.150607
_cell_angle_alpha 90.000000
_cell_angle_beta 90.000000
_cell_angle_gamma 90.000000
_cell_volume 2210.694204
_symmetry_space_group_name_H-M "P B C A"
_symmetry_group_IT_number 61
_symmetry_cell_setting 'orthorhombic'
loop_
_space_group_symop_operation_xyz
x,y,z
1/2-x,-y,1/2+z
1/2+x,1/2-y,-z
-x,1/2+y,1/2-z
-x,-y,-z
1/2+x,y,1/2-z
1/2-x,1/2+y,z
x,1/2-y,1/2+z
loop_
_atom_site_type_symbol
_atom_site_label
_atom_site_fract_x
_atom_site_fract_y
_atom_site_fract_z
Si Si1 0.105656 0.104732 0.908862
Si Si2 0.663951 0.183015 0.986326
Si Si3 0.518081 0.706691 0.062815
Si Si4 0.277745 0.082338 0.680700
Si Si5 0.506103 0.372923 0.706975
Si Si6 0.776822 0.553506 0.358494
O O1 0.240470 0.106949 0.813450
O O2 0.954492 0.085015 0.841541
O O3 0.145317 0.055779 0.011119
O O4 0.087988 0.169839 0.971032
O O5 0.557049 0.228536 0.913016
O O6 0.684509 0.121202 0.914368
O O7 0.821638 0.216551 0.002371
O O8 0.594282 0.168340 0.114345
O O9 0.542569 0.670551 0.185165
O O10 0.221174 0.013862 0.667555
O O11 0.607236 0.427623 0.755017
O O12 0.361694 0.400626 0.643155
#
# Coordination Sequence:
#
# PCOD8249654 Si02
#       6
#     8   8   8   8   8   8
#     4  10  25  44  66 101 138 184 227 287 353 406
#     4  11  26  43  71  98 138 182 229 285 347 409
#     4  10  25  46  66 100 138 179 231 288 341 415
#     4  11  25  44  69 104 139 181 237 288 345 412
#     4  11  24  45  70 102 134 186 230 280 359 409
#     4  11  24  44  73  97 145 179 230 289 347 423
#
# _framework density 21.712637999999998
#
# number of rings (size 3 to 8) (size 9 to 14) (size 15 to 20)
#    0.000    1.333    1.667    1.500   11.667    0.667 
#    0.000    0.000    0.000    0.000    0.000    0.000 
#    0.000    0.000    0.000    0.000    0.000    0.000 
#
# Total GULP energy -595510.123214 kJ/mol
# GULP energy per Si atom -12406.460900 kJ/mol
# Density = 2.166322 g / cm^3
# Si number density = 21.712638 Si / 1000 Ang^3
#
#
#
# Elastic Constant Matrix: (Units=GPa)
#
#
# Indices 1 2 3 4 5 6 
#
# 1 98.3661 45.0201 50.6892 0.0000 0.0000 0.0000
# 2 45.0201 110.5000 35.5065 0.0000 0.0000 0.0000
# 3 50.6892 35.5065 83.0613 0.0000 0.0000 0.0000
# 4 0.0000 0.0000 0.0000 21.8514 0.0000 0.0000
# 5 0.0000 0.0000 0.0000 0.0000 40.5881 0.0000
# 6 0.0000 0.0000 0.0000 0.0000 0.0000 37.3722
#
#
#
# Elastic Compliance Matrix: (Units=1/GPa)
#
#
# Indices 1 2 3 4 5 6 
#
# 1 0.016204 -0.003970 -0.008192 0.000000 0.000000 0.000000
# 2 -0.003970 0.011463 -0.002478 0.000000 0.000000 0.000000
# 3 -0.008192 -0.002478 0.018098 0.000000 0.000000 0.000000
# 4 0.000000 0.000000 0.000000 0.045764 0.000000 0.000000
# 5 0.000000 0.000000 0.000000 0.000000 0.024638 0.000000
# 6 0.000000 0.000000 0.000000 0.000000 0.000000 0.026758
#
#
# Mechanical properties :
#
#
# Convention : Reuss Voigt Hill
#
# Bulk Modulus (GPa) = 60.65528 61.59544 61.12536
# Shear Modulus (GPa) = 28.13748 30.67644 29.40696
#
# Velocity S-wave (km/s) = 3.60377 3.76285 3.68417
# Velocity P-wave (km/s) = 6.73144 6.87814 6.80519
#
# Compressibility (1/GPa) = 0.01648661
#
# Stress axis : x y z
#
# Youngs Moduli (GPa) = 61.71169 87.23515 55.25570
#
# Poissons Ratio (x) = 0.34630 0.45265
# Poissons Ratio (y) = 0.24498 0.13690
# Poissons Ratio (z) = 0.50554 0.21614
#
# Static dielectric constant tensor:
#      x y z
#    x 3.965540 0.000000 0.000000 
#    y 0.000000 3.783640 0.000000 
#    z 0.000000 0.000000 3.888380 
# 
# 
# High freq. dielectric constant tensor:
#      x y z
#    x 1.862270 0.000000 0.000000 
#    y 0.000000 1.851060 0.000000 
#    z 0.000000 0.000000 1.855620 
# 
# From -- ./inp_files/4868.got.cif
#   From: 2010.03.12/outbox.cif.g09.slc.cpg/sg61_3_cif.got.tgz:4868.got - 2010.04.10 19:05:03.
