data_PCOD8249933
_publ_section_title
;
Structure prediction by ZEFSAII (Michael W. Deem and Ramdas Pophale) SiO2 
 PCOD8249933
Probable space group: P B C A
;
_chemical_formula_sum "Si O2"
_cell_formula_units_Z 56
_cell_length_a 9.000000
_cell_length_b 21.000000
_cell_length_c 15.000000
_cell_angle_alpha 90.000000
_cell_angle_beta 90.000000
_cell_angle_gamma 90.000000
_cell_volume 2835.000000
_symmetry_space_group_name_H-M "P B C A"
_symmetry_group_IT_number 61
_symmetry_cell_setting 'orthorhombic'
loop_
_space_group_symop_operation_xyz
x,y,z
1/2-x,-y,1/2+z
1/2+x,1/2-y,-z
-x,1/2+y,1/2-z
-x,-y,-z
1/2+x,y,1/2-z
1/2-x,1/2+y,z
x,1/2-y,1/2+z
loop_
_atom_site_type_symbol
_atom_site_label
_atom_site_fract_x
_atom_site_fract_y
_atom_site_fract_z
Si Si1 0.609288 0.133301 0.934377
Si Si2 0.147431 0.863946 0.919616
Si Si3 0.608088 0.280069 0.890289
Si Si4 0.607269 0.347366 0.713242
Si Si5 0.304805 0.508677 0.662094
Si Si6 0.371131 0.373524 0.572756
Si Si7 0.000480 0.033693 0.184214
O O1 0.634965 0.204909 0.899034
O O2 0.621644 0.075957 0.864354
O O3 0.737392 0.119951 0.004806
O O4 0.445534 0.126051 0.975535
O O5 0.228191 0.844825 0.827427
O O6 0.041041 0.803846 0.941599
O O7 0.058294 0.929894 0.903548
O O8 0.592665 0.291339 0.784881
O O9 0.731186 0.326925 0.932058
O O10 0.482555 0.337504 0.639272
O O11 0.593648 0.416068 0.757613
O O12 0.341640 0.447059 0.600160
O O13 0.365565 0.497499 0.761878
O O14 0.126038 0.518640 0.659999
#
# Coordination Sequence:
#
# PCOD8249933 Si02
#       7
#     8   8   8   8   8   8   8
#     4  11  25  36  54  90 127 144 179 252 305 325
#     4  10  19  37  61  83 109 155 203 226 276 356
#     4  11  19  37  58  85 114 152 198 239 281 340
#     4   9  17  34  63  83 100 151 207 233 259 341
#     4  11  21  40  59  87 115 149 196 241 283 340
#     4  10  20  38  62  80 112 159 199 228 281 352
#     4  10  18  36  63  82 108 150 196 231 273 348
#
# _framework density 19.753086
#
# number of rings (size 3 to 8) (size 9 to 14) (size 15 to 20)
#    0.000    1.714    4.286    3.000    0.000    0.571 
#    5.143    0.000    0.000    0.000    0.000    0.000 
#    0.000    0.000    0.000    0.000    0.000    0.000 
#
# Total GULP energy -693994.900819 kJ/mol
# GULP energy per Si atom -12392.766086 kJ/mol
# Density = 1.970813 g / cm^3
# Si number density = 19.753086 Si / 1000 Ang^3
#
#
#
# Elastic Constant Matrix: (Units=GPa)
#
#
# Indices 1 2 3 4 5 6 
#
# 1 84.1184 21.9140 9.4507 0.0000 0.0000 0.0000
# 2 21.9140 121.0696 16.4247 0.0000 0.0000 0.0000
# 3 9.4507 16.4247 34.9653 0.0000 0.0000 0.0000
# 4 0.0000 0.0000 0.0000 20.4676 0.0000 0.0000
# 5 0.0000 0.0000 0.0000 0.0000 16.6334 0.0000
# 6 0.0000 0.0000 0.0000 0.0000 0.0000 19.1733
#
#
#
# Elastic Compliance Matrix: (Units=1/GPa)
#
#
# Indices 1 2 3 4 5 6 
#
# 1 0.012679 -0.001955 -0.002509 0.000000 0.000000 0.000000
# 2 -0.001955 0.009123 -0.003757 0.000000 0.000000 0.000000
# 3 -0.002509 -0.003757 0.031043 0.000000 0.000000 0.000000
# 4 0.000000 0.000000 0.000000 0.048858 0.000000 0.000000
# 5 0.000000 0.000000 0.000000 0.000000 0.060120 0.000000
# 6 0.000000 0.000000 0.000000 0.000000 0.000000 0.052156
#
#
# Mechanical properties :
#
#
# Convention : Reuss Voigt Hill
#
# Bulk Modulus (GPa) = 27.46973 37.30358 32.38665
# Shear Modulus (GPa) = 20.61392 24.07913 22.34652
#
# Velocity S-wave (km/s) = 3.23395 3.49521 3.36712
# Velocity P-wave (km/s) = 5.28028 5.93419 5.61676
#
# Compressibility (1/GPa) = 0.03640371
#
# Stress axis : x y z
#
# Youngs Moduli (GPa) = 78.87017 109.61037 32.21359
#
# Poissons Ratio (x) = 0.21424 0.08082
# Poissons Ratio (y) = 0.15416 0.12103
# Poissons Ratio (z) = 0.19787 0.41183
#
# Static dielectric constant tensor:
#      x y z
#    x 3.863470 0.000000 0.000000 
#    y 0.000000 3.408420 0.000000 
#    z 0.000000 0.000000 3.457620 
# 
# 
# High freq. dielectric constant tensor:
#      x y z
#    x 1.788600 0.000000 0.000000 
#    y 0.000000 1.752790 0.000000 
#    z 0.000000 0.000000 1.738900 
# 
# From -- ./inp_files/7147.got.cif
#   From: 2010.03.12/outbox.ucp.g09.slc.cvg/sg61_4_cif.got.tgz:7147.got - 2010.05.04 19:33:56.
