data_PCOD8249492
_publ_section_title
;
Structure prediction by ZEFSAII (Michael W. Deem and Ramdas Pophale) SiO2 
 PCOD8249492
Probable space group: P B C A
;
_chemical_formula_sum "Si O2"
_cell_formula_units_Z 64
_cell_length_a 29.590351
_cell_length_b 5.370097
_cell_length_c 17.061313
_cell_angle_alpha 90.000000
_cell_angle_beta 90.000000
_cell_angle_gamma 90.000000
_cell_volume 2711.094760
_symmetry_space_group_name_H-M "P B C A"
_symmetry_group_IT_number 61
_symmetry_cell_setting 'orthorhombic'
loop_
_space_group_symop_operation_xyz
x,y,z
1/2-x,-y,1/2+z
1/2+x,1/2-y,-z
-x,1/2+y,1/2-z
-x,-y,-z
1/2+x,y,1/2-z
1/2-x,1/2+y,z
x,1/2-y,1/2+z
loop_
_atom_site_type_symbol
_atom_site_label
_atom_site_fract_x
_atom_site_fract_y
_atom_site_fract_z
Si Si1 0.501414 0.785426 0.120622
Si Si2 0.134230 0.672725 0.597126
Si Si3 0.273620 0.079382 0.514381
Si Si4 0.411768 0.813868 0.041491
Si Si5 0.954047 0.562103 0.726211
Si Si6 0.637802 0.778960 0.729450
Si Si7 0.410137 0.947626 0.874906
Si Si8 0.226138 0.962796 0.829059
O O1 0.466324 0.797101 0.049083
O O2 0.510931 0.511851 0.156822
O O3 0.480651 0.944519 0.192481
O O4 0.550298 0.876299 0.089967
O O5 0.175783 0.639371 0.539005
O O6 0.104317 0.425042 0.589936
O O7 0.152278 0.674889 0.686113
O O8 0.107928 0.928103 0.576078
O O9 0.243139 0.310402 0.546908
O O10 0.272005 0.054828 0.421677
O O11 0.396921 0.779442 0.950199
O O12 0.913593 0.367464 0.735968
O O13 0.931112 0.817946 0.701478
O O14 0.635439 0.577163 0.658079
O O15 0.674567 0.982231 0.702291
O O16 0.248398 0.706913 0.795810
#
# Coordination Sequence:
#
# PCOD8249492 Si02
#       8
#     8   8   8   8   8   8   8   8
#     4  11  23  42  65  97 135 185 235 288 344 407
#     4  12  27  45  70 103 139 187 225 290 346 422
#     4  10  22  44  69  98 138 176 220 276 348 413
#     4  12  28  44  68 102 143 179 242 286 348 405
#     4  11  23  41  68  97 138 184 231 285 350 411
#     4  11  26  44  71 102 141 182 236 283 354 408
#     4  11  26  43  69  98 135 193 231 295 339 415
#     4  10  24  43  72 105 136 177 223 282 340 416
#
# _framework density 23.606697
#
# number of rings (size 3 to 8) (size 9 to 14) (size 15 to 20)
#    0.000    1.000    2.500    2.625   10.500    2.500 
#    0.000    0.000    0.000    0.000    0.000    0.000 
#    0.000    0.000    0.000    0.000    0.000    0.000 
#
# Total GULP energy -793224.831878 kJ/mol
# GULP energy per Si atom -12394.137998 kJ/mol
# Density = 2.355297 g / cm^3
# Si number density = 23.606697 Si / 1000 Ang^3
#
#
#
# Elastic Constant Matrix: (Units=GPa)
#
#
# Indices 1 2 3 4 5 6 
#
# 1 58.6745 13.5021 -3.4846 0.0000 0.0000 0.0000
# 2 13.5021 109.1757 7.8524 0.0000 0.0000 0.0000
# 3 -3.4846 7.8524 58.9421 0.0000 0.0000 0.0000
# 4 0.0000 0.0000 0.0000 18.5084 0.0000 0.0000
# 5 0.0000 0.0000 0.0000 0.0000 39.0051 0.0000
# 6 0.0000 0.0000 0.0000 0.0000 0.0000 18.7682
#
#
#
# Elastic Compliance Matrix: (Units=1/GPa)
#
#
# Indices 1 2 3 4 5 6 
#
# 1 0.017648 -0.002279 0.001347 0.000000 0.000000 0.000000
# 2 -0.002279 0.009543 -0.001406 0.000000 0.000000 0.000000
# 3 0.001347 -0.001406 0.017233 0.000000 0.000000 0.000000
# 4 0.000000 0.000000 0.000000 0.054029 0.000000 0.000000
# 5 0.000000 0.000000 0.000000 0.000000 0.025638 0.000000
# 6 0.000000 0.000000 0.000000 0.000000 0.000000 0.053282
#
#
# Mechanical properties :
#
#
# Convention : Reuss Voigt Hill
#
# Bulk Modulus (GPa) = 25.15972 29.17024 27.16498
# Shear Modulus (GPa) = 25.60196 29.18449 27.39323
#
# Velocity S-wave (km/s) = 3.29678 3.51989 3.41016
# Velocity P-wave (km/s) = 5.01724 5.37616 5.19980
#
# Compressibility (1/GPa) = 0.03974607
#
# Stress axis : x y z
#
# Youngs Moduli (GPa) = 56.66452 104.79346 58.02901
#
# Poissons Ratio (x) = 0.23887 -0.07816
# Poissons Ratio (y) = 0.12916 0.08159
# Poissons Ratio (z) = -0.07633 0.14734
#
# Static dielectric constant tensor:
#      x y z
#    x 4.213240 0.000000 0.000000 
#    y 0.000000 4.457450 0.000000 
#    z 0.000000 0.000000 4.138840 
# 
# 
# High freq. dielectric constant tensor:
#      x y z
#    x 1.938410 0.000000 0.000000 
#    y 0.000000 1.934820 0.000000 
#    z 0.000000 0.000000 1.928520 
# 
# From -- ./inp_files/863.got.cif
#   From: 2010.03.12/outbox.cif.g09.slc.cpg/sg61_1_cif.got.tgz:863.got - 2010.04.10 19:05:03.
