data_PCOD8249501
_publ_section_title
;
Structure prediction by ZEFSAII (Michael W. Deem and Ramdas Pophale) SiO2 
 PCOD8249501
Probable space group: P B C A
;
_chemical_formula_sum "Si O2"
_cell_formula_units_Z 64
_cell_length_a 22.626935
_cell_length_b 14.520337
_cell_length_c 8.776441
_cell_angle_alpha 90.000000
_cell_angle_beta 90.000000
_cell_angle_gamma 90.000000
_cell_volume 2883.506023
_symmetry_space_group_name_H-M "P B C A"
_symmetry_group_IT_number 61
_symmetry_cell_setting 'orthorhombic'
loop_
_space_group_symop_operation_xyz
x,y,z
1/2-x,-y,1/2+z
1/2+x,1/2-y,-z
-x,1/2+y,1/2-z
-x,-y,-z
1/2+x,y,1/2-z
1/2-x,1/2+y,z
x,1/2-y,1/2+z
loop_
_atom_site_type_symbol
_atom_site_label
_atom_site_fract_x
_atom_site_fract_y
_atom_site_fract_z
Si Si1 0.070365 0.916155 0.593116
Si Si2 0.176993 0.644088 0.909826
Si Si3 0.271355 0.184941 0.585112
Si Si4 0.258036 0.968652 0.850994
Si Si5 0.558205 0.405876 0.587866
Si Si6 0.134367 0.298325 0.126170
Si Si7 0.635752 0.468706 0.183243
Si Si8 0.635745 0.088791 0.345166
O O1 0.109255 0.858835 0.470452
O O2 0.007604 0.863752 0.618829
O O3 0.053711 0.018274 0.541408
O O4 0.103660 0.938483 0.753266
O O5 0.185067 0.663105 0.728258
O O6 0.203262 0.542720 0.946164
O O7 0.209817 0.720803 0.006238
O O8 0.274079 0.102722 0.463555
O O9 0.204598 0.200004 0.633035
O O10 0.298189 0.919383 0.723486
O O11 0.204923 0.023230 0.767576
O O12 0.605711 0.328113 0.535517
O O13 0.586287 0.456116 0.735720
O O14 0.111509 0.370851 0.253394
O O15 0.114320 0.194456 0.150392
O O16 0.630654 0.465861 0.001722
#
# Coordination Sequence:
#
# PCOD8249501 Si02
#       8
#     8   8   8   8   8   8   8   8
#     4  10  24  47  66  93 135 186 232 283 359 423
#     4  12  26  45  67  99 146 182 230 294 354 434
#     4  12  26  41  68 102 139 179 229 287 361 429
#     4  12  24  41  66 103 144 183 225 292 363 426
#     4  10  22  45  71  89 132 187 236 288 346 424
#     4  11  22  42  63 104 135 176 231 287 351 416
#     4  11  25  38  67 101 137 180 232 286 357 427
#     4  12  23  39  69 103 136 180 239 299 346 421
#
# _framework density 22.195201999999998
#
# number of rings (size 3 to 8) (size 9 to 14) (size 15 to 20)
#    0.000    0.750    3.750    3.750    5.250    0.500 
#    2.250    0.000    0.000    0.000    0.000    0.000 
#    0.000    0.000    0.000    0.000    0.000    0.000 
#
# Total GULP energy -793193.676167 kJ/mol
# GULP energy per Si atom -12393.651190 kJ/mol
# Density = 2.214468 g / cm^3
# Si number density = 22.195202 Si / 1000 Ang^3
#
#
#
# Elastic Constant Matrix: (Units=GPa)
#
#
# Indices 1 2 3 4 5 6 
#
# 1 110.0714 10.3447 56.1499 0.0000 0.0000 0.0000
# 2 10.3447 73.5420 30.7506 0.0000 0.0000 0.0000
# 3 56.1499 30.7506 147.6076 0.0000 0.0000 0.0000
# 4 0.0000 0.0000 0.0000 27.6953 0.0000 0.0000
# 5 0.0000 0.0000 0.0000 0.0000 23.4477 0.0000
# 6 0.0000 0.0000 0.0000 0.0000 0.0000 17.7185
#
#
#
# Elastic Compliance Matrix: (Units=1/GPa)
#
#
# Indices 1 2 3 4 5 6 
#
# 1 0.011276 0.000227 -0.004337 0.000000 0.000000 0.000000
# 2 0.000227 0.014900 -0.003190 0.000000 0.000000 0.000000
# 3 -0.004337 -0.003190 0.009089 0.000000 0.000000 0.000000
# 4 0.000000 0.000000 0.000000 0.036107 0.000000 0.000000
# 5 0.000000 0.000000 0.000000 0.000000 0.042648 0.000000
# 6 0.000000 0.000000 0.000000 0.000000 0.000000 0.056438
#
#
# Mechanical properties :
#
#
# Convention : Reuss Voigt Hill
#
# Bulk Modulus (GPa) = 48.39131 58.41238 53.40184
# Shear Modulus (GPa) = 26.04894 29.37069 27.70981
#
# Velocity S-wave (km/s) = 3.42954 3.64165 3.53719
# Velocity P-wave (km/s) = 6.12636 6.63754 6.38706
#
# Compressibility (1/GPa) = 0.02066487
#
# Stress axis : x y z
#
# Youngs Moduli (GPa) = 88.68477 67.11518 110.02247
#
# Poissons Ratio (x) = -0.01525 0.47713
# Poissons Ratio (y) = -0.02015 0.35102
# Poissons Ratio (z) = 0.38460 0.21413
#
# Static dielectric constant tensor:
#      x y z
#    x 4.164770 0.000000 0.000000 
#    y 0.000000 4.154520 0.000000 
#    z 0.000000 0.000000 4.067610 
# 
# 
# High freq. dielectric constant tensor:
#      x y z
#    x 1.856580 0.000000 0.000000 
#    y 0.000000 1.866200 0.000000 
#    z 0.000000 0.000000 1.878520 
# 
# From -- ./inp_files/4360.got.cif
#   From: 2010.03.12/outbox.cif.g09.slc.cpg/sg61_3_cif.got.tgz:4360.got - 2010.04.10 19:05:03.
