data_PCOD8249145
_publ_section_title
;
Structure prediction by ZEFSAII (Michael W. Deem and Ramdas Pophale) SiO2 
 PCOD8249145
Probable space group: P B C A
;
_chemical_formula_sum "Si O2"
_cell_formula_units_Z 56
_cell_length_a 9.464346
_cell_length_b 13.581715
_cell_length_c 20.429832
_cell_angle_alpha 90.000000
_cell_angle_beta 90.000000
_cell_angle_gamma 90.000000
_cell_volume 2626.092487
_symmetry_space_group_name_H-M "P B C A"
_symmetry_group_IT_number 61
_symmetry_cell_setting 'orthorhombic'
loop_
_space_group_symop_operation_xyz
x,y,z
1/2-x,-y,1/2+z
1/2+x,1/2-y,-z
-x,1/2+y,1/2-z
-x,-y,-z
1/2+x,y,1/2-z
1/2-x,1/2+y,z
x,1/2-y,1/2+z
loop_
_atom_site_type_symbol
_atom_site_label
_atom_site_fract_x
_atom_site_fract_y
_atom_site_fract_z
Si Si1 0.552774 0.823391 0.567433
Si Si2 0.868584 0.776727 0.817845
Si Si3 0.158443 0.209731 0.952717
Si Si4 0.573858 0.785878 0.851918
Si Si5 0.840581 0.512266 0.617274
Si Si6 0.986895 0.881421 0.236315
Si Si7 0.388841 0.934977 0.794931
O O1 0.513503 0.788047 0.641021
O O2 0.420134 0.797071 0.521799
O O3 0.700588 0.775820 0.542825
O O4 0.565825 0.942204 0.570340
O O5 0.739272 0.785488 0.870720
O O6 0.870508 0.668164 0.784434
O O7 0.842971 0.862967 0.764123
O O8 0.211660 0.103438 0.926824
O O9 0.036689 0.253168 0.906298
O O10 0.572287 0.711167 0.790861
O O11 0.533688 0.894106 0.826001
O O12 0.922685 0.552077 0.679784
O O13 0.721565 0.438563 0.645258
O O14 0.093345 0.951890 0.274798
#
# Coordination Sequence:
#
# PCOD8249145 Si02
#       7
#     8   8   8   8   8   8   8
#     4  12  24  46  69  96 132 184 223 284 331 399
#     4  11  23  37  66  99 135 175 222 269 349 400
#     4  11  25  45  70  93 134 176 234 276 332 396
#     4  10  22  38  60  94 129 173 215 274 333 396
#     4  11  22  41  67  99 130 177 218 274 335 399
#     4  10  21  36  61  98 135 171 214 273 334 409
#     4  11  20  37  64  95 136 167 217 273 339 404
#
# _framework density 21.324459000000001
#
# number of rings (size 3 to 8) (size 9 to 14) (size 15 to 20)
#    0.000    1.143    2.857    3.857    2.000    0.000 
#    0.000    0.714    0.000    0.000    0.000    0.000 
#    0.000    0.000    0.000    0.000    0.000    0.000 
#
# Total GULP energy -693960.876275 kJ/mol
# GULP energy per Si atom -12392.158505 kJ/mol
# Density = 2.127592 g / cm^3
# Si number density = 21.324459 Si / 1000 Ang^3
#
#
#
# Elastic Constant Matrix: (Units=GPa)
#
#
# Indices 1 2 3 4 5 6 
#
# 1 101.0434 27.7126 33.3779 0.0000 0.0000 0.0000
# 2 27.7126 111.1194 35.9597 0.0000 0.0000 0.0000
# 3 33.3779 35.9597 81.8423 0.0000 0.0000 0.0000
# 4 0.0000 0.0000 0.0000 27.9739 0.0000 0.0000
# 5 0.0000 0.0000 0.0000 0.0000 40.7453 0.0000
# 6 0.0000 0.0000 0.0000 0.0000 0.0000 23.1065
#
#
#
# Elastic Compliance Matrix: (Units=1/GPa)
#
#
# Indices 1 2 3 4 5 6 
#
# 1 0.011676 -0.001598 -0.004060 0.000000 0.000000 0.000000
# 2 -0.001598 0.010710 -0.004054 0.000000 0.000000 0.000000
# 3 -0.004060 -0.004054 0.015655 0.000000 0.000000 0.000000
# 4 0.000000 0.000000 0.000000 0.035748 0.000000 0.000000
# 5 0.000000 0.000000 0.000000 0.000000 0.024543 0.000000
# 6 0.000000 0.000000 0.000000 0.000000 0.000000 0.043278
#
#
# Mechanical properties :
#
#
# Convention : Reuss Voigt Hill
#
# Bulk Modulus (GPa) = 53.71173 54.23396 53.97285
# Shear Modulus (GPa) = 29.89732 31.49545 30.69639
#
# Velocity S-wave (km/s) = 3.74842 3.84730 3.79818
# Velocity P-wave (km/s) = 6.63149 6.72485 6.67833
#
# Compressibility (1/GPa) = 0.01861791
#
# Stress axis : x y z
#
# Youngs Moduli (GPa) = 85.64498 93.37252 63.87547
#
# Poissons Ratio (x) = 0.14923 0.25931
# Poissons Ratio (y) = 0.13688 0.25894
# Poissons Ratio (z) = 0.34769 0.37852
#
# Static dielectric constant tensor:
#      x y z
#    x 3.782020 0.000000 0.000000 
#    y 0.000000 3.938880 0.000000 
#    z 0.000000 0.000000 3.772730 
# 
# 
# High freq. dielectric constant tensor:
#      x y z
#    x 1.835390 0.000000 0.000000 
#    y 0.000000 1.844890 0.000000 
#    z 0.000000 0.000000 1.827380 
# 
# From -- ./inp_files/10138.got.cif
#   From: 2010.03.12/outbox.cif.g09.slc.cpg/sg61_6_cif.got.tgz:10138.got - 2010.04.10 19:05:03.
