data_PCOD8249922
_publ_section_title
;
Structure prediction by ZEFSAII (Michael W. Deem and Ramdas Pophale) SiO2 
 PCOD8249922
Probable space group: P B C A
;
_chemical_formula_sum "Si O2"
_cell_formula_units_Z 40
_cell_length_a 13.764520
_cell_length_b 13.641955
_cell_length_c 8.255482
_cell_angle_alpha 90.000000
_cell_angle_beta 90.000000
_cell_angle_gamma 90.000000
_cell_volume 1550.172822
_symmetry_space_group_name_H-M "P B C A"
_symmetry_group_IT_number 61
_symmetry_cell_setting 'orthorhombic'
loop_
_space_group_symop_operation_xyz
x,y,z
1/2-x,-y,1/2+z
1/2+x,1/2-y,-z
-x,1/2+y,1/2-z
-x,-y,-z
1/2+x,y,1/2-z
1/2-x,1/2+y,z
x,1/2-y,1/2+z
loop_
_atom_site_type_symbol
_atom_site_label
_atom_site_fract_x
_atom_site_fract_y
_atom_site_fract_z
Si Si1 0.326429 0.027412 0.499631
Si Si2 0.841497 0.090818 0.634579
Si Si3 0.314407 0.295701 0.766366
Si Si4 0.994841 0.174850 0.435091
Si Si5 0.108627 0.158911 0.123111
O O1 0.335020 0.068270 0.678143
O O2 0.352169 0.110520 0.370207
O O3 0.217128 0.989165 0.468539
O O4 0.398203 0.932198 0.495902
O O5 0.795402 0.201370 0.620049
O O6 0.950150 0.092929 0.557180
O O7 0.404585 0.269208 0.649193
O O8 0.221150 0.320160 0.659518
O O9 0.062540 0.127662 0.296605
O O10 0.057123 0.248724 0.544091
#
# Coordination Sequence:
#
# PCOD8249922 Si02
#       5
#     8   8   8   8   8
#     4  12  27  51  86 118 163 228 277 338 421 508
#     4  12  25  51  82 117 165 219 271 347 410 482
#     4  12  27  55  81 118 175 216 277 349 415 491
#     4  12  27  49  84 123 165 217 274 352 408 501
#     4  12  28  50  83 126 157 226 277 333 435 488
#
# _framework density 25.803574999999999
#
# number of rings (size 3 to 8) (size 9 to 14) (size 15 to 20)
#    0.000    0.000    6.000    2.400    2.800    1.600 
#    0.000    0.000    0.000    0.000    0.000    0.000 
#    0.000    0.000    0.000    0.000    0.000    0.000 
#
# Total GULP energy -495762.252344 kJ/mol
# GULP energy per Si atom -12394.056309 kJ/mol
# Density = 2.574484 g / cm^3
# Si number density = 25.803575 Si / 1000 Ang^3
#
#
#
# Elastic Constant Matrix: (Units=GPa)
#
#
# Indices 1 2 3 4 5 6 
#
# 1 69.8175 3.1605 50.6369 0.0000 0.0000 0.0000
# 2 3.1605 62.2121 17.7524 0.0000 0.0000 0.0000
# 3 50.6369 17.7524 121.4312 0.0000 0.0000 0.0000
# 4 0.0000 0.0000 0.0000 50.0972 0.0000 0.0000
# 5 0.0000 0.0000 0.0000 0.0000 52.4819 0.0000
# 6 0.0000 0.0000 0.0000 0.0000 0.0000 44.7167
#
#
#
# Elastic Compliance Matrix: (Units=1/GPa)
#
#
# Indices 1 2 3 4 5 6 
#
# 1 0.020661 0.001470 -0.008831 0.000000 0.000000 0.000000
# 2 0.001470 0.016878 -0.003081 0.000000 0.000000 0.000000
# 3 -0.008831 -0.003081 0.012368 0.000000 0.000000 0.000000
# 4 0.000000 0.000000 0.000000 0.019961 0.000000 0.000000
# 5 0.000000 0.000000 0.000000 0.000000 0.019054 0.000000
# 6 0.000000 0.000000 0.000000 0.000000 0.000000 0.022363
#
#
# Mechanical properties :
#
#
# Convention : Reuss Voigt Hill
#
# Bulk Modulus (GPa) = 34.45259 44.06226 39.25743
# Shear Modulus (GPa) = 35.25025 41.58654 38.41840
#
# Velocity S-wave (km/s) = 3.70009 4.01890 3.86279
# Velocity P-wave (km/s) = 5.62450 6.21679 5.92805
#
# Compressibility (1/GPa) = 0.02902539
#
# Stress axis : x y z
#
# Youngs Moduli (GPa) = 48.40007 59.24729 80.85475
#
# Poissons Ratio (x) = -0.08711 0.71400
# Poissons Ratio (y) = -0.07116 0.24908
# Poissons Ratio (z) = 0.42740 0.18252
#
# Static dielectric constant tensor:
#      x y z
#    x 4.744150 0.000000 0.000000 
#    y 0.000000 5.046210 0.000000 
#    z 0.000000 0.000000 4.986870 
# 
# 
# High freq. dielectric constant tensor:
#      x y z
#    x 2.027040 0.000000 0.000000 
#    y 0.000000 2.035460 0.000000 
#    z 0.000000 0.000000 2.055210 
# 
# From -- ./inp_files/2677.got.cif
#   From: 2010.03.12/outbox.cif.g09.slc.cpg/sg61_2_cif.got.tgz:2677.got - 2010.04.10 19:05:03.
