data_PCOD8249520
_publ_section_title
;
Structure prediction by ZEFSAII (Michael W. Deem and Ramdas Pophale) SiO2 
 PCOD8249520
Probable space group: P B C A
;
_chemical_formula_sum "Si O2"
_cell_formula_units_Z 56
_cell_length_a 23.505328
_cell_length_b 5.219510
_cell_length_c 22.380665
_cell_angle_alpha 90.000000
_cell_angle_beta 90.000000
_cell_angle_gamma 90.000000
_cell_volume 2745.800858
_symmetry_space_group_name_H-M "P B C A"
_symmetry_group_IT_number 61
_symmetry_cell_setting 'orthorhombic'
loop_
_space_group_symop_operation_xyz
x,y,z
1/2-x,-y,1/2+z
1/2+x,1/2-y,-z
-x,1/2+y,1/2-z
-x,-y,-z
1/2+x,y,1/2-z
1/2-x,1/2+y,z
x,1/2-y,1/2+z
loop_
_atom_site_type_symbol
_atom_site_label
_atom_site_fract_x
_atom_site_fract_y
_atom_site_fract_z
Si Si1 0.897283 0.964718 0.366008
Si Si2 0.897401 0.536332 0.133812
Si Si3 0.433938 0.021601 0.570031
Si Si4 0.774051 0.993173 0.319346
Si Si5 0.433535 0.023130 0.430214
Si Si6 0.000207 0.999262 0.715241
Si Si7 0.724950 0.486089 0.684107
O O1 0.898143 0.734571 0.414311
O O2 0.905714 0.237870 0.396991
O O3 0.841641 0.966918 0.324120
O O4 0.947846 0.892431 0.322251
O O5 0.904761 0.263477 0.102365
O O6 0.949192 0.606763 0.176115
O O7 0.842546 0.535142 0.176801
O O8 0.897792 0.767050 0.085640
O O9 0.428777 0.072818 0.500170
O O10 0.500210 0.998009 0.588852
O O11 0.754397 0.251386 0.352929
O O12 0.748039 0.007580 0.252298
O O13 0.022467 0.748457 0.749859
O O14 0.746586 0.742606 0.651289
#
# Coordination Sequence:
#
# PCOD8249520 Si02
#       7
#     8   8   8   8   8   8   8
#     4  12  23  42  64  93 135 166 213 261 321 380
#     4  12  23  42  64  93 135 166 213 261 321 380
#     4  11  22  41  67  99 130 165 209 261 328 391
#     4  10  23  40  61  86 120 171 220 253 300 370
#     4  11  22  41  67  99 130 165 209 261 328 391
#     4  12  26  36  59  94 135 172 196 262 328 388
#     4  10  23  40  61  86 120 171 220 253 300 370
#
# _framework density 20.394779
#
# number of rings (size 3 to 8) (size 9 to 14) (size 15 to 20)
#    0.000    0.857    2.857    4.286    8.000    2.286 
#    0.000    0.000    0.000   17.143    0.000    0.000 
#    0.000    0.000    0.000    0.000    0.000    0.000 
#
# Total GULP energy -694152.042604 kJ/mol
# GULP energy per Si atom -12395.572189 kJ/mol
# Density = 2.034836 g / cm^3
# Si number density = 20.394779 Si / 1000 Ang^3
#
#
#
# Elastic Constant Matrix: (Units=GPa)
#
#
# Indices 1 2 3 4 5 6 
#
# 1 126.2668 25.3490 31.6902 0.0000 0.0000 0.0000
# 2 25.3490 168.4689 19.7937 0.0000 0.0000 0.0000
# 3 31.6902 19.7937 61.3830 0.0000 0.0000 0.0000
# 4 0.0000 0.0000 0.0000 443.8640 0.0000 0.0000
# 5 0.0000 0.0000 0.0000 0.0000 31.3281 0.0000
# 6 0.0000 0.0000 0.0000 0.0000 0.0000 32.0536
#
#
#
# Elastic Compliance Matrix: (Units=1/GPa)
#
#
# Indices 1 2 3 4 5 6 
#
# 1 0.009217 -0.000860 -0.004481 0.000000 0.000000 0.000000
# 2 -0.000860 0.006250 -0.001571 0.000000 0.000000 0.000000
# 3 -0.004481 -0.001571 0.019111 0.000000 0.000000 0.000000
# 4 0.000000 0.000000 0.000000 0.002253 0.000000 0.000000
# 5 0.000000 0.000000 0.000000 0.000000 0.031920 0.000000
# 6 0.000000 0.000000 0.000000 0.000000 0.000000 0.031198
#
#
# Mechanical properties :
#
#
# Convention : Reuss Voigt Hill
#
# Bulk Modulus (GPa) = 48.18580 56.64270 52.41425
# Shear Modulus (GPa) = 41.42774 120.06818 80.74796
#
# Velocity S-wave (km/s) = 4.51187 7.68113 6.29908
# Velocity P-wave (km/s) = 7.12885 10.31988 8.86906
#
# Compressibility (1/GPa) = 0.02075300
#
# Stress axis : x y z
#
# Youngs Moduli (GPa) = 108.49374 160.00334 52.32522
#
# Poissons Ratio (x) = 0.13766 0.23447
# Poissons Ratio (y) = 0.09335 0.08221
# Poissons Ratio (z) = 0.48617 0.25139
#
# Static dielectric constant tensor:
#      x y z
#    x 3.685270 0.000000 0.000000 
#    y 0.000000 4.377740 0.000000 
#    z 0.000000 0.000000 3.467740 
# 
# 
# High freq. dielectric constant tensor:
#      x y z
#    x 1.787880 0.000000 0.000000 
#    y 0.000000 1.835260 0.000000 
#    z 0.000000 0.000000 1.768600 
# 
# From -- ./inp_files/11155.got.cif
#   From: 2010.03.12/outbox.cif.g09.slc.cpg/sg61_6_cif.got.tgz:11155.got - 2010.04.10 19:05:03.
