data_PCOD8249784
_publ_section_title
;
Structure prediction by ZEFSAII (Michael W. Deem and Ramdas Pophale) SiO2 
 PCOD8249784
Probable space group: P B C A
;
_chemical_formula_sum "Si O2"
_cell_formula_units_Z 64
_cell_length_a 29.029257
_cell_length_b 10.368828
_cell_length_c 9.055963
_cell_angle_alpha 90.000000
_cell_angle_beta 90.000000
_cell_angle_gamma 90.000000
_cell_volume 2725.839183
_symmetry_space_group_name_H-M "P B C A"
_symmetry_group_IT_number 61
_symmetry_cell_setting 'orthorhombic'
loop_
_space_group_symop_operation_xyz
x,y,z
1/2-x,-y,1/2+z
1/2+x,1/2-y,-z
-x,1/2+y,1/2-z
-x,-y,-z
1/2+x,y,1/2-z
1/2-x,1/2+y,z
x,1/2-y,1/2+z
loop_
_atom_site_type_symbol
_atom_site_label
_atom_site_fract_x
_atom_site_fract_y
_atom_site_fract_z
Si Si1 0.964359 0.949637 0.619012
Si Si2 0.851868 0.337228 0.814537
Si Si3 0.216567 0.386155 0.910697
Si Si4 0.246918 0.861458 0.581889
Si Si5 0.528332 0.569647 0.124917
Si Si6 0.384427 0.585112 0.806123
Si Si7 0.621378 0.307112 0.498679
Si Si8 0.409569 0.189325 0.902465
O O1 0.928918 0.845027 0.557719
O O2 0.992424 0.883313 0.751204
O O3 0.936412 0.073993 0.677042
O O4 0.000000 0.000000 0.500000
O O5 0.802906 0.301707 0.880843
O O6 0.848279 0.469453 0.720532
O O7 0.867171 0.224557 0.703957
O O8 0.890536 0.358447 0.939911
O O9 0.229294 0.247900 0.982694
O O10 0.242815 0.504910 0.990175
O O11 0.161489 0.401179 0.936934
O O12 0.226287 0.386305 0.735503
O O13 0.563853 0.468002 0.194270
O O14 0.556222 0.692036 0.064459
O O15 0.500000 0.500000 0.000000
O O16 0.378837 0.690974 0.677639
O O17 0.370462 0.657678 0.956544
#
# Coordination Sequence:
#
# PCOD8249784 Si02
#       8
#     8   8   8   8   8   8   8   8
#     4  12  24  42  70  98 140 197 237 298 366 429
#     4  11  23  49  71 101 141 189 241 301 367 444
#     4  12  27  48  78 115 155 197 255 315 389 456
#     4  12  26  48  79 113 151 200 254 316 379 472
#     4  11  26  40  64 107 138 183 250 296 356 439
#     4  11  25  46  69 102 142 191 240 301 361 440
#     4  12  26  48  72 101 149 191 236 304 373 434
#     4  11  23  44  68  96 143 187 239 299 368 428
#
# _framework density 23.479008
#
# number of rings (size 3 to 8) (size 9 to 14) (size 15 to 20)
#    0.000    0.500    3.750    3.750    7.000    1.000 
#    0.000    0.000    0.000    0.000    0.000    0.000 
#    0.000    0.000    0.000    0.000    0.000    0.000 
#
# Total GULP energy -793805.591141 kJ/mol
# GULP energy per Si atom -12403.212362 kJ/mol
# Density = 2.342557 g / cm^3
# Si number density = 23.479008 Si / 1000 Ang^3
#
#
#
# Elastic Constant Matrix: (Units=GPa)
#
#
# Indices 1 2 3 4 5 6 
#
# 1 76.0486 2.3218 0.5301 0.0000 0.0000 0.0000
# 2 2.3218 91.5180 13.4769 0.0000 0.0000 0.0000
# 3 0.5301 13.4769 63.2747 0.0000 0.0000 0.0000
# 4 0.0000 0.0000 0.0000 46.4969 0.0000 0.0000
# 5 0.0000 0.0000 0.0000 0.0000 33.7784 0.0000
# 6 0.0000 0.0000 0.0000 0.0000 0.0000 29.3081
#
#
#
# Elastic Compliance Matrix: (Units=1/GPa)
#
#
# Indices 1 2 3 4 5 6 
#
# 1 0.013160 -0.000328 -0.000040 0.000000 0.000000 0.000000
# 2 -0.000328 0.011289 -0.002402 0.000000 0.000000 0.000000
# 3 -0.000040 -0.002402 0.016316 0.000000 0.000000 0.000000
# 4 0.000000 0.000000 0.000000 0.021507 0.000000 0.000000
# 5 0.000000 0.000000 0.000000 0.000000 0.029605 0.000000
# 6 0.000000 0.000000 0.000000 0.000000 0.000000 0.034120
#
#
# Mechanical properties :
#
#
# Convention : Reuss Voigt Hill
#
# Bulk Modulus (GPa) = 28.38925 29.27766 28.83345
# Shear Modulus (GPa) = 34.89721 36.21749 35.55735
#
# Velocity S-wave (km/s) = 3.85946 3.93179 3.89579
# Velocity P-wave (km/s) = 5.65492 5.75402 5.70469
#
# Compressibility (1/GPa) = 0.03522460
#
# Stress axis : x y z
#
# Youngs Moduli (GPa) = 75.98913 88.58340 61.28962
#
# Poissons Ratio (x) = 0.02905 0.00248
# Poissons Ratio (y) = 0.02492 0.14720
# Poissons Ratio (z) = 0.00307 0.21275
#
# Static dielectric constant tensor:
#      x y z
#    x 4.227220 0.000000 0.000000 
#    y 0.000000 4.128880 0.000000 
#    z 0.000000 0.000000 4.191820 
# 
# 
# High freq. dielectric constant tensor:
#      x y z
#    x 1.942370 0.000000 0.000000 
#    y 0.000000 1.929170 0.000000 
#    z 0.000000 0.000000 1.931420 
# 
# From -- ./inp_files/4628.got.cif
#   From: 2010.03.12/outbox.cif.g09.slc.cpg/sg61_3_cif.got.tgz:4628.got - 2010.04.10 19:05:03.
