data_PCOD8249408
_publ_section_title
;
Structure prediction by ZEFSAII (Michael W. Deem and Ramdas Pophale) SiO2 
 PCOD8249408
Probable space group: P B C A
;
_chemical_formula_sum "Si O2"
_cell_formula_units_Z 56
_cell_length_a 12.208908
_cell_length_b 11.715547
_cell_length_c 19.163737
_cell_angle_alpha 90.000000
_cell_angle_beta 90.000000
_cell_angle_gamma 90.000000
_cell_volume 2741.066638
_symmetry_space_group_name_H-M "P B C A"
_symmetry_group_IT_number 61
_symmetry_cell_setting 'orthorhombic'
loop_
_space_group_symop_operation_xyz
x,y,z
1/2-x,-y,1/2+z
1/2+x,1/2-y,-z
-x,1/2+y,1/2-z
-x,-y,-z
1/2+x,y,1/2-z
1/2-x,1/2+y,z
x,1/2-y,1/2+z
loop_
_atom_site_type_symbol
_atom_site_label
_atom_site_fract_x
_atom_site_fract_y
_atom_site_fract_z
Si Si1 0.885918 0.261061 0.648225
Si Si2 0.132530 0.438266 0.058675
Si Si3 0.048512 0.088807 0.706864
Si Si4 0.776230 0.727556 0.267431
Si Si5 0.581950 0.670971 0.504416
Si Si6 0.445758 0.553887 0.178586
Si Si7 0.651520 0.837646 0.392301
O O1 0.780793 0.300968 0.693126
O O2 0.851849 0.223071 0.570316
O O3 0.936734 0.154455 0.689613
O O4 0.978686 0.357444 0.636934
O O5 0.100243 0.467209 0.138121
O O6 0.246364 0.371323 0.058926
O O7 0.043413 0.355032 0.024227
O O8 0.145160 0.555301 0.016364
O O9 0.133825 0.173908 0.744400
O O10 0.019397 0.984424 0.756414
O O11 0.833551 0.612359 0.295188
O O12 0.686969 0.768340 0.323672
O O13 0.575836 0.757330 0.439650
O O14 0.417249 0.448898 0.128569
#
# Coordination Sequence:
#
# PCOD8249408 Si02
#       7
#     8   8   8   8   8   8   8
#     4  10  22  41  57  94 127 153 211 265 305 376
#     4   9  21  42  67  85 126 175 203 257 323 391
#     4   9  20  39  62  91 116 159 216 251 313 379
#     4  10  22  40  64  89 128 160 208 265 313 375
#     4  10  22  42  62  90 128 166 213 257 315 383
#     4  11  23  37  67  95 120 167 213 263 313 375
#     4  11  22  41  65  93 122 176 208 253 317 394
#
# _framework density 20.430002000000002
#
# number of rings (size 3 to 8) (size 9 to 14) (size 15 to 20)
#    0.000    2.000    1.429    1.714    6.000    0.571 
#   12.857    0.000    0.000    0.000    0.000    0.000 
#    0.000    0.000    0.000    0.000    0.000    0.000 
#
# Total GULP energy -694591.364792 kJ/mol
# GULP energy per Si atom -12403.417228 kJ/mol
# Density = 2.038350 g / cm^3
# Si number density = 20.430002 Si / 1000 Ang^3
#
#
#
# Elastic Constant Matrix: (Units=GPa)
#
#
# Indices 1 2 3 4 5 6 
#
# 1 57.4874 25.6350 40.1013 0.0000 0.0000 0.0000
# 2 25.6350 100.9804 58.3433 0.0000 0.0000 0.0000
# 3 40.1013 58.3433 104.2940 0.0000 0.0000 0.0000
# 4 0.0000 0.0000 0.0000 42.4833 0.0000 0.0000
# 5 0.0000 0.0000 0.0000 0.0000 19.2053 0.0000
# 6 0.0000 0.0000 0.0000 0.0000 0.0000 27.7565
#
#
#
# Elastic Compliance Matrix: (Units=1/GPa)
#
#
# Indices 1 2 3 4 5 6 
#
# 1 0.023856 -0.001118 -0.008547 0.000000 0.000000 0.000000
# 2 -0.001118 0.014685 -0.007785 0.000000 0.000000 0.000000
# 3 -0.008547 -0.007785 0.017230 0.000000 0.000000 0.000000
# 4 0.000000 0.000000 0.000000 0.023539 0.000000 0.000000
# 5 0.000000 0.000000 0.000000 0.000000 0.052069 0.000000
# 6 0.000000 0.000000 0.000000 0.000000 0.000000 0.036028
#
#
# Mechanical properties :
#
#
# Convention : Reuss Voigt Hill
#
# Bulk Modulus (GPa) = 47.91532 56.76899 52.34216
# Shear Modulus (GPa) = 23.89346 27.13450 25.51398
#
# Velocity S-wave (km/s) = 3.42355 3.64836 3.53774
# Velocity P-wave (km/s) = 6.25555 6.75239 6.50871
#
# Compressibility (1/GPa) = 0.02087015
#
# Stress axis : x y z
#
# Youngs Moduli (GPa) = 41.91826 68.09877 58.03898
#
# Poissons Ratio (x) = 0.07611 0.49609
# Poissons Ratio (y) = 0.04685 0.45183
# Poissons Ratio (z) = 0.35829 0.53015
#
# Static dielectric constant tensor:
#      x y z
#    x 3.561830 0.000000 0.000000 
#    y 0.000000 3.663420 0.000000 
#    z 0.000000 0.000000 3.641890 
# 
# 
# High freq. dielectric constant tensor:
#      x y z
#    x 1.787140 0.000000 0.000000 
#    y 0.000000 1.804530 0.000000 
#    z 0.000000 0.000000 1.792940 
# 
# From -- ./inp_files/10296.got.cif
#   From: 2010.03.12/outbox.cif.g09.slc.cpg/sg61_6_cif.got.tgz:10296.got - 2010.04.10 19:05:03.
