data_PCOD8249781
_publ_section_title
;
Structure prediction by ZEFSAII (Michael W. Deem and Ramdas Pophale) SiO2 
 PCOD8249781
Probable space group: P B C A
;
_chemical_formula_sum "Si O2"
_cell_formula_units_Z 64
_cell_length_a 13.059780
_cell_length_b 9.472854
_cell_length_c 25.481578
_cell_angle_alpha 90.000000
_cell_angle_beta 90.000000
_cell_angle_gamma 90.000000
_cell_volume 3152.412377
_symmetry_space_group_name_H-M "P B C A"
_symmetry_group_IT_number 61
_symmetry_cell_setting 'orthorhombic'
loop_
_space_group_symop_operation_xyz
x,y,z
1/2-x,-y,1/2+z
1/2+x,1/2-y,-z
-x,1/2+y,1/2-z
-x,-y,-z
1/2+x,y,1/2-z
1/2-x,1/2+y,z
x,1/2-y,1/2+z
loop_
_atom_site_type_symbol
_atom_site_label
_atom_site_fract_x
_atom_site_fract_y
_atom_site_fract_z
Si Si1 0.131524 0.558669 0.308387
Si Si2 0.624609 0.245268 0.442504
Si Si3 0.607272 0.249903 0.562311
Si Si4 0.366413 0.483620 0.688986
Si Si5 0.033944 0.976780 0.111179
Si Si6 0.727377 0.675830 0.643807
Si Si7 0.779241 0.202615 0.855153
Si Si8 0.527626 0.966931 0.102322
O O1 0.098752 0.543818 0.248184
O O2 0.184704 0.709373 0.315772
O O3 0.207661 0.432879 0.322335
O O4 0.030163 0.555503 0.343759
O O5 0.650787 0.240797 0.503710
O O6 0.590809 0.091141 0.423934
O O7 0.728027 0.289913 0.412689
O O8 0.535447 0.358332 0.433023
O O9 0.703786 0.256160 0.601044
O O10 0.538423 0.388818 0.569799
O O11 0.539312 0.112132 0.573239
O O12 0.297889 0.624351 0.684631
O O13 0.296433 0.358165 0.666903
O O14 0.471154 0.500303 0.656914
O O15 0.113239 0.876091 0.140716
O O16 0.638425 0.596105 0.613201
#
# Coordination Sequence:
#
# PCOD8249781 Si02
#       8
#     8   8   8   8   8   8   8   8
#     4  11  24  42  66  92 124 168 209 263 321 370
#     4  11  24  42  68  94 128 171 210 264 321 371
#     4  11  24  42  68  94 128 171 210 264 321 371
#     4  11  24  42  66  92 124 168 209 263 321 370
#     4  11  23  44  63  94 130 161 216 263 309 384
#     4  11  23  44  64  94 131 161 214 264 307 387
#     4  11  23  44  64  94 131 161 214 264 307 387
#     4  11  23  44  63  94 130 161 216 263 309 384
#
# _framework density 20.301912000000002
#
# number of rings (size 3 to 8) (size 9 to 14) (size 15 to 20)
#    0.000    1.000    5.000    1.500    0.000    4.000 
#    0.000    0.000    0.000    0.000    0.000    0.000 
#    0.000    0.000    0.000    0.000    0.000    0.000 
#
# Total GULP energy -794101.705569 kJ/mol
# GULP energy per Si atom -12407.839150 kJ/mol
# Density = 2.025570 g / cm^3
# Si number density = 20.301912 Si / 1000 Ang^3
#
#
#
# Elastic Constant Matrix: (Units=GPa)
#
#
# Indices 1 2 3 4 5 6 
#
# 1 64.7766 9.2229 -1.2617 0.0000 0.0000 0.0000
# 2 9.2229 80.1886 6.3376 0.0000 0.0000 0.0000
# 3 -1.2617 6.3376 78.4309 0.0000 0.0000 0.0000
# 4 0.0000 0.0000 0.0000 18.6716 0.0000 0.0000
# 5 0.0000 0.0000 0.0000 0.0000 17.7782 0.0000
# 6 0.0000 0.0000 0.0000 0.0000 0.0000 26.3998
#
#
#
# Elastic Compliance Matrix: (Units=1/GPa)
#
#
# Indices 1 2 3 4 5 6 
#
# 1 0.015707 -0.001838 0.000401 0.000000 0.000000 0.000000
# 2 -0.001838 0.012766 -0.001061 0.000000 0.000000 0.000000
# 3 0.000401 -0.001061 0.012842 0.000000 0.000000 0.000000
# 4 0.000000 0.000000 0.000000 0.053557 0.000000 0.000000
# 5 0.000000 0.000000 0.000000 0.000000 0.056249 0.000000
# 6 0.000000 0.000000 0.000000 0.000000 0.000000 0.037879
#
#
# Mechanical properties :
#
#
# Convention : Reuss Voigt Hill
#
# Bulk Modulus (GPa) = 27.53377 27.99930 27.76654
# Shear Modulus (GPa) = 24.25972 26.50975 25.38473
#
# Velocity S-wave (km/s) = 3.46055 3.61747 3.53988
# Velocity P-wave (km/s) = 5.43680 5.59192 5.51491
#
# Compressibility (1/GPa) = 0.03631904
#
# Stress axis : x y z
#
# Youngs Moduli (GPa) = 63.66495 78.33373 77.86779
#
# Poissons Ratio (x) = 0.14400 -0.03124
# Poissons Ratio (y) = 0.11703 0.08263
# Poissons Ratio (z) = -0.02554 0.08312
#
# Static dielectric constant tensor:
#      x y z
#    x 3.689490 0.000000 0.000000 
#    y 0.000000 3.904880 0.000000 
#    z 0.000000 0.000000 3.518790 
# 
# 
# High freq. dielectric constant tensor:
#      x y z
#    x 1.799260 0.000000 0.000000 
#    y 0.000000 1.814250 0.000000 
#    z 0.000000 0.000000 1.785800 
# 
# From -- ./inp_files/11089.got.cif
#   From: 2010.03.12/outbox.cif.g09.slc.cpg/sg61_6_cif.got.tgz:11089.got - 2010.04.10 19:05:03.
