data_PCOD8249610
_publ_section_title
;
Structure prediction by ZEFSAII (Michael W. Deem and Ramdas Pophale) SiO2 
 PCOD8249610
Probable space group: P B C A
;
_chemical_formula_sum "Si O2"
_cell_formula_units_Z 64
_cell_length_a 30.704002
_cell_length_b 8.777603
_cell_length_c 10.513233
_cell_angle_alpha 90.000000
_cell_angle_beta 90.000000
_cell_angle_gamma 90.000000
_cell_volume 2833.395564
_symmetry_space_group_name_H-M "P B C A"
_symmetry_group_IT_number 61
_symmetry_cell_setting 'orthorhombic'
loop_
_space_group_symop_operation_xyz
x,y,z
1/2-x,-y,1/2+z
1/2+x,1/2-y,-z
-x,1/2+y,1/2-z
-x,-y,-z
1/2+x,y,1/2-z
1/2-x,1/2+y,z
x,1/2-y,1/2+z
loop_
_atom_site_type_symbol
_atom_site_label
_atom_site_fract_x
_atom_site_fract_y
_atom_site_fract_z
Si Si1 0.901167 0.897802 0.405305
Si Si2 0.049613 0.819275 0.976186
Si Si3 0.026190 0.611532 0.198071
Si Si4 0.742307 0.756968 0.891904
Si Si5 0.690173 0.026380 0.998755
Si Si6 0.692783 0.012455 0.284528
Si Si7 0.435505 0.019806 0.860612
Si Si8 0.895844 0.947710 0.889224
O O1 0.850051 0.943688 0.402127
O O2 0.916822 0.885457 0.551960
O O3 0.909061 0.725538 0.359468
O O4 0.929195 0.015324 0.320414
O O5 0.019807 0.848997 0.849081
O O6 0.077483 0.671483 0.939502
O O7 0.024916 0.765803 0.107890
O O8 0.079848 0.969670 0.992988
O O9 0.987121 0.502161 0.155947
O O10 0.770320 0.861315 0.798811
O O11 0.712950 0.653873 0.800516
O O12 0.773002 0.654927 0.981607
O O13 0.710769 0.860535 0.977217
O O14 0.672692 0.030996 0.143665
O O15 0.656381 0.037502 0.395016
O O16 0.411416 0.045273 0.729929
#
# Coordination Sequence:
#
# PCOD8249610 Si02
#       8
#     8   8   8   8   8   8   8   8
#     4  11  25  44  67 105 141 182 228 298 348 411
#     4  11  25  48  68 103 134 188 233 285 347 414
#     4  11  27  47  72 102 142 187 242 287 355 413
#     4  10  24  42  68  99 132 178 222 283 347 420
#     4  11  22  44  68  97 140 177 225 287 346 414
#     4  11  23  43  66 101 133 176 231 275 351 414
#     4  11  26  47  70 100 146 180 240 295 344 415
#     4  12  26  41  73 102 139 184 235 286 355 417
#
# _framework density 22.587737000000001
#
# number of rings (size 3 to 8) (size 9 to 14) (size 15 to 20)
#    0.000    1.000    3.750    2.250    8.750    0.500 
#    0.000    1.250    0.000    0.000    0.000    0.000 
#    0.000    0.000    0.000    0.000    0.000    0.000 
#
# Total GULP energy -793161.293580 kJ/mol
# GULP energy per Si atom -12393.145212 kJ/mol
# Density = 2.253633 g / cm^3
# Si number density = 22.587737 Si / 1000 Ang^3
#
#
#
# Elastic Constant Matrix: (Units=GPa)
#
#
# Indices 1 2 3 4 5 6 
#
# 1 70.6999 22.1673 -3.3723 0.0000 0.0000 0.0000
# 2 22.1673 112.6996 9.1001 0.0000 0.0000 0.0000
# 3 -3.3723 9.1001 74.1251 0.0000 0.0000 0.0000
# 4 0.0000 0.0000 0.0000 24.4704 0.0000 0.0000
# 5 0.0000 0.0000 0.0000 0.0000 24.8578 0.0000
# 6 0.0000 0.0000 0.0000 0.0000 0.0000 21.2976
#
#
#
# Elastic Compliance Matrix: (Units=1/GPa)
#
#
# Indices 1 2 3 4 5 6 
#
# 1 0.015157 -0.003067 0.001066 0.000000 0.000000 0.000000
# 2 -0.003067 0.009583 -0.001316 0.000000 0.000000 0.000000
# 3 0.001066 -0.001316 0.013701 0.000000 0.000000 0.000000
# 4 0.000000 0.000000 0.000000 0.040866 0.000000 0.000000
# 5 0.000000 0.000000 0.000000 0.000000 0.040229 0.000000
# 6 0.000000 0.000000 0.000000 0.000000 0.000000 0.046954
#
#
# Mechanical properties :
#
#
# Convention : Reuss Voigt Hill
#
# Bulk Modulus (GPa) = 31.44064 34.81276 33.12670
# Shear Modulus (GPa) = 27.21458 29.43378 28.32418
#
# Velocity S-wave (km/s) = 3.47484 3.61375 3.54498
# Velocity P-wave (km/s) = 5.48169 5.73218 5.60834
#
# Compressibility (1/GPa) = 0.03180597
#
# Stress axis : x y z
#
# Youngs Moduli (GPa) = 65.97659 104.35434 72.98859
#
# Poissons Ratio (x) = 0.32009 -0.07782
# Poissons Ratio (y) = 0.20237 0.09605
# Poissons Ratio (z) = -0.07034 0.13733
#
# Static dielectric constant tensor:
#      x y z
#    x 3.982460 0.000000 0.000000 
#    y 0.000000 4.186520 0.000000 
#    z 0.000000 0.000000 4.058090 
# 
# 
# High freq. dielectric constant tensor:
#      x y z
#    x 1.886240 0.000000 0.000000 
#    y 0.000000 1.900440 0.000000 
#    z 0.000000 0.000000 1.885340 
# 
# From -- ./inp_files/2448.got.cif
#   From: 2010.03.12/outbox.cif.g09.slc.cpg/sg61_2_cif.got.tgz:2448.got - 2010.04.10 19:05:03.
