data_PCOD8249631
_publ_section_title
;
Structure prediction by ZEFSAII (Michael W. Deem and Ramdas Pophale) SiO2 
 PCOD8249631
Probable space group: P B C A
;
_chemical_formula_sum "Si O2"
_cell_formula_units_Z 40
_cell_length_a 10.936898
_cell_length_b 10.534898
_cell_length_c 14.471526
_cell_angle_alpha 90.000000
_cell_angle_beta 90.000000
_cell_angle_gamma 90.000000
_cell_volume 1667.396272
_symmetry_space_group_name_H-M "P B C A"
_symmetry_group_IT_number 61
_symmetry_cell_setting 'orthorhombic'
loop_
_space_group_symop_operation_xyz
x,y,z
1/2-x,-y,1/2+z
1/2+x,1/2-y,-z
-x,1/2+y,1/2-z
-x,-y,-z
1/2+x,y,1/2-z
1/2-x,1/2+y,z
x,1/2-y,1/2+z
loop_
_atom_site_type_symbol
_atom_site_label
_atom_site_fract_x
_atom_site_fract_y
_atom_site_fract_z
Si Si1 0.931528 0.905021 0.886433
Si Si2 0.668806 0.506797 0.424024
Si Si3 0.152322 0.005181 0.786101
Si Si4 0.161713 0.214645 0.296082
Si Si5 0.478625 0.803101 0.977220
O O1 0.815158 0.981515 0.925356
O O2 0.893014 0.808061 0.805513
O O3 0.028308 0.005273 0.845970
O O4 0.994470 0.830967 0.971300
O O5 0.617036 0.514866 0.320329
O O6 0.632394 0.374622 0.470749
O O7 0.606260 0.620269 0.483228
O O8 0.238578 0.891643 0.821588
O O9 0.218671 0.142465 0.797538
O O10 0.053492 0.212640 0.370104
#
# Coordination Sequence:
#
# PCOD8249631 Si02
#       5
#     8   8   8   8   8
#     4  11  25  44  73 106 142 191 244 299 361 444
#     4  10  24  45  70 105 147 190 239 301 366 436
#     4  11  25  48  72 106 147 196 243 304 367 437
#     4  11  26  45  72 106 145 191 240 303 364 432
#     4  11  24  44  70 104 148 191 237 299 364 434
#
# _framework density 23.989498000000001
#
# number of rings (size 3 to 8) (size 9 to 14) (size 15 to 20)
#    0.000    1.200    4.000    0.000    5.600    7.200 
#    0.000    0.000    0.000    0.000    0.000    0.000 
#    0.000    0.000    0.000    0.000    0.000    0.000 
#
# Total GULP energy -496108.918770 kJ/mol
# GULP energy per Si atom -12402.722969 kJ/mol
# Density = 2.393490 g / cm^3
# Si number density = 23.989498 Si / 1000 Ang^3
#
#
#
# Elastic Constant Matrix: (Units=GPa)
#
#
# Indices 1 2 3 4 5 6 
#
# 1 69.2047 28.8812 6.8043 0.0000 0.0000 0.0000
# 2 28.8812 122.5564 -1.4590 0.0000 0.0000 0.0000
# 3 6.8043 -1.4590 60.7972 0.0000 0.0000 0.0000
# 4 0.0000 0.0000 0.0000 32.3896 0.0000 0.0000
# 5 0.0000 0.0000 0.0000 0.0000 37.8621 0.0000
# 6 0.0000 0.0000 0.0000 0.0000 0.0000 32.2390
#
#
#
# Elastic Compliance Matrix: (Units=1/GPa)
#
#
# Indices 1 2 3 4 5 6 
#
# 1 0.016245 -0.003851 -0.001911 0.000000 0.000000 0.000000
# 2 -0.003851 0.009075 0.000649 0.000000 0.000000 0.000000
# 3 -0.001911 0.000649 0.016678 0.000000 0.000000 0.000000
# 4 0.000000 0.000000 0.000000 0.030874 0.000000 0.000000
# 5 0.000000 0.000000 0.000000 0.000000 0.026412 0.000000
# 6 0.000000 0.000000 0.000000 0.000000 0.000000 0.031018
#
#
# Mechanical properties :
#
#
# Convention : Reuss Voigt Hill
#
# Bulk Modulus (GPa) = 31.47455 35.66793 33.57124
# Shear Modulus (GPa) = 33.08694 35.05361 34.07028
#
# Velocity S-wave (km/s) = 3.71782 3.82672 3.77266
# Velocity P-wave (km/s) = 5.61945 5.86732 5.74472
#
# Compressibility (1/GPa) = 0.03177170
#
# Stress axis : x y z
#
# Youngs Moduli (GPa) = 61.55804 110.19611 59.96100
#
# Poissons Ratio (x) = 0.42436 0.11456
# Poissons Ratio (y) = 0.23706 -0.03890
# Poissons Ratio (z) = 0.11761 -0.07149
#
# Static dielectric constant tensor:
#      x y z
#    x 3.913060 0.000000 0.000000 
#    y 0.000000 4.272590 0.000000 
#    z 0.000000 0.000000 4.425700 
# 
# 
# High freq. dielectric constant tensor:
#      x y z
#    x 1.927840 0.000000 0.000000 
#    y 0.000000 1.955020 0.000000 
#    z 0.000000 0.000000 1.967220 
# 
# From -- ./inp_files/5145.got.cif
#   From: 2010.03.12/outbox.cif.g09.slc.cpg/sg61_3_cif.got.tgz:5145.got - 2010.04.10 19:05:03.
