data_PCOD8249656
_publ_section_title
;
Structure prediction by ZEFSAII (Michael W. Deem and Ramdas Pophale) SiO2 
 PCOD8249656
Probable space group: P B C A
;
_chemical_formula_sum "Si O2"
_cell_formula_units_Z 48
_cell_length_a 10.093764
_cell_length_b 23.026133
_cell_length_c 8.630795
_cell_angle_alpha 90.000000
_cell_angle_beta 90.000000
_cell_angle_gamma 90.000000
_cell_volume 2005.972415
_symmetry_space_group_name_H-M "P B C A"
_symmetry_group_IT_number 61
_symmetry_cell_setting 'orthorhombic'
loop_
_space_group_symop_operation_xyz
x,y,z
1/2-x,-y,1/2+z
1/2+x,1/2-y,-z
-x,1/2+y,1/2-z
-x,-y,-z
1/2+x,y,1/2-z
1/2-x,1/2+y,z
x,1/2-y,1/2+z
loop_
_atom_site_type_symbol
_atom_site_label
_atom_site_fract_x
_atom_site_fract_y
_atom_site_fract_z
Si Si1 0.697544 0.374773 0.948840
Si Si2 0.091650 0.690414 0.213412
Si Si3 0.872284 0.529141 0.861023
Si Si4 0.454061 0.573092 0.316277
Si Si5 0.546962 0.811892 0.431121
Si Si6 0.133855 0.590393 0.774490
O O1 0.760196 0.323473 0.844261
O O2 0.630784 0.425723 0.843905
O O3 0.594334 0.343638 0.062829
O O4 0.814062 0.402770 0.050762
O O5 0.991835 0.640158 0.155057
O O6 0.105582 0.693756 0.397758
O O7 0.032473 0.749284 0.145556
O O8 0.981664 0.570505 0.780030
O O9 0.908966 0.463759 0.805124
O O10 0.724400 0.541580 0.805051
O O11 0.872897 0.540992 0.046424
O O12 0.644529 0.850297 0.323965
#
# Coordination Sequence:
#
# PCOD8249656 Si02
#       6
#     8   8   8   8   8   8
#     4  11  24  46  70 103 143 184 243 293 361 424
#     4  11  24  45  69 102 142 185 239 295 358 432
#     4  11  25  45  74 103 149 185 239 296 363 433
#     4  10  25  44  68 106 141 191 233 297 357 429
#     4  11  26  45  71 105 137 190 236 300 360 427
#     4  12  24  45  72 105 140 187 235 295 356 434
#
# _framework density 23.928546000000001
#
# number of rings (size 3 to 8) (size 9 to 14) (size 15 to 20)
#    0.000    1.000    3.333    2.000    2.333    7.333 
#    3.000    0.000    0.000    0.000    0.000    0.000 
#    0.000    0.000    0.000    0.000    0.000    0.000 
#
# Total GULP energy -595199.981629 kJ/mol
# GULP energy per Si atom -12399.999617 kJ/mol
# Density = 2.387408 g / cm^3
# Si number density = 23.928546 Si / 1000 Ang^3
#
#
#
# Elastic Constant Matrix: (Units=GPa)
#
#
# Indices 1 2 3 4 5 6 
#
# 1 52.8206 3.7924 13.4955 0.0000 0.0000 0.0000
# 2 3.7924 123.8888 33.7575 0.0000 0.0000 0.0000
# 3 13.4955 33.7575 102.2141 0.0000 0.0000 0.0000
# 4 0.0000 0.0000 0.0000 44.3276 0.0000 0.0000
# 5 0.0000 0.0000 0.0000 0.0000 38.7379 0.0000
# 6 0.0000 0.0000 0.0000 0.0000 0.0000 31.9696
#
#
#
# Elastic Compliance Matrix: (Units=1/GPa)
#
#
# Indices 1 2 3 4 5 6 
#
# 1 0.019594 0.000116 -0.002625 0.000000 0.000000 0.000000
# 2 0.000116 0.008871 -0.002945 0.000000 0.000000 0.000000
# 3 -0.002625 -0.002945 0.011103 0.000000 0.000000 0.000000
# 4 0.000000 0.000000 0.000000 0.022559 0.000000 0.000000
# 5 0.000000 0.000000 0.000000 0.000000 0.025814 0.000000
# 6 0.000000 0.000000 0.000000 0.000000 0.000000 0.031280
#
#
# Mechanical properties :
#
#
# Convention : Reuss Voigt Hill
#
# Bulk Modulus (GPa) = 34.89370 42.33493 38.61432
# Shear Modulus (GPa) = 35.79526 38.19890 36.99708
#
# Velocity S-wave (km/s) = 3.87191 3.99980 3.93637
# Velocity P-wave (km/s) = 5.88244 6.24995 6.06897
#
# Compressibility (1/GPa) = 0.02865846
#
# Stress axis : x y z
#
# Youngs Moduli (GPa) = 51.03481 112.73132 90.06908
#
# Poissons Ratio (x) = -0.01302 0.23645
# Poissons Ratio (y) = -0.00590 0.26524
# Poissons Ratio (z) = 0.13398 0.33198
#
# Static dielectric constant tensor:
#      x y z
#    x 4.254700 0.000000 0.000000 
#    y 0.000000 4.417420 0.000000 
#    z 0.000000 0.000000 4.423110 
# 
# 
# High freq. dielectric constant tensor:
#      x y z
#    x 1.945930 0.000000 0.000000 
#    y 0.000000 1.953940 0.000000 
#    z 0.000000 0.000000 1.958460 
# 
# From -- ./inp_files/2271.got.cif
#   From: 2010.03.12/outbox.cif.g09.slc.cpg/sg61_2_cif.got.tgz:2271.got - 2010.04.10 19:05:03.
