data_PCOD8249942
_publ_section_title
;
Structure prediction by ZEFSAII (Michael W. Deem and Ramdas Pophale) SiO2 
 PCOD8249942
Probable space group: P N M A
;
_chemical_formula_sum "Si O2"
_cell_formula_units_Z 40
_cell_length_a 25.930435
_cell_length_b 8.699358
_cell_length_c 9.484843
_cell_angle_alpha 90.000000
_cell_angle_beta 90.000000
_cell_angle_gamma 90.000000
_cell_volume 2139.573215
_symmetry_space_group_name_H-M "P N M A"
_symmetry_group_IT_number 62
_symmetry_cell_setting 'orthorhombic'
loop_
_space_group_symop_operation_xyz
x,y,z
1/2-x,-y,1/2+z
1/2+x,1/2-y,1/2-z
-x,1/2+y,-z
-x,-y,-z
1/2+x,y,1/2-z
1/2-x,1/2+y,1/2+z
x,1/2-y,z
loop_
_atom_site_type_symbol
_atom_site_label
_atom_site_fract_x
_atom_site_fract_y
_atom_site_fract_z
Si Si1 0.298273 0.925850 0.748404
Si Si2 0.610616 0.570424 0.883756
Si Si3 0.786617 0.571003 0.429954
Si Si4 0.508845 0.432085 0.844343
Si Si5 0.909252 0.927727 0.682700
O O1 0.280828 0.750000 0.727212
O O2 0.359623 0.943926 0.715196
O O3 0.268123 0.031976 0.638904
O O4 0.285726 0.981445 0.907172
O O5 0.606106 0.750000 0.857061
O O6 0.667826 0.513065 0.841592
O O7 0.565392 0.487374 0.791604
O O8 0.602780 0.528999 0.046288
O O9 0.798392 0.750000 0.421511
O O10 0.505301 0.250000 0.842044
O O11 0.462238 0.504681 0.748785
O O12 0.500000 0.500000 0.000000
O O13 0.916798 0.750000 0.637968
#
# Coordination Sequence:
#
# PCOD8249942 Si02
#       5
#     8   8   8   8   8
#     4   9  19  33  48  69  96 125 158 195 233 276
#     4  10  17  26  41  61  88 120 152 188 233 278
#     4  10  20  33  49  70  96 125 159 197 234 277
#     4  10  16  23  37  59  87 117 150 186 230 279
#     4   9  16  27  41  61  90 119 151 190 231 276
#
# _framework density 18.695319000000001
#
# number of rings (size 3 to 8) (size 9 to 14) (size 15 to 20)
#    0.000    2.400    0.000    8.400    0.000    4.800 
#    0.000    0.000    0.000    0.000    0.000    1.400 
#    0.000    0.000    0.000    0.000    0.000    0.000 
#
# Total GULP energy -495659.837288 kJ/mol
# GULP energy per Si atom -12391.495932 kJ/mol
# Density = 1.865277 g / cm^3
# Si number density = 18.695319 Si / 1000 Ang^3
#
#
#
# Elastic Constant Matrix: (Units=GPa)
#
#
# Indices 1 2 3 4 5 6 
#
# 1 32.3299 6.0909 -8.3228 0.0000 0.0000 0.0000
# 2 6.0909 96.0712 3.7675 0.0000 0.0000 0.0000
# 3 -8.3228 3.7675 13.6763 0.0000 0.0000 0.0000
# 4 0.0000 0.0000 0.0000 15.2009 0.0000 0.0000
# 5 0.0000 0.0000 0.0000 0.0000 17.3659 0.0000
# 6 0.0000 0.0000 0.0000 0.0000 0.0000 39.9789
#
#
#
# Elastic Compliance Matrix: (Units=1/GPa)
#
#
# Indices 1 2 3 4 5 6 
#
# 1 0.037700 -0.003326 0.023859 0.000000 0.000000 0.000000
# 2 -0.003326 0.010816 -0.005004 0.000000 0.000000 0.000000
# 3 0.023859 -0.005004 0.089017 0.000000 0.000000 0.000000
# 4 0.000000 0.000000 0.000000 0.065785 0.000000 0.000000
# 5 0.000000 0.000000 0.000000 0.000000 0.057584 0.000000
# 6 0.000000 0.000000 0.000000 0.000000 0.000000 0.025013
#
#
# Mechanical properties :
#
#
# Convention : Reuss Voigt Hill
#
# Bulk Modulus (GPa) = 5.93151 16.12763 11.02957
# Shear Modulus (GPa) = 16.07438 23.87859 19.97649
#
# Velocity S-wave (km/s) = 2.93543 3.57774 3.27238
# Velocity P-wave (km/s) = 3.82996 5.07073 4.49338
#
# Compressibility (1/GPa) = 0.16859111
#
# Stress axis : x y z
#
# Youngs Moduli (GPa) = 26.52544 92.45547 11.23381
#
# Poissons Ratio (x) = 0.30749 -0.26802
# Poissons Ratio (y) = 0.08822 0.05621
# Poissons Ratio (z) = -0.63286 0.46260
#
# Static dielectric constant tensor:
#      x y z
#    x 4.697940 0.000000 0.000000 
#    y 0.000000 3.447670 0.000000 
#    z 0.000000 0.000000 2.676690 
# 
# 
# High freq. dielectric constant tensor:
#      x y z
#    x 1.760370 0.000000 0.000000 
#    y 0.000000 1.738730 0.000000 
#    z 0.000000 0.000000 1.626590 
# 
# From -- ./inp_files/9702.got.cif
#   From: 2010.03.12/outbox.cif.g09.slc.cpg/sg62_5_cif.got.tgz:9702.got - 2010.04.10 19:12:36.
