data_PCOD8249539
_publ_section_title
;
Structure prediction by ZEFSAII (Michael W. Deem and Ramdas Pophale) SiO2 
 PCOD8249539
Probable space group: P B C A
;
_chemical_formula_sum "Si O2"
_cell_formula_units_Z 64
_cell_length_a 5.255450
_cell_length_b 17.049332
_cell_length_c 29.587429
_cell_angle_alpha 90.000000
_cell_angle_beta 90.000000
_cell_angle_gamma 90.000000
_cell_volume 2651.090205
_symmetry_space_group_name_H-M "P B C A"
_symmetry_group_IT_number 61
_symmetry_cell_setting 'orthorhombic'
loop_
_space_group_symop_operation_xyz
x,y,z
1/2-x,-y,1/2+z
1/2+x,1/2-y,-z
-x,1/2+y,1/2-z
-x,-y,-z
1/2+x,y,1/2-z
1/2-x,1/2+y,z
x,1/2-y,1/2+z
loop_
_atom_site_type_symbol
_atom_site_label
_atom_site_fract_x
_atom_site_fract_y
_atom_site_fract_z
Si Si1 0.070917 0.443373 0.642150
Si Si2 0.102219 0.420853 0.146898
Si Si3 0.662185 0.836003 0.427104
Si Si4 0.264277 0.545548 0.927900
Si Si5 0.716499 0.156332 0.435919
Si Si6 0.849695 0.326564 0.221992
Si Si7 0.652859 0.854013 0.721540
Si Si8 0.711026 0.404966 0.517247
O O1 0.257511 0.503907 0.669377
O O2 0.205511 0.370264 0.616892
O O3 0.867613 0.409014 0.677655
O O4 0.956824 0.495176 0.602510
O O5 0.280761 0.351764 0.126414
O O6 0.891352 0.384583 0.179985
O O7 0.991565 0.453202 0.100150
O O8 0.702479 0.746444 0.437651
O O9 0.827783 0.886213 0.464130
O O10 0.372440 0.866237 0.435836
O O11 0.247528 0.499160 0.975553
O O12 0.446753 0.144571 0.461517
O O13 0.947347 0.111823 0.458520
O O14 0.072199 0.345391 0.258122
O O15 0.865316 0.236628 0.206212
O O16 0.921859 0.872737 0.744412
#
# Coordination Sequence:
#
# PCOD8249539 Si02
#       8
#     8   8   8   8   8   8   8   8
#     4  10  23  43  62  93 131 171 216 271 329 391
#     4  11  24  42  65  96 132 175 220 266 336 398
#     4  11  25  40  67  98 131 177 226 275 333 392
#     4  10  24  43  63  96 134 178 220 273 329 400
#     4  11  24  43  66  96 131 176 225 278 326 392
#     4  10  24  45  67  96 131 167 211 270 326 392
#     4  10  23  42  67  96 125 165 214 267 330 392
#     4  11  24  44  66  95 135 177 222 280 329 392
#
# _framework density 24.141010999999999
#
# number of rings (size 3 to 8) (size 9 to 14) (size 15 to 20)
#    0.000    1.500    1.250    1.875    8.750    1.500 
#    2.250    0.000    0.000    0.000    0.000    0.000 
#    0.000    0.000    0.000    0.000    0.000    0.000 
#
# Total GULP energy -793195.932768 kJ/mol
# GULP energy per Si atom -12393.686449 kJ/mol
# Density = 2.408606 g / cm^3
# Si number density = 24.141011 Si / 1000 Ang^3
#
#
#
# Elastic Constant Matrix: (Units=GPa)
#
#
# Indices 1 2 3 4 5 6 
#
# 1 60.6003 -0.5487 -10.1556 0.0000 0.0000 0.0000
# 2 -0.5487 77.8775 15.9835 0.0000 0.0000 0.0000
# 3 -10.1556 15.9835 56.6472 0.0000 0.0000 0.0000
# 4 0.0000 0.0000 0.0000 24.0158 0.0000 0.0000
# 5 0.0000 0.0000 0.0000 0.0000 19.6773 0.0000
# 6 0.0000 0.0000 0.0000 0.0000 0.0000 24.5216
#
#
#
# Elastic Compliance Matrix: (Units=1/GPa)
#
#
# Indices 1 2 3 4 5 6 
#
# 1 0.017034 -0.000538 0.003206 0.000000 0.000000 0.000000
# 2 -0.000538 0.013647 -0.003947 0.000000 0.000000 0.000000
# 3 0.003206 -0.003947 0.019342 0.000000 0.000000 0.000000
# 4 0.000000 0.000000 0.000000 0.041639 0.000000 0.000000
# 5 0.000000 0.000000 0.000000 0.000000 0.050820 0.000000
# 6 0.000000 0.000000 0.000000 0.000000 0.000000 0.040780
#
#
# Mechanical properties :
#
#
# Convention : Reuss Voigt Hill
#
# Bulk Modulus (GPa) = 21.06874 22.85369 21.96122
# Shear Modulus (GPa) = 24.79646 26.29935 25.54790
#
# Velocity S-wave (km/s) = 3.20840 3.30420 3.25665
# Velocity P-wave (km/s) = 4.74040 4.90349 4.82264
#
# Compressibility (1/GPa) = 0.04746368
#
# Stress axis : x y z
#
# Youngs Moduli (GPa) = 58.70645 73.27629 51.70229
#
# Poissons Ratio (x) = 0.03941 -0.16574
# Poissons Ratio (y) = 0.03158 0.20407
# Poissons Ratio (z) = -0.18819 0.28922
#
# Static dielectric constant tensor:
#      x y z
#    x 4.559220 0.000000 0.000000 
#    y 0.000000 4.451200 0.000000 
#    z 0.000000 0.000000 4.291670 
# 
# 
# High freq. dielectric constant tensor:
#      x y z
#    x 1.966420 0.000000 0.000000 
#    y 0.000000 1.961050 0.000000 
#    z 0.000000 0.000000 1.953110 
# 
# From -- ./inp_files/845.got.cif
#   From: 2010.03.12/outbox.cif.g09.slc.cpg/sg61_1_cif.got.tgz:845.got - 2010.04.10 19:05:03.
