data_PCOD8249902
_publ_section_title
;
Structure prediction by ZEFSAII (Michael W. Deem and Ramdas Pophale) SiO2 
 PCOD8249902
Probable space group: P B C A
;
_chemical_formula_sum "Si O2"
_cell_formula_units_Z 48
_cell_length_a 25.188064
_cell_length_b 9.813949
_cell_length_c 8.762970
_cell_angle_alpha 90.000000
_cell_angle_beta 90.000000
_cell_angle_gamma 90.000000
_cell_volume 2166.156897
_symmetry_space_group_name_H-M "P B C A"
_symmetry_group_IT_number 61
_symmetry_cell_setting 'orthorhombic'
loop_
_space_group_symop_operation_xyz
x,y,z
1/2-x,-y,1/2+z
1/2+x,1/2-y,-z
-x,1/2+y,1/2-z
-x,-y,-z
1/2+x,y,1/2-z
1/2-x,1/2+y,z
x,1/2-y,1/2+z
loop_
_atom_site_type_symbol
_atom_site_label
_atom_site_fract_x
_atom_site_fract_y
_atom_site_fract_z
Si Si1 0.782497 0.400646 0.445466
Si Si2 0.022444 0.772709 0.140385
Si Si3 0.705036 0.612703 0.306654
Si Si4 0.597170 0.958392 0.946469
Si Si5 0.945915 0.751188 0.893131
Si Si6 0.891153 0.483033 0.297943
O O1 0.732455 0.489623 0.395745
O O2 0.783928 0.392771 0.627479
O O3 0.772838 0.252985 0.374055
O O4 0.835446 0.470081 0.381878
O O5 0.043648 0.624498 0.089830
O O6 0.066596 0.887785 0.114837
O O7 0.003553 0.770680 0.314754
O O8 0.966196 0.804981 0.056875
O O9 0.642264 0.603899 0.337335
O O10 0.588553 0.115361 0.906164
O O11 0.614697 0.939579 0.121994
O O12 0.909565 0.861124 0.808154
#
# Coordination Sequence:
#
# PCOD8249902 Si02
#       6
#     8   8   8   8   8   8
#     4  12  28  51  80 109 142 186 235 300 362 432
#     4  12  24  45  70 102 144 193 240 293 354 417
#     4  12  28  51  80 108 144 183 238 297 365 428
#     4  12  26  47  70 106 147 188 240 299 354 426
#     4  12  26  43  70 102 148 193 240 291 350 421
#     4  12  26  46  72 105 145 190 242 292 360 423
#
# _framework density 22.15906
#
# number of rings (size 3 to 8) (size 9 to 14) (size 15 to 20)
#    0.000    0.000    5.000    5.000    7.000    0.000 
#    0.000    0.000    0.000    0.000    0.000    0.000 
#    0.000    0.000    0.000    0.000    0.000    0.000 
#
# Total GULP energy -595540.808967 kJ/mol
# GULP energy per Si atom -12407.100187 kJ/mol
# Density = 2.210862 g / cm^3
# Si number density = 22.159060 Si / 1000 Ang^3
#
#
#
# Elastic Constant Matrix: (Units=GPa)
#
#
# Indices 1 2 3 4 5 6 
#
# 1 65.3512 26.3304 30.5873 0.0000 0.0000 0.0000
# 2 26.3304 92.2725 30.9981 0.0000 0.0000 0.0000
# 3 30.5873 30.9981 136.4475 0.0000 0.0000 0.0000
# 4 0.0000 0.0000 0.0000 35.9868 0.0000 0.0000
# 5 0.0000 0.0000 0.0000 0.0000 43.7186 0.0000
# 6 0.0000 0.0000 0.0000 0.0000 0.0000 38.1098
#
#
#
# Elastic Compliance Matrix: (Units=1/GPa)
#
#
# Indices 1 2 3 4 5 6 
#
# 1 0.018489 -0.004204 -0.003189 0.000000 0.000000 0.000000
# 2 -0.004204 0.012689 -0.001940 0.000000 0.000000 0.000000
# 3 -0.003189 -0.001940 0.008485 0.000000 0.000000 0.000000
# 4 0.000000 0.000000 0.000000 0.027788 0.000000 0.000000
# 5 0.000000 0.000000 0.000000 0.000000 0.022874 0.000000
# 6 0.000000 0.000000 0.000000 0.000000 0.000000 0.026240
#
#
# Mechanical properties :
#
#
# Convention : Reuss Voigt Hill
#
# Bulk Modulus (GPa) = 47.63209 52.21142 49.92176
# Shear Modulus (GPa) = 35.15434 37.30672 36.23053
#
# Velocity S-wave (km/s) = 3.98735 4.10761 4.04793
# Velocity P-wave (km/s) = 6.53765 6.79042 6.66523
#
# Compressibility (1/GPa) = 0.02099425
#
# Stress axis : x y z
#
# Youngs Moduli (GPa) = 54.08704 78.80837 117.86100
#
# Poissons Ratio (x) = 0.33134 0.37591
# Poissons Ratio (y) = 0.22740 0.22867
# Poissons Ratio (z) = 0.17251 0.15290
#
# Static dielectric constant tensor:
#      x y z
#    x 3.838480 0.000000 0.000000 
#    y 0.000000 3.988920 0.000000 
#    z 0.000000 0.000000 4.124160 
# 
# 
# High freq. dielectric constant tensor:
#      x y z
#    x 1.871650 0.000000 0.000000 
#    y 0.000000 1.881790 0.000000 
#    z 0.000000 0.000000 1.890830 
# 
# From -- ./inp_files/1891.got.cif
#   From: 2010.03.12/outbox.cif.g09.slc.cpg/sg61_1_cif.got.tgz:1891.got - 2010.04.10 19:05:03.
