data_PCOD8249023
_publ_section_title
;
Structure prediction by ZEFSAII (Michael W. Deem and Ramdas Pophale) SiO2 
 PCOD8249023
Probable space group: P B C A
;
_chemical_formula_sum "Si O2"
_cell_formula_units_Z 64
_cell_length_a 33.123654
_cell_length_b 5.237140
_cell_length_c 16.453712
_cell_angle_alpha 90.000000
_cell_angle_beta 90.000000
_cell_angle_gamma 90.000000
_cell_volume 2854.278292
_symmetry_space_group_name_H-M "P B C A"
_symmetry_group_IT_number 61
_symmetry_cell_setting 'orthorhombic'
loop_
_space_group_symop_operation_xyz
x,y,z
1/2-x,-y,1/2+z
1/2+x,1/2-y,-z
-x,1/2+y,1/2-z
-x,-y,-z
1/2+x,y,1/2-z
1/2-x,1/2+y,z
x,1/2-y,1/2+z
loop_
_atom_site_type_symbol
_atom_site_label
_atom_site_fract_x
_atom_site_fract_y
_atom_site_fract_z
Si Si1 0.853827 0.544894 0.949032
Si Si2 0.735285 0.987481 0.913403
Si Si3 0.230217 0.021722 0.266737
Si Si4 0.909297 0.469065 0.809192
Si Si5 0.366042 0.036993 0.450705
Si Si6 0.495606 0.187516 0.199277
Si Si7 0.578541 0.232493 0.146992
Si Si8 0.856636 0.345764 0.194834
O O1 0.846060 0.786867 0.007978
O O2 0.867434 0.280610 0.990840
O O3 0.812444 0.497703 0.900485
O O4 0.888514 0.614824 0.884437
O O5 0.752630 0.231132 0.962862
O O6 0.759442 0.963021 0.828632
O O7 0.252328 0.778582 0.307813
O O8 0.182043 0.010515 0.278904
O O9 0.951331 0.345010 0.840442
O O10 0.918648 0.670852 0.739451
O O11 0.878359 0.254452 0.776093
O O12 0.410882 0.947542 0.420457
O O13 0.342904 0.116537 0.366570
O O14 0.498361 0.478141 0.230308
O O15 0.532027 0.144152 0.133769
O O16 0.611282 0.005791 0.140338
#
# Coordination Sequence:
#
# PCOD8249023 Si02
#       8
#     8   8   8   8   8   8   8   8
#     4  12  25  43  67  96 136 174 225 270 338 405
#     4  10  21  39  61  90 125 160 203 275 330 374
#     4  10  23  37  62  97 125 154 213 278 322 376
#     4  10  23  37  71 104 128 171 227 283 329 389
#     4  11  26  44  66  93 136 188 214 265 330 420
#     4  10  20  38  62 104 137 163 218 288 336 382
#     4  10  22  42  71  97 133 180 223 273 332 401
#     4  11  22  44  72  94 131 180 225 267 339 401
#
# _framework density 22.42248
#
# number of rings (size 3 to 8) (size 9 to 14) (size 15 to 20)
#    0.000    1.500    2.500    2.250    8.750    0.000 
#    0.000    5.000    0.000    0.000    0.000    0.000 
#    0.000    0.000    0.000    0.000    0.000    0.000 
#
# Total GULP energy -792990.772066 kJ/mol
# GULP energy per Si atom -12390.480814 kJ/mol
# Density = 2.237145 g / cm^3
# Si number density = 22.422480 Si / 1000 Ang^3
#
#
#
# Elastic Constant Matrix: (Units=GPa)
#
#
# Indices 1 2 3 4 5 6 
#
# 1 133.5195 16.9040 25.6837 0.0000 0.0000 0.0000
# 2 16.9040 128.6027 13.1137 0.0000 0.0000 0.0000
# 3 25.6837 13.1137 54.0140 0.0000 0.0000 0.0000
# 4 0.0000 0.0000 0.0000 20.8552 0.0000 0.0000
# 5 0.0000 0.0000 0.0000 0.0000 15.9192 0.0000
# 6 0.0000 0.0000 0.0000 0.0000 0.0000 33.9890
#
#
#
# Elastic Compliance Matrix: (Units=1/GPa)
#
#
# Indices 1 2 3 4 5 6 
#
# 1 0.008306 -0.000707 -0.003778 0.000000 0.000000 0.000000
# 2 -0.000707 0.008033 -0.001614 0.000000 0.000000 0.000000
# 3 -0.003778 -0.001614 0.020702 0.000000 0.000000 0.000000
# 4 0.000000 0.000000 0.000000 0.047950 0.000000 0.000000
# 5 0.000000 0.000000 0.000000 0.000000 0.062817 0.000000
# 6 0.000000 0.000000 0.000000 0.000000 0.000000 0.029421
#
#
# Mechanical properties :
#
#
# Convention : Reuss Voigt Hill
#
# Bulk Modulus (GPa) = 40.25183 47.50432 43.87808
# Shear Modulus (GPa) = 25.28981 31.51501 28.40241
#
# Velocity S-wave (km/s) = 3.36203 3.75308 3.56292
# Velocity P-wave (km/s) = 5.74992 6.32557 6.04460
#
# Compressibility (1/GPa) = 0.02484359
#
# Stress axis : x y z
#
# Youngs Moduli (GPa) = 120.39946 124.48068 48.30440
#
# Poissons Ratio (x) = 0.08795 0.18249
# Poissons Ratio (y) = 0.08506 0.07798
# Poissons Ratio (z) = 0.45485 0.20097
#
# Static dielectric constant tensor:
#      x y z
#    x 4.262960 0.000000 0.000000 
#    y 0.000000 5.277050 0.000000 
#    z 0.000000 0.000000 3.644770 
# 
# 
# High freq. dielectric constant tensor:
#      x y z
#    x 1.885910 0.000000 0.000000 
#    y 0.000000 1.905720 0.000000 
#    z 0.000000 0.000000 1.836090 
# 
# From -- ./inp_files/9922.got.cif
#   From: 2010.03.12/outbox.cif.g09.slc.cpg/sg61_5_cif.got.tgz:9922.got - 2010.04.10 19:05:03.
