data_PCOD8249737
_publ_section_title
;
Structure prediction by ZEFSAII (Michael W. Deem and Ramdas Pophale) SiO2 
 PCOD8249737
Probable space group: P B C A
;
_chemical_formula_sum "Si O2"
_cell_formula_units_Z 56
_cell_length_a 9.021918
_cell_length_b 18.657663
_cell_length_c 13.359272
_cell_angle_alpha 90.000000
_cell_angle_beta 90.000000
_cell_angle_gamma 90.000000
_cell_volume 2248.738277
_symmetry_space_group_name_H-M "P B C A"
_symmetry_group_IT_number 61
_symmetry_cell_setting 'orthorhombic'
loop_
_space_group_symop_operation_xyz
x,y,z
1/2-x,-y,1/2+z
1/2+x,1/2-y,-z
-x,1/2+y,1/2-z
-x,-y,-z
1/2+x,y,1/2-z
1/2-x,1/2+y,z
x,1/2-y,1/2+z
loop_
_atom_site_type_symbol
_atom_site_label
_atom_site_fract_x
_atom_site_fract_y
_atom_site_fract_z
Si Si1 0.846966 0.310856 0.133724
Si Si2 0.762997 0.415611 0.976425
Si Si3 0.258311 0.547150 0.383222
Si Si4 0.933065 0.026342 0.285898
Si Si5 0.033274 0.199372 0.027219
Si Si6 0.234136 0.172875 0.534773
Si Si7 0.904113 0.863069 0.255692
O O1 0.873636 0.361330 0.035812
O O2 0.671220 0.319565 0.162794
O O3 0.919894 0.232602 0.112379
O O4 0.921987 0.343607 0.234810
O O5 0.713467 0.478139 0.051747
O O6 0.848534 0.449818 0.884900
O O7 0.616719 0.373030 0.937117
O O8 0.120947 0.571736 0.311467
O O9 0.393288 0.530739 0.306706
O O10 0.303482 0.610097 0.457650
O O11 0.880705 0.947619 0.250541
O O12 0.911255 0.178432 0.943122
O O13 0.162771 0.253388 0.988229
O O14 0.154722 0.165744 0.638891
#
# Coordination Sequence:
#
# PCOD8249737 Si02
#       7
#     8   8   8   8   8   8   8
#     4  11  24  46  70 109 142 199 250 310 369 457
#     4  12  24  46  79 102 154 199 253 313 384 447
#     4  12  27  46  76 108 156 191 255 321 381 452
#     4  12  24  45  72 113 145 198 251 315 382 455
#     4  11  26  48  72 104 145 199 255 303 385 451
#     4  11  26  48  73 104 147 199 245 313 380 461
#     4  11  22  42  74 103 142 191 251 297 375 453
#
# _framework density 24.902851999999999
#
# number of rings (size 3 to 8) (size 9 to 14) (size 15 to 20)
#    0.000    0.571    5.714    2.143    4.000    1.714 
#    7.714    0.000    0.000    0.000    0.000    0.000 
#    0.000    0.000    0.000    0.000    0.000    0.000 
#
# Total GULP energy -694010.916268 kJ/mol
# GULP energy per Si atom -12393.052076 kJ/mol
# Density = 2.484617 g / cm^3
# Si number density = 24.902852 Si / 1000 Ang^3
#
#
#
# Elastic Constant Matrix: (Units=GPa)
#
#
# Indices 1 2 3 4 5 6 
#
# 1 107.4432 25.0698 -10.8282 0.0000 0.0000 0.0000
# 2 25.0698 95.7360 16.2882 0.0000 0.0000 0.0000
# 3 -10.8282 16.2882 50.9511 0.0000 0.0000 0.0000
# 4 0.0000 0.0000 0.0000 18.1810 0.0000 0.0000
# 5 0.0000 0.0000 0.0000 0.0000 44.0356 0.0000
# 6 0.0000 0.0000 0.0000 0.0000 0.0000 36.6126
#
#
#
# Elastic Compliance Matrix: (Units=1/GPa)
#
#
# Indices 1 2 3 4 5 6 
#
# 1 0.010400 -0.003278 0.003258 0.000000 0.000000 0.000000
# 2 -0.003278 0.012079 -0.004558 0.000000 0.000000 0.000000
# 3 0.003258 -0.004558 0.021776 0.000000 0.000000 0.000000
# 4 0.000000 0.000000 0.000000 0.055003 0.000000 0.000000
# 5 0.000000 0.000000 0.000000 0.000000 0.022709 0.000000
# 6 0.000000 0.000000 0.000000 0.000000 0.000000 0.027313
#
#
# Mechanical properties :
#
#
# Convention : Reuss Voigt Hill
#
# Bulk Modulus (GPa) = 28.48973 35.02110 31.75542
# Shear Modulus (GPa) = 29.38823 34.67253 32.03038
#
# Velocity S-wave (km/s) = 3.43901 3.73542 3.59027
# Velocity P-wave (km/s) = 5.21864 5.71822 5.47413
#
# Compressibility (1/GPa) = 0.03510036
#
# Stress axis : x y z
#
# Youngs Moduli (GPa) = 96.14990 82.78657 45.92150
#
# Poissons Ratio (x) = 0.27136 -0.14962
# Poissons Ratio (y) = 0.31516 0.20932
# Poissons Ratio (z) = -0.31328 0.37735
#
# Static dielectric constant tensor:
#      x y z
#    x 5.089540 0.000000 0.000000 
#    y 0.000000 4.520330 0.000000 
#    z 0.000000 0.000000 4.387030 
# 
# 
# High freq. dielectric constant tensor:
#      x y z
#    x 2.016090 0.000000 0.000000 
#    y 0.000000 1.987270 0.000000 
#    z 0.000000 0.000000 1.989120 
# 
# From -- ./inp_files/7163.got.cif
#   From: 2010.03.12/outbox.cif.g09.slc.cpg/sg61_4_cif.got.tgz:7163.got - 2010.04.10 19:05:03.
