data_PCOD8249926
_publ_section_title
;
Structure prediction by ZEFSAII (Michael W. Deem and Ramdas Pophale) SiO2 
 PCOD8249926
Probable space group: P B C A
;
_chemical_formula_sum "Si O2"
_cell_formula_units_Z 40
_cell_length_a 25.816495
_cell_length_b 8.666681
_cell_length_c 7.375569
_cell_angle_alpha 90.000000
_cell_angle_beta 90.000000
_cell_angle_gamma 90.000000
_cell_volume 1650.234344
_symmetry_space_group_name_H-M "P B C A"
_symmetry_group_IT_number 61
_symmetry_cell_setting 'orthorhombic'
loop_
_space_group_symop_operation_xyz
x,y,z
1/2-x,-y,1/2+z
1/2+x,1/2-y,-z
-x,1/2+y,1/2-z
-x,-y,-z
1/2+x,y,1/2-z
1/2-x,1/2+y,z
x,1/2-y,1/2+z
loop_
_atom_site_type_symbol
_atom_site_label
_atom_site_fract_x
_atom_site_fract_y
_atom_site_fract_z
Si Si1 0.055659 0.061311 0.961024
Si Si2 0.714868 0.774701 0.663363
Si Si3 0.275774 0.565785 0.054898
Si Si4 0.945324 0.581141 0.953238
Si Si5 0.132409 0.969824 0.247505
O O1 0.070765 0.042392 0.751816
O O2 0.053136 0.236011 0.028883
O O3 0.094564 0.952558 0.075053
O O4 0.000000 0.000000 0.000000
O O5 0.724494 0.890937 0.830461
O O6 0.764068 0.656250 0.633937
O O7 0.660365 0.688644 0.691661
O O8 0.715460 0.882590 0.481386
O O9 0.325990 0.602634 0.181022
O O10 0.899420 0.522770 0.079274
O O11 0.000000 0.500000 0.000000
#
# Coordination Sequence:
#
# PCOD8249926 Si02
#       5
#     8   8   8   8   8
#     4  12  26  52  83 123 165 220 282 349 427 511
#     4  12  26  52  77 116 162 221 278 349 409 508
#     4  12  26  50  77 113 166 209 286 336 419 500
#     4  12  26  53  83 119 171 216 283 351 423 514
#     4  12  28  47  84 119 166 230 268 347 435 492
#
# _framework density 24.238983000000001
#
# number of rings (size 3 to 8) (size 9 to 14) (size 15 to 20)
#    0.000    0.000    8.000    0.000    2.800    3.200 
#   10.800    0.000    0.000    0.000    0.000    0.000 
#    0.000    0.000    0.000    0.000    0.000    0.000 
#
# Total GULP energy -495604.833208 kJ/mol
# GULP energy per Si atom -12390.120830 kJ/mol
# Density = 2.418381 g / cm^3
# Si number density = 24.238983 Si / 1000 Ang^3
#
#
#
# Elastic Constant Matrix: (Units=GPa)
#
#
# Indices 1 2 3 4 5 6 
#
# 1 175.6409 87.9252 85.7670 0.0000 0.0000 0.0000
# 2 87.9252 137.2721 74.9055 0.0000 0.0000 0.0000
# 3 85.7670 74.9055 188.7678 0.0000 0.0000 0.0000
# 4 0.0000 0.0000 0.0000 48.6389 0.0000 0.0000
# 5 0.0000 0.0000 0.0000 0.0000 63.8233 0.0000
# 6 0.0000 0.0000 0.0000 0.0000 0.0000 48.9359
#
#
#
# Elastic Compliance Matrix: (Units=1/GPa)
#
#
# Indices 1 2 3 4 5 6 
#
# 1 0.009118 -0.004569 -0.002330 0.000000 0.000000 0.000000
# 2 -0.004569 0.011588 -0.002522 0.000000 0.000000 0.000000
# 3 -0.002330 -0.002522 0.007357 0.000000 0.000000 0.000000
# 4 0.000000 0.000000 0.000000 0.020560 0.000000 0.000000
# 5 0.000000 0.000000 0.000000 0.000000 0.015668 0.000000
# 6 0.000000 0.000000 0.000000 0.000000 0.000000 0.020435
#
#
# Mechanical properties :
#
#
# Convention : Reuss Voigt Hill
#
# Bulk Modulus (GPa) = 108.45184 110.98626 109.71905
# Shear Modulus (GPa) = 46.88591 49.15181 48.01886
#
# Velocity S-wave (km/s) = 4.40286 4.50800 4.45574
# Velocity P-wave (km/s) = 8.40754 8.54305 8.47557
#
# Compressibility (1/GPa) = 0.00922068
#
# Stress axis : x y z
#
# Youngs Moduli (GPa) = 109.66775 86.29839 135.92665
#
# Poissons Ratio (x) = 0.39431 0.31669
# Poissons Ratio (y) = 0.50109 0.34282
# Poissons Ratio (z) = 0.25551 0.21766
#
# Static dielectric constant tensor:
#      x y z
#    x 4.273950 0.000000 0.000000 
#    y 0.000000 5.718620 0.000000 
#    z 0.000000 0.000000 4.871910 
# 
# 
# High freq. dielectric constant tensor:
#      x y z
#    x 1.957180 0.000000 0.000000 
#    y 0.000000 1.958890 0.000000 
#    z 0.000000 0.000000 2.000950 
# 
# From -- ./inp_files/4164.got.cif
#   From: 2010.03.12/outbox.cif.g09.slc.cpg/sg61_3_cif.got.tgz:4164.got - 2010.04.10 19:05:03.
