data_PCOD8249944
_publ_section_title
;
Structure prediction by ZEFSAII (Michael W. Deem and Ramdas Pophale) SiO2 
 PCOD8249944
Probable space group: P N M A
;
_chemical_formula_sum "Si O2"
_cell_formula_units_Z 40
_cell_length_a 8.410992
_cell_length_b 18.815083
_cell_length_c 15.561145
_cell_angle_alpha 90.000000
_cell_angle_beta 90.000000
_cell_angle_gamma 90.000000
_cell_volume 2462.605856
_symmetry_space_group_name_H-M "P N M A"
_symmetry_group_IT_number 62
_symmetry_cell_setting 'orthorhombic'
loop_
_space_group_symop_operation_xyz
x,y,z
1/2-x,-y,1/2+z
1/2+x,1/2-y,1/2-z
-x,1/2+y,-z
-x,-y,-z
1/2+x,y,1/2-z
1/2-x,1/2+y,1/2+z
x,1/2-y,z
loop_
_atom_site_type_symbol
_atom_site_label
_atom_site_fract_x
_atom_site_fract_y
_atom_site_fract_z
Si Si1 0.296224 0.250000 0.282621
Si Si2 0.327279 0.099624 0.340275
Si Si3 0.113443 0.013973 0.216768
Si Si4 0.547363 0.396119 0.038665
Si Si5 0.087414 0.470811 0.629854
Si Si6 0.472192 0.250000 0.120218
O O1 0.380540 0.180482 0.322922
O O2 0.313122 0.250000 0.178486
O O3 0.111444 0.250000 0.308556
O O4 0.215069 0.076461 0.260956
O O5 0.481618 0.049537 0.345044
O O6 0.228491 0.093626 0.428498
O O7 0.229352 0.964694 0.160162
O O8 0.030497 0.964544 0.288878
O O9 0.432344 0.453063 0.083536
O O10 0.479749 0.318359 0.058949
O O11 0.548340 0.407159 0.935909
#
# Coordination Sequence:
#
# PCOD8249944 Si02
#       6
#     4   8   8   8   8   4
#     4  10  16  24  40  62  90 116 134 154 200 260
#     4   9  16  25  39  63  88 114 140 167 204 255
#     4   9  16  27  43  60  82 111 147 176 204 247
#     4   9  18  29  43  64  89 111 138 175 213 248
#     4   9  17  30  45  63  84 110 143 178 211 248
#     4  10  18  28  44  64  88 116 138 164 204 254
#
# _framework density 16.242958000000002
#
# number of rings (size 3 to 8) (size 9 to 14) (size 15 to 20)
#    0.000    2.800    0.000    4.800    0.000    0.800 
#    0.000    0.000    0.000    1.200    0.000    0.000 
#    0.000    0.000    0.000    0.000    0.000    0.100 
#
# Total GULP energy -495905.219176 kJ/mol
# GULP energy per Si atom -12397.630479 kJ/mol
# Density = 1.620599 g / cm^3
# Si number density = 16.242958 Si / 1000 Ang^3
#
#
#
# Elastic Constant Matrix: (Units=GPa)
#
#
# Indices 1 2 3 4 5 6 
#
# 1 71.8301 21.1946 35.6916 0.0000 0.0000 0.0000
# 2 21.1946 71.7095 44.2324 0.0000 0.0000 0.0000
# 3 35.6916 44.2324 84.6322 0.0000 0.0000 0.0000
# 4 0.0000 0.0000 0.0000 22.0920 0.0000 0.0000
# 5 0.0000 0.0000 0.0000 0.0000 19.8374 0.0000
# 6 0.0000 0.0000 0.0000 0.0000 0.0000 13.1108
#
#
#
# Elastic Compliance Matrix: (Units=1/GPa)
#
#
# Indices 1 2 3 4 5 6 
#
# 1 0.017654 -0.000923 -0.006963 0.000000 0.000000 0.000000
# 2 -0.000923 0.020628 -0.010392 0.000000 0.000000 0.000000
# 3 -0.006963 -0.010392 0.020183 0.000000 0.000000 0.000000
# 4 0.000000 0.000000 0.000000 0.045265 0.000000 0.000000
# 5 0.000000 0.000000 0.000000 0.000000 0.050410 0.000000
# 6 0.000000 0.000000 0.000000 0.000000 0.000000 0.076273
#
#
# Mechanical properties :
#
#
# Convention : Reuss Voigt Hill
#
# Bulk Modulus (GPa) = 45.64096 47.82322 46.73209
# Shear Modulus (GPa) = 18.23015 19.47826 18.85420
#
# Velocity S-wave (km/s) = 3.35377 3.46668 3.41069
# Velocity P-wave (km/s) = 6.56940 6.74760 6.65910
#
# Compressibility (1/GPa) = 0.02191014
#
# Stress axis : x y z
#
# Youngs Moduli (GPa) = 56.64515 48.47813 49.54591
#
# Poissons Ratio (x) = 0.04475 0.34497
# Poissons Ratio (y) = 0.05229 0.51487
# Poissons Ratio (z) = 0.39440 0.50377
#
# Static dielectric constant tensor:
#      x y z
#    x 3.128170 0.000000 0.000000 
#    y 0.000000 2.846400 0.000000 
#    z 0.000000 0.000000 3.017640 
# 
# 
# High freq. dielectric constant tensor:
#      x y z
#    x 1.624530 0.000000 0.000000 
#    y 0.000000 1.595310 0.000000 
#    z 0.000000 0.000000 1.604100 
# 
# From -- ./inp_files/16803.got.cif
#   From: 2010.03.12/outbox.cif.g09.slc.cpg/sg62_9_cif.got.tgz:16803.got - 2010.04.10 19:12:36.
