data_PCOD8249858
_publ_section_title
;
Structure prediction by ZEFSAII (Michael W. Deem and Ramdas Pophale) SiO2 
 PCOD8249858
Probable space group: P B C A
;
_chemical_formula_sum "Si O2"
_cell_formula_units_Z 64
_cell_length_a 29.058105
_cell_length_b 11.526692
_cell_length_c 8.335355
_cell_angle_alpha 90.000000
_cell_angle_beta 90.000000
_cell_angle_gamma 90.000000
_cell_volume 2791.875698
_symmetry_space_group_name_H-M "P B C A"
_symmetry_group_IT_number 61
_symmetry_cell_setting 'orthorhombic'
loop_
_space_group_symop_operation_xyz
x,y,z
1/2-x,-y,1/2+z
1/2+x,1/2-y,-z
-x,1/2+y,1/2-z
-x,-y,-z
1/2+x,y,1/2-z
1/2-x,1/2+y,z
x,1/2-y,1/2+z
loop_
_atom_site_type_symbol
_atom_site_label
_atom_site_fract_x
_atom_site_fract_y
_atom_site_fract_z
Si Si1 0.133555 0.359698 0.324232
Si Si2 0.880137 0.610557 0.307443
Si Si3 0.808332 0.447711 0.131330
Si Si4 0.461790 0.014962 0.782262
Si Si5 0.288177 0.504017 0.733224
Si Si6 0.091817 0.764753 0.180688
Si Si7 0.561408 0.519803 0.362305
Si Si8 0.340948 0.305721 0.919126
O O1 0.118497 0.230752 0.286899
O O2 0.137967 0.379222 0.513638
O O3 0.186197 0.374608 0.266326
O O4 0.102729 0.454900 0.229760
O O5 0.932982 0.571684 0.329840
O O6 0.852932 0.515026 0.199456
O O7 0.797821 0.477846 0.949529
O O8 0.766056 0.483355 0.244280
O O9 0.813465 0.310169 0.122917
O O10 0.447309 0.143975 0.726785
O O11 0.515995 0.998267 0.752623
O O12 0.448145 0.970127 0.960970
O O13 0.309613 0.411280 0.859471
O O14 0.070230 0.654600 0.089199
O O15 0.108641 0.699176 0.340349
O O16 0.139998 0.817346 0.102762
#
# Coordination Sequence:
#
# PCOD8249858 Si02
#       8
#     8   8   8   8   8   8   8   8
#     4  12  26  47  70  98 141 185 230 286 353 416
#     4  12  26  47  70  98 140 184 228 286 351 417
#     4  12  27  46  72 105 141 182 235 289 353 421
#     4  11  25  44  71 103 144 182 234 292 353 421
#     4  12  27  45  72 105 140 181 233 289 349 424
#     4  12  22  45  73 102 136 188 238 291 352 419
#     4  11  25  45  69 105 141 183 234 292 352 421
#     4  12  24  45  75 100 139 184 234 293 347 419
#
# _framework density 22.923656999999999
#
# number of rings (size 3 to 8) (size 9 to 14) (size 15 to 20)
#    0.000    0.250    5.000    3.750    5.250    0.500 
#    0.000    0.000    0.000    0.000    0.000    0.000 
#    0.000    0.000    0.000    0.000    0.000    0.000 
#
# Total GULP energy -793093.438705 kJ/mol
# GULP energy per Si atom -12392.084980 kJ/mol
# Density = 2.287148 g / cm^3
# Si number density = 22.923657 Si / 1000 Ang^3
#
#
#
# Elastic Constant Matrix: (Units=GPa)
#
#
# Indices 1 2 3 4 5 6 
#
# 1 86.1669 10.3249 13.8036 0.0000 0.0000 0.0000
# 2 10.3249 89.6740 4.2814 0.0000 0.0000 0.0000
# 3 13.8036 4.2814 74.2398 0.0000 0.0000 0.0000
# 4 0.0000 0.0000 0.0000 19.9986 0.0000 0.0000
# 5 0.0000 0.0000 0.0000 0.0000 30.2302 0.0000
# 6 0.0000 0.0000 0.0000 0.0000 0.0000 41.5185
#
#
#
# Elastic Compliance Matrix: (Units=1/GPa)
#
#
# Indices 1 2 3 4 5 6 
#
# 1 0.012109 -0.001290 -0.002177 0.000000 0.000000 0.000000
# 2 -0.001290 0.011320 -0.000413 0.000000 0.000000 0.000000
# 3 -0.002177 -0.000413 0.013898 0.000000 0.000000 0.000000
# 4 0.000000 0.000000 0.000000 0.050004 0.000000 0.000000
# 5 0.000000 0.000000 0.000000 0.000000 0.033079 0.000000
# 6 0.000000 0.000000 0.000000 0.000000 0.000000 0.024086
#
#
# Mechanical properties :
#
#
# Convention : Reuss Voigt Hill
#
# Bulk Modulus (GPa) = 33.82187 34.10004 33.96096
# Shear Modulus (GPa) = 30.84298 33.12752 31.98525
#
# Velocity S-wave (km/s) = 3.67204 3.80560 3.73942
# Velocity P-wave (km/s) = 5.72404 5.84961 5.78717
#
# Compressibility (1/GPa) = 0.02956667
#
# Stress axis : x y z
#
# Youngs Moduli (GPa) = 82.58506 88.34100 71.95043
#
# Poissons Ratio (x) = 0.11398 0.15664
# Poissons Ratio (y) = 0.10655 0.02971
# Poissons Ratio (z) = 0.17979 0.03648
#
# Static dielectric constant tensor:
#      x y z
#    x 4.418400 0.000000 0.000000 
#    y 0.000000 4.179990 0.000000 
#    z 0.000000 0.000000 4.352800 
# 
# 
# High freq. dielectric constant tensor:
#      x y z
#    x 1.902140 0.000000 0.000000 
#    y 0.000000 1.907760 0.000000 
#    z 0.000000 0.000000 1.924880 
# 
# From -- ./inp_files/4636.got.cif
#   From: 2010.03.12/outbox.cif.g09.slc.cpg/sg61_3_cif.got.tgz:4636.got - 2010.04.10 19:05:03.
