data_PCOD8249495
_publ_section_title
;
Structure prediction by ZEFSAII (Michael W. Deem and Ramdas Pophale) SiO2 
 PCOD8249495
Probable space group: P B C A
;
_chemical_formula_sum "Si O2"
_cell_formula_units_Z 40
_cell_length_a 19.839490
_cell_length_b 9.417888
_cell_length_c 8.787595
_cell_angle_alpha 90.000000
_cell_angle_beta 90.000000
_cell_angle_gamma 90.000000
_cell_volume 1641.927808
_symmetry_space_group_name_H-M "P B C A"
_symmetry_group_IT_number 61
_symmetry_cell_setting 'orthorhombic'
loop_
_space_group_symop_operation_xyz
x,y,z
1/2-x,-y,1/2+z
1/2+x,1/2-y,-z
-x,1/2+y,1/2-z
-x,-y,-z
1/2+x,y,1/2-z
1/2-x,1/2+y,z
x,1/2-y,1/2+z
loop_
_atom_site_type_symbol
_atom_site_label
_atom_site_fract_x
_atom_site_fract_y
_atom_site_fract_z
Si Si1 0.163774 0.181396 0.814107
Si Si2 0.727997 0.602507 0.127060
Si Si3 0.434800 0.386999 0.374075
Si Si4 0.851227 0.232240 0.874308
Si Si5 0.075335 0.177216 0.529865
O O1 0.198148 0.338854 0.827260
O O2 0.135554 0.143366 0.648345
O O3 0.222225 0.068836 0.861652
O O4 0.100576 0.186006 0.932330
O O5 0.673573 0.662913 0.243656
O O6 0.709718 0.643924 0.952279
O O7 0.405550 0.372580 0.203480
O O8 0.384361 0.326325 0.497583
O O9 0.505384 0.299155 0.380156
O O10 0.441667 0.553167 0.408950
#
# Coordination Sequence:
#
# PCOD8249495 Si02
#       5
#     8   8   8   8   8
#     4  12  27  45  68 104 139 188 239 290 353 423
#     4  11  26  43  71  98 141 182 239 286 357 410
#     4  10  22  45  70 103 138 184 228 293 352 429
#     4  10  22  44  70  99 139 179 230 290 350 423
#     4  11  25  43  70 100 143 181 235 287 356 421
#
# _framework density 24.361609000000001
#
# number of rings (size 3 to 8) (size 9 to 14) (size 15 to 20)
#    0.000    1.200    2.000    2.400    8.400    3.200 
#    0.000    3.000    0.000    0.000    0.000    0.000 
#    0.000    0.000    0.000    0.000    0.000    0.000 
#
# Total GULP energy -495960.780358 kJ/mol
# GULP energy per Si atom -12399.019509 kJ/mol
# Density = 2.430616 g / cm^3
# Si number density = 24.361609 Si / 1000 Ang^3
#
#
#
# Elastic Constant Matrix: (Units=GPa)
#
#
# Indices 1 2 3 4 5 6 
#
# 1 84.9448 8.0232 -6.1094 0.0000 0.0000 0.0000
# 2 8.0232 58.2220 17.9567 0.0000 0.0000 0.0000
# 3 -6.1094 17.9567 69.8943 0.0000 0.0000 0.0000
# 4 0.0000 0.0000 0.0000 21.8524 0.0000 0.0000
# 5 0.0000 0.0000 0.0000 0.0000 34.9115 0.0000
# 6 0.0000 0.0000 0.0000 0.0000 0.0000 37.1137
#
#
#
# Elastic Compliance Matrix: (Units=1/GPa)
#
#
# Indices 1 2 3 4 5 6 
#
# 1 0.012093 -0.002164 0.001613 0.000000 0.000000 0.000000
# 2 -0.002164 0.019041 -0.005081 0.000000 0.000000 0.000000
# 3 0.001613 -0.005081 0.015754 0.000000 0.000000 0.000000
# 4 0.000000 0.000000 0.000000 0.045762 0.000000 0.000000
# 5 0.000000 0.000000 0.000000 0.000000 0.028644 0.000000
# 6 0.000000 0.000000 0.000000 0.000000 0.000000 0.026944
#
#
# Mechanical properties :
#
#
# Convention : Reuss Voigt Hill
#
# Bulk Modulus (GPa) = 28.07136 28.08910 28.08023
# Shear Modulus (GPa) = 29.17573 31.65490 30.41532
#
# Velocity S-wave (km/s) = 3.46441 3.60860 3.53724
# Velocity P-wave (km/s) = 5.24887 5.37752 5.31358
#
# Compressibility (1/GPa) = 0.03562349
#
# Stress axis : x y z
#
# Youngs Moduli (GPa) = 82.69424 52.51860 63.47723
#
# Poissons Ratio (x) = 0.11364 -0.10239
# Poissons Ratio (y) = 0.17894 0.32253
# Poissons Ratio (z) = -0.13338 0.26685
#
# Static dielectric constant tensor:
#      x y z
#    x 4.440900 0.000000 0.000000 
#    y 0.000000 4.180510 0.000000 
#    z 0.000000 0.000000 4.616910 
# 
# 
# High freq. dielectric constant tensor:
#      x y z
#    x 1.971480 0.000000 0.000000 
#    y 0.000000 1.942160 0.000000 
#    z 0.000000 0.000000 1.979180 
# 
# From -- ./inp_files/1777.got.cif
#   From: 2010.03.12/outbox.cif.g09.slc.cpg/sg61_1_cif.got.tgz:1777.got - 2010.04.10 19:05:03.
