data_PCOD8249179
_publ_section_title
;
Structure prediction by ZEFSAII (Michael W. Deem and Ramdas Pophale) SiO2 
 PCOD8249179
Probable space group: P B C A
;
_chemical_formula_sum "Si O2"
_cell_formula_units_Z 32
_cell_length_a 7.714044
_cell_length_b 17.241156
_cell_length_c 8.703433
_cell_angle_alpha 90.000000
_cell_angle_beta 90.000000
_cell_angle_gamma 90.000000
_cell_volume 1157.548199
_symmetry_space_group_name_H-M "P B C A"
_symmetry_group_IT_number 61
_symmetry_cell_setting 'orthorhombic'
loop_
_space_group_symop_operation_xyz
x,y,z
1/2-x,-y,1/2+z
1/2+x,1/2-y,-z
-x,1/2+y,1/2-z
-x,-y,-z
1/2+x,y,1/2-z
1/2-x,1/2+y,z
x,1/2-y,1/2+z
loop_
_atom_site_type_symbol
_atom_site_label
_atom_site_fract_x
_atom_site_fract_y
_atom_site_fract_z
Si Si1 0.622276 0.683832 0.458211
Si Si2 0.483624 0.074880 0.798881
Si Si3 0.168614 0.076421 0.400358
Si Si4 0.996979 0.647709 0.483601
O O1 0.615955 0.650811 0.633205
O O2 0.475338 0.641823 0.354573
O O3 0.590732 0.775005 0.455821
O O4 0.816843 0.665330 0.393756
O O5 0.547336 0.092112 0.627676
O O6 0.357244 0.999967 0.798087
O O7 0.645579 0.057401 0.915618
O O8 0.364949 0.105504 0.371760
#
# Coordination Sequence:
#
# PCOD8249179 Si02
#       4
#     8   8   8   8
#     4  10  21  37  66 100 131 170 222 275 320 407
#     4   9  21  42  64  96 139 172 213 277 329 396
#     4   9  21  42  62  99 139 166 229 270 318 417
#     4  12  20  39  72  97 137 177 214 279 341 374
#
# _framework density 27.644636999999999
#
# number of rings (size 3 to 8) (size 9 to 14) (size 15 to 20)
#    1.500    0.500    2.500    1.500    0.000    1.000 
#    0.000    2.500    5.500    3.000    0.000    0.000 
#    0.000    0.000    0.000    0.000    0.000    0.000 
#
# Total GULP energy -396649.679178 kJ/mol
# GULP energy per Si atom -12395.302474 kJ/mol
# Density = 2.758172 g / cm^3
# Si number density = 27.644637 Si / 1000 Ang^3
#
#
#
# Elastic Constant Matrix: (Units=GPa)
#
#
# Indices 1 2 3 4 5 6 
#
# 1 152.6675 -13.6969 36.6490 0.0000 0.0000 0.0000
# 2 -13.6969 87.0426 17.5527 0.0000 0.0000 0.0000
# 3 36.6490 17.5527 56.1896 0.0000 0.0000 0.0000
# 4 0.0000 0.0000 0.0000 5.1522 0.0000 0.0000
# 5 0.0000 0.0000 0.0000 0.0000 27.9832 0.0000
# 6 0.0000 0.0000 0.0000 0.0000 0.0000 46.9746
#
#
#
# Elastic Compliance Matrix: (Units=1/GPa)
#
#
# Indices 1 2 3 4 5 6 
#
# 1 0.008264 0.002548 -0.006186 0.000000 0.000000 0.000000
# 2 0.002548 0.013047 -0.005737 0.000000 0.000000 0.000000
# 3 -0.006186 -0.005737 0.023624 0.000000 0.000000 0.000000
# 4 0.000000 0.000000 0.000000 0.194092 0.000000 0.000000
# 5 0.000000 0.000000 0.000000 0.000000 0.035736 0.000000
# 6 0.000000 0.000000 0.000000 0.000000 0.000000 0.021288
#
#
# Mechanical properties :
#
#
# Convention : Reuss Voigt Hill
#
# Bulk Modulus (GPa) = 38.19220 41.87882 40.03551
# Shear Modulus (GPa) = 15.45458 33.04831 24.25145
#
# Velocity S-wave (km/s) = 2.36698 3.46131 2.96507
# Velocity P-wave (km/s) = 4.61687 5.58176 5.12209
#
# Compressibility (1/GPa) = 0.02618336
#
# Stress axis : x y z
#
# Youngs Moduli (GPa) = 121.01099 76.64890 42.33027
#
# Poissons Ratio (x) = -0.19528 0.26185
# Poissons Ratio (y) = -0.30831 0.24286
# Poissons Ratio (z) = 0.74855 0.43976
#
# Static dielectric constant tensor:
#      x y z
#    x 4.888860 0.000000 0.000000 
#    y 0.000000 4.702990 0.000000 
#    z 0.000000 0.000000 4.083690 
# 
# 
# High freq. dielectric constant tensor:
#      x y z
#    x 2.123110 0.000000 0.000000 
#    y 0.000000 2.109040 0.000000 
#    z 0.000000 0.000000 2.095390 
# 
# From -- ./inp_files/1670.got.cif
#   From: 2010.03.12/outbox.cif.g09.slc.cpg/sg61_1_cif.got.tgz:1670.got - 2010.04.10 19:05:03.
