data_PCOD8249207
_publ_section_title
;
Structure prediction by ZEFSAII (Michael W. Deem and Ramdas Pophale) SiO2 
 PCOD8249207
Probable space group: P B C A
;
_chemical_formula_sum "Si O2"
_cell_formula_units_Z 48
_cell_length_a 9.700532
_cell_length_b 16.550011
_cell_length_c 15.768687
_cell_angle_alpha 90.000000
_cell_angle_beta 90.000000
_cell_angle_gamma 90.000000
_cell_volume 2531.566687
_symmetry_space_group_name_H-M "P B C A"
_symmetry_group_IT_number 61
_symmetry_cell_setting 'orthorhombic'
loop_
_space_group_symop_operation_xyz
x,y,z
1/2-x,-y,1/2+z
1/2+x,1/2-y,-z
-x,1/2+y,1/2-z
-x,-y,-z
1/2+x,y,1/2-z
1/2-x,1/2+y,z
x,1/2-y,1/2+z
loop_
_atom_site_type_symbol
_atom_site_label
_atom_site_fract_x
_atom_site_fract_y
_atom_site_fract_z
Si Si1 0.634089 0.947415 0.493919
Si Si2 0.397925 0.482278 0.575996
Si Si3 0.514866 0.660817 0.313899
Si Si4 0.337017 0.928261 0.238603
Si Si5 0.285657 0.095131 0.319509
Si Si6 0.081625 0.654515 0.664735
O O1 0.682795 0.908634 0.581398
O O2 0.612108 0.872769 0.430816
O O3 0.500000 0.000000 0.500000
O O4 0.743764 0.011427 0.458262
O O5 0.500000 0.500000 0.500000
O O6 0.423375 0.392336 0.609816
O O7 0.416785 0.546832 0.652228
O O8 0.586454 0.639522 0.224852
O O9 0.352314 0.646261 0.303461
O O10 0.547108 0.751993 0.337331
O O11 0.448807 0.893067 0.302117
O O12 0.216501 0.863153 0.221902
O O13 0.264490 0.006077 0.280799
#
# Coordination Sequence:
#
# PCOD8249207 Si02
#       6
#     8   8   8   8   8   8
#     4  11  23  41  64  92 125 163 217 254 306 376
#     4  10  21  40  62  88 120 165 212 249 301 380
#     4  11  24  41  63  93 131 161 209 263 324 363
#     4  10  21  38  67  85 125 165 212 248 306 382
#     4  11  22  42  67  92 124 172 212 253 308 386
#     4  11  23  42  60  97 126 163 206 268 316 367
#
# _framework density 18.96059
#
# number of rings (size 3 to 8) (size 9 to 14) (size 15 to 20)
#    0.000    1.333    3.333    3.000    4.667    0.000 
#    6.000    0.000    0.000    0.000    0.000    0.000 
#    0.000    0.000    0.000    0.000    0.000    0.000 
#
# Total GULP energy -595342.581020 kJ/mol
# GULP energy per Si atom -12402.970438 kJ/mol
# Density = 1.891743 g / cm^3
# Si number density = 18.960590 Si / 1000 Ang^3
#
#
#
# Elastic Constant Matrix: (Units=GPa)
#
#
# Indices 1 2 3 4 5 6 
#
# 1 127.5476 52.1168 56.9187 0.0000 0.0000 0.0000
# 2 52.1168 120.2068 43.6099 0.0000 0.0000 0.0000
# 3 56.9187 43.6099 129.8822 0.0000 0.0000 0.0000
# 4 0.0000 0.0000 0.0000 18.0658 0.0000 0.0000
# 5 0.0000 0.0000 0.0000 0.0000 35.2454 0.0000
# 6 0.0000 0.0000 0.0000 0.0000 0.0000 32.6063
#
#
#
# Elastic Compliance Matrix: (Units=1/GPa)
#
#
# Indices 1 2 3 4 5 6 
#
# 1 0.010836 -0.003388 -0.003611 0.000000 0.000000 0.000000
# 2 -0.003388 0.010532 -0.002052 0.000000 0.000000 0.000000
# 3 -0.003611 -0.002052 0.009971 0.000000 0.000000 0.000000
# 4 0.000000 0.000000 0.000000 0.055353 0.000000 0.000000
# 5 0.000000 0.000000 0.000000 0.000000 0.028373 0.000000
# 6 0.000000 0.000000 0.000000 0.000000 0.000000 0.030669
#
#
# Mechanical properties :
#
#
# Convention : Reuss Voigt Hill
#
# Bulk Modulus (GPa) = 75.54342 75.88082 75.71212
# Shear Modulus (GPa) = 29.71811 32.18290 30.95051
#
# Velocity S-wave (km/s) = 3.96329 4.12437 4.04463
# Velocity P-wave (km/s) = 7.80207 7.92387 7.86321
#
# Compressibility (1/GPa) = 0.01323742
#
# Stress axis : x y z
#
# Youngs Moduli (GPa) = 92.28454 94.94692 100.29410
#
# Poissons Ratio (x) = 0.32168 0.36218
# Poissons Ratio (y) = 0.31266 0.20577
# Poissons Ratio (z) = 0.33325 0.19480
#
# Static dielectric constant tensor:
#      x y z
#    x 3.672370 0.000000 0.000000 
#    y 0.000000 4.192960 0.000000 
#    z 0.000000 0.000000 3.696960 
# 
# 
# High freq. dielectric constant tensor:
#      x y z
#    x 1.755500 0.000000 0.000000 
#    y 0.000000 1.723920 0.000000 
#    z 0.000000 0.000000 1.748850 
# 
# From -- ./inp_files/3409.got.cif
#   From: 2010.03.12/outbox.cif.g09.slc.cpg/sg61_2_cif.got.tgz:3409.got - 2010.04.10 19:05:03.
