data_PCOD8249338
_publ_section_title
;
Structure prediction by ZEFSAII (Michael W. Deem and Ramdas Pophale) SiO2 
 PCOD8249338
Probable space group: P B C A
;
_chemical_formula_sum "Si O2"
_cell_formula_units_Z 56
_cell_length_a 9.912551
_cell_length_b 13.948935
_cell_length_c 18.277418
_cell_angle_alpha 90.000000
_cell_angle_beta 90.000000
_cell_angle_gamma 90.000000
_cell_volume 2527.209989
_symmetry_space_group_name_H-M "P B C A"
_symmetry_group_IT_number 61
_symmetry_cell_setting 'orthorhombic'
loop_
_space_group_symop_operation_xyz
x,y,z
1/2-x,-y,1/2+z
1/2+x,1/2-y,-z
-x,1/2+y,1/2-z
-x,-y,-z
1/2+x,y,1/2-z
1/2-x,1/2+y,z
x,1/2-y,1/2+z
loop_
_atom_site_type_symbol
_atom_site_label
_atom_site_fract_x
_atom_site_fract_y
_atom_site_fract_z
Si Si1 0.716997 0.504936 0.090056
Si Si2 0.575913 0.646256 0.269071
Si Si3 0.308225 0.672051 0.332033
Si Si4 0.702162 0.193307 0.542075
Si Si5 0.595632 0.849733 0.483285
Si Si6 0.106345 0.063426 0.756670
Si Si7 0.645854 0.841638 0.319324
O O1 0.833381 0.580299 0.113958
O O2 0.773281 0.411336 0.047588
O O3 0.641169 0.465080 0.160891
O O4 0.614352 0.559748 0.036166
O O5 0.413657 0.663630 0.264750
O O6 0.651739 0.668262 0.192736
O O7 0.600945 0.535430 0.291147
O O8 0.633860 0.725139 0.326235
O O9 0.330361 0.770327 0.375219
O O10 0.556761 0.186225 0.503224
O O11 0.800778 0.264151 0.500313
O O12 0.624337 0.884261 0.400215
O O13 0.209318 0.133620 0.715400
O O14 0.962004 0.116150 0.760927
#
# Coordination Sequence:
#
# PCOD8249338 Si02
#       7
#     8   8   8   8   8   8   8
#     4  10  21  43  70  93 133 181 217 284 335 405
#     4  11  21  41  64  95 135 176 217 278 340 401
#     4  10  22  40  65  95 134 173 222 276 344 401
#     4  11  22  47  63  96 132 176 227 287 336 405
#     4  11  25  44  70  97 131 182 237 273 344 409
#     4  11  24  41  69  97 136 173 226 273 351 398
#     4  12  24  44  65 101 136 176 225 290 331 415
#
# _framework density 22.158823000000002
#
# number of rings (size 3 to 8) (size 9 to 14) (size 15 to 20)
#    0.000    1.143    2.857    3.857    0.000    1.143 
#   20.571    1.429    0.000    0.000    0.000    0.000 
#    0.000    0.000    0.000    0.000    0.000    0.000 
#
# Total GULP energy -693886.768484 kJ/mol
# GULP energy per Si atom -12390.835152 kJ/mol
# Density = 2.210839 g / cm^3
# Si number density = 22.158823 Si / 1000 Ang^3
#
#
#
# Elastic Constant Matrix: (Units=GPa)
#
#
# Indices 1 2 3 4 5 6 
#
# 1 89.9661 47.6325 35.1851 0.0000 0.0000 0.0000
# 2 47.6325 148.6410 29.2462 0.0000 0.0000 0.0000
# 3 35.1851 29.2462 68.4026 0.0000 0.0000 0.0000
# 4 0.0000 0.0000 0.0000 35.1301 0.0000 0.0000
# 5 0.0000 0.0000 0.0000 0.0000 28.5737 0.0000
# 6 0.0000 0.0000 0.0000 0.0000 0.0000 19.7913
#
#
#
# Elastic Compliance Matrix: (Units=1/GPa)
#
#
# Indices 1 2 3 4 5 6 
#
# 1 0.015609 -0.003736 -0.006431 0.000000 0.000000 0.000000
# 2 -0.003736 0.008240 -0.001601 0.000000 0.000000 0.000000
# 3 -0.006431 -0.001601 0.018612 0.000000 0.000000 0.000000
# 4 0.000000 0.000000 0.000000 0.028466 0.000000 0.000000
# 5 0.000000 0.000000 0.000000 0.000000 0.034997 0.000000
# 6 0.000000 0.000000 0.000000 0.000000 0.000000 0.050527
#
#
# Mechanical properties :
#
#
# Convention : Reuss Voigt Hill
#
# Bulk Modulus (GPa) = 52.84566 59.01527 55.93046
# Shear Modulus (GPa) = 26.83893 29.69542 28.26717
#
# Velocity S-wave (km/s) = 3.48402 3.66473 3.57552
# Velocity P-wave (km/s) = 6.33126 6.67815 6.50702
#
# Compressibility (1/GPa) = 0.01892303
#
# Stress axis : x y z
#
# Youngs Moduli (GPa) = 64.06637 121.35889 53.72866
#
# Poissons Ratio (x) = 0.45346 0.34555
# Poissons Ratio (y) = 0.23938 0.08603
# Poissons Ratio (z) = 0.41203 0.19431
#
# Static dielectric constant tensor:
#      x y z
#    x 3.831120 0.000000 0.000000 
#    y 0.000000 4.637690 0.000000 
#    z 0.000000 0.000000 3.824910 
# 
# 
# High freq. dielectric constant tensor:
#      x y z
#    x 1.858530 0.000000 0.000000 
#    y 0.000000 1.903840 0.000000 
#    z 0.000000 0.000000 1.844640 
# 
# From -- ./inp_files/10114.got.cif
#   From: 2010.03.12/outbox.cif.g09.slc.cpg/sg61_6_cif.got.tgz:10114.got - 2010.04.10 19:05:03.
