data_PCOD8249690
_publ_section_title
;
Structure prediction by ZEFSAII (Michael W. Deem and Ramdas Pophale) SiO2 
 PCOD8249690
Probable space group: P B C A
;
_chemical_formula_sum "Si O2"
_cell_formula_units_Z 64
_cell_length_a 14.485544
_cell_length_b 16.894077
_cell_length_c 11.647255
_cell_angle_alpha 90.000000
_cell_angle_beta 90.000000
_cell_angle_gamma 90.000000
_cell_volume 2850.315029
_symmetry_space_group_name_H-M "P B C A"
_symmetry_group_IT_number 61
_symmetry_cell_setting 'orthorhombic'
loop_
_space_group_symop_operation_xyz
x,y,z
1/2-x,-y,1/2+z
1/2+x,1/2-y,-z
-x,1/2+y,1/2-z
-x,-y,-z
1/2+x,y,1/2-z
1/2-x,1/2+y,z
x,1/2-y,1/2+z
loop_
_atom_site_type_symbol
_atom_site_label
_atom_site_fract_x
_atom_site_fract_y
_atom_site_fract_z
Si Si1 0.041302 0.652813 0.563927
Si Si2 0.487265 0.268706 0.766309
Si Si3 0.071431 0.971026 0.249681
Si Si4 0.226672 0.097521 0.222220
Si Si5 0.731009 0.698070 0.053962
Si Si6 0.119056 0.842841 0.421586
Si Si7 0.634196 0.211125 0.422325
Si Si8 0.581007 0.577400 0.337929
O O1 0.035048 0.568790 0.631475
O O2 0.142025 0.655936 0.503334
O O3 0.042057 0.724211 0.653098
O O4 0.949600 0.664444 0.487126
O O5 0.452302 0.226132 0.883447
O O6 0.596605 0.270510 0.791882
O O7 0.445717 0.356612 0.757023
O O8 0.129367 0.908024 0.323012
O O9 0.137202 0.043919 0.226312
O O10 0.986136 0.002291 0.326780
O O11 0.239259 0.148921 0.336370
O O12 0.218235 0.151824 0.107906
O O13 0.317764 0.045639 0.196875
O O14 0.713803 0.792597 0.074834
O O15 0.824781 0.707565 0.976758
O O16 0.080297 0.883981 0.535987
#
# Coordination Sequence:
#
# PCOD8249690 Si02
#       8
#     8   8   8   8   8   8   8   8
#     4  11  25  49  70 106 148 193 241 306 372 441
#     4  11  20  42  73 101 133 184 244 294 356 430
#     4  11  29  45  68 104 151 192 236 296 378 446
#     4  12  26  44  69 107 142 189 240 300 363 445
#     4  12  25  45  77 107 140 186 251 310 354 437
#     4  11  23  44  73  99 137 189 236 298 358 424
#     4  12  23  42  76 104 138 188 246 302 364 429
#     4  12  22  47  68  99 147 185 238 299 367 428
#
# _framework density 22.453658000000001
#
# number of rings (size 3 to 8) (size 9 to 14) (size 15 to 20)
#    0.000    0.500    6.250    1.125    3.500    2.500 
#    4.500    0.000    0.000    0.000    0.000    0.000 
#    0.000    0.000    0.000    0.000    0.000    0.000 
#
# Total GULP energy -792920.915687 kJ/mol
# GULP energy per Si atom -12389.389308 kJ/mol
# Density = 2.240255 g / cm^3
# Si number density = 22.453658 Si / 1000 Ang^3
#
#
#
# Elastic Constant Matrix: (Units=GPa)
#
#
# Indices 1 2 3 4 5 6 
#
# 1 83.9538 10.9877 20.3796 0.0000 0.0000 0.0000
# 2 10.9877 72.9456 26.7581 0.0000 0.0000 0.0000
# 3 20.3796 26.7581 81.3994 0.0000 0.0000 0.0000
# 4 0.0000 0.0000 0.0000 33.4600 0.0000 0.0000
# 5 0.0000 0.0000 0.0000 0.0000 34.8747 0.0000
# 6 0.0000 0.0000 0.0000 0.0000 0.0000 27.0730
#
#
#
# Elastic Compliance Matrix: (Units=1/GPa)
#
#
# Indices 1 2 3 4 5 6 
#
# 1 0.012728 -0.000851 -0.002907 0.000000 0.000000 0.000000
# 2 -0.000851 0.015645 -0.004930 0.000000 0.000000 0.000000
# 3 -0.002907 -0.004930 0.014634 0.000000 0.000000 0.000000
# 4 0.000000 0.000000 0.000000 0.029886 0.000000 0.000000
# 5 0.000000 0.000000 0.000000 0.000000 0.028674 0.000000
# 6 0.000000 0.000000 0.000000 0.000000 0.000000 0.036937
#
#
# Mechanical properties :
#
#
# Convention : Reuss Voigt Hill
#
# Bulk Modulus (GPa) = 39.01455 39.39439 39.20447
# Shear Modulus (GPa) = 30.40903 31.09309 30.75106
#
# Velocity S-wave (km/s) = 3.68408 3.72528 3.70474
# Velocity P-wave (km/s) = 5.95902 6.00720 5.98316
#
# Compressibility (1/GPa) = 0.02563146
#
# Stress axis : x y z
#
# Youngs Moduli (GPa) = 78.56475 63.91633 68.33606
#
# Poissons Ratio (x) = 0.05439 0.19866
# Poissons Ratio (y) = 0.06685 0.33690
# Poissons Ratio (z) = 0.22839 0.31511
#
# Static dielectric constant tensor:
#      x y z
#    x 4.259560 0.000000 0.000000 
#    y 0.000000 3.982840 0.000000 
#    z 0.000000 0.000000 4.227310 
# 
# 
# High freq. dielectric constant tensor:
#      x y z
#    x 1.896600 0.000000 0.000000 
#    y 0.000000 1.869360 0.000000 
#    z 0.000000 0.000000 1.897140 
# 
# From -- ./inp_files/6009.got.cif
#   From: 2010.03.12/outbox.cif.g09.slc.cpg/sg61_4_cif.got.tgz:6009.got - 2010.04.10 19:05:03.
