data_PCOD8249984
_publ_section_title
;
Structure prediction by ZEFSAII (Michael W. Deem and Ramdas Pophale) SiO2 
 PCOD8249984
Probable space group: P N M A
;
_chemical_formula_sum "Si O2"
_cell_formula_units_Z 64
_cell_length_a 18.128196
_cell_length_b 8.922396
_cell_length_c 24.978467
_cell_angle_alpha 90.000000
_cell_angle_beta 90.000000
_cell_angle_gamma 90.000000
_cell_volume 4040.190690
_symmetry_space_group_name_H-M "P N M A"
_symmetry_group_IT_number 62
_symmetry_cell_setting 'orthorhombic'
loop_
_space_group_symop_operation_xyz
x,y,z
1/2-x,-y,1/2+z
1/2+x,1/2-y,1/2-z
-x,1/2+y,-z
-x,-y,-z
1/2+x,y,1/2-z
1/2-x,1/2+y,1/2+z
x,1/2-y,z
loop_
_atom_site_type_symbol
_atom_site_label
_atom_site_fract_x
_atom_site_fract_y
_atom_site_fract_z
Si Si1 0.018749 0.082628 0.581769
Si Si2 0.488287 0.917252 0.744542
Si Si3 0.328130 0.574111 0.034458
Si Si4 0.899104 0.920123 0.310378
Si Si5 0.356269 0.072923 0.701424
Si Si6 0.847696 0.916948 0.694860
Si Si7 0.736989 0.572150 0.867114
Si Si8 0.132180 0.074638 0.420387
O O1 0.997736 0.250000 0.564202
O O2 0.088591 0.024297 0.548019
O O3 0.038714 0.078739 0.644235
O O4 0.949589 0.981372 0.567902
O O5 0.505980 0.750000 0.722618
O O6 0.436582 0.905042 0.797470
O O7 0.564917 0.000445 0.758449
O O8 0.441073 0.012420 0.700600
O O9 0.317567 0.750000 0.047780
O O10 0.272476 0.479473 0.071181
O O11 0.315188 0.537948 0.971365
O O12 0.875914 0.750000 0.296047
O O13 0.827344 0.009380 0.329244
O O14 0.354486 0.250000 0.694869
O O15 0.316330 0.024370 0.757875
O O16 0.314432 0.994684 0.652466
O O17 0.812331 0.750000 0.700565
O O18 0.833491 0.988399 0.635554
O O19 0.738057 0.750000 0.863811
O O20 0.124737 0.250000 0.412228
#
# Coordination Sequence:
#
# PCOD8249984 Si02
#       8
#     8   8   8   8   8   8   8   8
#     4   9  16  24  34  50  75 104 138 173 201 232
#     4   9  16  27  42  62  83 103 135 171 207 247
#     4   9  19  30  37  52  77 107 139 170 205 244
#     4  10  18  28  42  61  83 108 139 176 212 248
#     4  10  18  30  46  61  78 105 139 175 212 254
#     4   8  16  27  41  60  79 100 133 171 207 244
#     4  11  21  32  44  58  80 111 143 178 216 255
#     4  10  17  26  40  55  77 105 135 172 206 238
#
# _framework density 15.840837000000001
#
# number of rings (size 3 to 8) (size 9 to 14) (size 15 to 20)
#    0.750    1.750    1.250    3.750    0.000    3.000 
#    0.000    0.000    0.000    0.000    0.000    0.000 
#    0.000    0.000    0.000    1.125    0.000   14.250 
#
# Total GULP energy -792911.627526 kJ/mol
# GULP energy per Si atom -12389.244180 kJ/mol
# Density = 1.580478 g / cm^3
# Si number density = 15.840837 Si / 1000 Ang^3
#
#
#
# Elastic Constant Matrix: (Units=GPa)
#
#
# Indices 1 2 3 4 5 6 
#
# 1 3.5975 0.3036 -8.3123 0.0000 0.0000 0.0000
# 2 0.3036 82.6448 7.0789 0.0000 0.0000 0.0000
# 3 -8.3123 7.0789 33.0147 0.0000 0.0000 0.0000
# 4 0.0000 0.0000 0.0000 20.2000 0.0000 0.0000
# 5 0.0000 0.0000 0.0000 0.0000 18.2054 0.0000
# 6 0.0000 0.0000 0.0000 0.0000 0.0000 19.7552
#
#
#
# Elastic Compliance Matrix: (Units=1/GPa)
#
#
# Indices 1 2 3 4 5 6 
#
# 1 0.689165 -0.017720 0.177314 0.000000 0.000000 0.000000
# 2 -0.017720 0.012782 -0.007202 0.000000 0.000000 0.000000
# 3 0.177314 -0.007202 0.076477 0.000000 0.000000 0.000000
# 4 0.000000 0.000000 0.000000 0.049505 0.000000 0.000000
# 5 0.000000 0.000000 0.000000 0.000000 0.054929 0.000000
# 6 0.000000 0.000000 0.000000 0.000000 0.000000 0.050620
#
#
# Mechanical properties :
#
#
# Convention : Reuss Voigt Hill
#
# Bulk Modulus (GPa) = 0.92318 13.04416 6.98367
# Shear Modulus (GPa) = 5.05172 19.64457 12.34814
#
# Velocity S-wave (km/s) = 1.78773 3.52536 2.79501
# Velocity P-wave (km/s) = 2.20122 4.98229 3.85153
#
# Compressibility (1/GPa) = 1.08320820
#
# Stress axis : x y z
#
# Youngs Moduli (GPa) = 1.45103 78.23527 13.07582
#
# Poissons Ratio (x) = 1.38630 -2.31853
# Poissons Ratio (y) = 0.02571 0.09417
# Poissons Ratio (z) = -0.25729 0.56345
#
# Static dielectric constant tensor:
#      x y z
#    x 2.552860 0.000000 0.000000 
#    y 0.000000 3.026140 0.000000 
#    z 0.000000 0.000000 2.942090 
# 
# 
# High freq. dielectric constant tensor:
#      x y z
#    x 1.551950 0.000000 0.000000 
#    y 0.000000 1.617150 0.000000 
#    z 0.000000 0.000000 1.584880 
# 
# From -- ./inp_files/31356.got.cif
#   From: 2010.03.12/outbox.cif.g09.slc.cpg/sg62_16_cif.got.tgz:31356.got - 2010.04.10 19:12:36.
