data_PCOD8249233
_publ_section_title
;
Structure prediction by ZEFSAII (Michael W. Deem and Ramdas Pophale) SiO2 
 PCOD8249233
Probable space group: P B C A
;
_chemical_formula_sum "Si O2"
_cell_formula_units_Z 40
_cell_length_a 10.293470
_cell_length_b 12.567759
_cell_length_c 11.838882
_cell_angle_alpha 90.000000
_cell_angle_beta 90.000000
_cell_angle_gamma 90.000000
_cell_volume 1531.547036
_symmetry_space_group_name_H-M "P B C A"
_symmetry_group_IT_number 61
_symmetry_cell_setting 'orthorhombic'
loop_
_space_group_symop_operation_xyz
x,y,z
1/2-x,-y,1/2+z
1/2+x,1/2-y,-z
-x,1/2+y,1/2-z
-x,-y,-z
1/2+x,y,1/2-z
1/2-x,1/2+y,z
x,1/2-y,1/2+z
loop_
_atom_site_type_symbol
_atom_site_label
_atom_site_fract_x
_atom_site_fract_y
_atom_site_fract_z
Si Si1 0.808650 0.298826 0.300245
Si Si2 0.269959 0.517737 0.279064
Si Si3 0.095871 0.903679 0.978070
Si Si4 0.459741 0.748716 0.174851
Si Si5 0.462057 0.503290 0.631914
O O1 0.779764 0.388462 0.204793
O O2 0.824014 0.366148 0.414159
O O3 0.689321 0.212386 0.298379
O O4 0.936592 0.228452 0.275244
O O5 0.203837 0.564885 0.388964
O O6 0.179646 0.546312 0.167843
O O7 0.425161 0.551559 0.285283
O O8 0.007845 0.804993 0.939420
O O9 0.000000 0.000000 0.000000
O O10 0.446959 0.874231 0.162077
O O11 0.500000 0.500000 0.500000
#
# Coordination Sequence:
#
# PCOD8249233 Si02
#       5
#     8   8   8   8   8
#     4  10  23  45  66  97 138 180 235 287 350 425
#     4  10  21  39  63  93 130 172 221 277 337 413
#     4  12  25  41  68 102 139 181 231 295 356 419
#     4  10  24  42  66  96 133 178 228 288 346 423
#     4  10  21  41  66  94 133 179 227 283 345 412
#
# _framework density 26.117381999999999
#
# number of rings (size 3 to 8) (size 9 to 14) (size 15 to 20)
#    0.000    1.600    0.000    6.000    0.000    9.600 
#    0.000    0.000    0.000    0.000    0.000    0.000 
#    0.000    0.000    0.000    0.000    0.000    0.000 
#
# Total GULP energy -495561.514010 kJ/mol
# GULP energy per Si atom -12389.037850 kJ/mol
# Density = 2.605794 g / cm^3
# Si number density = 26.117382 Si / 1000 Ang^3
#
#
#
# Elastic Constant Matrix: (Units=GPa)
#
#
# Indices 1 2 3 4 5 6 
#
# 1 250.8271 53.4739 70.4865 0.0000 0.0000 0.0000
# 2 53.4739 21.9842 19.8417 0.0000 0.0000 0.0000
# 3 70.4865 19.8417 113.4950 0.0000 0.0000 0.0000
# 4 0.0000 0.0000 0.0000 29.4638 0.0000 0.0000
# 5 0.0000 0.0000 0.0000 0.0000 42.3043 0.0000
# 6 0.0000 0.0000 0.0000 0.0000 0.0000 45.7450
#
#
#
# Elastic Compliance Matrix: (Units=1/GPa)
#
#
# Indices 1 2 3 4 5 6 
#
# 1 0.008651 -0.019228 -0.002011 0.000000 0.000000 0.000000
# 2 -0.019228 0.096743 -0.004972 0.000000 0.000000 0.000000
# 3 -0.002011 -0.004972 0.010929 0.000000 0.000000 0.000000
# 4 0.000000 0.000000 0.000000 0.033940 0.000000 0.000000
# 5 0.000000 0.000000 0.000000 0.000000 0.023638 0.000000
# 6 0.000000 0.000000 0.000000 0.000000 0.000000 0.021860
#
#
# Mechanical properties :
#
#
# Convention : Reuss Voigt Hill
#
# Bulk Modulus (GPa) = 15.64891 74.87895 45.26393
# Shear Modulus (GPa) = 18.55397 39.66958 29.11177
#
# Velocity S-wave (km/s) = 2.66824 3.90153 3.34226
# Velocity P-wave (km/s) = 3.93668 7.00202 5.68004
#
# Compressibility (1/GPa) = 0.06390220
#
# Stress axis : x y z
#
# Youngs Moduli (GPa) = 115.59133 10.33666 91.49690
#
# Poissons Ratio (x) = 0.19875 0.18404
# Poissons Ratio (y) = 2.22254 0.45490
# Poissons Ratio (z) = 0.23250 0.05139
#
# Static dielectric constant tensor:
#      x y z
#    x 6.166000 0.000000 0.000000 
#    y 0.000000 4.421890 0.000000 
#    z 0.000000 0.000000 4.797320 
# 
# 
# High freq. dielectric constant tensor:
#      x y z
#    x 2.089020 0.000000 0.000000 
#    y 0.000000 2.069950 0.000000 
#    z 0.000000 0.000000 2.012790 
# 
# From -- ./inp_files/5114.got.cif
#   From: 2010.03.12/outbox.cif.g09.slc.cpg/sg61_3_cif.got.tgz:5114.got - 2010.04.10 19:05:03.
