data_PCOD8249628
_publ_section_title
;
Structure prediction by ZEFSAII (Michael W. Deem and Ramdas Pophale) SiO2 
 PCOD8249628
Probable space group: P B C A
;
_chemical_formula_sum "Si O2"
_cell_formula_units_Z 56
_cell_length_a 21.011049
_cell_length_b 8.404640
_cell_length_c 15.464288
_cell_angle_alpha 90.000000
_cell_angle_beta 90.000000
_cell_angle_gamma 90.000000
_cell_volume 2730.843302
_symmetry_space_group_name_H-M "P B C A"
_symmetry_group_IT_number 61
_symmetry_cell_setting 'orthorhombic'
loop_
_space_group_symop_operation_xyz
x,y,z
1/2-x,-y,1/2+z
1/2+x,1/2-y,-z
-x,1/2+y,1/2-z
-x,-y,-z
1/2+x,y,1/2-z
1/2-x,1/2+y,z
x,1/2-y,1/2+z
loop_
_atom_site_type_symbol
_atom_site_label
_atom_site_fract_x
_atom_site_fract_y
_atom_site_fract_z
Si Si1 0.676864 0.661684 0.880908
Si Si2 0.435091 0.564286 0.102242
Si Si3 0.617112 0.269289 0.255035
Si Si4 0.920664 0.962735 0.091454
Si Si5 0.789549 0.012906 0.309468
Si Si6 0.317328 0.225880 0.426769
Si Si7 0.709878 0.046131 0.155643
O O1 0.608335 0.582109 0.863669
O O2 0.733768 0.531039 0.877981
O O3 0.690846 0.801580 0.812237
O O4 0.674860 0.749200 0.971998
O O5 0.432752 0.699672 0.175664
O O6 0.508314 0.524798 0.094665
O O7 0.409006 0.611597 0.005258
O O8 0.584884 0.332986 0.167238
O O9 0.649097 0.401620 0.316890
O O10 0.665439 0.133376 0.224822
O O11 0.870684 0.105000 0.109629
O O12 0.765829 0.970542 0.213068
O O13 0.328240 0.402403 0.388982
O O14 0.244792 0.164645 0.411311
#
# Coordination Sequence:
#
# PCOD8249628 Si02
#       7
#     8   8   8   8   8   8   8
#     4  11  22  38  62  88 123 164 204 256 317 370
#     4  10  24  45  64  90 127 167 212 259 304 365
#     4  12  24  38  68  92 124 168 204 260 312 374
#     4  10  24  45  64  90 127 167 212 259 304 365
#     4  12  21  37  60  92 126 155 200 256 314 374
#     4  11  22  38  62  88 123 164 204 256 317 370
#     4  12  21  37  60  92 126 155 200 256 314 374
#
# _framework density 20.506485999999999
#
# number of rings (size 3 to 8) (size 9 to 14) (size 15 to 20)
#    0.000    0.857    5.714    0.857    0.000    6.857 
#    0.000    0.000    0.000    6.000    0.000    0.000 
#    0.000    0.000    0.000    0.000    0.000    0.000 
#
# Total GULP energy -694115.846482 kJ/mol
# GULP energy per Si atom -12394.925830 kJ/mol
# Density = 2.045981 g / cm^3
# Si number density = 20.506486 Si / 1000 Ang^3
#
#
#
# Elastic Constant Matrix: (Units=GPa)
#
#
# Indices 1 2 3 4 5 6 
#
# 1 77.9193 23.7312 30.6231 0.0000 0.0000 0.0000
# 2 23.7312 85.2611 37.7061 0.0000 0.0000 0.0000
# 3 30.6231 37.7061 87.7346 0.0000 0.0000 0.0000
# 4 0.0000 0.0000 0.0000 40.0164 0.0000 0.0000
# 5 0.0000 0.0000 0.0000 0.0000 31.0151 0.0000
# 6 0.0000 0.0000 0.0000 0.0000 0.0000 18.0909
#
#
#
# Elastic Compliance Matrix: (Units=1/GPa)
#
#
# Indices 1 2 3 4 5 6 
#
# 1 0.015241 -0.002333 -0.004317 0.000000 0.000000 0.000000
# 2 -0.002333 0.014838 -0.005563 0.000000 0.000000 0.000000
# 3 -0.004317 -0.005563 0.015296 0.000000 0.000000 0.000000
# 4 0.000000 0.000000 0.000000 0.024990 0.000000 0.000000
# 5 0.000000 0.000000 0.000000 0.000000 0.032242 0.000000
# 6 0.000000 0.000000 0.000000 0.000000 0.000000 0.055277
#
#
# Mechanical properties :
#
#
# Convention : Reuss Voigt Hill
#
# Bulk Modulus (GPa) = 47.73471 48.33732 48.03601
# Shear Modulus (GPa) = 26.41423 28.41478 27.41450
#
# Velocity S-wave (km/s) = 3.59289 3.72647 3.66029
# Velocity P-wave (km/s) = 6.36712 6.49140 6.42956
#
# Compressibility (1/GPa) = 0.02094912
#
# Stress axis : x y z
#
# Youngs Moduli (GPa) = 65.61259 67.39411 65.37821
#
# Poissons Ratio (x) = 0.15722 0.28225
# Poissons Ratio (y) = 0.15307 0.36368
# Poissons Ratio (z) = 0.28326 0.37490
#
# Static dielectric constant tensor:
#      x y z
#    x 3.614260 0.000000 0.000000 
#    y 0.000000 3.592670 0.000000 
#    z 0.000000 0.000000 3.945060 
# 
# 
# High freq. dielectric constant tensor:
#      x y z
#    x 1.787840 0.000000 0.000000 
#    y 0.000000 1.794630 0.000000 
#    z 0.000000 0.000000 1.816730 
# 
# From -- ./inp_files/8359.got.cif
#   From: 2010.03.12/outbox.cif.g09.slc.cpg/sg61_5_cif.got.tgz:8359.got - 2010.04.10 19:05:03.
