data_PCOD8249040
_publ_section_title
;
Structure prediction by ZEFSAII (Michael W. Deem and Ramdas Pophale) SiO2 
 PCOD8249040
Probable space group: P B C A
;
_chemical_formula_sum "Si O2"
_cell_formula_units_Z 56
_cell_length_a 10.506690
_cell_length_b 23.593305
_cell_length_c 11.222072
_cell_angle_alpha 90.000000
_cell_angle_beta 90.000000
_cell_angle_gamma 90.000000
_cell_volume 2781.811841
_symmetry_space_group_name_H-M "P B C A"
_symmetry_group_IT_number 61
_symmetry_cell_setting 'orthorhombic'
loop_
_space_group_symop_operation_xyz
x,y,z
1/2-x,-y,1/2+z
1/2+x,1/2-y,-z
-x,1/2+y,1/2-z
-x,-y,-z
1/2+x,y,1/2-z
1/2-x,1/2+y,z
x,1/2-y,1/2+z
loop_
_atom_site_type_symbol
_atom_site_label
_atom_site_fract_x
_atom_site_fract_y
_atom_site_fract_z
Si Si1 0.857728 0.773760 0.651599
Si Si2 0.217679 0.159977 0.962620
Si Si3 0.500000 0.590786 0.056170
Si Si4 0.782320 0.159978 0.962621
Si Si5 0.749999 0.077097 0.750001
Si Si6 0.142273 0.726239 0.151598
Si Si7 0.000001 0.519669 0.683759
O O1 0.855647 0.708853 0.609425
O O2 0.834501 0.814113 0.537411
O O3 0.750001 0.784991 0.750001
O O4 0.000001 0.786354 0.702072
O O5 0.267249 0.114885 0.867434
O O6 0.123934 0.130414 0.057517
O O7 0.334500 0.185887 0.037410
O O8 0.500000 0.548570 0.168947
O O9 0.623935 0.630413 0.057517
O O10 0.500000 0.552680 0.939331
O O11 0.732750 0.114886 0.867435
O O12 0.855646 0.208853 0.890577
O O13 0.873339 0.037113 0.746211
O O14 0.626657 0.037114 0.753790
#
# Coordination Sequence:
#
# PCOD8249040 Si02
#       7
#     8   8   8   8   8   8   8
#     4  11  24  38  59  95 129 173 207 257 307 399
#     4  10  21  38  64  89 130 161 210 255 324 374
#     4   9  18  40  59  86 119 166 199 256 315 360
#     4  10  21  38  64  89 130 161 210 255 324 374
#     4  10  20  38  66  96 116 170 206 266 314 378
#     4  11  24  38  59  95 129 173 207 257 307 399
#     4   9  20  36  65  87 116 153 216 257 304 368
#
# _framework density 20.130765
#
# number of rings (size 3 to 8) (size 9 to 14) (size 15 to 20)
#    0.000    2.000    2.857    0.000    4.000    1.143 
#    2.571    0.000    0.000    3.429    0.000    0.000 
#    0.000    0.000    0.000    0.000    0.000    0.000 
#
# Total GULP energy -694328.860502 kJ/mol
# GULP energy per Si atom -12398.729652 kJ/mol
# Density = 2.008495 g / cm^3
# Si number density = 20.130765 Si / 1000 Ang^3
#
#
#
# Elastic Constant Matrix: (Units=GPa)
#
#
# Indices 1 2 3 4 5 6 
#
# 1 169.3076 42.2697 55.9835 0.0000 0.0000 0.0000
# 2 42.2697 73.7684 39.6840 0.0000 0.0000 0.0000
# 3 55.9835 39.6840 72.9678 0.0000 0.0000 0.0000
# 4 0.0000 0.0000 0.0000 39.7863 0.0000 0.0000
# 5 0.0000 0.0000 0.0000 0.0000 31.2250 0.0000
# 6 0.0000 0.0000 0.0000 0.0000 0.0000 17.7821
#
#
#
# Elastic Compliance Matrix: (Units=1/GPa)
#
#
# Indices 1 2 3 4 5 6 
#
# 1 0.008086 -0.001832 -0.005207 0.000000 0.000000 0.000000
# 2 -0.001832 0.019577 -0.009242 0.000000 0.000000 0.000000
# 3 -0.005207 -0.009242 0.022726 0.000000 0.000000 0.000000
# 4 0.000000 0.000000 0.000000 0.025134 0.000000 0.000000
# 5 0.000000 0.000000 0.000000 0.000000 0.032026 0.000000
# 6 0.000000 0.000000 0.000000 0.000000 0.000000 0.056236
#
#
# Mechanical properties :
#
#
# Convention : Reuss Voigt Hill
#
# Bulk Modulus (GPa) = 56.09422 65.76869 60.93146
# Shear Modulus (GPa) = 24.71709 29.63246 27.17478
#
# Velocity S-wave (km/s) = 3.50784 3.84083 3.67810
# Velocity P-wave (km/s) = 6.65823 7.23954 6.95496
#
# Compressibility (1/GPa) = 0.01782715
#
# Stress axis : x y z
#
# Youngs Moduli (GPa) = 123.67655 51.07983 44.00223
#
# Poissons Ratio (x) = 0.09357 0.22913
# Poissons Ratio (y) = 0.22655 0.40666
# Poissons Ratio (z) = 0.64403 0.47207
#
# Static dielectric constant tensor:
#      x y z
#    x 3.576900 0.000000 0.000000 
#    y 0.000000 3.881190 0.000000 
#    z 0.000000 0.000000 3.436040 
# 
# 
# High freq. dielectric constant tensor:
#      x y z
#    x 1.784020 0.000000 0.000000 
#    y 0.000000 1.790320 0.000000 
#    z 0.000000 0.000000 1.766470 
# 
# From -- ./inp_files/5362.got.cif
#   From: 2010.03.12/outbox.cif.g09.slc.cpg/sg61_3_cif.got.tgz:5362.got - 2010.04.10 19:05:03.
