data_PCOD8249747
_publ_section_title
;
Structure prediction by ZEFSAII (Michael W. Deem and Ramdas Pophale) SiO2 
 PCOD8249747
Probable space group: P B C A
;
_chemical_formula_sum "Si O2"
_cell_formula_units_Z 64
_cell_length_a 14.544423
_cell_length_b 16.672968
_cell_length_c 12.075091
_cell_angle_alpha 90.000000
_cell_angle_beta 90.000000
_cell_angle_gamma 90.000000
_cell_volume 2928.193861
_symmetry_space_group_name_H-M "P B C A"
_symmetry_group_IT_number 61
_symmetry_cell_setting 'orthorhombic'
loop_
_space_group_symop_operation_xyz
x,y,z
1/2-x,-y,1/2+z
1/2+x,1/2-y,-z
-x,1/2+y,1/2-z
-x,-y,-z
1/2+x,y,1/2-z
1/2-x,1/2+y,z
x,1/2-y,1/2+z
loop_
_atom_site_type_symbol
_atom_site_label
_atom_site_fract_x
_atom_site_fract_y
_atom_site_fract_z
Si Si1 0.517409 0.863745 0.216584
Si Si2 0.171069 0.938164 0.152626
Si Si3 0.320185 0.822829 0.473920
Si Si4 0.458229 0.722293 0.350509
Si Si5 0.889069 0.279726 0.029268
Si Si6 0.650986 0.452215 0.216075
Si Si7 0.580271 0.398102 0.831943
Si Si8 0.115155 0.899618 0.911447
O O1 0.606027 0.871316 0.294691
O O2 0.458707 0.787353 0.253232
O O3 0.554298 0.848549 0.093469
O O4 0.449268 0.940118 0.226576
O O5 0.274597 0.924782 0.193825
O O6 0.139386 0.024287 0.195086
O O7 0.165983 0.928693 0.021613
O O8 0.369985 0.742476 0.427446
O O9 0.212736 0.810278 0.492927
O O10 0.339943 0.899447 0.395739
O O11 0.359668 0.836667 0.596256
O O12 0.554655 0.730357 0.415926
O O13 0.447181 0.637522 0.288486
O O14 0.879502 0.197006 0.100737
O O15 0.661953 0.547157 0.186250
O O16 0.492652 0.422125 0.907742
#
# Coordination Sequence:
#
# PCOD8249747 Si02
#       8
#     8   8   8   8   8   8   8   8
#     4  11  22  45  67  98 141 179 233 287 353 412
#     4  12  24  43  72 103 133 188 236 285 347 435
#     4  11  24  44  69 100 140 184 228 295 353 425
#     4  11  24  42  68 103 136 184 234 293 350 412
#     4  12  25  43  72 105 147 180 234 299 364 415
#     4  11  25  44  71 101 141 189 234 284 357 424
#     4  12  24  45  72 100 136 184 248 286 349 432
#     4  12  23  45  72  99 137 193 235 284 357 427
#
# _framework density 21.856477000000002
#
# number of rings (size 3 to 8) (size 9 to 14) (size 15 to 20)
#    0.000    0.500    7.500    1.125    1.750    5.000 
#    0.000    0.625    0.000    0.000    0.000    0.000 
#    0.000    0.000    0.000    0.000    0.000    0.000 
#
# Total GULP energy -793534.802387 kJ/mol
# GULP energy per Si atom -12398.981287 kJ/mol
# Density = 2.180673 g / cm^3
# Si number density = 21.856477 Si / 1000 Ang^3
#
#
#
# Elastic Constant Matrix: (Units=GPa)
#
#
# Indices 1 2 3 4 5 6 
#
# 1 130.1769 12.4621 45.3614 0.0000 0.0000 0.0000
# 2 12.4621 73.0610 36.7968 0.0000 0.0000 0.0000
# 3 45.3614 36.7968 76.3667 0.0000 0.0000 0.0000
# 4 0.0000 0.0000 0.0000 34.9643 0.0000 0.0000
# 5 0.0000 0.0000 0.0000 0.0000 32.5742 0.0000
# 6 0.0000 0.0000 0.0000 0.0000 0.0000 27.7948
#
#
#
# Elastic Compliance Matrix: (Units=1/GPa)
#
#
# Indices 1 2 3 4 5 6 
#
# 1 0.009839 0.001671 -0.006649 0.000000 0.000000 0.000000
# 2 0.001671 0.018357 -0.009837 0.000000 0.000000 0.000000
# 3 -0.006649 -0.009837 0.021784 0.000000 0.000000 0.000000
# 4 0.000000 0.000000 0.000000 0.028601 0.000000 0.000000
# 5 0.000000 0.000000 0.000000 0.000000 0.030699 0.000000
# 6 0.000000 0.000000 0.000000 0.000000 0.000000 0.035978
#
#
# Mechanical properties :
#
#
# Convention : Reuss Voigt Hill
#
# Bulk Modulus (GPa) = 49.14481 52.09391 50.61936
# Shear Modulus (GPa) = 27.52201 31.39896 29.46048
#
# Velocity S-wave (km/s) = 3.55239 3.79436 3.67537
# Velocity P-wave (km/s) = 6.27376 6.56373 6.42038
#
# Compressibility (1/GPa) = 0.02034803
#
# Stress axis : x y z
#
# Youngs Moduli (GPa) = 101.63723 54.47557 45.90427
#
# Poissons Ratio (x) = -0.09101 0.30523
# Poissons Ratio (y) = -0.16980 0.45158
# Poissons Ratio (z) = 0.67581 0.53590
#
# Static dielectric constant tensor:
#      x y z
#    x 3.936650 0.000000 0.000000 
#    y 0.000000 3.986350 0.000000 
#    z 0.000000 0.000000 3.758760 
# 
# 
# High freq. dielectric constant tensor:
#      x y z
#    x 1.864730 0.000000 0.000000 
#    y 0.000000 1.855470 0.000000 
#    z 0.000000 0.000000 1.845030 
# 
# From -- ./inp_files/6003.got.cif
#   From: 2010.03.12/outbox.cif.g09.slc.cpg/sg61_4_cif.got.tgz:6003.got - 2010.04.10 19:05:03.
