data_PCOD8249252
_publ_section_title
;
Structure prediction by ZEFSAII (Michael W. Deem and Ramdas Pophale) SiO2 
 PCOD8249252
Probable space group: P B C A
;
_chemical_formula_sum "Si O2"
_cell_formula_units_Z 56
_cell_length_a 17.031578
_cell_length_b 14.139508
_cell_length_c 9.701884
_cell_angle_alpha 90.000000
_cell_angle_beta 90.000000
_cell_angle_gamma 90.000000
_cell_volume 2336.389595
_symmetry_space_group_name_H-M "P B C A"
_symmetry_group_IT_number 61
_symmetry_cell_setting 'orthorhombic'
loop_
_space_group_symop_operation_xyz
x,y,z
1/2-x,-y,1/2+z
1/2+x,1/2-y,-z
-x,1/2+y,1/2-z
-x,-y,-z
1/2+x,y,1/2-z
1/2-x,1/2+y,z
x,1/2-y,1/2+z
loop_
_atom_site_type_symbol
_atom_site_label
_atom_site_fract_x
_atom_site_fract_y
_atom_site_fract_z
Si Si1 0.778910 0.802886 0.751551
Si Si2 0.503256 0.758776 0.974639
Si Si3 0.880438 0.589852 0.024608
Si Si4 0.876534 0.041005 0.756185
Si Si5 0.202362 0.078898 0.749675
Si Si6 0.880538 0.899861 0.980555
Si Si7 0.104955 0.758940 0.771354
O O1 0.821776 0.847449 0.619230
O O2 0.789131 0.691141 0.744049
O O3 0.816005 0.839052 0.894829
O O4 0.684494 0.820169 0.746629
O O5 0.577826 0.737190 0.071088
O O6 0.451196 0.845138 0.030811
O O7 0.451238 0.664654 0.964859
O O8 0.535099 0.795672 0.826918
O O9 0.912190 0.500612 0.113696
O O10 0.840101 0.546973 0.889856
O O11 0.783011 0.020256 0.750257
O O12 0.887915 0.150831 0.777428
O O13 0.914108 0.983613 0.883822
O O14 0.156614 0.048263 0.887223
#
# Coordination Sequence:
#
# PCOD8249252 Si02
#       7
#     8   8   8   8   8   8   8
#     4  10  21  39  68  96 127 165 222 280 317 386
#     4  12  24  44  70  94 132 184 222 262 328 412
#     4  11  22  43  71  96 127 178 227 268 328 403
#     4  10  25  40  63  99 142 164 220 278 342 374
#     4  11  19  37  68 101 122 162 220 283 313 382
#     4  11  22  43  71  96 127 178 227 268 328 403
#     4  11  27  42  65 100 139 169 218 281 336 384
#
# _framework density 23.968606000000001
#
# number of rings (size 3 to 8) (size 9 to 14) (size 15 to 20)
#    0.000    1.143    2.857    3.429    8.000    1.143 
#    0.000    0.000    0.000    0.000    0.000    0.000 
#    0.000    0.000    0.000    0.000    0.000    0.000 
#
# Total GULP energy -694497.434388 kJ/mol
# GULP energy per Si atom -12401.739900 kJ/mol
# Density = 2.391405 g / cm^3
# Si number density = 23.968606 Si / 1000 Ang^3
#
#
#
# Elastic Constant Matrix: (Units=GPa)
#
#
# Indices 1 2 3 4 5 6 
#
# 1 86.8011 -5.5064 11.5997 0.0000 0.0000 0.0000
# 2 -5.5064 23.0997 -10.3735 0.0000 0.0000 0.0000
# 3 11.5997 -10.3735 133.6814 0.0000 0.0000 0.0000
# 4 0.0000 0.0000 0.0000 27.2605 0.0000 0.0000
# 5 0.0000 0.0000 0.0000 0.0000 22.9434 0.0000
# 6 0.0000 0.0000 0.0000 0.0000 0.0000 25.8240
#
#
#
# Elastic Compliance Matrix: (Units=1/GPa)
#
#
# Indices 1 2 3 4 5 6 
#
# 1 0.011786 0.002435 -0.000834 0.000000 0.000000 0.000000
# 2 0.002435 0.045357 0.003308 0.000000 0.000000 0.000000
# 3 -0.000834 0.003308 0.007810 0.000000 0.000000 0.000000
# 4 0.000000 0.000000 0.000000 0.036683 0.000000 0.000000
# 5 0.000000 0.000000 0.000000 0.000000 0.043586 0.000000
# 6 0.000000 0.000000 0.000000 0.000000 0.000000 0.038724
#
#
# Mechanical properties :
#
#
# Convention : Reuss Voigt Hill
#
# Bulk Modulus (GPa) = 13.37392 26.11352 19.74372
# Shear Modulus (GPa) = 25.11936 31.72975 28.42456
#
# Velocity S-wave (km/s) = 3.24081 3.64236 3.44744
# Velocity P-wave (km/s) = 4.42670 5.34861 4.90934
#
# Compressibility (1/GPa) = 0.07477241
#
# Stress axis : x y z
#
# Youngs Moduli (GPa) = 84.84290 22.04740 128.04848
#
# Poissons Ratio (x) = -0.05369 0.10676
# Poissons Ratio (y) = -0.20661 -0.42363
# Poissons Ratio (z) = 0.07074 -0.07294
#
# Static dielectric constant tensor:
#      x y z
#    x 4.367150 0.000000 0.000000 
#    y 0.000000 4.204700 0.000000 
#    z 0.000000 0.000000 4.273130 
# 
# 
# High freq. dielectric constant tensor:
#      x y z
#    x 1.941600 0.000000 0.000000 
#    y 0.000000 1.949360 0.000000 
#    z 0.000000 0.000000 1.958270 
# 
# From -- ./inp_files/5808.got.cif
#   From: 2010.03.12/outbox.cif.g09.slc.cpg/sg61_3_cif.got.tgz:5808.got - 2010.04.10 19:05:03.
