data_PCOD8249311
_publ_section_title
;
Structure prediction by ZEFSAII (Michael W. Deem and Ramdas Pophale) SiO2 
 PCOD8249311
Probable space group: P B C A
;
_chemical_formula_sum "Si O2"
_cell_formula_units_Z 64
_cell_length_a 8.905717
_cell_length_b 16.914714
_cell_length_c 21.272493
_cell_angle_alpha 90.000000
_cell_angle_beta 90.000000
_cell_angle_gamma 90.000000
_cell_volume 3204.438483
_symmetry_space_group_name_H-M "P B C A"
_symmetry_group_IT_number 61
_symmetry_cell_setting 'orthorhombic'
loop_
_space_group_symop_operation_xyz
x,y,z
1/2-x,-y,1/2+z
1/2+x,1/2-y,-z
-x,1/2+y,1/2-z
-x,-y,-z
1/2+x,y,1/2-z
1/2-x,1/2+y,z
x,1/2-y,1/2+z
loop_
_atom_site_type_symbol
_atom_site_label
_atom_site_fract_x
_atom_site_fract_y
_atom_site_fract_z
Si Si1 0.016018 0.324145 0.956132
Si Si2 0.108010 0.174415 0.678396
Si Si3 0.036754 0.345193 0.645907
Si Si4 0.846950 0.430879 0.866968
Si Si5 0.841647 0.414376 0.238456
Si Si6 0.665916 0.087860 0.944538
Si Si7 0.346216 0.311382 0.975424
Si Si8 0.086615 0.977414 0.774889
O O1 0.183204 0.286872 0.945949
O O2 0.958383 0.362260 0.891021
O O3 0.024983 0.393672 0.009178
O O4 0.900616 0.257334 0.978181
O O5 0.080094 0.267531 0.685060
O O6 0.239363 0.149463 0.725963
O O7 0.161142 0.154348 0.609136
O O8 0.950896 0.129996 0.690745
O O9 0.181424 0.397760 0.636592
O O10 0.966471 0.324719 0.578930
O O11 0.919543 0.395446 0.687732
O O12 0.841898 0.500544 0.918055
O O13 0.903092 0.463521 0.800304
O O14 0.732858 0.474968 0.200936
O O15 0.939898 0.467693 0.287038
O O16 0.820000 0.107828 0.983636
#
# Coordination Sequence:
#
# PCOD8249311 Si02
#       8
#     8   8   8   8   8   8   8   8
#     4  10  22  41  65  94 127 176 222 271 339 393
#     4  11  22  43  67  92 134 173 218 272 328 402
#     4  12  25  42  65  99 136 171 226 279 336 398
#     4  12  23  42  67  93 135 173 219 283 335 406
#     4  10  22  42  67  91 133 173 219 261 334 396
#     4  10  21  41  70  91 128 176 214 268 340 390
#     4  10  23  42  65  94 132 170 222 277 325 404
#     4  11  23  42  65  98 132 175 215 282 334 401
#
# _framework density 19.972299
#
# number of rings (size 3 to 8) (size 9 to 14) (size 15 to 20)
#    0.750    0.500    5.000    1.875    3.500    0.500 
#    0.000    2.500    0.000    0.000    0.000    0.000 
#    0.000    0.000    0.000    0.000    0.000    0.000 
#
# Total GULP energy -793263.995053 kJ/mol
# GULP energy per Si atom -12394.749923 kJ/mol
# Density = 1.992684 g / cm^3
# Si number density = 19.972299 Si / 1000 Ang^3
#
#
#
# Elastic Constant Matrix: (Units=GPa)
#
#
# Indices 1 2 3 4 5 6 
#
# 1 96.6548 24.4527 19.9709 0.0000 0.0000 0.0000
# 2 24.4527 73.9796 27.3282 0.0000 0.0000 0.0000
# 3 19.9709 27.3282 68.2127 0.0000 0.0000 0.0000
# 4 0.0000 0.0000 0.0000 25.0090 0.0000 0.0000
# 5 0.0000 0.0000 0.0000 0.0000 24.6994 0.0000
# 6 0.0000 0.0000 0.0000 0.0000 0.0000 35.9466
#
#
#
# Elastic Compliance Matrix: (Units=1/GPa)
#
#
# Indices 1 2 3 4 5 6 
#
# 1 0.011559 -0.003017 -0.002175 0.000000 0.000000 0.000000
# 2 -0.003017 0.016653 -0.005788 0.000000 0.000000 0.000000
# 3 -0.002175 -0.005788 0.017616 0.000000 0.000000 0.000000
# 4 0.000000 0.000000 0.000000 0.039986 0.000000 0.000000
# 5 0.000000 0.000000 0.000000 0.000000 0.040487 0.000000
# 6 0.000000 0.000000 0.000000 0.000000 0.000000 0.027819
#
#
# Mechanical properties :
#
#
# Convention : Reuss Voigt Hill
#
# Bulk Modulus (GPa) = 41.90058 42.48340 42.19199
# Shear Modulus (GPa) = 27.16865 28.27068 27.71967
#
# Velocity S-wave (km/s) = 3.69225 3.76639 3.72950
# Velocity P-wave (km/s) = 6.26114 6.34284 6.30212
#
# Compressibility (1/GPa) = 0.02386602
#
# Stress axis : x y z
#
# Youngs Moduli (GPa) = 86.51378 60.05041 56.76681
#
# Poissons Ratio (x) = 0.18117 0.12349
# Poissons Ratio (y) = 0.26101 0.32858
# Poissons Ratio (z) = 0.18820 0.34759
#
# Static dielectric constant tensor:
#      x y z
#    x 3.699170 0.000000 0.000000 
#    y 0.000000 3.706660 0.000000 
#    z 0.000000 0.000000 3.495700 
# 
# 
# High freq. dielectric constant tensor:
#      x y z
#    x 1.785830 0.000000 0.000000 
#    y 0.000000 1.783820 0.000000 
#    z 0.000000 0.000000 1.765450 
# 
# From -- ./inp_files/10177.got.cif
#   From: 2010.03.12/outbox.cif.g09.slc.cpg/sg61_6_cif.got.tgz:10177.got - 2010.04.10 19:05:03.
