data_PCOD8249960
_publ_section_title
;
Structure prediction by ZEFSAII (Michael W. Deem and Ramdas Pophale) SiO2 
 PCOD8249960
Probable space group: P N M A
;
_chemical_formula_sum "Si O2"
_cell_formula_units_Z 40
_cell_length_a 8.536667
_cell_length_b 13.220725
_cell_length_c 19.418427
_cell_angle_alpha 90.000000
_cell_angle_beta 90.000000
_cell_angle_gamma 90.000000
_cell_volume 2191.581669
_symmetry_space_group_name_H-M "P N M A"
_symmetry_group_IT_number 62
_symmetry_cell_setting 'orthorhombic'
loop_
_space_group_symop_operation_xyz
x,y,z
1/2-x,-y,1/2+z
1/2+x,1/2-y,1/2-z
-x,1/2+y,-z
-x,-y,-z
1/2+x,y,1/2-z
1/2-x,1/2+y,1/2+z
x,1/2-y,z
loop_
_atom_site_type_symbol
_atom_site_label
_atom_site_fract_x
_atom_site_fract_y
_atom_site_fract_z
Si Si1 0.761511 0.250000 0.726413
Si Si2 0.230799 0.460054 0.823923
Si Si3 0.851219 0.357805 0.343405
Si Si4 0.053596 0.075635 0.222371
Si Si5 0.002840 0.462949 0.577656
Si Si6 0.423162 0.750000 0.143296
O O1 0.678075 0.153909 0.691540
O O2 0.735985 0.250000 0.810197
O O3 0.943760 0.250000 0.702854
O O4 0.344577 0.490211 0.760850
O O5 0.324981 0.472073 0.895202
O O6 0.073855 0.525775 0.828556
O O7 0.881734 0.250000 0.382270
O O8 0.668832 0.356143 0.322606
O O9 0.962450 0.355444 0.276793
O O10 0.881761 0.457096 0.387271
O O11 0.000000 0.500000 0.500000
O O12 0.066719 0.349291 0.593690
#
# Coordination Sequence:
#
# PCOD8249960 Si02
#       6
#     4   8   8   8   8   4
#     4  10  16  28  52  84 102 130 172 228 286 306
#     4   9  17  30  51  79 110 135 172 225 273 323
#     4  10  19  32  54  78 105 140 170 224 264 317
#     4   9  17  31  50  79 106 130 171 219 278 312
#     4  10  22  36  52  77 108 150 184 215 261 332
#     4  10  20  34  58  82 110 136 178 232 278 322
#
# _framework density 18.251657999999999
#
# number of rings (size 3 to 8) (size 9 to 14) (size 15 to 20)
#    0.000    2.400    0.000    5.400    1.400    0.000 
#    0.000    2.000    0.000    0.000    0.000    0.000 
#    0.000    0.000    0.000    0.000    0.000    0.000 
#
# Total GULP energy -495622.828872 kJ/mol
# GULP energy per Si atom -12390.570722 kJ/mol
# Density = 1.821012 g / cm^3
# Si number density = 18.251658 Si / 1000 Ang^3
#
#
#
# Elastic Constant Matrix: (Units=GPa)
#
#
# Indices 1 2 3 4 5 6 
#
# 1 89.2026 39.8656 33.6827 0.0000 0.0000 0.0000
# 2 39.8656 152.1478 50.3302 0.0000 0.0000 0.0000
# 3 33.6827 50.3302 99.2564 0.0000 0.0000 0.0000
# 4 0.0000 0.0000 0.0000 22.5044 0.0000 0.0000
# 5 0.0000 0.0000 0.0000 0.0000 19.3364 0.0000
# 6 0.0000 0.0000 0.0000 0.0000 0.0000 11.7044
#
#
#
# Elastic Compliance Matrix: (Units=1/GPa)
#
#
# Indices 1 2 3 4 5 6 
#
# 1 0.013574 -0.002443 -0.003368 0.000000 0.000000 0.000000
# 2 -0.002443 0.008337 -0.003398 0.000000 0.000000 0.000000
# 3 -0.003368 -0.003398 0.012941 0.000000 0.000000 0.000000
# 4 0.000000 0.000000 0.000000 0.044436 0.000000 0.000000
# 5 0.000000 0.000000 0.000000 0.000000 0.051716 0.000000
# 6 0.000000 0.000000 0.000000 0.000000 0.000000 0.085438
#
#
# Mechanical properties :
#
#
# Convention : Reuss Voigt Hill
#
# Bulk Modulus (GPa) = 60.84924 65.37376 63.11150
# Shear Modulus (GPa) = 20.80419 25.15760 22.98090
#
# Velocity S-wave (km/s) = 3.37983 3.71667 3.55225
# Velocity P-wave (km/s) = 6.97441 7.36980 7.17483
#
# Compressibility (1/GPa) = 0.01643406
#
# Stress axis : x y z
#
# Youngs Moduli (GPa) = 73.67211 119.95079 77.27367
#
# Poissons Ratio (x) = 0.29298 0.26023
# Poissons Ratio (y) = 0.17995 0.26261
# Poissons Ratio (z) = 0.24810 0.40765
#
# Static dielectric constant tensor:
#      x y z
#    x 3.443910 0.000000 0.000000 
#    y 0.000000 3.533950 0.000000 
#    z 0.000000 0.000000 3.139660 
# 
# 
# High freq. dielectric constant tensor:
#      x y z
#    x 1.704640 0.000000 0.000000 
#    y 0.000000 1.728230 0.000000 
#    z 0.000000 0.000000 1.658890 
# 
# From -- ./inp_files/21929.got.cif
#   From: 2010.03.12/outbox.cif.g09.slc.cpg/sg62_11_cif.got.tgz:21929.got - 2010.04.10 19:12:36.
