data_PCOD8249007
_publ_section_title
;
Structure prediction by ZEFSAII (Michael W. Deem and Ramdas Pophale) SiO2 
 PCOD8249007
Probable space group: P B C A
;
_chemical_formula_sum "Si O2"
_cell_formula_units_Z 56
_cell_length_a 15.212032
_cell_length_b 18.677119
_cell_length_c 9.494909
_cell_angle_alpha 90.000000
_cell_angle_beta 90.000000
_cell_angle_gamma 90.000000
_cell_volume 2697.664414
_symmetry_space_group_name_H-M "P B C A"
_symmetry_group_IT_number 61
_symmetry_cell_setting 'orthorhombic'
loop_
_space_group_symop_operation_xyz
x,y,z
1/2-x,-y,1/2+z
1/2+x,1/2-y,-z
-x,1/2+y,1/2-z
-x,-y,-z
1/2+x,y,1/2-z
1/2-x,1/2+y,z
x,1/2-y,1/2+z
loop_
_atom_site_type_symbol
_atom_site_label
_atom_site_fract_x
_atom_site_fract_y
_atom_site_fract_z
Si Si1 0.648541 0.097164 0.926070
Si Si2 0.282452 0.106979 0.344235
Si Si3 0.814169 0.948110 0.128801
Si Si4 0.615864 0.965707 0.106061
Si Si5 0.614487 0.083793 0.330042
Si Si6 0.515009 0.675918 0.542346
Si Si7 0.952731 0.188749 0.227274
O O1 0.655437 0.101162 0.758056
O O2 0.589228 0.163879 0.976762
O O3 0.744158 0.107746 0.996728
O O4 0.604928 0.022139 0.978096
O O5 0.201980 0.120684 0.235231
O O6 0.357771 0.165129 0.328930
O O7 0.326089 0.029635 0.319102
O O8 0.712892 0.932005 0.095025
O O9 0.874443 0.929762 0.995546
O O10 0.549439 0.900580 0.096182
O O11 0.599922 0.007522 0.253133
O O12 0.529550 0.133415 0.310773
O O13 0.530210 0.734697 0.660202
O O14 0.556602 0.699221 0.394609
#
# Coordination Sequence:
#
# PCOD8249007 Si02
#       7
#     8   8   8   8   8   8   8
#     4  10  21  42  69  95 134 171 220 279 338 388
#     4  10  21  45  67  95 134 172 218 284 329 401
#     4  10  20  37  70 105 128 167 225 278 333 386
#     4  10  20  43  72  96 128 175 228 272 332 396
#     4  10  22  43  69 100 136 173 222 280 335 394
#     4  12  26  45  64  98 132 182 225 275 338 411
#     4  12  27  45  65  97 137 180 226 270 346 409
#
# _framework density 20.758699
#
# number of rings (size 3 to 8) (size 9 to 14) (size 15 to 20)
#    0.000    1.714    2.857    5.571    4.000    2.857 
#    7.714    0.000    0.000    0.000    0.000    0.000 
#    0.000    0.000    0.000    0.000    0.000    0.000 
#
# Total GULP energy -694402.449806 kJ/mol
# GULP energy per Si atom -12400.043747 kJ/mol
# Density = 2.071145 g / cm^3
# Si number density = 20.758699 Si / 1000 Ang^3
#
#
#
# Elastic Constant Matrix: (Units=GPa)
#
#
# Indices 1 2 3 4 5 6 
#
# 1 91.5602 62.8201 36.7823 0.0000 0.0000 0.0000
# 2 62.8201 90.8805 45.9609 0.0000 0.0000 0.0000
# 3 36.7823 45.9609 162.6936 0.0000 0.0000 0.0000
# 4 0.0000 0.0000 0.0000 21.5224 0.0000 0.0000
# 5 0.0000 0.0000 0.0000 0.0000 16.1359 0.0000
# 6 0.0000 0.0000 0.0000 0.0000 0.0000 20.6317
#
#
#
# Elastic Compliance Matrix: (Units=1/GPa)
#
#
# Indices 1 2 3 4 5 6 
#
# 1 0.020852 -0.014035 -0.000750 0.000000 0.000000 0.000000
# 2 -0.014035 0.022284 -0.003122 0.000000 0.000000 0.000000
# 3 -0.000750 -0.003122 0.007198 0.000000 0.000000 0.000000
# 4 0.000000 0.000000 0.000000 0.046463 0.000000 0.000000
# 5 0.000000 0.000000 0.000000 0.000000 0.061973 0.000000
# 6 0.000000 0.000000 0.000000 0.000000 0.000000 0.048469
#
#
# Mechanical properties :
#
#
# Convention : Reuss Voigt Hill
#
# Bulk Modulus (GPa) = 68.86523 70.69563 69.78043
# Shear Modulus (GPa) = 20.16996 24.96274 22.56635
#
# Velocity S-wave (km/s) = 3.12049 3.47150 3.30067
# Velocity P-wave (km/s) = 6.79923 7.08507 6.94362
#
# Compressibility (1/GPa) = 0.01452112
#
# Stress axis : x y z
#
# Youngs Moduli (GPa) = 47.95634 44.87553 138.92793
#
# Poissons Ratio (x) = 0.62982 0.10413
# Poissons Ratio (y) = 0.67306 0.43375
# Poissons Ratio (z) = 0.03594 0.14011
#
# Static dielectric constant tensor:
#      x y z
#    x 3.835910 0.000000 0.000000 
#    y 0.000000 3.462960 0.000000 
#    z 0.000000 0.000000 3.809050 
# 
# 
# High freq. dielectric constant tensor:
#      x y z
#    x 1.819770 0.000000 0.000000 
#    y 0.000000 1.783400 0.000000 
#    z 0.000000 0.000000 1.820620 
# 
# From -- ./inp_files/3065.got.cif
#   From: 2010.03.12/outbox.cif.g09.slc.cpg/sg61_2_cif.got.tgz:3065.got - 2010.04.10 19:05:03.
