data_PCOD8249022
_publ_section_title
;
Structure prediction by ZEFSAII (Michael W. Deem and Ramdas Pophale) SiO2 
 PCOD8249022
Probable space group: P B C A
;
_chemical_formula_sum "Si O2"
_cell_formula_units_Z 48
_cell_length_a 25.544693
_cell_length_b 5.258322
_cell_length_c 13.181382
_cell_angle_alpha 90.000000
_cell_angle_beta 90.000000
_cell_angle_gamma 90.000000
_cell_volume 1770.552509
_symmetry_space_group_name_H-M "P B C A"
_symmetry_group_IT_number 61
_symmetry_cell_setting 'orthorhombic'
loop_
_space_group_symop_operation_xyz
x,y,z
1/2-x,-y,1/2+z
1/2+x,1/2-y,-z
-x,1/2+y,1/2-z
-x,-y,-z
1/2+x,y,1/2-z
1/2-x,1/2+y,z
x,1/2-y,1/2+z
loop_
_atom_site_type_symbol
_atom_site_label
_atom_site_fract_x
_atom_site_fract_y
_atom_site_fract_z
Si Si1 0.732157 0.823613 0.744631
Si Si2 0.775529 0.590558 0.021915
Si Si3 0.522447 0.505009 0.799237
Si Si4 0.386633 0.167577 0.251766
Si Si5 0.606920 0.058439 0.958621
Si Si6 0.442263 0.054491 0.457153
O O1 0.761385 0.592784 0.805323
O O2 0.762252 0.905175 0.641472
O O3 0.672290 0.752685 0.722933
O O4 0.744824 0.351951 0.970941
O O5 0.837113 0.542799 0.012497
O O6 0.511255 0.228486 0.754171
O O7 0.583132 0.576552 0.785344
O O8 0.504307 0.499709 0.919978
O O9 0.413999 0.038992 0.347728
O O10 0.387122 0.962758 0.161747
O O11 0.581546 0.332038 0.974585
O O12 0.568741 0.835685 0.999352
#
# Coordination Sequence:
#
# PCOD8249022 Si02
#       6
#     8   8   8   8   8   8
#     4  10  21  38  63  92 130 176 218 275 341 394
#     4  10  20  38  61  91 132 174 224 279 336 403
#     4  10  23  43  71 102 138 186 231 281 351 416
#     4  11  26  45  72 103 139 184 236 286 345 418
#     4  12  26  42  71 104 134 186 238 281 352 420
#     4  11  24  46  68  98 145 180 225 298 349 406
#
# _framework density 27.11018
#
# number of rings (size 3 to 8) (size 9 to 14) (size 15 to 20)
#    0.000    1.333    0.000    7.000    0.000   10.667 
#    0.000    0.000    0.000    0.000    0.000    0.000 
#    0.000    0.000    0.000    0.000    0.000    0.000 
#
# Total GULP energy -595261.676650 kJ/mol
# GULP energy per Si atom -12401.284930 kJ/mol
# Density = 2.704848 g / cm^3
# Si number density = 27.110180 Si / 1000 Ang^3
#
#
#
# Elastic Constant Matrix: (Units=GPa)
#
#
# Indices 1 2 3 4 5 6 
#
# 1 202.7121 58.2962 19.4142 0.0000 0.0000 0.0000
# 2 58.2962 173.7597 14.5718 0.0000 0.0000 0.0000
# 3 19.4142 14.5718 105.8954 0.0000 0.0000 0.0000
# 4 0.0000 0.0000 0.0000 37.6676 0.0000 0.0000
# 5 0.0000 0.0000 0.0000 0.0000 39.5926 0.0000
# 6 0.0000 0.0000 0.0000 0.0000 0.0000 43.3781
#
#
#
# Elastic Compliance Matrix: (Units=1/GPa)
#
#
# Indices 1 2 3 4 5 6 
#
# 1 0.005521 -0.001788 -0.000766 0.000000 0.000000 0.000000
# 2 -0.001788 0.006401 -0.000553 0.000000 0.000000 0.000000
# 3 -0.000766 -0.000553 0.009660 0.000000 0.000000 0.000000
# 4 0.000000 0.000000 0.000000 0.026548 0.000000 0.000000
# 5 0.000000 0.000000 0.000000 0.000000 0.025257 0.000000
# 6 0.000000 0.000000 0.000000 0.000000 0.000000 0.023053
#
#
# Mechanical properties :
#
#
# Convention : Reuss Voigt Hill
#
# Bulk Modulus (GPa) = 65.07190 74.10351 69.58771
# Shear Modulus (GPa) = 46.39215 50.13333 48.26274
#
# Velocity S-wave (km/s) = 4.14121 4.30495 4.22387
# Velocity P-wave (km/s) = 6.84989 7.21829 7.03650
#
# Compressibility (1/GPa) = 0.01536762
#
# Stress axis : x y z
#
# Youngs Moduli (GPa) = 181.13808 156.21822 103.52139
#
# Poissons Ratio (x) = 0.27931 0.07931
# Poissons Ratio (y) = 0.32386 0.05725
# Poissons Ratio (z) = 0.13877 0.08640
#
# Static dielectric constant tensor:
#      x y z
#    x 5.272730 0.000000 0.000000 
#    y 0.000000 5.608320 0.000000 
#    z 0.000000 0.000000 5.452030 
# 
# 
# High freq. dielectric constant tensor:
#      x y z
#    x 2.106700 0.000000 0.000000 
#    y 0.000000 2.108650 0.000000 
#    z 0.000000 0.000000 2.128060 
# 
# From -- ./inp_files/8578.got.cif
#   From: 2010.03.12/outbox.cif.g09.slc.cpg/sg61_5_cif.got.tgz:8578.got - 2010.04.10 19:05:03.
