data_PCOD8249423
_publ_section_title
;
Structure prediction by ZEFSAII (Michael W. Deem and Ramdas Pophale) SiO2 
 PCOD8249423
Probable space group: P B C A
;
_chemical_formula_sum "Si O2"
_cell_formula_units_Z 32
_cell_length_a 9.065144
_cell_length_b 8.656150
_cell_length_c 17.252045
_cell_angle_alpha 90.000000
_cell_angle_beta 90.000000
_cell_angle_gamma 90.000000
_cell_volume 1353.754967
_symmetry_space_group_name_H-M "P B C A"
_symmetry_group_IT_number 61
_symmetry_cell_setting 'orthorhombic'
loop_
_space_group_symop_operation_xyz
x,y,z
1/2-x,-y,1/2+z
1/2+x,1/2-y,-z
-x,1/2+y,1/2-z
-x,-y,-z
1/2+x,y,1/2-z
1/2-x,1/2+y,z
x,1/2-y,1/2+z
loop_
_atom_site_type_symbol
_atom_site_label
_atom_site_fract_x
_atom_site_fract_y
_atom_site_fract_z
Si Si1 0.539504 0.786691 0.975198
Si Si2 0.704843 0.419964 0.437053
Si Si3 0.427247 0.772451 0.809269
Si Si4 0.197077 0.576799 0.733952
O O1 0.635246 0.629960 0.971245
O O2 0.437493 0.811796 0.899631
O O3 0.658039 0.925419 0.981820
O O4 0.425092 0.791454 0.047507
O O5 0.713198 0.452678 0.345631
O O6 0.310487 0.633647 0.799308
O O7 0.584887 0.717390 0.778291
O O8 0.382640 0.921418 0.759798
#
# Coordination Sequence:
#
# PCOD8249423 Si02
#       4
#     8   8   8   8
#     4  10  23  41  62  89 121 161 204 251 305 364
#     4  10  22  41  62  89 123 158 203 251 302 363
#     4  11  23  39  64  91 123 163 208 255 309 366
#     4  11  22  41  64  92 125 162 207 257 306 365
#
# _framework density 23.637955999999999
#
# number of rings (size 3 to 8) (size 9 to 14) (size 15 to 20)
#    0.000    1.500    0.000    6.000    0.000    7.000 
#    0.000    2.500    0.000    0.000    0.000    0.000 
#    0.000    0.000    0.000    0.000    0.000    0.000 
#
# Total GULP energy -396900.068782 kJ/mol
# GULP energy per Si atom -12403.127149 kJ/mol
# Density = 2.358415 g / cm^3
# Si number density = 23.637956 Si / 1000 Ang^3
#
#
#
# Elastic Constant Matrix: (Units=GPa)
#
#
# Indices 1 2 3 4 5 6 
#
# 1 95.9622 18.5609 56.5689 0.0000 0.0000 0.0000
# 2 18.5609 46.4987 30.5529 0.0000 0.0000 0.0000
# 3 56.5689 30.5529 88.6679 0.0000 0.0000 0.0000
# 4 0.0000 0.0000 0.0000 23.3461 0.0000 0.0000
# 5 0.0000 0.0000 0.0000 0.0000 52.4998 0.0000
# 6 0.0000 0.0000 0.0000 0.0000 0.0000 33.4253
#
#
#
# Elastic Compliance Matrix: (Units=1/GPa)
#
#
# Indices 1 2 3 4 5 6 
#
# 1 0.016709 0.000433 -0.010809 0.000000 0.000000 0.000000
# 2 0.000433 0.027811 -0.009859 0.000000 0.000000 0.000000
# 3 -0.010809 -0.009859 0.021571 0.000000 0.000000 0.000000
# 4 0.000000 0.000000 0.000000 0.042834 0.000000 0.000000
# 5 0.000000 0.000000 0.000000 0.000000 0.019048 0.000000
# 6 0.000000 0.000000 0.000000 0.000000 0.000000 0.029917
#
#
# Mechanical properties :
#
#
# Convention : Reuss Voigt Hill
#
# Bulk Modulus (GPa) = 39.03145 49.16602 44.09873
# Shear Modulus (GPa) = 24.16599 30.21733 27.19166
#
# Velocity S-wave (km/s) = 3.20087 3.57927 3.39534
# Velocity P-wave (km/s) = 5.49625 6.15843 5.83674
#
# Compressibility (1/GPa) = 0.02562037
#
# Stress axis : x y z
#
# Youngs Moduli (GPa) = 59.84795 35.95644 46.35768
#
# Poissons Ratio (x) = -0.01556 0.50109
# Poissons Ratio (y) = -0.02589 0.45705
# Poissons Ratio (z) = 0.64691 0.35450
#
# Static dielectric constant tensor:
#      x y z
#    x 4.500260 0.000000 0.000000 
#    y 0.000000 4.125330 0.000000 
#    z 0.000000 0.000000 4.082820 
# 
# 
# High freq. dielectric constant tensor:
#      x y z
#    x 1.954060 0.000000 0.000000 
#    y 0.000000 1.936080 0.000000 
#    z 0.000000 0.000000 1.917710 
# 
# From -- ./inp_files/1663.got.cif
#   From: 2010.03.12/outbox.cif.g09.slc.cpg/sg61_1_cif.got.tgz:1663.got - 2010.04.10 19:05:03.
