data_PCOD8249803
_publ_section_title
;
Structure prediction by ZEFSAII (Michael W. Deem and Ramdas Pophale) SiO2 
 PCOD8249803
Probable space group: P B C A
;
_chemical_formula_sum "Si O2"
_cell_formula_units_Z 48
_cell_length_a 16.164286
_cell_length_b 14.942362
_cell_length_c 9.136395
_cell_angle_alpha 90.000000
_cell_angle_beta 90.000000
_cell_angle_gamma 90.000000
_cell_volume 2206.737357
_symmetry_space_group_name_H-M "P B C A"
_symmetry_group_IT_number 61
_symmetry_cell_setting 'orthorhombic'
loop_
_space_group_symop_operation_xyz
x,y,z
1/2-x,-y,1/2+z
1/2+x,1/2-y,-z
-x,1/2+y,1/2-z
-x,-y,-z
1/2+x,y,1/2-z
1/2-x,1/2+y,z
x,1/2-y,1/2+z
loop_
_atom_site_type_symbol
_atom_site_label
_atom_site_fract_x
_atom_site_fract_y
_atom_site_fract_z
Si Si1 0.002530 0.073319 0.871381
Si Si2 0.448818 0.739125 0.459953
Si Si3 0.227537 0.929871 0.586842
Si Si4 0.553096 0.921528 0.067439
Si Si5 0.314711 0.917096 0.293615
Si Si6 0.830960 0.778161 0.791189
O O1 0.994137 0.173445 0.934893
O O2 0.087626 0.066740 0.780455
O O3 0.933498 0.059561 0.742690
O O4 0.000000 0.000000 0.000000
O O5 0.503174 0.670363 0.550180
O O6 0.409131 0.695265 0.313013
O O7 0.367217 0.768739 0.546950
O O8 0.138752 0.908072 0.517107
O O9 0.291590 0.945080 0.456991
O O10 0.258382 0.852257 0.698892
O O11 0.229608 0.021891 0.674661
O O12 0.500000 0.000000 0.000000
O O13 0.289781 0.814660 0.261135
#
# Coordination Sequence:
#
# PCOD8249803 Si02
#       6
#     8   8   8   8   8   8
#     4  11  25  46  71 102 137 183 231 282 357 416
#     4  11  23  47  71  94 142 185 225 284 345 415
#     4  12  27  43  73 103 137 183 232 289 344 418
#     4  12  26  45  69 105 141 180 236 289 346 412
#     4  11  26  47  67 106 137 182 231 286 350 409
#     4  11  23  47  70  97 137 186 230 273 354 412
#
# _framework density 21.751567999999999
#
# number of rings (size 3 to 8) (size 9 to 14) (size 15 to 20)
#    0.000    0.667    8.333    0.000    9.333    1.333 
#    3.000    0.000    0.000    0.000    0.000    0.000 
#    0.000    0.000    0.000    0.000    0.000    0.000 
#
# Total GULP energy -595165.304126 kJ/mol
# GULP energy per Si atom -12399.277169 kJ/mol
# Density = 2.170206 g / cm^3
# Si number density = 21.751568 Si / 1000 Ang^3
#
#
#
# Elastic Constant Matrix: (Units=GPa)
#
#
# Indices 1 2 3 4 5 6 
#
# 1 51.6390 19.6577 7.8756 0.0000 0.0000 0.0000
# 2 19.6577 94.2215 49.1435 0.0000 0.0000 0.0000
# 3 7.8756 49.1435 118.1714 0.0000 0.0000 0.0000
# 4 0.0000 0.0000 0.0000 43.8248 0.0000 0.0000
# 5 0.0000 0.0000 0.0000 0.0000 41.2175 0.0000
# 6 0.0000 0.0000 0.0000 0.0000 0.0000 32.8572
#
#
#
# Elastic Compliance Matrix: (Units=1/GPa)
#
#
# Indices 1 2 3 4 5 6 
#
# 1 0.021063 -0.004677 0.000541 0.000000 0.000000 0.000000
# 2 -0.004677 0.014591 -0.005756 0.000000 0.000000 0.000000
# 3 0.000541 -0.005756 0.010820 0.000000 0.000000 0.000000
# 4 0.000000 0.000000 0.000000 0.022818 0.000000 0.000000
# 5 0.000000 0.000000 0.000000 0.000000 0.024262 0.000000
# 6 0.000000 0.000000 0.000000 0.000000 0.000000 0.030435
#
#
# Mechanical properties :
#
#
# Convention : Reuss Voigt Hill
#
# Bulk Modulus (GPa) = 37.46639 46.37616 41.92128
# Shear Modulus (GPa) = 32.75048 36.07024 34.41036
#
# Velocity S-wave (km/s) = 3.88449 4.07662 3.98172
# Velocity P-wave (km/s) = 6.11401 6.59739 6.36029
#
# Compressibility (1/GPa) = 0.02669059
#
# Stress axis : x y z
#
# Youngs Moduli (GPa) = 47.47670 68.53365 92.42053
#
# Poissons Ratio (x) = 0.32051 -0.05001
# Poissons Ratio (y) = 0.22203 0.53201
# Poissons Ratio (z) = -0.02569 0.39451
#
# Static dielectric constant tensor:
#      x y z
#    x 3.869470 0.000000 0.000000 
#    y 0.000000 4.044150 0.000000 
#    z 0.000000 0.000000 4.364550 
# 
# 
# High freq. dielectric constant tensor:
#      x y z
#    x 1.834530 0.000000 0.000000 
#    y 0.000000 1.860280 0.000000 
#    z 0.000000 0.000000 1.876180 
# 
# From -- ./inp_files/3447.got.cif
#   From: 2010.03.12/outbox.cif.g09.slc.cpg/sg61_2_cif.got.tgz:3447.got - 2010.04.10 19:05:03.
