data_PCOD8249302
_publ_section_title
;
Structure prediction by ZEFSAII (Michael W. Deem and Ramdas Pophale) SiO2 
 PCOD8249302
Probable space group: P B C A
;
_chemical_formula_sum "Si O2"
_cell_formula_units_Z 64
_cell_length_a 10.844338
_cell_length_b 14.704707
_cell_length_c 18.692196
_cell_angle_alpha 90.000000
_cell_angle_beta 90.000000
_cell_angle_gamma 90.000000
_cell_volume 2980.710153
_symmetry_space_group_name_H-M "P B C A"
_symmetry_group_IT_number 61
_symmetry_cell_setting 'orthorhombic'
loop_
_space_group_symop_operation_xyz
x,y,z
1/2-x,-y,1/2+z
1/2+x,1/2-y,-z
-x,1/2+y,1/2-z
-x,-y,-z
1/2+x,y,1/2-z
1/2-x,1/2+y,z
x,1/2-y,1/2+z
loop_
_atom_site_type_symbol
_atom_site_label
_atom_site_fract_x
_atom_site_fract_y
_atom_site_fract_z
Si Si1 0.340729 0.329885 0.405730
Si Si2 0.397333 0.419746 0.052632
Si Si3 0.842559 0.520236 0.583614
Si Si4 0.498014 0.267040 0.797517
Si Si5 0.189747 0.093789 0.138436
Si Si6 0.203286 0.910659 0.785094
Si Si7 0.384650 0.781834 0.846299
Si Si8 0.119554 0.718977 0.061953
O O1 0.293311 0.433033 0.418500
O O2 0.447624 0.317810 0.345296
O O3 0.216068 0.279541 0.383849
O O4 0.399635 0.288753 0.477131
O O5 0.546760 0.411625 0.059577
O O6 0.358997 0.505194 0.099516
O O7 0.342348 0.323862 0.079900
O O8 0.349862 0.435038 0.971273
O O9 0.864073 0.485060 0.665058
O O10 0.582047 0.335764 0.842815
O O11 0.379828 0.322618 0.770505
O O12 0.567061 0.230886 0.726358
O O13 0.260949 0.052543 0.207050
O O14 0.277395 0.148556 0.085437
O O15 0.328045 0.879380 0.825131
O O16 0.492414 0.806115 0.900642
#
# Coordination Sequence:
#
# PCOD8249302 Si02
#       8
#     8   8   8   8   8   8   8   8
#     4  11  24  40  68  96 132 175 225 276 328 400
#     4  11  23  40  67  97 130 171 220 273 324 406
#     4  11  22  42  64  97 132 170 224 272 330 393
#     4  10  21  41  66  93 128 177 220 268 340 393
#     4  11  23  42  68  97 135 175 219 269 336 398
#     4  10  21  41  66  92 134 172 215 274 328 394
#     4  10  22  41  63  93 132 174 217 275 331 397
#     4  12  24  41  67  98 133 176 223 272 331 396
#
# _framework density 21.471394
#
# number of rings (size 3 to 8) (size 9 to 14) (size 15 to 20)
#    0.000    1.250    5.000    1.500    3.500    1.000 
#    0.000    1.875    0.000    0.000    0.000    0.000 
#    0.000    0.000    0.000    0.000    0.000    0.000 
#
# Total GULP energy -793375.227922 kJ/mol
# GULP energy per Si atom -12396.487936 kJ/mol
# Density = 2.142252 g / cm^3
# Si number density = 21.471394 Si / 1000 Ang^3
#
#
#
# Elastic Constant Matrix: (Units=GPa)
#
#
# Indices 1 2 3 4 5 6 
#
# 1 57.1755 -5.2254 30.2574 0.0000 0.0000 0.0000
# 2 -5.2254 40.6719 9.8091 0.0000 0.0000 0.0000
# 3 30.2574 9.8091 116.2200 0.0000 0.0000 0.0000
# 4 0.0000 0.0000 0.0000 26.7922 0.0000 0.0000
# 5 0.0000 0.0000 0.0000 0.0000 41.0800 0.0000
# 6 0.0000 0.0000 0.0000 0.0000 0.0000 29.7821
#
#
#
# Elastic Compliance Matrix: (Units=1/GPa)
#
#
# Indices 1 2 3 4 5 6 
#
# 1 0.020930 0.004086 -0.005794 0.000000 0.000000 0.000000
# 2 0.004086 0.025896 -0.003249 0.000000 0.000000 0.000000
# 3 -0.005794 -0.003249 0.010387 0.000000 0.000000 0.000000
# 4 0.000000 0.000000 0.000000 0.037324 0.000000 0.000000
# 5 0.000000 0.000000 0.000000 0.000000 0.024343 0.000000
# 6 0.000000 0.000000 0.000000 0.000000 0.000000 0.033577
#
#
# Mechanical properties :
#
#
# Convention : Reuss Voigt Hill
#
# Bulk Modulus (GPa) = 21.14244 31.52776 26.33510
# Shear Modulus (GPa) = 28.06836 31.47929 29.77382
#
# Velocity S-wave (km/s) = 3.61951 3.83313 3.72785
# Velocity P-wave (km/s) = 5.22838 5.85713 5.55166
#
# Compressibility (1/GPa) = 0.04729824
#
# Stress axis : x y z
#
# Youngs Moduli (GPa) = 47.77936 38.61649 96.27401
#
# Poissons Ratio (x) = -0.15780 0.55779
# Poissons Ratio (y) = -0.19524 0.31284
# Poissons Ratio (z) = 0.27682 0.12548
#
# Static dielectric constant tensor:
#      x y z
#    x 3.983940 0.000000 0.000000 
#    y 0.000000 3.603230 0.000000 
#    z 0.000000 0.000000 4.110190 
# 
# 
# High freq. dielectric constant tensor:
#      x y z
#    x 1.841920 0.000000 0.000000 
#    y 0.000000 1.816580 0.000000 
#    z 0.000000 0.000000 1.858430 
# 
# From -- ./inp_files/5989.got.cif
#   From: 2010.03.12/outbox.cif.g09.slc.cpg/sg61_3_cif.got.tgz:5989.got - 2010.04.10 19:05:03.
