data_PCOD8249410
_publ_section_title
;
Structure prediction by ZEFSAII (Michael W. Deem and Ramdas Pophale) SiO2 
 PCOD8249410
Probable space group: P B C A
;
_chemical_formula_sum "Si O2"
_cell_formula_units_Z 64
_cell_length_a 14.656288
_cell_length_b 9.471244
_cell_length_c 22.683642
_cell_angle_alpha 90.000000
_cell_angle_beta 90.000000
_cell_angle_gamma 90.000000
_cell_volume 3148.790743
_symmetry_space_group_name_H-M "P B C A"
_symmetry_group_IT_number 61
_symmetry_cell_setting 'orthorhombic'
loop_
_space_group_symop_operation_xyz
x,y,z
1/2-x,-y,1/2+z
1/2+x,1/2-y,-z
-x,1/2+y,1/2-z
-x,-y,-z
1/2+x,y,1/2-z
1/2-x,1/2+y,z
x,1/2-y,1/2+z
loop_
_atom_site_type_symbol
_atom_site_label
_atom_site_fract_x
_atom_site_fract_y
_atom_site_fract_z
Si Si1 0.071122 0.017016 0.378849
Si Si2 0.610366 0.805517 0.620872
Si Si3 0.231317 0.101085 0.040350
Si Si4 0.106423 0.823733 0.750545
Si Si5 0.928606 0.513769 0.376047
Si Si6 0.278161 0.852175 0.960589
Si Si7 0.391355 0.195111 0.121542
Si Si8 0.550889 0.978530 0.248938
O O1 0.138188 0.105323 0.419520
O O2 0.101250 0.034910 0.310100
O O3 0.968320 0.074830 0.386842
O O4 0.075609 0.851570 0.395566
O O5 0.658886 0.813583 0.686472
O O6 0.525657 0.911690 0.614667
O O7 0.684619 0.857054 0.575081
O O8 0.145499 0.085927 0.082862
O O9 0.313117 0.176817 0.074141
O O10 0.201756 0.195761 0.984597
O O11 0.268062 0.952502 0.017051
O O12 0.157415 0.814653 0.687089
O O13 0.037688 0.690073 0.751936
O O14 0.052450 0.969280 0.750782
O O15 0.938026 0.347099 0.389672
O O16 0.896179 0.531400 0.307596
#
# Coordination Sequence:
#
# PCOD8249410 Si02
#       8
#     8   8   8   8   8   8   8   8
#     4  10  22  40  65  90 120 156 196 247 302 355
#     4  10  22  40  65  91 119 157 196 246 304 352
#     4  12  26  43  58  86 123 160 209 248 285 350
#     4   8  16  35  60  90 119 145 191 243 297 361
#     4  10  22  40  65  90 120 156 196 247 302 355
#     4  12  26  43  58  86 123 160 209 248 285 350
#     4  10  22  40  65  91 119 157 196 246 304 352
#     4   8  16  35  60  90 117 147 191 241 299 359
#
# _framework density 20.325265000000002
#
# number of rings (size 3 to 8) (size 9 to 14) (size 15 to 20)
#    0.000    2.000    2.500    0.000    3.500    3.000 
#    0.000    0.000    0.000    0.000    0.000    0.000 
#    0.000    0.000    0.000    0.000    0.000    0.000 
#
# Total GULP energy -792982.309924 kJ/mol
# GULP energy per Si atom -12390.348593 kJ/mol
# Density = 2.027900 g / cm^3
# Si number density = 20.325265 Si / 1000 Ang^3
#
#
#
# Elastic Constant Matrix: (Units=GPa)
#
#
# Indices 1 2 3 4 5 6 
#
# 1 62.5116 16.0213 40.6234 0.0000 0.0000 0.0000
# 2 16.0213 65.8523 23.9721 0.0000 0.0000 0.0000
# 3 40.6234 23.9721 99.2115 0.0000 0.0000 0.0000
# 4 0.0000 0.0000 0.0000 34.7979 0.0000 0.0000
# 5 0.0000 0.0000 0.0000 0.0000 33.1051 0.0000
# 6 0.0000 0.0000 0.0000 0.0000 0.0000 25.4916
#
#
#
# Elastic Compliance Matrix: (Units=1/GPa)
#
#
# Indices 1 2 3 4 5 6 
#
# 1 0.022106 -0.002284 -0.008500 0.000000 0.000000 0.000000
# 2 -0.002284 0.016886 -0.003145 0.000000 0.000000 0.000000
# 3 -0.008500 -0.003145 0.014320 0.000000 0.000000 0.000000
# 4 0.000000 0.000000 0.000000 0.028737 0.000000 0.000000
# 5 0.000000 0.000000 0.000000 0.000000 0.030207 0.000000
# 6 0.000000 0.000000 0.000000 0.000000 0.000000 0.039229
#
#
# Mechanical properties :
#
#
# Convention : Reuss Voigt Hill
#
# Bulk Modulus (GPa) = 39.28590 43.20101 41.24346
# Shear Modulus (GPa) = 26.62031 28.47616 27.54823
#
# Velocity S-wave (km/s) = 3.62293 3.74708 3.68553
# Velocity P-wave (km/s) = 6.07218 6.32628 6.20053
#
# Compressibility (1/GPa) = 0.02545442
#
# Stress axis : x y z
#
# Youngs Moduli (GPa) = 45.23663 59.22055 69.83409
#
# Poissons Ratio (x) = 0.13526 0.59357
# Poissons Ratio (y) = 0.10332 0.21962
# Poissons Ratio (z) = 0.38450 0.18624
#
# Static dielectric constant tensor:
#      x y z
#    x 3.189270 0.000000 0.000000 
#    y 0.000000 3.827000 0.000000 
#    z 0.000000 0.000000 4.146940 
# 
# 
# High freq. dielectric constant tensor:
#      x y z
#    x 1.747560 0.000000 0.000000 
#    y 0.000000 1.808890 0.000000 
#    z 0.000000 0.000000 1.819490 
# 
# From -- ./inp_files/11073.got.cif
#   From: 2010.03.12/outbox.cif.g09.slc.cpg/sg61_6_cif.got.tgz:11073.got - 2010.04.10 19:05:03.
