data_PCOD8249645
_publ_section_title
;
Structure prediction by ZEFSAII (Michael W. Deem and Ramdas Pophale) SiO2 
 PCOD8249645
Probable space group: P B C A
;
_chemical_formula_sum "Si O2"
_cell_formula_units_Z 64
_cell_length_a 17.220560
_cell_length_b 11.208927
_cell_length_c 14.788357
_cell_angle_alpha 90.000000
_cell_angle_beta 90.000000
_cell_angle_gamma 90.000000
_cell_volume 2854.507821
_symmetry_space_group_name_H-M "P B C A"
_symmetry_group_IT_number 61
_symmetry_cell_setting 'orthorhombic'
loop_
_space_group_symop_operation_xyz
x,y,z
1/2-x,-y,1/2+z
1/2+x,1/2-y,-z
-x,1/2+y,1/2-z
-x,-y,-z
1/2+x,y,1/2-z
1/2-x,1/2+y,z
x,1/2-y,1/2+z
loop_
_atom_site_type_symbol
_atom_site_label
_atom_site_fract_x
_atom_site_fract_y
_atom_site_fract_z
Si Si1 0.032585 0.667873 0.146227
Si Si2 0.139635 0.801260 0.479234
Si Si3 0.119344 0.466381 0.868423
Si Si4 0.816713 0.761780 0.507477
Si Si5 0.809430 0.682178 0.814465
Si Si6 0.245955 0.431588 0.737778
Si Si7 0.411618 0.635669 0.859308
Si Si8 0.896158 0.119792 0.165031
O O1 0.071569 0.680358 0.244113
O O2 0.973367 0.555276 0.139680
O O3 0.988189 0.788551 0.124780
O O4 0.098485 0.654222 0.070404
O O5 0.141468 0.907811 0.408835
O O6 0.224998 0.755922 0.503161
O O7 0.093413 0.699125 0.424293
O O8 0.162155 0.366346 0.925288
O O9 0.158612 0.460122 0.769879
O O10 0.853145 0.796774 0.409979
O O11 0.855526 0.644514 0.552376
O O12 0.752809 0.799787 0.809131
O O13 0.768699 0.550215 0.821199
O O14 0.869033 0.683676 0.731336
O O15 0.306425 0.419764 0.820714
O O16 0.442985 0.502008 0.851075
#
# Coordination Sequence:
#
# PCOD8249645 Si02
#       8
#     8   8   8   8   8   8   8   8
#     4  11  26  44  66 104 139 179 237 282 362 427
#     4  12  25  42  71 102 139 177 231 298 354 420
#     4  11  24  45  67  98 139 182 226 291 360 418
#     4  11  24  42  71 104 136 180 233 289 347 418
#     4  11  23  39  72 101 137 180 239 284 350 419
#     4  11  21  45  67 102 132 181 235 289 344 423
#     4  10  24  48  66  97 142 186 231 289 355 426
#     4  11  24  43  72  95 137 184 230 294 348 418
#
# _framework density 22.420679
#
# number of rings (size 3 to 8) (size 9 to 14) (size 15 to 20)
#    0.000    1.000    3.750    3.375    7.000    2.500 
#    0.000    0.000    0.000    0.000    0.000    0.000 
#    0.000    0.000    0.000    0.000    0.000    0.000 
#
# Total GULP energy -793157.691602 kJ/mol
# GULP energy per Si atom -12393.088931 kJ/mol
# Density = 2.236965 g / cm^3
# Si number density = 22.420679 Si / 1000 Ang^3
#
#
#
# Elastic Constant Matrix: (Units=GPa)
#
#
# Indices 1 2 3 4 5 6 
#
# 1 81.8052 7.3073 24.8663 0.0000 0.0000 0.0000
# 2 7.3073 88.6847 -10.9633 0.0000 0.0000 0.0000
# 3 24.8663 -10.9633 88.9890 0.0000 0.0000 0.0000
# 4 0.0000 0.0000 0.0000 -1.5094 0.0000 0.0000
# 5 0.0000 0.0000 0.0000 0.0000 22.7444 0.0000
# 6 0.0000 0.0000 0.0000 0.0000 0.0000 10.3222
#
#
#
# Elastic Compliance Matrix: (Units=1/GPa)
#
#
# Indices 1 2 3 4 5 6 
#
# 1 0.013582 -0.001613 -0.003994 0.000000 0.000000 0.000000
# 2 -0.001613 0.011642 0.001885 0.000000 0.000000 0.000000
# 3 -0.003994 0.001885 0.012586 0.000000 0.000000 0.000000
# 4 0.000000 0.000000 0.000000 -0.662508 0.000000 0.000000
# 5 0.000000 0.000000 0.000000 0.000000 0.043967 0.000000
# 6 0.000000 0.000000 0.000000 0.000000 0.000000 0.096878
#
#
# Mechanical properties :
#
#
# Convention : Reuss Voigt Hill
#
# Bulk Modulus (GPa) = 32.93175 33.54437 33.23806
# Shear Modulus (GPa) = -10.72301 22.19602 5.73650
#
# Velocity S-wave (km/s) = -2.18930 3.14981 1.60129
# Velocity P-wave (km/s) = 2.88605 5.31246 4.27502
#
# Compressibility (1/GPa) = 0.03036583
#
# Stress axis : x y z
#
# Youngs Moduli (GPa) = 73.62530 85.89721 79.45577
#
# Poissons Ratio (x) = 0.13854 0.31735
# Poissons Ratio (y) = 0.11875 -0.14977
# Poissons Ratio (z) = 0.29406 -0.16191
#
# Static dielectric constant tensor:
#      x y z
#    x 3.922710 0.000000 0.000000 
#    y 0.000000 4.418540 0.000000 
#    z 0.000000 0.000000 4.145390 
# 
# 
# High freq. dielectric constant tensor:
#      x y z
#    x 1.866740 0.000000 0.000000 
#    y 0.000000 1.897020 0.000000 
#    z 0.000000 0.000000 1.881730 
# 
# From -- ./inp_files/8226.got.cif
#   From: 2010.03.12/outbox.cif.g09.slc.cpg/sg61_5_cif.got.tgz:8226.got - 2010.04.10 19:05:03.
