data_PCOD8249599
_publ_section_title
;
Structure prediction by ZEFSAII (Michael W. Deem and Ramdas Pophale) SiO2 
 PCOD8249599
Probable space group: P B C A
;
_chemical_formula_sum "Si O2"
_cell_formula_units_Z 40
_cell_length_a 8.995954
_cell_length_b 18.976391
_cell_length_c 9.314152
_cell_angle_alpha 90.000000
_cell_angle_beta 90.000000
_cell_angle_gamma 90.000000
_cell_volume 1590.025785
_symmetry_space_group_name_H-M "P B C A"
_symmetry_group_IT_number 61
_symmetry_cell_setting 'orthorhombic'
loop_
_space_group_symop_operation_xyz
x,y,z
1/2-x,-y,1/2+z
1/2+x,1/2-y,-z
-x,1/2+y,1/2-z
-x,-y,-z
1/2+x,y,1/2-z
1/2-x,1/2+y,z
x,1/2-y,1/2+z
loop_
_atom_site_type_symbol
_atom_site_label
_atom_site_fract_x
_atom_site_fract_y
_atom_site_fract_z
Si Si1 0.208636 0.716171 0.554624
Si Si2 0.710617 0.871396 0.058838
Si Si3 0.842394 0.966601 0.836824
Si Si4 0.540019 0.162578 0.753946
Si Si5 0.662718 0.927345 0.580338
O O1 0.205624 0.787950 0.467856
O O2 0.358485 0.713260 0.648661
O O3 0.063874 0.711711 0.655620
O O4 0.208885 0.653813 0.436047
O O5 0.560376 0.889746 0.147292
O O6 0.857099 0.888031 0.155428
O O7 0.722206 0.915264 0.913728
O O8 0.785101 0.971336 0.672689
O O9 0.004518 0.932150 0.841414
O O10 0.842261 0.041678 0.918007
#
# Coordination Sequence:
#
# PCOD8249599 Si02
#       5
#     8   8   8   8   8
#     4  11  24  42  69  99 137 180 231 283 340 404
#     4  11  24  42  69  99 137 180 231 283 340 404
#     4  11  28  47  70 101 139 181 231 282 342 409
#     4  10  24  40  68  96 142 176 226 284 348 396
#     4  11  28  47  70 101 139 181 231 282 342 409
#
# _framework density 25.156824
#
# number of rings (size 3 to 8) (size 9 to 14) (size 15 to 20)
#    0.000    1.200    2.000    1.200   14.000    0.800 
#    0.000    0.000    0.000    0.000    0.000    0.000 
#    0.000    0.000    0.000    0.000    0.000    0.000 
#
# Total GULP energy -496253.830750 kJ/mol
# GULP energy per Si atom -12406.345769 kJ/mol
# Density = 2.509957 g / cm^3
# Si number density = 25.156824 Si / 1000 Ang^3
#
#
#
# Elastic Constant Matrix: (Units=GPa)
#
#
# Indices 1 2 3 4 5 6 
#
# 1 133.2560 -2.9909 39.7840 0.0000 0.0000 0.0000
# 2 -2.9909 53.6392 -13.8343 0.0000 0.0000 0.0000
# 3 39.7840 -13.8343 79.9990 0.0000 0.0000 0.0000
# 4 0.0000 0.0000 0.0000 25.3311 0.0000 0.0000
# 5 0.0000 0.0000 0.0000 0.0000 35.0403 0.0000
# 6 0.0000 0.0000 0.0000 0.0000 0.0000 20.4875
#
#
#
# Elastic Compliance Matrix: (Units=1/GPa)
#
#
# Indices 1 2 3 4 5 6 
#
# 1 0.008836 -0.000671 -0.004510 0.000000 0.000000 0.000000
# 2 -0.000671 0.019564 0.003717 0.000000 0.000000 0.000000
# 3 -0.004510 0.003717 0.015386 0.000000 0.000000 0.000000
# 4 0.000000 0.000000 0.000000 0.039477 0.000000 0.000000
# 5 0.000000 0.000000 0.000000 0.000000 0.028539 0.000000
# 6 0.000000 0.000000 0.000000 0.000000 0.000000 0.048810
#
#
# Mechanical properties :
#
#
# Convention : Reuss Voigt Hill
#
# Bulk Modulus (GPa) = 24.47490 34.75684 29.61587
# Shear Modulus (GPa) = 28.22326 32.43416 30.32871
#
# Velocity S-wave (km/s) = 3.35310 3.59455 3.47592
# Velocity P-wave (km/s) = 4.97404 5.57438 5.28275
#
# Compressibility (1/GPa) = 0.04085818
#
# Stress axis : x y z
#
# Youngs Moduli (GPa) = 113.17608 51.11353 64.99516
#
# Poissons Ratio (x) = 0.03427 0.29313
# Poissons Ratio (y) = 0.07589 -0.24157
# Poissons Ratio (z) = 0.51043 -0.18998
#
# Static dielectric constant tensor:
#      x y z
#    x 4.817060 0.000000 0.000000 
#    y 0.000000 4.042090 0.000000 
#    z 0.000000 0.000000 4.576290 
# 
# 
# High freq. dielectric constant tensor:
#      x y z
#    x 2.017660 0.000000 0.000000 
#    y 0.000000 1.984620 0.000000 
#    z 0.000000 0.000000 2.009530 
# 
# From -- ./inp_files/1758.got.cif
#   From: 2010.03.12/outbox.cif.g09.slc.cpg/sg61_1_cif.got.tgz:1758.got - 2010.04.10 19:05:03.
