data_PCOD8249878
_publ_section_title
;
Structure prediction by ZEFSAII (Michael W. Deem and Ramdas Pophale) SiO2 
 PCOD8249878
Probable space group: P B C A
;
_chemical_formula_sum "Si O2"
_cell_formula_units_Z 40
_cell_length_a 8.291549
_cell_length_b 10.285719
_cell_length_c 17.169533
_cell_angle_alpha 90.000000
_cell_angle_beta 90.000000
_cell_angle_gamma 90.000000
_cell_volume 1464.295777
_symmetry_space_group_name_H-M "P B C A"
_symmetry_group_IT_number 61
_symmetry_cell_setting 'orthorhombic'
loop_
_space_group_symop_operation_xyz
x,y,z
1/2-x,-y,1/2+z
1/2+x,1/2-y,-z
-x,1/2+y,1/2-z
-x,-y,-z
1/2+x,y,1/2-z
1/2-x,1/2+y,z
x,1/2-y,1/2+z
loop_
_atom_site_type_symbol
_atom_site_label
_atom_site_fract_x
_atom_site_fract_y
_atom_site_fract_z
Si Si1 0.983398 0.202191 0.608675
Si Si2 0.218433 0.360086 0.705273
Si Si3 0.249380 0.507145 0.847106
Si Si4 0.914096 0.381874 0.346679
Si Si5 0.221407 0.866563 0.997917
O O1 0.913089 0.091834 0.666705
O O2 0.831263 0.248706 0.557782
O O3 0.049812 0.313245 0.667155
O O4 0.119639 0.158561 0.548434
O O5 0.224573 0.370680 0.799648
O O6 0.362511 0.266137 0.676302
O O7 0.224809 0.514847 0.681705
O O8 0.407580 0.584326 0.815885
O O9 0.252068 0.486840 0.940187
O O10 0.921515 0.394411 0.440695
#
# Coordination Sequence:
#
# PCOD8249878 Si02
#       5
#     8   8   8   8   8
#     4  11  26  53  79 123 162 222 277 347 418 499
#     4  11  29  53  76 122 171 215 272 338 423 496
#     4  12  27  52  86 120 168 220 283 344 424 489
#     4  11  27  53  85 117 169 216 279 335 420 500
#     4  11  25  51  83 118 166 217 284 345 416 495
#
# _framework density 27.316887999999999
#
# number of rings (size 3 to 8) (size 9 to 14) (size 15 to 20)
#    0.000    0.800    2.000    2.400    8.400    4.800 
#   18.000    0.000    0.000    0.000    0.000    0.000 
#    0.000    0.000    0.000    0.000    0.000    0.000 
#
# Total GULP energy -495727.032311 kJ/mol
# GULP energy per Si atom -12393.175808 kJ/mol
# Density = 2.725471 g / cm^3
# Si number density = 27.316888 Si / 1000 Ang^3
#
#
#
# Elastic Constant Matrix: (Units=GPa)
#
#
# Indices 1 2 3 4 5 6 
#
# 1 156.4140 66.7983 67.6937 0.0000 0.0000 0.0000
# 2 66.7983 105.2725 52.8981 0.0000 0.0000 0.0000
# 3 67.6937 52.8981 140.2759 0.0000 0.0000 0.0000
# 4 0.0000 0.0000 0.0000 48.1891 0.0000 0.0000
# 5 0.0000 0.0000 0.0000 0.0000 31.7737 0.0000
# 6 0.0000 0.0000 0.0000 0.0000 0.0000 25.7282
#
#
#
# Elastic Compliance Matrix: (Units=1/GPa)
#
#
# Indices 1 2 3 4 5 6 
#
# 1 0.009635 -0.004661 -0.002892 0.000000 0.000000 0.000000
# 2 -0.004661 0.013974 -0.003021 0.000000 0.000000 0.000000
# 3 -0.002892 -0.003021 0.009664 0.000000 0.000000 0.000000
# 4 0.000000 0.000000 0.000000 0.020752 0.000000 0.000000
# 5 0.000000 0.000000 0.000000 0.000000 0.031473 0.000000
# 6 0.000000 0.000000 0.000000 0.000000 0.000000 0.038868
#
#
# Mechanical properties :
#
#
# Convention : Reuss Voigt Hill
#
# Bulk Modulus (GPa) = 82.46543 86.30471 84.38507
# Shear Modulus (GPa) = 33.43268 35.44303 34.43785
#
# Velocity S-wave (km/s) = 3.50220 3.60596 3.55446
# Velocity P-wave (km/s) = 6.82699 6.99998 6.91403
#
# Compressibility (1/GPa) = 0.01212629
#
# Stress axis : x y z
#
# Youngs Moduli (GPa) = 103.78423 71.56028 103.48073
#
# Poissons Ratio (x) = 0.33351 0.29930
# Poissons Ratio (y) = 0.48369 0.31258
# Poissons Ratio (z) = 0.30017 0.21616
#
# Static dielectric constant tensor:
#      x y z
#    x 4.741300 0.000000 0.000000 
#    y 0.000000 4.814220 0.000000 
#    z 0.000000 0.000000 5.424940 
# 
# 
# High freq. dielectric constant tensor:
#      x y z
#    x 2.098970 0.000000 0.000000 
#    y 0.000000 2.097140 0.000000 
#    z 0.000000 0.000000 2.123450 
# 
# From -- ./inp_files/8823.got.cif
#   From: 2010.03.12/outbox.cif.g09.slc.cpg/sg61_5_cif.got.tgz:8823.got - 2010.04.10 19:05:03.
