data_PCOD8249873
_publ_section_title
;
Structure prediction by ZEFSAII (Michael W. Deem and Ramdas Pophale) SiO2 
 PCOD8249873
Probable space group: P B C A
;
_chemical_formula_sum "Si O2"
_cell_formula_units_Z 40
_cell_length_a 12.946991
_cell_length_b 11.954925
_cell_length_c 10.863683
_cell_angle_alpha 90.000000
_cell_angle_beta 90.000000
_cell_angle_gamma 90.000000
_cell_volume 1681.484183
_symmetry_space_group_name_H-M "P B C A"
_symmetry_group_IT_number 61
_symmetry_cell_setting 'orthorhombic'
loop_
_space_group_symop_operation_xyz
x,y,z
1/2-x,-y,1/2+z
1/2+x,1/2-y,-z
-x,1/2+y,1/2-z
-x,-y,-z
1/2+x,y,1/2-z
1/2-x,1/2+y,z
x,1/2-y,1/2+z
loop_
_atom_site_type_symbol
_atom_site_label
_atom_site_fract_x
_atom_site_fract_y
_atom_site_fract_z
Si Si1 0.514375 0.315945 0.394219
Si Si2 0.869600 0.117931 0.819372
Si Si3 0.616485 0.411671 0.981776
Si Si4 0.843318 0.347938 0.916097
Si Si5 0.157154 0.460583 0.249783
O O1 0.452039 0.319527 0.266360
O O2 0.550192 0.191739 0.431233
O O3 0.443898 0.370507 0.500035
O O4 0.615269 0.391105 0.368847
O O5 0.824410 0.215779 0.904963
O O6 0.778895 0.064901 0.736431
O O7 0.919273 0.022158 0.906848
O O8 0.739405 0.398640 0.972733
O O9 0.595396 0.429388 0.126795
O O10 0.860723 0.408692 0.783797
#
# Coordination Sequence:
#
# PCOD8249873 Si02
#       5
#     8   8   8   8   8
#     4  12  25  47  76 108 145 198 244 301 377 439
#     4  11  26  47  75 108 148 193 244 304 369 440
#     4  11  26  49  75 108 150 193 246 309 367 441
#     4  11  25  47  74 106 146 194 246 310 365 438
#     4  11  25  48  74 109 145 191 250 306 368 435
#
# _framework density 23.788509000000001
#
# number of rings (size 3 to 8) (size 9 to 14) (size 15 to 20)
#    0.000    0.800    4.000    1.800    5.600    1.600 
#    3.600    0.000    0.000    0.000    0.000    0.000 
#    0.000    0.000    0.000    0.000    0.000    0.000 
#
# Total GULP energy -495944.871494 kJ/mol
# GULP energy per Si atom -12398.621787 kJ/mol
# Density = 2.373436 g / cm^3
# Si number density = 23.788509 Si / 1000 Ang^3
#
#
#
# Elastic Constant Matrix: (Units=GPa)
#
#
# Indices 1 2 3 4 5 6 
#
# 1 89.4939 44.9691 48.4286 0.0000 0.0000 0.0000
# 2 44.9691 158.4360 68.1477 0.0000 0.0000 0.0000
# 3 48.4286 68.1477 139.8007 0.0000 0.0000 0.0000
# 4 0.0000 0.0000 0.0000 40.9740 0.0000 0.0000
# 5 0.0000 0.0000 0.0000 0.0000 36.4031 0.0000
# 6 0.0000 0.0000 0.0000 0.0000 0.0000 41.8792
#
#
#
# Elastic Compliance Matrix: (Units=1/GPa)
#
#
# Indices 1 2 3 4 5 6 
#
# 1 0.014477 -0.002470 -0.003811 0.000000 0.000000 0.000000
# 2 -0.002470 0.008408 -0.003243 0.000000 0.000000 0.000000
# 3 -0.003811 -0.003243 0.010054 0.000000 0.000000 0.000000
# 4 0.000000 0.000000 0.000000 0.024406 0.000000 0.000000
# 5 0.000000 0.000000 0.000000 0.000000 0.027470 0.000000
# 6 0.000000 0.000000 0.000000 0.000000 0.000000 0.023878
#
#
# Mechanical properties :
#
#
# Convention : Reuss Voigt Hill
#
# Bulk Modulus (GPa) = 71.98742 78.98016 75.48379
# Shear Modulus (GPa) = 37.77263 38.93029 38.35146
#
# Velocity S-wave (km/s) = 3.98911 4.04978 4.01956
# Velocity P-wave (km/s) = 7.17945 7.42567 7.30360
#
# Compressibility (1/GPa) = 0.01389132
#
# Stress axis : x y z
#
# Youngs Moduli (GPa) = 69.07333 118.94114 99.46281
#
# Poissons Ratio (x) = 0.29377 0.37907
# Poissons Ratio (y) = 0.17060 0.32254
# Poissons Ratio (z) = 0.26325 0.38570
#
# Static dielectric constant tensor:
#      x y z
#    x 4.335550 0.000000 0.000000 
#    y 0.000000 4.232500 0.000000 
#    z 0.000000 0.000000 4.111100 
# 
# 
# High freq. dielectric constant tensor:
#      x y z
#    x 1.969910 0.000000 0.000000 
#    y 0.000000 1.943600 0.000000 
#    z 0.000000 0.000000 1.932270 
# 
# From -- ./inp_files/5577.got.cif
#   From: 2010.03.12/outbox.cif.g09.slc.cpg/sg61_3_cif.got.tgz:5577.got - 2010.04.10 19:05:03.
