data_PCOD8249281
_publ_section_title
;
Structure prediction by ZEFSAII (Michael W. Deem and Ramdas Pophale) SiO2 
 PCOD8249281
Probable space group: P B C A
;
_chemical_formula_sum "Si O2"
_cell_formula_units_Z 56
_cell_length_a 13.993697
_cell_length_b 17.502348
_cell_length_c 11.330266
_cell_angle_alpha 90.000000
_cell_angle_beta 90.000000
_cell_angle_gamma 90.000000
_cell_volume 2775.037694
_symmetry_space_group_name_H-M "P B C A"
_symmetry_group_IT_number 61
_symmetry_cell_setting 'orthorhombic'
loop_
_space_group_symop_operation_xyz
x,y,z
1/2-x,-y,1/2+z
1/2+x,1/2-y,-z
-x,1/2+y,1/2-z
-x,-y,-z
1/2+x,y,1/2-z
1/2-x,1/2+y,z
x,1/2-y,1/2+z
loop_
_atom_site_type_symbol
_atom_site_label
_atom_site_fract_x
_atom_site_fract_y
_atom_site_fract_z
Si Si1 0.020685 0.860623 0.806216
Si Si2 0.920347 0.375310 0.426353
Si Si3 0.034867 0.310395 0.213172
Si Si4 0.250876 0.796750 0.190019
Si Si5 0.292261 0.127692 0.155246
Si Si6 0.141444 0.876829 0.390122
Si Si7 0.869433 0.986393 0.783832
O O1 0.973515 0.780260 0.775748
O O2 0.118907 0.871403 0.740593
O O3 0.951971 0.926119 0.757604
O O4 0.037529 0.866794 0.945087
O O5 0.002375 0.345806 0.337760
O O6 0.821067 0.328095 0.410845
O O7 0.897927 0.463651 0.398283
O O8 0.966976 0.344204 0.110201
O O9 0.143678 0.334125 0.182271
O O10 0.264712 0.706478 0.172167
O O11 0.206542 0.816582 0.317756
O O12 0.228875 0.056051 0.190613
O O13 0.322823 0.116324 0.021301
O O14 0.145398 0.959852 0.329653
#
# Coordination Sequence:
#
# PCOD8249281 Si02
#       7
#     8   8   8   8   8   8   8
#     4  12  23  42  67  97 129 165 222 265 319 397
#     4  10  24  44  64  97 130 170 213 270 320 388
#     4  10  21  40  67  96 127 169 215 267 326 385
#     4  10  21  41  69  96 127 172 216 262 331 380
#     4  12  24  42  67  97 132 167 218 274 315 390
#     4  10  25  46  62  98 136 167 218 278 317 387
#     4  10  25  43  64  96 126 178 215 255 343 380
#
# _framework density 20.179905000000002
#
# number of rings (size 3 to 8) (size 9 to 14) (size 15 to 20)
#    0.000    1.714    4.286    1.286    4.000    5.143 
#    2.571    0.000    0.000    0.000    0.000    0.000 
#    0.000    0.000    0.000    0.000    0.000    0.000 
#
# Total GULP energy -694461.129927 kJ/mol
# GULP energy per Si atom -12401.091606 kJ/mol
# Density = 2.013397 g / cm^3
# Si number density = 20.179905 Si / 1000 Ang^3
#
#
#
# Elastic Constant Matrix: (Units=GPa)
#
#
# Indices 1 2 3 4 5 6 
#
# 1 125.7427 24.5944 32.2767 0.0000 0.0000 0.0000
# 2 24.5944 114.5097 28.7054 0.0000 0.0000 0.0000
# 3 32.2767 28.7054 50.1191 0.0000 0.0000 0.0000
# 4 0.0000 0.0000 0.0000 15.5155 0.0000 0.0000
# 5 0.0000 0.0000 0.0000 0.0000 7.5360 0.0000
# 6 0.0000 0.0000 0.0000 0.0000 0.0000 37.4848
#
#
#
# Elastic Compliance Matrix: (Units=1/GPa)
#
#
# Indices 1 2 3 4 5 6 
#
# 1 0.009562 -0.000596 -0.005817 0.000000 0.000000 0.000000
# 2 -0.000596 0.010234 -0.005478 0.000000 0.000000 0.000000
# 3 -0.005817 -0.005478 0.026836 0.000000 0.000000 0.000000
# 4 0.000000 0.000000 0.000000 0.064452 0.000000 0.000000
# 5 0.000000 0.000000 0.000000 0.000000 0.132696 0.000000
# 6 0.000000 0.000000 0.000000 0.000000 0.000000 0.026677
#
#
# Mechanical properties :
#
#
# Convention : Reuss Voigt Hill
#
# Bulk Modulus (GPa) = 43.76103 51.28051 47.52077
# Shear Modulus (GPa) = 16.56417 25.76027 21.16222
#
# Velocity S-wave (km/s) = 2.86811 3.57673 3.24184
# Velocity P-wave (km/s) = 5.71845 6.52106 6.13290
#
# Compressibility (1/GPa) = 0.02285138
#
# Stress axis : x y z
#
# Youngs Moduli (GPa) = 104.57605 97.71343 37.26327
#
# Poissons Ratio (x) = 0.05820 0.21676
# Poissons Ratio (y) = 0.06228 0.20412
# Poissons Ratio (z) = 0.60833 0.53526
#
# Static dielectric constant tensor:
#      x y z
#    x 3.798530 0.000000 0.000000 
#    y 0.000000 4.036280 0.000000 
#    z 0.000000 0.000000 3.485230 
# 
# 
# High freq. dielectric constant tensor:
#      x y z
#    x 1.798920 0.000000 0.000000 
#    y 0.000000 1.802140 0.000000 
#    z 0.000000 0.000000 1.774870 
# 
# From -- ./inp_files/5812.got.cif
#   From: 2010.03.12/outbox.cif.g09.slc.cpg/sg61_3_cif.got.tgz:5812.got - 2010.04.10 19:05:03.
