data_PCOD8249361
_publ_section_title
;
Structure prediction by ZEFSAII (Michael W. Deem and Ramdas Pophale) SiO2 
 PCOD8249361
Probable space group: P B C A
;
_chemical_formula_sum "Si O2"
_cell_formula_units_Z 56
_cell_length_a 8.891468
_cell_length_b 19.654151
_cell_length_c 15.284428
_cell_angle_alpha 90.000000
_cell_angle_beta 90.000000
_cell_angle_gamma 90.000000
_cell_volume 2671.018823
_symmetry_space_group_name_H-M "P B C A"
_symmetry_group_IT_number 61
_symmetry_cell_setting 'orthorhombic'
loop_
_space_group_symop_operation_xyz
x,y,z
1/2-x,-y,1/2+z
1/2+x,1/2-y,-z
-x,1/2+y,1/2-z
-x,-y,-z
1/2+x,y,1/2-z
1/2-x,1/2+y,z
x,1/2-y,1/2+z
loop_
_atom_site_type_symbol
_atom_site_label
_atom_site_fract_x
_atom_site_fract_y
_atom_site_fract_z
Si Si1 0.015317 0.600239 0.322942
Si Si2 0.535777 0.155895 0.502490
Si Si3 0.106070 0.206644 0.674605
Si Si4 0.213269 0.222298 0.483353
Si Si5 0.074651 0.052744 0.851929
Si Si6 0.320287 0.833291 0.800049
Si Si7 0.342199 0.120788 0.768579
O O1 0.926087 0.633014 0.404321
O O2 0.078292 0.528497 0.356077
O O3 0.144950 0.651979 0.293943
O O4 0.906302 0.599741 0.238049
O O5 0.384455 0.202555 0.503484
O O6 0.678060 0.198459 0.542012
O O7 0.511161 0.088252 0.560510
O O8 0.114058 0.218127 0.571270
O O9 0.136721 0.270725 0.737205
O O10 0.227487 0.148847 0.696179
O O11 0.933784 0.183194 0.688785
O O12 0.142666 0.178722 0.402879
O O13 0.245152 0.078343 0.838394
O O14 0.962628 0.070292 0.773492
#
# Coordination Sequence:
#
# PCOD8249361 Si02
#       7
#     8   8   8   8   8   8   8
#     4  11  24  42  62  88 130 169 214 256 313 391
#     4  11  24  41  63  94 126 166 209 268 327 382
#     4  11  21  41  62  97 128 156 212 271 330 375
#     4  11  24  39  65  96 130 158 210 273 329 380
#     4  11  22  42  63  90 127 176 214 251 315 388
#     4  11  24  40  64  94 126 167 208 270 323 375
#     4  10  22  37  67  91 122 165 211 265 316 379
#
# _framework density 20.965782000000001
#
# number of rings (size 3 to 8) (size 9 to 14) (size 15 to 20)
#    0.000    1.143    2.857    3.857    6.000    0.000 
#    0.000    0.000    0.000    3.429    0.000    0.000 
#    0.000    0.000    0.000    0.000    0.000    0.000 
#
# Total GULP energy -693979.505185 kJ/mol
# GULP energy per Si atom -12392.491164 kJ/mol
# Density = 2.091806 g / cm^3
# Si number density = 20.965782 Si / 1000 Ang^3
#
#
#
# Elastic Constant Matrix: (Units=GPa)
#
#
# Indices 1 2 3 4 5 6 
#
# 1 85.2882 35.3561 43.3870 0.0000 0.0000 0.0000
# 2 35.3561 92.1809 31.3296 0.0000 0.0000 0.0000
# 3 43.3870 31.3296 123.6796 0.0000 0.0000 0.0000
# 4 0.0000 0.0000 0.0000 31.8034 0.0000 0.0000
# 5 0.0000 0.0000 0.0000 0.0000 26.4490 0.0000
# 6 0.0000 0.0000 0.0000 0.0000 0.0000 29.7637
#
#
#
# Elastic Compliance Matrix: (Units=1/GPa)
#
#
# Indices 1 2 3 4 5 6 
#
# 1 0.015868 -0.004589 -0.004404 0.000000 0.000000 0.000000
# 2 -0.004589 0.013198 -0.001733 0.000000 0.000000 0.000000
# 3 -0.004404 -0.001733 0.010069 0.000000 0.000000 0.000000
# 4 0.000000 0.000000 0.000000 0.031443 0.000000 0.000000
# 5 0.000000 0.000000 0.000000 0.000000 0.037809 0.000000
# 6 0.000000 0.000000 0.000000 0.000000 0.000000 0.033598
#
#
# Mechanical properties :
#
#
# Convention : Reuss Voigt Hill
#
# Bulk Modulus (GPa) = 56.55522 57.92158 57.23840
# Shear Modulus (GPa) = 29.52794 30.34162 29.93478
#
# Velocity S-wave (km/s) = 3.75692 3.80833 3.78271
# Velocity P-wave (km/s) = 6.77147 6.85744 6.81459
#
# Compressibility (1/GPa) = 0.01768183
#
# Stress axis : x y z
#
# Youngs Moduli (GPa) = 63.02085 75.77172 99.31147
#
# Poissons Ratio (x) = 0.34774 0.43736
# Poissons Ratio (y) = 0.28922 0.17212
# Poissons Ratio (z) = 0.27754 0.13132
#
# Static dielectric constant tensor:
#      x y z
#    x 3.819480 0.000000 0.000000 
#    y 0.000000 3.776620 0.000000 
#    z 0.000000 0.000000 3.896780 
# 
# 
# High freq. dielectric constant tensor:
#      x y z
#    x 1.821850 0.000000 0.000000 
#    y 0.000000 1.814590 0.000000 
#    z 0.000000 0.000000 1.827830 
# 
# From -- ./inp_files/3968.got.cif
#   From: 2010.03.12/outbox.cif.g09.slc.cpg/sg61_2_cif.got.tgz:3968.got - 2010.04.10 19:05:03.
