data_PCOD8249316
_publ_section_title
;
Structure prediction by ZEFSAII (Michael W. Deem and Ramdas Pophale) SiO2 
 PCOD8249316
Probable space group: P B C A
;
_chemical_formula_sum "Si O2"
_cell_formula_units_Z 48
_cell_length_a 5.454931
_cell_length_b 14.116327
_cell_length_c 27.451736
_cell_angle_alpha 90.000000
_cell_angle_beta 90.000000
_cell_angle_gamma 90.000000
_cell_volume 2113.882217
_symmetry_space_group_name_H-M "P B C A"
_symmetry_group_IT_number 61
_symmetry_cell_setting 'orthorhombic'
loop_
_space_group_symop_operation_xyz
x,y,z
1/2-x,-y,1/2+z
1/2+x,1/2-y,-z
-x,1/2+y,1/2-z
-x,-y,-z
1/2+x,y,1/2-z
1/2-x,1/2+y,z
x,1/2-y,1/2+z
loop_
_atom_site_type_symbol
_atom_site_label
_atom_site_fract_x
_atom_site_fract_y
_atom_site_fract_z
Si Si1 0.497090 0.288502 0.946131
Si Si2 0.709371 0.893639 0.018989
Si Si3 0.208165 0.858890 0.644563
Si Si4 0.410665 0.206820 0.720774
Si Si5 0.583272 0.011295 0.279500
Si Si6 0.892804 0.566128 0.070476
O O1 0.477397 0.175929 0.952887
O O2 0.687031 0.307293 0.903036
O O3 0.239444 0.333321 0.931712
O O4 0.562005 0.332818 0.999311
O O5 0.783503 0.975454 0.058532
O O6 0.601638 0.941653 0.970447
O O7 0.075721 0.777032 0.675283
O O8 0.010702 0.936539 0.624720
O O9 0.412866 0.918139 0.674251
O O10 0.653328 0.228211 0.752258
O O11 0.416124 0.097740 0.703332
O O12 0.333991 0.034310 0.250297
#
# Coordination Sequence:
#
# PCOD8249316 Si02
#       6
#     8   8   8   8   8   8
#     4  11  22  40  63  93 124 172 214 272 330 392
#     4  10  21  42  63  85 128 167 215 259 331 396
#     4  11  25  38  63  99 123 165 220 275 324 396
#     4  10  23  44  70  95 133 177 215 267 337 402
#     4  10  23  44  68  93 132 176 214 269 339 400
#     4  10  23  40  62  91 124 167 214 266 326 388
#
# _framework density 22.707034
#
# number of rings (size 3 to 8) (size 9 to 14) (size 15 to 20)
#    0.000    1.667    1.667    1.500    7.000    0.000 
#    3.000    0.000    0.000    0.000    0.000    0.000 
#    0.000    0.000    0.000    0.000    0.000    0.000 
#
# Total GULP energy -594864.635419 kJ/mol
# GULP energy per Si atom -12393.013238 kJ/mol
# Density = 2.265535 g / cm^3
# Si number density = 22.707034 Si / 1000 Ang^3
#
#
#
# Elastic Constant Matrix: (Units=GPa)
#
#
# Indices 1 2 3 4 5 6 
#
# 1 83.7678 6.3602 23.3000 0.0000 0.0000 0.0000
# 2 6.3602 98.5496 53.3421 0.0000 0.0000 0.0000
# 3 23.3000 53.3421 99.0492 0.0000 0.0000 0.0000
# 4 0.0000 0.0000 0.0000 38.3861 0.0000 0.0000
# 5 0.0000 0.0000 0.0000 0.0000 20.7909 0.0000
# 6 0.0000 0.0000 0.0000 0.0000 0.0000 29.6679
#
#
#
# Elastic Compliance Matrix: (Units=1/GPa)
#
#
# Indices 1 2 3 4 5 6 
#
# 1 0.012864 0.001140 -0.003640 0.000000 0.000000 0.000000
# 2 0.001140 0.014423 -0.008036 0.000000 0.000000 0.000000
# 3 -0.003640 -0.008036 0.015280 0.000000 0.000000 0.000000
# 4 0.000000 0.000000 0.000000 0.026051 0.000000 0.000000
# 5 0.000000 0.000000 0.000000 0.000000 0.048098 0.000000
# 6 0.000000 0.000000 0.000000 0.000000 0.000000 0.033706
#
#
# Mechanical properties :
#
#
# Convention : Reuss Voigt Hill
#
# Bulk Modulus (GPa) = 46.52160 49.70791 48.11476
# Shear Modulus (GPa) = 27.98643 30.99327 29.48985
#
# Velocity S-wave (km/s) = 3.51451 3.69849 3.60767
# Velocity P-wave (km/s) = 6.08286 6.33853 6.21201
#
# Compressibility (1/GPa) = 0.02149539
#
# Stress axis : x y z
#
# Youngs Moduli (GPa) = 77.73842 69.33355 65.44622
#
# Poissons Ratio (x) = -0.07904 0.23822
# Poissons Ratio (y) = -0.08862 0.52590
# Poissons Ratio (z) = 0.28296 0.55713
#
# Static dielectric constant tensor:
#      x y z
#    x 4.006440 0.000000 0.000000 
#    y 0.000000 4.396710 0.000000 
#    z 0.000000 0.000000 4.077450 
# 
# 
# High freq. dielectric constant tensor:
#      x y z
#    x 1.888310 0.000000 0.000000 
#    y 0.000000 1.908170 0.000000 
#    z 0.000000 0.000000 1.884190 
# 
# From -- ./inp_files/527.got.cif
#   From: 2010.03.12/outbox.cif.g09.slc.cpg/sg61_1_cif.got.tgz:527.got - 2010.04.10 19:05:03.
