data_PCOD8249240
_publ_section_title
;
Structure prediction by ZEFSAII (Michael W. Deem and Ramdas Pophale) SiO2 
 PCOD8249240
Probable space group: P B C A
;
_chemical_formula_sum "Si O2"
_cell_formula_units_Z 56
_cell_length_a 11.050585
_cell_length_b 18.917136
_cell_length_c 11.850227
_cell_angle_alpha 90.000000
_cell_angle_beta 90.000000
_cell_angle_gamma 90.000000
_cell_volume 2477.235672
_symmetry_space_group_name_H-M "P B C A"
_symmetry_group_IT_number 61
_symmetry_cell_setting 'orthorhombic'
loop_
_space_group_symop_operation_xyz
x,y,z
1/2-x,-y,1/2+z
1/2+x,1/2-y,-z
-x,1/2+y,1/2-z
-x,-y,-z
1/2+x,y,1/2-z
1/2-x,1/2+y,z
x,1/2-y,1/2+z
loop_
_atom_site_type_symbol
_atom_site_label
_atom_site_fract_x
_atom_site_fract_y
_atom_site_fract_z
Si Si1 0.789454 0.074096 0.666600
Si Si2 0.610130 0.057651 0.061532
Si Si3 0.441750 0.364503 0.702648
Si Si4 0.385844 0.757310 0.683905
Si Si5 0.732133 0.678412 0.132952
Si Si6 0.198726 0.801066 0.505594
Si Si7 0.055599 0.405191 0.183154
O O1 0.769809 0.140242 0.586221
O O2 0.671709 0.066437 0.747287
O O3 0.919661 0.081193 0.734326
O O4 0.796130 0.004813 0.587112
O O5 0.513604 0.064758 0.166569
O O6 0.676879 0.133483 0.056664
O O7 0.549570 0.051274 0.937122
O O8 0.507554 0.310641 0.786397
O O9 0.327407 0.380560 0.782990
O O10 0.408472 0.325924 0.586188
O O11 0.294586 0.761158 0.789696
O O12 0.322968 0.785105 0.570549
O O13 0.434026 0.678414 0.665267
O O14 0.650966 0.727232 0.050142
#
# Coordination Sequence:
#
# PCOD8249240 Si02
#       7
#     8   8   8   8   8   8   8
#     4  12  28  46  75 102 146 188 241 290 363 427
#     4  11  25  44  69  99 144 191 227 293 361 431
#     4  10  23  38  67  97 137 183 232 289 356 418
#     4  10  22  38  65 101 136 178 234 289 350 412
#     4  10  21  39  65 101 133 180 237 290 348 414
#     4  11  21  42  67 100 138 183 233 296 351 411
#     4  12  25  47  73 105 139 189 239 293 352 432
#
# _framework density 22.605844000000001
#
# number of rings (size 3 to 8) (size 9 to 14) (size 15 to 20)
#    0.000    1.143    4.286    1.286    4.000    2.286 
#    2.571    0.714    0.000    0.000    0.000    0.000 
#    0.000    0.000    0.000    0.000    0.000    0.000 
#
# Total GULP energy -693834.358606 kJ/mol
# GULP energy per Si atom -12389.899261 kJ/mol
# Density = 2.255439 g / cm^3
# Si number density = 22.605844 Si / 1000 Ang^3
#
#
#
# Elastic Constant Matrix: (Units=GPa)
#
#
# Indices 1 2 3 4 5 6 
#
# 1 87.5382 -0.7896 23.7973 0.0000 0.0000 0.0000
# 2 -0.7896 39.2711 7.1377 0.0000 0.0000 0.0000
# 3 23.7973 7.1377 61.9067 0.0000 0.0000 0.0000
# 4 0.0000 0.0000 0.0000 31.9317 0.0000 0.0000
# 5 0.0000 0.0000 0.0000 0.0000 44.4284 0.0000
# 6 0.0000 0.0000 0.0000 0.0000 0.0000 7.1689
#
#
#
# Elastic Compliance Matrix: (Units=1/GPa)
#
#
# Indices 1 2 3 4 5 6 
#
# 1 0.012810 0.001177 -0.005060 0.000000 0.000000 0.000000
# 2 0.001177 0.026117 -0.003464 0.000000 0.000000 0.000000
# 3 -0.005060 -0.003464 0.018498 0.000000 0.000000 0.000000
# 4 0.000000 0.000000 0.000000 0.031317 0.000000 0.000000
# 5 0.000000 0.000000 0.000000 0.000000 0.022508 0.000000
# 6 0.000000 0.000000 0.000000 0.000000 0.000000 0.139491
#
#
# Mechanical properties :
#
#
# Convention : Reuss Voigt Hill
#
# Bulk Modulus (GPa) = 23.40174 27.66741 25.53458
# Shear Modulus (GPa) = 17.87772 27.27716 22.57744
#
# Velocity S-wave (km/s) = 2.81525 3.47744 3.16372
# Velocity P-wave (km/s) = 4.57625 5.32814 4.96644
#
# Compressibility (1/GPa) = 0.04273186
#
# Stress axis : x y z
#
# Youngs Moduli (GPa) = 78.06566 38.28885 54.06066
#
# Poissons Ratio (x) = -0.04507 0.27354
# Poissons Ratio (y) = -0.09190 0.18726
# Poissons Ratio (z) = 0.39500 0.13262
#
# Static dielectric constant tensor:
#      x y z
#    x 4.170090 0.000000 0.000000 
#    y 0.000000 4.007150 0.000000 
#    z 0.000000 0.000000 4.097120 
# 
# 
# High freq. dielectric constant tensor:
#      x y z
#    x 1.893510 0.000000 0.000000 
#    y 0.000000 1.900620 0.000000 
#    z 0.000000 0.000000 1.883870 
# 
# From -- ./inp_files/5361.got.cif
#   From: 2010.03.12/outbox.cif.g09.slc.cpg/sg61_3_cif.got.tgz:5361.got - 2010.04.10 19:05:03.
