data_PCOD8249865
_publ_section_title
;
Structure prediction by ZEFSAII (Michael W. Deem and Ramdas Pophale) SiO2 
 PCOD8249865
Probable space group: P B C A
;
_chemical_formula_sum "Si O2"
_cell_formula_units_Z 48
_cell_length_a 9.354790
_cell_length_b 26.160361
_cell_length_c 8.413986
_cell_angle_alpha 90.000000
_cell_angle_beta 90.000000
_cell_angle_gamma 90.000000
_cell_volume 2059.110061
_symmetry_space_group_name_H-M "P B C A"
_symmetry_group_IT_number 61
_symmetry_cell_setting 'orthorhombic'
loop_
_space_group_symop_operation_xyz
x,y,z
1/2-x,-y,1/2+z
1/2+x,1/2-y,-z
-x,1/2+y,1/2-z
-x,-y,-z
1/2+x,y,1/2-z
1/2-x,1/2+y,z
x,1/2-y,1/2+z
loop_
_atom_site_type_symbol
_atom_site_label
_atom_site_fract_x
_atom_site_fract_y
_atom_site_fract_z
Si Si1 0.890736 0.036705 0.590247
Si Si2 0.612976 0.472235 0.889137
Si Si3 0.962302 0.362640 0.263157
Si Si4 0.295742 0.697594 0.632273
Si Si5 0.948377 0.635517 0.383830
Si Si6 0.780299 0.196508 0.221315
O O1 0.752274 0.046588 0.483933
O O2 0.967154 0.089896 0.640660
O O3 0.836508 0.009727 0.750810
O O4 0.000000 0.000000 0.500000
O O5 0.539033 0.421625 0.810776
O O6 0.500000 0.500000 0.000000
O O7 0.798810 0.349554 0.304192
O O8 0.041881 0.374058 0.428112
O O9 0.042171 0.313362 0.186786
O O10 0.304991 0.700043 0.442956
O O11 0.221044 0.748324 0.698092
O O12 0.060876 0.675823 0.312352
O O13 0.793130 0.657581 0.343031
#
# Coordination Sequence:
#
# PCOD8249865 Si02
#       6
#     8   8   8   8   8   8
#     4  12  29  46  76 108 152 204 256 317 392 454
#     4  12  27  48  73 109 155 197 259 316 378 463
#     4  11  25  46  73 105 145 193 241 313 376 453
#     4  11  25  45  72 105 145 187 247 303 383 456
#     4  11  26  45  73 104 147 190 249 307 376 447
#     4  11  26  45  73 107 144 193 245 310 379 457
#
# _framework density 23.311040999999999
#
# number of rings (size 3 to 8) (size 9 to 14) (size 15 to 20)
#    0.000    0.667    1.667    4.000    9.333    5.333 
#    0.000    0.000    0.000    0.000    0.000    0.000 
#    0.000    0.000    0.000    0.000    0.000    0.000 
#
# Total GULP energy -595326.252119 kJ/mol
# GULP energy per Si atom -12402.630252 kJ/mol
# Density = 2.325798 g / cm^3
# Si number density = 23.311041 Si / 1000 Ang^3
#
#
#
# Elastic Constant Matrix: (Units=GPa)
#
#
# Indices 1 2 3 4 5 6 
#
# 1 64.8840 21.4765 41.6566 0.0000 0.0000 0.0000
# 2 21.4765 145.7790 35.3251 0.0000 0.0000 0.0000
# 3 41.6566 35.3251 87.1830 0.0000 0.0000 0.0000
# 4 0.0000 0.0000 0.0000 42.7098 0.0000 0.0000
# 5 0.0000 0.0000 0.0000 0.0000 36.0055 0.0000
# 6 0.0000 0.0000 0.0000 0.0000 0.0000 30.9138
#
#
#
# Elastic Compliance Matrix: (Units=1/GPa)
#
#
# Indices 1 2 3 4 5 6 
#
# 1 0.022312 -0.000780 -0.010345 0.000000 0.000000 0.000000
# 2 -0.000780 0.007634 -0.002720 0.000000 0.000000 0.000000
# 3 -0.010345 -0.002720 0.017515 0.000000 0.000000 0.000000
# 4 0.000000 0.000000 0.000000 0.023414 0.000000 0.000000
# 5 0.000000 0.000000 0.000000 0.000000 0.027774 0.000000
# 6 0.000000 0.000000 0.000000 0.000000 0.000000 0.032348
#
#
# Mechanical properties :
#
#
# Convention : Reuss Voigt Hill
#
# Bulk Modulus (GPa) = 50.58074 54.97361 52.77717
# Shear Modulus (GPa) = 30.25236 35.21835 32.73536
#
# Velocity S-wave (km/s) = 3.60637 3.89112 3.75145
# Velocity P-wave (km/s) = 6.25192 6.61979 6.43848
#
# Compressibility (1/GPa) = 0.01977037
#
# Stress axis : x y z
#
# Youngs Moduli (GPa) = 44.81935 130.99585 57.09385
#
# Poissons Ratio (x) = 0.10222 0.59061
# Poissons Ratio (y) = 0.03497 0.15531
# Poissons Ratio (z) = 0.46364 0.35634
#
# Static dielectric constant tensor:
#      x y z
#    x 4.147990 0.000000 0.000000 
#    y 0.000000 4.316640 0.000000 
#    z 0.000000 0.000000 4.372720 
# 
# 
# High freq. dielectric constant tensor:
#      x y z
#    x 1.921950 0.000000 0.000000 
#    y 0.000000 1.935670 0.000000 
#    z 0.000000 0.000000 1.930910 
# 
# From -- ./inp_files/1890.got.cif
#   From: 2010.03.12/outbox.cif.g09.slc.cpg/sg61_1_cif.got.tgz:1890.got - 2010.04.10 19:05:03.
