data_PCOD8249214
_publ_section_title
;
Structure prediction by ZEFSAII (Michael W. Deem and Ramdas Pophale) SiO2 
 PCOD8249214
Probable space group: P B C A
;
_chemical_formula_sum "Si O2"
_cell_formula_units_Z 64
_cell_length_a 19.890828
_cell_length_b 4.982291
_cell_length_c 30.627459
_cell_angle_alpha 90.000000
_cell_angle_beta 90.000000
_cell_angle_gamma 90.000000
_cell_volume 3035.239175
_symmetry_space_group_name_H-M "P B C A"
_symmetry_group_IT_number 61
_symmetry_cell_setting 'orthorhombic'
loop_
_space_group_symop_operation_xyz
x,y,z
1/2-x,-y,1/2+z
1/2+x,1/2-y,-z
-x,1/2+y,1/2-z
-x,-y,-z
1/2+x,y,1/2-z
1/2-x,1/2+y,z
x,1/2-y,1/2+z
loop_
_atom_site_type_symbol
_atom_site_label
_atom_site_fract_x
_atom_site_fract_y
_atom_site_fract_z
Si Si1 0.086713 0.639172 0.242967
Si Si2 0.893043 0.988882 0.980531
Si Si3 0.205473 0.756684 0.583357
Si Si4 0.576872 0.254781 0.603920
Si Si5 0.207297 0.790910 0.181964
Si Si6 0.022827 0.765838 0.942724
Si Si7 0.554891 0.362799 0.703990
Si Si8 0.703752 0.314213 0.049869
O O1 0.152869 0.706043 0.216789
O O2 0.092341 0.344985 0.263902
O O3 0.025093 0.668163 0.209305
O O4 0.078336 0.841155 0.283268
O O5 0.857026 0.191511 0.947422
O O6 0.931442 0.176279 0.015182
O O7 0.944441 0.794388 0.954987
O O8 0.839685 0.796797 0.005330
O O9 0.267835 0.555764 0.574339
O O10 0.178835 0.739339 0.632988
O O11 0.536491 0.466552 0.574006
O O12 0.574897 0.322756 0.654353
O O13 0.655376 0.240435 0.590968
O O14 0.541513 0.969466 0.596173
O O15 0.271769 0.599045 0.189023
O O16 0.734326 0.611938 0.051181
#
# Coordination Sequence:
#
# PCOD8249214 Si02
#       8
#     8   8   8   8   8   8   8   8
#     4  10  21  40  64  93 120 160 195 250 310 364
#     4  10  22  40  60  89 122 162 213 250 304 363
#     4  10  22  37  57  87 121 160 205 246 289 365
#     4  11  23  43  61  91 123 157 203 257 306 365
#     4  10  21  39  59  89 127 159 197 244 302 368
#     4  10  24  38  61  90 123 159 203 259 308 355
#     4  10  22  40  66  92 121 152 206 252 302 369
#     4  11  23  39  62  84 120 165 201 252 300 348
#
# _framework density 21.085653000000001
#
# number of rings (size 3 to 8) (size 9 to 14) (size 15 to 20)
#    0.000    1.750    0.000    3.750    1.750    8.500 
#    4.500    3.750    0.000    0.000    0.000    0.000 
#    0.000    0.000    0.000    0.000    0.000    0.000 
#
# Total GULP energy -793903.865958 kJ/mol
# GULP energy per Si atom -12404.747906 kJ/mol
# Density = 2.103766 g / cm^3
# Si number density = 21.085653 Si / 1000 Ang^3
#
#
#
# Elastic Constant Matrix: (Units=GPa)
#
#
# Indices 1 2 3 4 5 6 
#
# 1 76.1117 0.5122 43.9818 0.0000 0.0000 0.0000
# 2 0.5122 57.9652 -5.4141 0.0000 0.0000 0.0000
# 3 43.9818 -5.4141 94.1587 0.0000 0.0000 0.0000
# 4 0.0000 0.0000 0.0000 13.1557 0.0000 0.0000
# 5 0.0000 0.0000 0.0000 0.0000 30.1559 0.0000
# 6 0.0000 0.0000 0.0000 0.0000 0.0000 23.8567
#
#
#
# Elastic Compliance Matrix: (Units=1/GPa)
#
#
# Indices 1 2 3 4 5 6 
#
# 1 0.018048 -0.000952 -0.008485 0.000000 0.000000 0.000000
# 2 -0.000952 0.017395 0.001445 0.000000 0.000000 0.000000
# 3 -0.008485 0.001445 0.014667 0.000000 0.000000 0.000000
# 4 0.000000 0.000000 0.000000 0.076012 0.000000 0.000000
# 5 0.000000 0.000000 0.000000 0.000000 0.033161 0.000000
# 6 0.000000 0.000000 0.000000 0.000000 0.000000 0.041917
#
#
# Mechanical properties :
#
#
# Convention : Reuss Voigt Hill
#
# Bulk Modulus (GPa) = 29.30339 34.04394 31.67366
# Shear Modulus (GPa) = 21.87607 26.04405 23.96006
#
# Velocity S-wave (km/s) = 3.22450 3.51829 3.37459
# Velocity P-wave (km/s) = 5.27168 5.71709 5.49890
#
# Compressibility (1/GPa) = 0.03412574
#
# Stress axis : x y z
#
# Youngs Moduli (GPa) = 55.40727 57.48742 68.18091
#
# Poissons Ratio (x) = 0.05473 0.57852
# Poissons Ratio (y) = 0.05275 -0.09851
# Poissons Ratio (z) = 0.47014 -0.08306
#
# Static dielectric constant tensor:
#      x y z
#    x 3.771060 0.000000 0.000000 
#    y 0.000000 3.908780 0.000000 
#    z 0.000000 0.000000 3.702580 
# 
# 
# High freq. dielectric constant tensor:
#      x y z
#    x 1.822370 0.000000 0.000000 
#    y 0.000000 1.839150 0.000000 
#    z 0.000000 0.000000 1.822270 
# 
# From -- ./inp_files/11842.got.cif
#   From: 2010.03.12/outbox.cif.g09.slc.cpg/sg61_6_cif.got.tgz:11842.got - 2010.04.10 19:05:03.
