data_PCOD8249373
_publ_section_title
;
Structure prediction by ZEFSAII (Michael W. Deem and Ramdas Pophale) SiO2 
 PCOD8249373
Probable space group: P B C A
;
_chemical_formula_sum "Si O2"
_cell_formula_units_Z 56
_cell_length_a 9.230041
_cell_length_b 17.186739
_cell_length_c 15.790434
_cell_angle_alpha 90.000000
_cell_angle_beta 90.000000
_cell_angle_gamma 90.000000
_cell_volume 2504.904533
_symmetry_space_group_name_H-M "P B C A"
_symmetry_group_IT_number 61
_symmetry_cell_setting 'orthorhombic'
loop_
_space_group_symop_operation_xyz
x,y,z
1/2-x,-y,1/2+z
1/2+x,1/2-y,-z
-x,1/2+y,1/2-z
-x,-y,-z
1/2+x,y,1/2-z
1/2-x,1/2+y,z
x,1/2-y,1/2+z
loop_
_atom_site_type_symbol
_atom_site_label
_atom_site_fract_x
_atom_site_fract_y
_atom_site_fract_z
Si Si1 0.242762 0.718533 0.169491
Si Si2 0.816059 0.927220 0.645698
Si Si3 0.734861 0.243274 0.651000
Si Si4 0.647130 0.548603 0.309761
Si Si5 0.224385 0.071568 0.544311
Si Si6 0.976267 0.783591 0.425217
Si Si7 0.028655 0.683700 0.574598
O O1 0.193119 0.758617 0.256663
O O2 0.227022 0.627209 0.165324
O O3 0.410185 0.743674 0.158854
O O4 0.153989 0.754498 0.093003
O O5 0.803492 0.833963 0.632561
O O6 0.699227 0.965529 0.711644
O O7 0.791250 0.964237 0.551230
O O8 0.973712 0.946443 0.684418
O O9 0.851835 0.207632 0.586534
O O10 0.594132 0.185866 0.648039
O O11 0.703618 0.487708 0.378800
O O12 0.390130 0.102530 0.556437
O O13 0.096898 0.134765 0.552450
O O14 0.941579 0.718488 0.495573
#
# Coordination Sequence:
#
# PCOD8249373 Si02
#       7
#     8   8   8   8   8   8   8
#     4  10  22  38  66  92 131 180 227 273 348 411
#     4  11  23  44  72  96 136 187 236 278 348 424
#     4  11  20  37  68  99 131 172 229 286 337 418
#     4  11  25  45  69  97 139 189 233 279 347 435
#     4  11  24  45  70 100 146 180 234 290 359 411
#     4  11  21  39  68  99 132 170 228 291 348 406
#     4  11  20  40  66 103 129 169 230 289 340 410
#
# _framework density 22.356141000000001
#
# number of rings (size 3 to 8) (size 9 to 14) (size 15 to 20)
#    0.000    1.143    4.286    2.143    6.000    0.000 
#   10.286    2.857    0.000    0.000    0.000    0.000 
#    0.000    0.000    0.000    0.000    0.000    0.000 
#
# Total GULP energy -693789.668196 kJ/mol
# GULP energy per Si atom -12389.101218 kJ/mol
# Density = 2.230526 g / cm^3
# Si number density = 22.356141 Si / 1000 Ang^3
#
#
#
# Elastic Constant Matrix: (Units=GPa)
#
#
# Indices 1 2 3 4 5 6 
#
# 1 120.5572 35.0746 44.7481 0.0000 0.0000 0.0000
# 2 35.0746 45.8210 51.1855 0.0000 0.0000 0.0000
# 3 44.7481 51.1855 132.7345 0.0000 0.0000 0.0000
# 4 0.0000 0.0000 0.0000 35.3668 0.0000 0.0000
# 5 0.0000 0.0000 0.0000 0.0000 35.2135 0.0000
# 6 0.0000 0.0000 0.0000 0.0000 0.0000 27.1762
#
#
#
# Elastic Compliance Matrix: (Units=1/GPa)
#
#
# Indices 1 2 3 4 5 6 
#
# 1 0.010718 -0.007322 -0.000790 0.000000 0.000000 0.000000
# 2 -0.007322 0.043342 -0.014245 0.000000 0.000000 0.000000
# 3 -0.000790 -0.014245 0.013293 0.000000 0.000000 0.000000
# 4 0.000000 0.000000 0.000000 0.028275 0.000000 0.000000
# 5 0.000000 0.000000 0.000000 0.000000 0.028398 0.000000
# 6 0.000000 0.000000 0.000000 0.000000 0.000000 0.036797
#
#
# Mechanical properties :
#
#
# Convention : Reuss Voigt Hill
#
# Bulk Modulus (GPa) = 44.17120 62.34770 53.25945
# Shear Modulus (GPa) = 23.46487 30.75828 27.11158
#
# Velocity S-wave (km/s) = 3.24326 3.71324 3.48618
# Velocity P-wave (km/s) = 5.81600 6.80685 6.33084
#
# Compressibility (1/GPa) = 0.02263919
#
# Stress axis : x y z
#
# Youngs Moduli (GPa) = 93.29849 23.07233 75.22568
#
# Poissons Ratio (x) = 0.16894 0.05941
# Poissons Ratio (y) = 0.68316 1.07160
# Poissons Ratio (z) = 0.07368 0.32867
#
# Static dielectric constant tensor:
#      x y z
#    x 4.086890 0.000000 0.000000 
#    y 0.000000 3.633260 0.000000 
#    z 0.000000 0.000000 4.434230 
# 
# 
# High freq. dielectric constant tensor:
#      x y z
#    x 1.893940 0.000000 0.000000 
#    y 0.000000 1.838000 0.000000 
#    z 0.000000 0.000000 1.901020 
# 
# From -- ./inp_files/7159.got.cif
#   From: 2010.03.12/outbox.cif.g09.slc.cpg/sg61_4_cif.got.tgz:7159.got - 2010.04.10 19:05:03.
