data_PCOD8249475
_publ_section_title
;
Structure prediction by ZEFSAII (Michael W. Deem and Ramdas Pophale) SiO2 
 PCOD8249475
Probable space group: P B C A
;
_chemical_formula_sum "Si O2"
_cell_formula_units_Z 48
_cell_length_a 12.501969
_cell_length_b 23.493702
_cell_length_c 7.428961
_cell_angle_alpha 90.000000
_cell_angle_beta 90.000000
_cell_angle_gamma 90.000000
_cell_volume 2182.016106
_symmetry_space_group_name_H-M "P B C A"
_symmetry_group_IT_number 61
_symmetry_cell_setting 'orthorhombic'
loop_
_space_group_symop_operation_xyz
x,y,z
1/2-x,-y,1/2+z
1/2+x,1/2-y,-z
-x,1/2+y,1/2-z
-x,-y,-z
1/2+x,y,1/2-z
1/2-x,1/2+y,z
x,1/2-y,1/2+z
loop_
_atom_site_type_symbol
_atom_site_label
_atom_site_fract_x
_atom_site_fract_y
_atom_site_fract_z
Si Si1 0.236747 0.431860 0.749868
Si Si2 0.890634 0.519797 0.910175
Si Si3 0.440535 0.557513 0.961061
Si Si4 0.256254 0.810363 0.618031
Si Si5 0.124183 0.727056 0.811561
Si Si6 0.504323 0.178757 0.502327
O O1 0.343877 0.466099 0.701526
O O2 0.165630 0.444810 0.576893
O O3 0.254393 0.363560 0.756017
O O4 0.187123 0.452854 0.939565
O O5 0.913594 0.565696 0.751886
O O6 0.000000 0.500000 0.000000
O O7 0.512746 0.611070 0.024838
O O8 0.500000 0.500000 0.000000
O O9 0.231709 0.749518 0.711844
O O10 0.162921 0.815861 0.466806
O O11 0.371416 0.806158 0.524584
O O12 0.035643 0.693044 0.701797
O O13 0.067780 0.786071 0.866435
#
# Coordination Sequence:
#
# PCOD8249475 Si02
#       6
#     8   8   8   8   8   8
#     4  11  25  43  65 101 138 177 230 277 342 414
#     4  12  25  43  70  99 140 184 221 284 340 416
#     4  11  24  44  69 102 138 179 232 279 349 416
#     4  10  23  42  64  98 129 174 228 281 343 409
#     4  10  22  43  69  92 134 179 226 285 347 406
#     4  10  23  43  66  99 133 175 230 284 339 415
#
# _framework density 21.998003000000001
#
# number of rings (size 3 to 8) (size 9 to 14) (size 15 to 20)
#    0.000    1.333    3.333    1.000    4.667    0.000 
#   21.000    0.000    0.000    0.000    0.000    0.000 
#    0.000    0.000    0.000    0.000    0.000    0.000 
#
# Total GULP energy -594865.615995 kJ/mol
# GULP energy per Si atom -12393.033667 kJ/mol
# Density = 2.194793 g / cm^3
# Si number density = 21.998003 Si / 1000 Ang^3
#
#
#
# Elastic Constant Matrix: (Units=GPa)
#
#
# Indices 1 2 3 4 5 6 
#
# 1 82.3944 52.3751 24.9532 0.0000 0.0000 0.0000
# 2 52.3751 113.7667 23.5106 0.0000 0.0000 0.0000
# 3 24.9532 23.5106 106.5239 0.0000 0.0000 0.0000
# 4 0.0000 0.0000 0.0000 11.2897 0.0000 0.0000
# 5 0.0000 0.0000 0.0000 0.0000 42.2608 0.0000
# 6 0.0000 0.0000 0.0000 0.0000 0.0000 36.8167
#
#
#
# Elastic Compliance Matrix: (Units=1/GPa)
#
#
# Indices 1 2 3 4 5 6 
#
# 1 0.017756 -0.007664 -0.002468 0.000000 0.000000 0.000000
# 2 -0.007664 0.012518 -0.000968 0.000000 0.000000 0.000000
# 3 -0.002468 -0.000968 0.010179 0.000000 0.000000 0.000000
# 4 0.000000 0.000000 0.000000 0.088577 0.000000 0.000000
# 5 0.000000 0.000000 0.000000 0.000000 0.023663 0.000000
# 6 0.000000 0.000000 0.000000 0.000000 0.000000 0.027162
#
#
# Mechanical properties :
#
#
# Convention : Reuss Voigt Hill
#
# Bulk Modulus (GPa) = 54.78184 56.04030 55.41107
# Shear Modulus (GPa) = 24.02246 31.52984 27.77615
#
# Velocity S-wave (km/s) = 3.30817 3.79001 3.55726
# Velocity P-wave (km/s) = 6.28881 6.68451 6.48968
#
# Compressibility (1/GPa) = 0.01825422
#
# Stress axis : x y z
#
# Youngs Moduli (GPa) = 56.31859 79.88264 98.23979
#
# Poissons Ratio (x) = 0.61226 0.24243
# Poissons Ratio (y) = 0.43165 0.09505
# Poissons Ratio (z) = 0.13898 0.07729
#
# Static dielectric constant tensor:
#      x y z
#    x 4.023680 0.000000 0.000000 
#    y 0.000000 3.823560 0.000000 
#    z 0.000000 0.000000 4.195650 
# 
# 
# High freq. dielectric constant tensor:
#      x y z
#    x 1.870770 0.000000 0.000000 
#    y 0.000000 1.863150 0.000000 
#    z 0.000000 0.000000 1.874030 
# 
# From -- ./inp_files/2286.got.cif
#   From: 2010.03.12/outbox.cif.g09.slc.cpg/sg61_2_cif.got.tgz:2286.got - 2010.04.10 19:05:03.
