data_PCOD8249310
_publ_section_title
;
Structure prediction by ZEFSAII (Michael W. Deem and Ramdas Pophale) SiO2 
 PCOD8249310
Probable space group: P B C A
;
_chemical_formula_sum "Si O2"
_cell_formula_units_Z 64
_cell_length_a 21.464396
_cell_length_b 15.301963
_cell_length_c 8.470494
_cell_angle_alpha 90.000000
_cell_angle_beta 90.000000
_cell_angle_gamma 90.000000
_cell_volume 2782.111675
_symmetry_space_group_name_H-M "P B C A"
_symmetry_group_IT_number 61
_symmetry_cell_setting 'orthorhombic'
loop_
_space_group_symop_operation_xyz
x,y,z
1/2-x,-y,1/2+z
1/2+x,1/2-y,-z
-x,1/2+y,1/2-z
-x,-y,-z
1/2+x,y,1/2-z
1/2-x,1/2+y,z
x,1/2-y,1/2+z
loop_
_atom_site_type_symbol
_atom_site_label
_atom_site_fract_x
_atom_site_fract_y
_atom_site_fract_z
Si Si1 0.865610 0.831486 0.126019
Si Si2 0.475736 0.405054 0.564390
Si Si3 0.401347 0.838311 0.031831
Si Si4 0.273993 0.138796 0.815855
Si Si5 0.597450 0.641266 0.148904
Si Si6 0.428363 0.515807 0.042953
Si Si7 0.161228 0.758771 0.579648
Si Si8 0.376675 0.483669 0.379084
O O1 0.905988 0.824952 0.282652
O O2 0.799959 0.872926 0.178571
O O3 0.903700 0.888849 0.000984
O O4 0.859346 0.735522 0.050757
O O5 0.500000 0.500000 0.500000
O O6 0.526057 0.332437 0.518027
O O7 0.465693 0.385667 0.753003
O O8 0.408631 0.400457 0.473195
O O9 0.371259 0.931782 0.989600
O O10 0.299197 0.179396 0.653920
O O11 0.307063 0.044068 0.831924
O O12 0.289994 0.198633 0.963560
O O13 0.614658 0.553165 0.054069
O O14 0.645022 0.671912 0.283761
O O15 0.599639 0.718549 0.013710
O O16 0.500000 0.500000 0.000000
O O17 0.420322 0.505630 0.230148
#
# Coordination Sequence:
#
# PCOD8249310 Si02
#       8
#     8   8   8   8   8   8   8   8
#     4  12  27  46  69  99 140 192 231 294 359 421
#     4  10  21  41  69  98 136 176 223 289 349 416
#     4  11  25  46  67 100 140 182 237 286 356 424
#     4  11  23  46  68 100 140 179 239 292 351 428
#     4  11  22  42  67 103 135 178 227 285 359 408
#     4  12  25  45  68 101 141 179 237 287 351 427
#     4  10  23  42  69 100 137 173 233 295 340 426
#     4  11  22  44  71 101 136 181 232 292 355 425
#
# _framework density 23.004110000000001
#
# number of rings (size 3 to 8) (size 9 to 14) (size 15 to 20)
#    0.000    1.000    2.500    5.250    0.000    3.000 
#    4.500    0.000    0.000    0.000    0.000    0.000 
#    0.000    0.000    0.000    0.000    0.000    0.000 
#
# Total GULP energy -792954.308969 kJ/mol
# GULP energy per Si atom -12389.911078 kJ/mol
# Density = 2.295175 g / cm^3
# Si number density = 23.004110 Si / 1000 Ang^3
#
#
#
# Elastic Constant Matrix: (Units=GPa)
#
#
# Indices 1 2 3 4 5 6 
#
# 1 89.5666 23.2007 -1.9437 0.0000 0.0000 0.0000
# 2 23.2007 89.0930 28.9893 0.0000 0.0000 0.0000
# 3 -1.9437 28.9893 109.6348 0.0000 0.0000 0.0000
# 4 0.0000 0.0000 0.0000 34.0517 0.0000 0.0000
# 5 0.0000 0.0000 0.0000 0.0000 26.5442 0.0000
# 6 0.0000 0.0000 0.0000 0.0000 0.0000 33.9584
#
#
#
# Elastic Compliance Matrix: (Units=1/GPa)
#
#
# Indices 1 2 3 4 5 6 
#
# 1 0.012103 -0.003525 0.001147 0.000000 0.000000 0.000000
# 2 -0.003525 0.013307 -0.003581 0.000000 0.000000 0.000000
# 3 0.001147 -0.003581 0.010088 0.000000 0.000000 0.000000
# 4 0.000000 0.000000 0.000000 0.029367 0.000000 0.000000
# 5 0.000000 0.000000 0.000000 0.000000 0.037673 0.000000
# 6 0.000000 0.000000 0.000000 0.000000 0.000000 0.029448
#
#
# Mechanical properties :
#
#
# Convention : Reuss Voigt Hill
#
# Bulk Modulus (GPa) = 42.40906 43.19854 42.80380
# Shear Modulus (GPa) = 32.94563 34.78074 33.86318
#
# Velocity S-wave (km/s) = 3.78850 3.89258 3.84089
# Velocity P-wave (km/s) = 6.13290 6.24678 6.19010
#
# Compressibility (1/GPa) = 0.02357987
#
# Stress axis : x y z
#
# Youngs Moduli (GPa) = 82.62559 75.14637 99.12328
#
# Poissons Ratio (x) = 0.26487 -0.11365
# Poissons Ratio (y) = 0.29124 0.35498
# Poissons Ratio (z) = -0.09474 0.26911
#
# Static dielectric constant tensor:
#      x y z
#    x 4.127100 0.000000 0.000000 
#    y 0.000000 4.335270 0.000000 
#    z 0.000000 0.000000 4.474260 
# 
# 
# High freq. dielectric constant tensor:
#      x y z
#    x 1.887680 0.000000 0.000000 
#    y 0.000000 1.907600 0.000000 
#    z 0.000000 0.000000 1.932430 
# 
# From -- ./inp_files/4350.got.cif
#   From: 2010.03.12/outbox.cif.g09.slc.cpg/sg61_3_cif.got.tgz:4350.got - 2010.04.10 19:05:03.
