data_PCOD8249118
_publ_section_title
;
Structure prediction by ZEFSAII (Michael W. Deem and Ramdas Pophale) SiO2 
 PCOD8249118
Probable space group: P B C A
;
_chemical_formula_sum "Si O2"
_cell_formula_units_Z 56
_cell_length_a 5.485486
_cell_length_b 13.395903
_cell_length_c 30.909776
_cell_angle_alpha 90.000000
_cell_angle_beta 90.000000
_cell_angle_gamma 90.000000
_cell_volume 2271.344256
_symmetry_space_group_name_H-M "P B C A"
_symmetry_group_IT_number 61
_symmetry_cell_setting 'orthorhombic'
loop_
_space_group_symop_operation_xyz
x,y,z
1/2-x,-y,1/2+z
1/2+x,1/2-y,-z
-x,1/2+y,1/2-z
-x,-y,-z
1/2+x,y,1/2-z
1/2-x,1/2+y,z
x,1/2-y,1/2+z
loop_
_atom_site_type_symbol
_atom_site_label
_atom_site_fract_x
_atom_site_fract_y
_atom_site_fract_z
Si Si1 0.735955 0.001548 0.855595
Si Si2 0.655510 0.237199 0.730619
Si Si3 0.382974 0.537351 0.235359
Si Si4 0.556293 0.191153 0.492420
Si Si5 0.587113 0.678309 0.646825
Si Si6 0.245732 0.814940 0.597928
Si Si7 0.055534 0.124506 0.920074
O O1 0.896358 0.956600 0.816492
O O2 0.606343 0.908704 0.879974
O O3 0.558686 0.083286 0.834120
O O4 0.903004 0.046030 0.893198
O O5 0.391469 0.190409 0.743720
O O6 0.631742 0.354688 0.740919
O O7 0.700446 0.214226 0.679744
O O8 0.632316 0.481134 0.249983
O O9 0.785017 0.262322 0.505172
O O10 0.594320 0.150262 0.443757
O O11 0.568504 0.101097 0.528479
O O12 0.414309 0.770959 0.636385
O O13 0.680024 0.633899 0.601263
O O14 0.049783 0.736297 0.582621
#
# Coordination Sequence:
#
# PCOD8249118 Si02
#       7
#     8   8   8   8   8   8   8
#     4  11  26  42  67 106 138 182 238 298 355 422
#     4  10  23  41  68  94 128 180 228 279 343 409
#     4  10  23  42  64  94 133 175 229 280 339 417
#     4  10  20  43  71 102 138 189 238 282 352 430
#     4  11  24  43  68  98 141 180 233 294 355 415
#     4  10  22  43  71  97 136 191 229 287 354 433
#     4  10  24  42  68 100 142 179 233 295 353 421
#
# _framework density 24.655002
#
# number of rings (size 3 to 8) (size 9 to 14) (size 15 to 20)
#    0.000    1.714    1.429    1.714   10.000    2.857 
#    0.000    0.714    0.000    0.000    0.000    0.000 
#    0.000    0.000    0.000    0.000    0.000    0.000 
#
# Total GULP energy -693753.706407 kJ/mol
# GULP energy per Si atom -12388.459043 kJ/mol
# Density = 2.459889 g / cm^3
# Si number density = 24.655002 Si / 1000 Ang^3
#
#
#
# Elastic Constant Matrix: (Units=GPa)
#
#
# Indices 1 2 3 4 5 6 
#
# 1 134.5424 14.1426 20.4503 0.0000 0.0000 0.0000
# 2 14.1426 54.0312 42.1004 0.0000 0.0000 0.0000
# 3 20.4503 42.1004 92.8198 0.0000 0.0000 0.0000
# 4 0.0000 0.0000 0.0000 34.6244 0.0000 0.0000
# 5 0.0000 0.0000 0.0000 0.0000 40.1239 0.0000
# 6 0.0000 0.0000 0.0000 0.0000 0.0000 18.5980
#
#
#
# Elastic Compliance Matrix: (Units=1/GPa)
#
#
# Indices 1 2 3 4 5 6 
#
# 1 0.007730 -0.001077 -0.001215 0.000000 0.000000 0.000000
# 2 -0.001077 0.028774 -0.012814 0.000000 0.000000 0.000000
# 3 -0.001215 -0.012814 0.016853 0.000000 0.000000 0.000000
# 4 0.000000 0.000000 0.000000 0.028881 0.000000 0.000000
# 5 0.000000 0.000000 0.000000 0.000000 0.024923 0.000000
# 6 0.000000 0.000000 0.000000 0.000000 0.000000 0.053769
#
#
# Mechanical properties :
#
#
# Convention : Reuss Voigt Hill
#
# Bulk Modulus (GPa) = 43.20267 48.30891 45.75579
# Shear Modulus (GPa) = 25.14361 32.31595 28.72978
#
# Velocity S-wave (km/s) = 3.19692 3.62432 3.41731
# Velocity P-wave (km/s) = 5.58462 6.09514 5.84546
#
# Compressibility (1/GPa) = 0.02314672
#
# Stress axis : x y z
#
# Youngs Moduli (GPa) = 129.35875 34.75345 59.33594
#
# Poissons Ratio (x) = 0.03743 0.07208
# Poissons Ratio (y) = 0.13931 0.76032
# Poissons Ratio (z) = 0.15713 0.44533
#
# Static dielectric constant tensor:
#      x y z
#    x 4.794410 0.000000 0.000000 
#    y 0.000000 4.166180 0.000000 
#    z 0.000000 0.000000 4.827310 
# 
# 
# High freq. dielectric constant tensor:
#      x y z
#    x 1.978840 0.000000 0.000000 
#    y 0.000000 1.960970 0.000000 
#    z 0.000000 0.000000 2.000570 
# 
# From -- ./inp_files/597.got.cif
#   From: 2010.03.12/outbox.cif.g09.slc.cpg/sg61_1_cif.got.tgz:597.got - 2010.04.10 19:05:03.
