data_PCOD8249765
_publ_section_title
;
Structure prediction by ZEFSAII (Michael W. Deem and Ramdas Pophale) SiO2 
 PCOD8249765
Probable space group: P B C A
;
_chemical_formula_sum "Si O2"
_cell_formula_units_Z 48
_cell_length_a 8.882916
_cell_length_b 28.846169
_cell_length_c 8.810918
_cell_angle_alpha 90.000000
_cell_angle_beta 90.000000
_cell_angle_gamma 90.000000
_cell_volume 2257.692854
_symmetry_space_group_name_H-M "P B C A"
_symmetry_group_IT_number 61
_symmetry_cell_setting 'orthorhombic'
loop_
_space_group_symop_operation_xyz
x,y,z
1/2-x,-y,1/2+z
1/2+x,1/2-y,-z
-x,1/2+y,1/2-z
-x,-y,-z
1/2+x,y,1/2-z
1/2-x,1/2+y,z
x,1/2-y,1/2+z
loop_
_atom_site_type_symbol
_atom_site_label
_atom_site_fract_x
_atom_site_fract_y
_atom_site_fract_z
Si Si1 0.199989 0.214498 0.616317
Si Si2 0.306976 0.612522 0.900369
Si Si3 0.612692 0.464473 0.571563
Si Si4 0.038624 0.123635 0.587318
Si Si5 0.943428 0.795573 0.061341
Si Si6 0.853371 0.518345 0.426112
O O1 0.118565 0.171229 0.533407
O O2 0.379596 0.213646 0.588804
O O3 0.123239 0.261955 0.564507
O O4 0.161113 0.211519 0.792296
O O5 0.380943 0.602770 0.736654
O O6 0.410980 0.650958 0.987213
O O7 0.137456 0.632027 0.878183
O O8 0.297667 0.565843 0.997609
O O9 0.500000 0.500000 0.500000
O O10 0.557861 0.411802 0.552306
O O11 0.755787 0.473550 0.467473
O O12 0.639675 0.474790 0.747176
O O13 0.000000 0.500000 0.500000
#
# Coordination Sequence:
#
# PCOD8249765 Si02
#       6
#     8   8   8   8   8   8
#     4  11  23  42  67  98 132 177 217 278 329 404
#     4  11  23  42  65  97 127 174 217 277 331 400
#     4  12  25  46  63  99 129 175 222 274 333 398
#     4  11  23  41  67  93 133 167 225 270 336 396
#     4  11  23  42  67  97 134 172 225 268 341 393
#     4  12  27  42  69  93 135 173 222 276 334 397
#
# _framework density 21.260642000000001
#
# number of rings (size 3 to 8) (size 9 to 14) (size 15 to 20)
#    0.000    0.667    1.667    9.000    4.667    1.333 
#    0.000    3.333    0.000    0.000    0.000    0.000 
#    0.000    0.000    0.000    0.000    0.000    0.000 
#
# Total GULP energy -594907.510779 kJ/mol
# GULP energy per Si atom -12393.906475 kJ/mol
# Density = 2.121225 g / cm^3
# Si number density = 21.260642 Si / 1000 Ang^3
#
#
#
# Elastic Constant Matrix: (Units=GPa)
#
#
# Indices 1 2 3 4 5 6 
#
# 1 156.1122 13.8774 19.3541 0.0000 0.0000 0.0000
# 2 13.8774 95.8512 22.7454 0.0000 0.0000 0.0000
# 3 19.3541 22.7454 88.9739 0.0000 0.0000 0.0000
# 4 0.0000 0.0000 0.0000 40.2574 0.0000 0.0000
# 5 0.0000 0.0000 0.0000 0.0000 30.9143 0.0000
# 6 0.0000 0.0000 0.0000 0.0000 0.0000 42.0339
#
#
#
# Elastic Compliance Matrix: (Units=1/GPa)
#
#
# Indices 1 2 3 4 5 6 
#
# 1 0.006622 -0.000657 -0.001273 0.000000 0.000000 0.000000
# 2 -0.000657 0.011172 -0.002713 0.000000 0.000000 0.000000
# 3 -0.001273 -0.002713 0.012210 0.000000 0.000000 0.000000
# 4 0.000000 0.000000 0.000000 0.024840 0.000000 0.000000
# 5 0.000000 0.000000 0.000000 0.000000 0.032347 0.000000
# 6 0.000000 0.000000 0.000000 0.000000 0.000000 0.023790
#
#
# Mechanical properties :
#
#
# Convention : Reuss Voigt Hill
#
# Bulk Modulus (GPa) = 48.26615 50.32122 49.29369
# Shear Modulus (GPa) = 39.31683 41.63848 40.47766
#
# Velocity S-wave (km/s) = 4.30499 4.43027 4.36808
# Velocity P-wave (km/s) = 6.88926 7.06327 6.97681
#
# Compressibility (1/GPa) = 0.02071845
#
# Stress axis : x y z
#
# Youngs Moduli (GPa) = 151.01652 89.51158 81.90249
#
# Poissons Ratio (x) = 0.05879 0.10422
# Poissons Ratio (y) = 0.09918 0.22221
# Poissons Ratio (z) = 0.19217 0.24285
#
# Static dielectric constant tensor:
#      x y z
#    x 3.871990 0.000000 0.000000 
#    y 0.000000 3.564320 0.000000 
#    z 0.000000 0.000000 3.783310 
# 
# 
# High freq. dielectric constant tensor:
#      x y z
#    x 1.860840 0.000000 0.000000 
#    y 0.000000 1.849790 0.000000 
#    z 0.000000 0.000000 1.815770 
# 
# From -- ./inp_files/1893.got.cif
#   From: 2010.03.12/outbox.cif.g09.slc.cpg/sg61_1_cif.got.tgz:1893.got - 2010.04.10 19:05:03.
