data_PCOD8249882
_publ_section_title
;
Structure prediction by ZEFSAII (Michael W. Deem and Ramdas Pophale) SiO2 
 PCOD8249882
Probable space group: P B C A
;
_chemical_formula_sum "Si O2"
_cell_formula_units_Z 48
_cell_length_a 9.911035
_cell_length_b 22.081638
_cell_length_c 9.048946
_cell_angle_alpha 90.000000
_cell_angle_beta 90.000000
_cell_angle_gamma 90.000000
_cell_volume 1980.378908
_symmetry_space_group_name_H-M "P B C A"
_symmetry_group_IT_number 61
_symmetry_cell_setting 'orthorhombic'
loop_
_space_group_symop_operation_xyz
x,y,z
1/2-x,-y,1/2+z
1/2+x,1/2-y,-z
-x,1/2+y,1/2-z
-x,-y,-z
1/2+x,y,1/2-z
1/2-x,1/2+y,z
x,1/2-y,1/2+z
loop_
_atom_site_type_symbol
_atom_site_label
_atom_site_fract_x
_atom_site_fract_y
_atom_site_fract_z
Si Si1 0.881888 0.802734 0.083946
Si Si2 0.257964 0.063361 0.609693
Si Si3 0.361680 0.465215 0.804617
Si Si4 0.086627 0.329436 0.978720
Si Si5 0.621564 0.110374 0.313188
Si Si6 0.382633 0.159003 0.779286
O O1 0.864680 0.739659 0.997085
O O2 0.765444 0.811046 0.206919
O O3 0.024574 0.801595 0.169427
O O4 0.877517 0.859339 0.972998
O O5 0.315721 0.022988 0.474883
O O6 0.194859 0.124254 0.543190
O O7 0.374318 0.089732 0.717670
O O8 0.151256 0.026060 0.707719
O O9 0.269284 0.413968 0.728312
O O10 0.517794 0.446054 0.806470
O O11 0.070680 0.339796 0.803799
O O12 0.943988 0.341909 0.056470
#
# Coordination Sequence:
#
# PCOD8249882 Si02
#       6
#     8   8   8   8   8   8
#     4  12  27  48  78 109 153 195 245 313 373 451
#     4  11  27  47  72 111 148 199 249 311 368 445
#     4  11  27  46  75 101 155 194 256 306 368 443
#     4  11  27  46  73 109 153 191 247 301 379 445
#     4  11  26  47  71 112 146 198 248 307 374 440
#     4  12  26  47  76 111 145 197 248 302 379 436
#
# _framework density 24.237784999999999
#
# number of rings (size 3 to 8) (size 9 to 14) (size 15 to 20)
#    0.000    0.667    3.333    2.000    9.333    4.667 
#    0.000    0.000    0.000    0.000    0.000    0.000 
#    0.000    0.000    0.000    0.000    0.000    0.000 
#
# Total GULP energy -595346.161799 kJ/mol
# GULP energy per Si atom -12403.045037 kJ/mol
# Density = 2.418262 g / cm^3
# Si number density = 24.237785 Si / 1000 Ang^3
#
#
#
# Elastic Constant Matrix: (Units=GPa)
#
#
# Indices 1 2 3 4 5 6 
#
# 1 78.4452 16.2822 33.1927 0.0000 0.0000 0.0000
# 2 16.2822 72.0925 37.9732 0.0000 0.0000 0.0000
# 3 33.1927 37.9732 119.8422 0.0000 0.0000 0.0000
# 4 0.0000 0.0000 0.0000 47.2760 0.0000 0.0000
# 5 0.0000 0.0000 0.0000 0.0000 43.2591 0.0000
# 6 0.0000 0.0000 0.0000 0.0000 0.0000 26.5365
#
#
#
# Elastic Compliance Matrix: (Units=1/GPa)
#
#
# Indices 1 2 3 4 5 6 
#
# 1 0.014556 -0.001397 -0.003589 0.000000 0.000000 0.000000
# 2 -0.001397 0.016784 -0.004931 0.000000 0.000000 0.000000
# 3 -0.003589 -0.004931 0.010901 0.000000 0.000000 0.000000
# 4 0.000000 0.000000 0.000000 0.021152 0.000000 0.000000
# 5 0.000000 0.000000 0.000000 0.000000 0.023117 0.000000
# 6 0.000000 0.000000 0.000000 0.000000 0.000000 0.037684
#
#
# Mechanical properties :
#
#
# Convention : Reuss Voigt Hill
#
# Bulk Modulus (GPa) = 44.62980 49.47511 47.05246
# Shear Modulus (GPa) = 33.00381 35.60977 34.30679
#
# Velocity S-wave (km/s) = 3.69408 3.83715 3.76630
# Velocity P-wave (km/s) = 6.05378 6.33154 6.19422
#
# Compressibility (1/GPa) = 0.02240655
#
# Stress axis : x y z
#
# Youngs Moduli (GPa) = 68.69850 59.58041 91.73595
#
# Poissons Ratio (x) = 0.08324 0.32924
# Poissons Ratio (y) = 0.09598 0.45237
# Poissons Ratio (z) = 0.24656 0.29380
#
# Static dielectric constant tensor:
#      x y z
#    x 4.181800 0.000000 0.000000 
#    y 0.000000 4.155310 0.000000 
#    z 0.000000 0.000000 4.729550 
# 
# 
# High freq. dielectric constant tensor:
#      x y z
#    x 1.957780 0.000000 0.000000 
#    y 0.000000 1.955980 0.000000 
#    z 0.000000 0.000000 1.983870 
# 
# From -- ./inp_files/2266.got.cif
#   From: 2010.03.12/outbox.cif.g09.slc.cpg/sg61_2_cif.got.tgz:2266.got - 2010.04.10 19:05:03.
