data_PCOD8249615
_publ_section_title
;
Structure prediction by ZEFSAII (Michael W. Deem and Ramdas Pophale) SiO2 
 PCOD8249615
Probable space group: P B C A
;
_chemical_formula_sum "Si O2"
_cell_formula_units_Z 32
_cell_length_a 10.501635
_cell_length_b 15.533691
_cell_length_c 7.712340
_cell_angle_alpha 90.000000
_cell_angle_beta 90.000000
_cell_angle_gamma 90.000000
_cell_volume 1258.107493
_symmetry_space_group_name_H-M "P B C A"
_symmetry_group_IT_number 61
_symmetry_cell_setting 'orthorhombic'
loop_
_space_group_symop_operation_xyz
x,y,z
1/2-x,-y,1/2+z
1/2+x,1/2-y,-z
-x,1/2+y,1/2-z
-x,-y,-z
1/2+x,y,1/2-z
1/2-x,1/2+y,z
x,1/2-y,1/2+z
loop_
_atom_site_type_symbol
_atom_site_label
_atom_site_fract_x
_atom_site_fract_y
_atom_site_fract_z
Si Si1 0.507048 0.580030 0.754866
Si Si2 0.872352 0.657769 0.438482
Si Si3 0.262602 0.992765 0.126816
Si Si4 0.379885 0.658254 0.452765
O O1 0.639643 0.529977 0.754436
O O2 0.391995 0.509249 0.741652
O O3 0.499098 0.640838 0.583739
O O4 0.487545 0.633442 0.931860
O O5 0.758738 0.587406 0.454004
O O6 0.816220 0.750344 0.494726
O O7 0.927703 0.661250 0.244076
O O8 0.275299 0.918140 0.978107
#
# Coordination Sequence:
#
# PCOD8249615 Si02
#       4
#     8   8   8   8
#     4  10  24  48  66 107 135 181 234 283 348 410
#     4  12  21  47  70 101 142 186 224 299 336 419
#     4  10  24  48  71 102 143 179 237 285 351 407
#     4  10  24  43  67 107 132 185 235 275 352 409
#
# _framework density 25.435029
#
# number of rings (size 3 to 8) (size 9 to 14) (size 15 to 20)
#    1.500    0.000    2.500    2.250    0.000    1.000 
#   18.000    0.000    0.000    0.000    0.000    0.000 
#    0.000    0.000    0.000    0.000    0.000    0.000 
#
# Total GULP energy -396503.874575 kJ/mol
# GULP energy per Si atom -12390.746080 kJ/mol
# Density = 2.537714 g / cm^3
# Si number density = 25.435029 Si / 1000 Ang^3
#
#
#
# Elastic Constant Matrix: (Units=GPa)
#
#
# Indices 1 2 3 4 5 6 
#
# 1 98.2878 25.6270 20.2058 0.0000 0.0000 0.0000
# 2 25.6270 183.8909 42.1573 0.0000 0.0000 0.0000
# 3 20.2058 42.1573 185.4363 0.0000 0.0000 0.0000
# 4 0.0000 0.0000 0.0000 32.2060 0.0000 0.0000
# 5 0.0000 0.0000 0.0000 0.0000 25.9357 0.0000
# 6 0.0000 0.0000 0.0000 0.0000 0.0000 16.6611
#
#
#
# Elastic Compliance Matrix: (Units=1/GPa)
#
#
# Indices 1 2 3 4 5 6 
#
# 1 0.010690 -0.001290 -0.000872 0.000000 0.000000 0.000000
# 2 -0.001290 0.005893 -0.001199 0.000000 0.000000 0.000000
# 3 -0.000872 -0.001199 0.005760 0.000000 0.000000 0.000000
# 4 0.000000 0.000000 0.000000 0.031050 0.000000 0.000000
# 5 0.000000 0.000000 0.000000 0.000000 0.038557 0.000000
# 6 0.000000 0.000000 0.000000 0.000000 0.000000 0.060020
#
#
# Mechanical properties :
#
#
# Convention : Reuss Voigt Hill
#
# Bulk Modulus (GPa) = 64.01421 71.51058 67.76240
# Shear Modulus (GPa) = 30.50677 40.26889 35.38783
#
# Velocity S-wave (km/s) = 3.46699 3.98327 3.73406
# Velocity P-wave (km/s) = 6.42255 7.02362 6.72980
#
# Compressibility (1/GPa) = 0.01562153
#
# Stress axis : x y z
#
# Youngs Moduli (GPa) = 93.54808 169.70256 173.60344
#
# Poissons Ratio (x) = 0.21890 0.15130
# Poissons Ratio (y) = 0.12067 0.20817
# Poissons Ratio (z) = 0.08153 0.20349
#
# Static dielectric constant tensor:
#      x y z
#    x 3.794200 0.000000 0.000000 
#    y 0.000000 4.834370 0.000000 
#    z 0.000000 0.000000 4.651640 
# 
# 
# High freq. dielectric constant tensor:
#      x y z
#    x 1.959820 0.000000 0.000000 
#    y 0.000000 2.020780 0.000000 
#    z 0.000000 0.000000 2.038130 
# 
# From -- ./inp_files/2083.got.cif
#   From: 2010.03.12/outbox.cif.g09.slc.cpg/sg61_2_cif.got.tgz:2083.got - 2010.04.10 19:05:03.
