data_PCOD8249100
_publ_section_title
;
Structure prediction by ZEFSAII (Michael W. Deem and Ramdas Pophale) SiO2 
 PCOD8249100
Probable space group: P B C A
;
_chemical_formula_sum "Si O2"
_cell_formula_units_Z 64
_cell_length_a 10.864577
_cell_length_b 15.813141
_cell_length_c 17.318651
_cell_angle_alpha 90.000000
_cell_angle_beta 90.000000
_cell_angle_gamma 90.000000
_cell_volume 2975.397722
_symmetry_space_group_name_H-M "P B C A"
_symmetry_group_IT_number 61
_symmetry_cell_setting 'orthorhombic'
loop_
_space_group_symop_operation_xyz
x,y,z
1/2-x,-y,1/2+z
1/2+x,1/2-y,-z
-x,1/2+y,1/2-z
-x,-y,-z
1/2+x,y,1/2-z
1/2-x,1/2+y,z
x,1/2-y,1/2+z
loop_
_atom_site_type_symbol
_atom_site_label
_atom_site_fract_x
_atom_site_fract_y
_atom_site_fract_z
Si Si1 0.811781 0.181857 0.034712
Si Si2 0.165807 0.524430 0.847148
Si Si3 0.355831 0.351644 0.700156
Si Si4 0.750819 0.816514 0.361594
Si Si5 0.942731 0.871078 0.575559
Si Si6 0.832443 0.996108 0.820315
Si Si7 0.026402 0.828969 0.413261
Si Si8 0.591615 0.945617 0.642515
O O1 0.671575 0.194172 0.064960
O O2 0.905134 0.241820 0.078082
O O3 0.863273 0.090776 0.060337
O O4 0.818870 0.195111 0.943022
O O5 0.111363 0.464670 0.913528
O O6 0.117068 0.486491 0.766515
O O7 0.114224 0.617484 0.857705
O O8 0.315466 0.524446 0.842429
O O9 0.288413 0.259618 0.696265
O O10 0.477190 0.342084 0.648196
O O11 0.271070 0.425378 0.661838
O O12 0.390861 0.376121 0.788148
O O13 0.719211 0.909405 0.330032
O O14 0.896971 0.812463 0.372260
O O15 0.017907 0.874588 0.496096
O O16 0.953383 0.978029 0.871211
#
# Coordination Sequence:
#
# PCOD8249100 Si02
#       8
#     8   8   8   8   8   8   8   8
#     4  10  23  42  61 100 127 167 227 263 328 401
#     4  10  22  39  62  96 124 171 223 263 328 392
#     4  11  22  43  67  94 137 178 212 270 341 385
#     4  11  25  42  67  99 131 174 224 274 327 402
#     4  10  20  41  68  88 128 170 215 269 324 391
#     4  11  24  42  65 100 133 171 226 271 330 400
#     4  11  22  41  66  93 132 170 219 276 325 391
#     4  10  23  42  63  93 134 173 213 278 330 393
#
# _framework density 21.509730000000001
#
# number of rings (size 3 to 8) (size 9 to 14) (size 15 to 20)
#    0.000    1.500    2.500    1.875    3.500    3.500 
#    0.000    0.000    0.000    0.000    0.000    0.000 
#    0.000    0.000    0.000    0.000    0.000    0.000 
#
# Total GULP energy -793336.324140 kJ/mol
# GULP energy per Si atom -12395.880065 kJ/mol
# Density = 2.146077 g / cm^3
# Si number density = 21.509730 Si / 1000 Ang^3
#
#
#
# Elastic Constant Matrix: (Units=GPa)
#
#
# Indices 1 2 3 4 5 6 
#
# 1 101.1330 40.9315 22.7839 0.0000 0.0000 0.0000
# 2 40.9315 111.8133 12.6769 0.0000 0.0000 0.0000
# 3 22.7839 12.6769 40.7063 0.0000 0.0000 0.0000
# 4 0.0000 0.0000 0.0000 29.4724 0.0000 0.0000
# 5 0.0000 0.0000 0.0000 0.0000 30.2357 0.0000
# 6 0.0000 0.0000 0.0000 0.0000 0.0000 35.5703
#
#
#
# Elastic Compliance Matrix: (Units=1/GPa)
#
#
# Indices 1 2 3 4 5 6 
#
# 1 0.012859 -0.004034 -0.005941 0.000000 0.000000 0.000000
# 2 -0.004034 0.010536 -0.001023 0.000000 0.000000 0.000000
# 3 -0.005941 -0.001023 0.028210 0.000000 0.000000 0.000000
# 4 0.000000 0.000000 0.000000 0.033930 0.000000 0.000000
# 5 0.000000 0.000000 0.000000 0.000000 0.033073 0.000000
# 6 0.000000 0.000000 0.000000 0.000000 0.000000 0.028113
#
#
# Mechanical properties :
#
#
# Convention : Reuss Voigt Hill
#
# Bulk Modulus (GPa) = 33.77385 45.15969 39.46677
# Shear Modulus (GPa) = 27.99732 30.87304 29.43518
#
# Velocity S-wave (km/s) = 3.61170 3.79265 3.70328
# Velocity P-wave (km/s) = 5.75571 6.34189 6.05590
#
# Compressibility (1/GPa) = 0.02960871
#
# Stress axis : x y z
#
# Youngs Moduli (GPa) = 77.76664 94.91140 35.44809
#
# Poissons Ratio (x) = 0.38284 0.21060
# Poissons Ratio (y) = 0.31369 0.03628
# Poissons Ratio (z) = 0.46202 0.09714
#
# Static dielectric constant tensor:
#      x y z
#    x 3.988800 0.000000 0.000000 
#    y 0.000000 3.657400 0.000000 
#    z 0.000000 0.000000 3.834960 
# 
# 
# High freq. dielectric constant tensor:
#      x y z
#    x 1.856220 0.000000 0.000000 
#    y 0.000000 1.830600 0.000000 
#    z 0.000000 0.000000 1.839870 
# 
# From -- ./inp_files/5985.got.cif
#   From: 2010.03.12/outbox.cif.g09.slc.cpg/sg61_3_cif.got.tgz:5985.got - 2010.04.10 19:05:03.
