data_PCOD8249390
_publ_section_title
;
Structure prediction by ZEFSAII (Michael W. Deem and Ramdas Pophale) SiO2 
 PCOD8249390
Probable space group: P B C A
;
_chemical_formula_sum "Si O2"
_cell_formula_units_Z 64
_cell_length_a 18.616027
_cell_length_b 12.262118
_cell_length_c 13.531825
_cell_angle_alpha 90.000000
_cell_angle_beta 90.000000
_cell_angle_gamma 90.000000
_cell_volume 3088.935671
_symmetry_space_group_name_H-M "P B C A"
_symmetry_group_IT_number 61
_symmetry_cell_setting 'orthorhombic'
loop_
_space_group_symop_operation_xyz
x,y,z
1/2-x,-y,1/2+z
1/2+x,1/2-y,-z
-x,1/2+y,1/2-z
-x,-y,-z
1/2+x,y,1/2-z
1/2-x,1/2+y,z
x,1/2-y,1/2+z
loop_
_atom_site_type_symbol
_atom_site_label
_atom_site_fract_x
_atom_site_fract_y
_atom_site_fract_z
Si Si1 0.788644 0.444420 0.878150
Si Si2 0.561690 0.173408 0.830699
Si Si3 0.295333 0.233384 0.526126
Si Si4 0.665563 0.580761 0.804548
Si Si5 0.074779 0.557285 0.240317
Si Si6 0.417555 0.890682 0.776667
Si Si7 0.839599 0.883958 0.517018
Si Si8 0.398143 0.237548 0.854667
O O1 0.741048 0.511965 0.797634
O O2 0.866880 0.415734 0.840025
O O3 0.758564 0.325243 0.903883
O O4 0.799289 0.507799 0.980886
O O5 0.597681 0.276805 0.777599
O O6 0.477598 0.186051 0.856476
O O7 0.570730 0.074656 0.750455
O O8 0.603849 0.153998 0.933055
O O9 0.332304 0.136281 0.588430
O O10 0.225938 0.198611 0.462932
O O11 0.359234 0.279862 0.458599
O O12 0.602973 0.489952 0.796957
O O13 0.652919 0.675110 0.724020
O O14 0.095503 0.630774 0.336188
O O15 0.000874 0.603143 0.196800
O O16 0.376036 0.904566 0.878685
#
# Coordination Sequence:
#
# PCOD8249390 Si02
#       8
#     8   8   8   8   8   8   8   8
#     4  10  22  39  65  92 136 170 213 278 319 391
#     4  10  23  43  64  99 130 173 225 280 329 400
#     4  11  24  42  64 100 134 174 218 269 344 400
#     4  11  23  43  66  95 136 172 217 282 331 395
#     4  10  22  41  65  94 127 173 225 268 334 393
#     4  11  23  42  68  94 133 172 218 270 341 394
#     4  10  24  40  63  99 125 173 221 267 328 399
#     4  11  23  41  70  97 132 182 224 271 348 408
#
# _framework density 20.719111000000002
#
# number of rings (size 3 to 8) (size 9 to 14) (size 15 to 20)
#    0.000    1.500    2.500    1.500    3.500    4.000 
#    6.750    1.250    0.000    0.000    0.000    0.000 
#    0.000    0.000    0.000    0.000    0.000    0.000 
#
# Total GULP energy -792863.049082 kJ/mol
# GULP energy per Si atom -12388.485142 kJ/mol
# Density = 2.067195 g / cm^3
# Si number density = 20.719111 Si / 1000 Ang^3
#
#
#
# Elastic Constant Matrix: (Units=GPa)
#
#
# Indices 1 2 3 4 5 6 
#
# 1 104.0751 35.1865 35.6775 0.0000 0.0000 0.0000
# 2 35.1865 116.4745 29.1360 0.0000 0.0000 0.0000
# 3 35.6775 29.1360 65.0279 0.0000 0.0000 0.0000
# 4 0.0000 0.0000 0.0000 25.9375 0.0000 0.0000
# 5 0.0000 0.0000 0.0000 0.0000 30.8434 0.0000
# 6 0.0000 0.0000 0.0000 0.0000 0.0000 32.0435
#
#
#
# Elastic Compliance Matrix: (Units=1/GPa)
#
#
# Indices 1 2 3 4 5 6 
#
# 1 0.012355 -0.002294 -0.005751 0.000000 0.000000 0.000000
# 2 -0.002294 0.010095 -0.003265 0.000000 0.000000 0.000000
# 3 -0.005751 -0.003265 0.019996 0.000000 0.000000 0.000000
# 4 0.000000 0.000000 0.000000 0.038554 0.000000 0.000000
# 5 0.000000 0.000000 0.000000 0.000000 0.032422 0.000000
# 6 0.000000 0.000000 0.000000 0.000000 0.000000 0.031208
#
#
# Mechanical properties :
#
#
# Convention : Reuss Voigt Hill
#
# Bulk Modulus (GPa) = 50.43486 53.95306 52.19396
# Shear Modulus (GPa) = 28.75898 30.13670 29.44784
#
# Velocity S-wave (km/s) = 3.72968 3.81798 3.77409
# Velocity P-wave (km/s) = 6.55305 6.74779 6.65113
#
# Compressibility (1/GPa) = 0.01982755
#
# Stress axis : x y z
#
# Youngs Moduli (GPa) = 80.93575 99.05692 50.00996
#
# Poissons Ratio (x) = 0.22723 0.28761
# Poissons Ratio (y) = 0.18566 0.16326
# Poissons Ratio (z) = 0.46546 0.32338
#
# Static dielectric constant tensor:
#      x y z
#    x 3.910670 0.000000 0.000000 
#    y 0.000000 4.325580 0.000000 
#    z 0.000000 0.000000 3.376790 
# 
# 
# High freq. dielectric constant tensor:
#      x y z
#    x 1.822460 0.000000 0.000000 
#    y 0.000000 1.832850 0.000000 
#    z 0.000000 0.000000 1.780130 
# 
# From -- ./inp_files/8205.got.cif
#   From: 2010.03.12/outbox.cif.g09.slc.cpg/sg61_5_cif.got.tgz:8205.got - 2010.04.10 19:05:03.
