data_PCOD8249728
_publ_section_title
;
Structure prediction by ZEFSAII (Michael W. Deem and Ramdas Pophale) SiO2 
 PCOD8249728
Probable space group: P B C A
;
_chemical_formula_sum "Si O2"
_cell_formula_units_Z 32
_cell_length_a 12.001191
_cell_length_b 10.987100
_cell_length_c 12.914412
_cell_angle_alpha 90.000000
_cell_angle_beta 90.000000
_cell_angle_gamma 90.000000
_cell_volume 1702.872226
_symmetry_space_group_name_H-M "P B C A"
_symmetry_group_IT_number 61
_symmetry_cell_setting 'orthorhombic'
loop_
_space_group_symop_operation_xyz
x,y,z
1/2-x,-y,1/2+z
1/2+x,1/2-y,-z
-x,1/2+y,1/2-z
-x,-y,-z
1/2+x,y,1/2-z
1/2-x,1/2+y,z
x,1/2-y,1/2+z
loop_
_atom_site_type_symbol
_atom_site_label
_atom_site_fract_x
_atom_site_fract_y
_atom_site_fract_z
Si Si1 0.844280 0.923097 0.965300
Si Si2 0.473327 0.693850 0.535064
Si Si3 0.431708 0.085348 0.368028
Si Si4 0.604185 0.952352 0.870024
O O1 0.869708 0.782011 0.995397
O O2 0.944215 0.970749 0.889434
O O3 0.728773 0.932129 0.907508
O O4 0.841174 0.006454 0.068252
O O5 0.569000 0.773807 0.592877
O O6 0.431313 0.591685 0.614553
O O7 0.520302 0.635661 0.430572
O O8 0.400418 0.081739 0.249155
#
# Coordination Sequence:
#
# PCOD8249728 Si02
#       4
#     8   8   8   8
#     4   9  22  41  62  92 130 163 204 265 309 370
#     4   9  23  40  59  95 128 151 220 262 283 407
#     4   9  22  41  62  91 127 165 202 266 308 372
#     4  11  22  40  67  93 122 174 208 251 331 363
#
# _framework density 18.791779999999999
#
# number of rings (size 3 to 8) (size 9 to 14) (size 15 to 20)
#    1.500    1.000    0.000    0.000    7.000    4.000 
#    4.500    0.000    0.000    0.000    0.000    0.000 
#    0.000    0.000    0.000    0.000    0.000    0.000 
#
# Total GULP energy -396611.519391 kJ/mol
# GULP energy per Si atom -12394.109981 kJ/mol
# Density = 1.874901 g / cm^3
# Si number density = 18.791780 Si / 1000 Ang^3
#
#
#
# Elastic Constant Matrix: (Units=GPa)
#
#
# Indices 1 2 3 4 5 6 
#
# 1 70.5813 31.9808 44.7259 0.0000 0.0000 0.0000
# 2 31.9808 149.5153 67.6704 0.0000 0.0000 0.0000
# 3 44.7259 67.6704 138.1096 0.0000 0.0000 0.0000
# 4 0.0000 0.0000 0.0000 21.1360 0.0000 0.0000
# 5 0.0000 0.0000 0.0000 0.0000 25.8806 0.0000
# 6 0.0000 0.0000 0.0000 0.0000 0.0000 5.5592
#
#
#
# Elastic Compliance Matrix: (Units=1/GPa)
#
#
# Indices 1 2 3 4 5 6 
#
# 1 0.018107 -0.001566 -0.005096 0.000000 0.000000 0.000000
# 2 -0.001566 0.008730 -0.003770 0.000000 0.000000 0.000000
# 3 -0.005096 -0.003770 0.010738 0.000000 0.000000 0.000000
# 4 0.000000 0.000000 0.000000 0.047313 0.000000 0.000000
# 5 0.000000 0.000000 0.000000 0.000000 0.038639 0.000000
# 6 0.000000 0.000000 0.000000 0.000000 0.000000 0.179883
#
#
# Mechanical properties :
#
#
# Convention : Reuss Voigt Hill
#
# Bulk Modulus (GPa) = 59.84639 71.88451 65.86545
# Shear Modulus (GPa) = 15.15859 24.77041 19.96450
#
# Velocity S-wave (km/s) = 2.84326 3.63457 3.26299
# Velocity P-wave (km/s) = 6.53415 7.47995 7.02299
#
# Compressibility (1/GPa) = 0.01670945
#
# Stress axis : x y z
#
# Youngs Moduli (GPa) = 55.22628 114.55209 93.12463
#
# Poissons Ratio (x) = 0.17944 0.47460
# Poissons Ratio (y) = 0.08651 0.35108
# Poissons Ratio (z) = 0.28146 0.43187
#
# Static dielectric constant tensor:
#      x y z
#    x 3.227710 0.000000 0.000000 
#    y 0.000000 3.576310 0.000000 
#    z 0.000000 0.000000 3.188540 
# 
# 
# High freq. dielectric constant tensor:
#      x y z
#    x 1.716740 0.000000 0.000000 
#    y 0.000000 1.740050 0.000000 
#    z 0.000000 0.000000 1.717900 
# 
# From -- ./inp_files/5017.got.cif
#   From: 2010.03.12/outbox.cif.g09.slc.cpg/sg61_3_cif.got.tgz:5017.got - 2010.04.10 19:05:03.
