data_PCOD8249872
_publ_section_title
;
Structure prediction by ZEFSAII (Michael W. Deem and Ramdas Pophale) SiO2 
 PCOD8249872
Probable space group: P B C A
;
_chemical_formula_sum "Si O2"
_cell_formula_units_Z 48
_cell_length_a 11.316869
_cell_length_b 8.840626
_cell_length_c 20.674104
_cell_angle_alpha 90.000000
_cell_angle_beta 90.000000
_cell_angle_gamma 90.000000
_cell_volume 2068.407022
_symmetry_space_group_name_H-M "P B C A"
_symmetry_group_IT_number 61
_symmetry_cell_setting 'orthorhombic'
loop_
_space_group_symop_operation_xyz
x,y,z
1/2-x,-y,1/2+z
1/2+x,1/2-y,-z
-x,1/2+y,1/2-z
-x,-y,-z
1/2+x,y,1/2-z
1/2-x,1/2+y,z
x,1/2-y,1/2+z
loop_
_atom_site_type_symbol
_atom_site_label
_atom_site_fract_x
_atom_site_fract_y
_atom_site_fract_z
Si Si1 0.099634 0.298845 0.594341
Si Si2 0.862693 0.116688 0.599888
Si Si3 0.707752 0.508580 0.207972
Si Si4 0.994340 0.109175 0.876170
Si Si5 0.221248 0.771266 0.201642
Si Si6 0.660609 0.306751 0.541796
O O1 0.059634 0.471362 0.582389
O O2 0.186519 0.310128 0.654932
O O3 0.172589 0.240219 0.532729
O O4 0.992574 0.183717 0.608636
O O5 0.822931 0.028286 0.664748
O O6 0.777856 0.256818 0.580901
O O7 0.856293 0.987937 0.544269
O O8 0.589311 0.462859 0.171854
O O9 0.719260 0.427964 0.277366
O O10 0.702603 0.683797 0.229505
O O11 0.902104 0.203611 0.834030
O O12 0.047005 0.225413 0.927711
#
# Coordination Sequence:
#
# PCOD8249872 Si02
#       6
#     8   8   8   8   8   8
#     4  12  27  44  72 106 145 184 235 301 351 429
#     4  11  25  48  72 103 139 193 236 291 367 413
#     4  11  25  47  69  98 140 183 235 290 351 431
#     4  11  26  46  70 103 139 192 234 295 361 414
#     4  12  27  42  72 106 139 183 237 291 352 425
#     4  11  26  45  76 100 142 188 239 294 354 437
#
# _framework density 23.206264999999998
#
# number of rings (size 3 to 8) (size 9 to 14) (size 15 to 20)
#    0.000    0.667    1.667    6.000   11.667    0.000 
#    0.000    0.000    0.000    0.000    0.000    0.000 
#    0.000    0.000    0.000    0.000    0.000    0.000 
#
# Total GULP energy -595478.812794 kJ/mol
# GULP energy per Si atom -12405.808600 kJ/mol
# Density = 2.315345 g / cm^3
# Si number density = 23.206265 Si / 1000 Ang^3
#
#
#
# Elastic Constant Matrix: (Units=GPa)
#
#
# Indices 1 2 3 4 5 6 
#
# 1 80.3107 21.3825 21.2070 0.0000 0.0000 0.0000
# 2 21.3825 80.1873 -0.8025 0.0000 0.0000 0.0000
# 3 21.2070 -0.8025 69.7899 0.0000 0.0000 0.0000
# 4 0.0000 0.0000 0.0000 43.8139 0.0000 0.0000
# 5 0.0000 0.0000 0.0000 0.0000 32.4328 0.0000
# 6 0.0000 0.0000 0.0000 0.0000 0.0000 28.7443
#
#
#
# Elastic Compliance Matrix: (Units=1/GPa)
#
#
# Indices 1 2 3 4 5 6 
#
# 1 0.014699 -0.003965 -0.004512 0.000000 0.000000 0.000000
# 2 -0.003965 0.013542 0.001360 0.000000 0.000000 0.000000
# 3 -0.004512 0.001360 0.015715 0.000000 0.000000 0.000000
# 4 0.000000 0.000000 0.000000 0.022824 0.000000 0.000000
# 5 0.000000 0.000000 0.000000 0.000000 0.030833 0.000000
# 6 0.000000 0.000000 0.000000 0.000000 0.000000 0.034790
#
#
# Mechanical properties :
#
#
# Convention : Reuss Voigt Hill
#
# Bulk Modulus (GPa) = 33.64376 34.87355 34.25865
# Shear Modulus (GPa) = 31.94023 33.56492 32.75257
#
# Velocity S-wave (km/s) = 3.71396 3.80725 3.76089
# Velocity P-wave (km/s) = 5.73764 5.86405 5.80119
#
# Compressibility (1/GPa) = 0.02972320
#
# Stress axis : x y z
#
# Youngs Moduli (GPa) = 68.03327 73.84643 63.63163
#
# Poissons Ratio (x) = 0.29278 0.28711
# Poissons Ratio (y) = 0.26973 -0.08657
# Poissons Ratio (z) = 0.30697 -0.10046
#
# Static dielectric constant tensor:
#      x y z
#    x 4.057360 0.000000 0.000000 
#    y 0.000000 4.330390 0.000000 
#    z 0.000000 0.000000 4.070640 
# 
# 
# High freq. dielectric constant tensor:
#      x y z
#    x 1.912520 0.000000 0.000000 
#    y 0.000000 1.935930 0.000000 
#    z 0.000000 0.000000 1.921170 
# 
# From -- ./inp_files/10971.got.cif
#   From: 2010.03.12/outbox.cif.g09.slc.cpg/sg61_6_cif.got.tgz:10971.got - 2010.04.10 19:05:03.
