data_PCOD8249060
_publ_section_title
;
Structure prediction by ZEFSAII (Michael W. Deem and Ramdas Pophale) SiO2 
 PCOD8249060
Probable space group: P B C A
;
_chemical_formula_sum "Si O2"
_cell_formula_units_Z 64
_cell_length_a 10.940168
_cell_length_b 15.431390
_cell_length_c 17.754407
_cell_angle_alpha 90.000000
_cell_angle_beta 90.000000
_cell_angle_gamma 90.000000
_cell_volume 2997.334482
_symmetry_space_group_name_H-M "P B C A"
_symmetry_group_IT_number 61
_symmetry_cell_setting 'orthorhombic'
loop_
_space_group_symop_operation_xyz
x,y,z
1/2-x,-y,1/2+z
1/2+x,1/2-y,-z
-x,1/2+y,1/2-z
-x,-y,-z
1/2+x,y,1/2-z
1/2-x,1/2+y,z
x,1/2-y,1/2+z
loop_
_atom_site_type_symbol
_atom_site_label
_atom_site_fract_x
_atom_site_fract_y
_atom_site_fract_z
Si Si1 0.331792 0.125651 0.404658
Si Si2 0.654162 0.109642 0.708527
Si Si3 0.332842 0.102671 0.575136
Si Si4 0.627882 0.706839 0.665745
Si Si5 0.529967 0.028337 0.329778
Si Si6 0.962132 0.254217 0.323154
Si Si7 0.081229 0.087504 0.629216
Si Si8 0.425850 0.571224 0.341520
O O1 0.371724 0.100861 0.488552
O O2 0.308776 0.228403 0.393825
O O3 0.459601 0.113339 0.358384
O O4 0.212058 0.075836 0.373579
O O5 0.790475 0.119770 0.676225
O O6 0.589441 0.202859 0.701514
O O7 0.657667 0.075735 0.793696
O O8 0.577967 0.041858 0.660632
O O9 0.388644 0.188004 0.615633
O O10 0.185012 0.105572 0.567645
O O11 0.365990 0.011284 0.615874
O O12 0.620428 0.752431 0.747952
O O13 0.500313 0.673635 0.633229
O O14 0.583689 0.044034 0.246635
O O15 0.995889 0.159086 0.354061
O O16 0.000364 0.002167 0.612715
#
# Coordination Sequence:
#
# PCOD8249060 Si02
#       8
#     8   8   8   8   8   8   8   8
#     4  12  25  41  68 100 130 169 223 272 330 398
#     4   9  18  37  65  92 121 166 215 267 320 378
#     4  11  25  44  63  95 143 173 203 273 353 394
#     4  11  20  39  65  93 127 169 222 269 318 396
#     4  10  23  41  68  96 130 173 221 272 327 393
#     4  10  20  39  65  92 127 170 217 268 319 389
#     4  10  23  39  63  95 129 168 212 270 335 388
#     4  11  23  40  71  99 126 173 235 276 309 398
#
# _framework density 21.352305000000001
#
# number of rings (size 3 to 8) (size 9 to 14) (size 15 to 20)
#    0.000    1.500    3.750    1.875    3.500    1.500 
#    2.250    1.250    0.000    0.000    0.000    0.000 
#    0.000    0.000    0.000    0.000    0.000    0.000 
#
# Total GULP energy -793286.785911 kJ/mol
# GULP energy per Si atom -12395.106030 kJ/mol
# Density = 2.130371 g / cm^3
# Si number density = 21.352305 Si / 1000 Ang^3
#
#
#
# Elastic Constant Matrix: (Units=GPa)
#
#
# Indices 1 2 3 4 5 6 
#
# 1 96.4007 22.5983 27.6849 0.0000 0.0000 0.0000
# 2 22.5983 82.8158 22.2327 0.0000 0.0000 0.0000
# 3 27.6849 22.2327 82.2095 0.0000 0.0000 0.0000
# 4 0.0000 0.0000 0.0000 21.6929 0.0000 0.0000
# 5 0.0000 0.0000 0.0000 0.0000 25.5042 0.0000
# 6 0.0000 0.0000 0.0000 0.0000 0.0000 37.5176
#
#
#
# Elastic Compliance Matrix: (Units=1/GPa)
#
#
# Indices 1 2 3 4 5 6 
#
# 1 0.011890 -0.002339 -0.003371 0.000000 0.000000 0.000000
# 2 -0.002339 0.013481 -0.002858 0.000000 0.000000 0.000000
# 3 -0.003371 -0.002858 0.014072 0.000000 0.000000 0.000000
# 4 0.000000 0.000000 0.000000 0.046098 0.000000 0.000000
# 5 0.000000 0.000000 0.000000 0.000000 0.039209 0.000000
# 6 0.000000 0.000000 0.000000 0.000000 0.000000 0.026654
#
#
# Mechanical properties :
#
#
# Convention : Reuss Voigt Hill
#
# Bulk Modulus (GPa) = 44.83199 45.16199 44.99699
# Shear Modulus (GPa) = 28.41285 29.53695 28.97490
#
# Velocity S-wave (km/s) = 3.65179 3.72333 3.68773
# Velocity P-wave (km/s) = 6.23078 6.29929 6.26513
#
# Compressibility (1/GPa) = 0.02230550
#
# Stress axis : x y z
#
# Youngs Moduli (GPa) = 84.10432 74.18086 71.06166
#
# Poissons Ratio (x) = 0.17354 0.23958
# Poissons Ratio (y) = 0.19675 0.20309
# Poissons Ratio (z) = 0.28355 0.21200
#
# Static dielectric constant tensor:
#      x y z
#    x 3.954470 0.000000 0.000000 
#    y 0.000000 3.865300 0.000000 
#    z 0.000000 0.000000 3.483210 
# 
# 
# High freq. dielectric constant tensor:
#      x y z
#    x 1.846850 0.000000 0.000000 
#    y 0.000000 1.839500 0.000000 
#    z 0.000000 0.000000 1.805020 
# 
# From -- ./inp_files/9311.got.cif
#   From: 2010.03.12/outbox.cif.g09.slc.cpg/sg61_5_cif.got.tgz:9311.got - 2010.04.10 19:05:03.
