data_PCOD8249755
_publ_section_title
;
Structure prediction by ZEFSAII (Michael W. Deem and Ramdas Pophale) SiO2 
 PCOD8249755
Probable space group: P B C A
;
_chemical_formula_sum "Si O2"
_cell_formula_units_Z 48
_cell_length_a 8.734144
_cell_length_b 30.419002
_cell_length_c 9.187520
_cell_angle_alpha 90.000000
_cell_angle_beta 90.000000
_cell_angle_gamma 90.000000
_cell_volume 2440.976547
_symmetry_space_group_name_H-M "P B C A"
_symmetry_group_IT_number 61
_symmetry_cell_setting 'orthorhombic'
loop_
_space_group_symop_operation_xyz
x,y,z
1/2-x,-y,1/2+z
1/2+x,1/2-y,-z
-x,1/2+y,1/2-z
-x,-y,-z
1/2+x,y,1/2-z
1/2-x,1/2+y,z
x,1/2-y,1/2+z
loop_
_atom_site_type_symbol
_atom_site_label
_atom_site_fract_x
_atom_site_fract_y
_atom_site_fract_z
Si Si1 0.207887 0.710600 0.059621
Si Si2 0.852031 0.714871 0.131642
Si Si3 0.694771 0.364270 0.435154
Si Si4 0.349434 0.367107 0.361059
Si Si5 0.708360 0.037268 0.946068
Si Si6 0.631521 0.965739 0.160531
O O1 0.320622 0.714079 0.196559
O O2 0.033263 0.719648 0.106827
O O3 0.259775 0.745398 0.939567
O O4 0.228384 0.662673 0.985658
O O5 0.783833 0.669973 0.065258
O O6 0.529334 0.360321 0.364336
O O7 0.807482 0.352758 0.302649
O O8 0.722536 0.412680 0.503011
O O9 0.304243 0.418021 0.390021
O O10 0.842921 0.027666 0.831881
O O11 0.547921 0.029592 0.864931
O O12 0.726333 0.003517 0.078005
#
# Coordination Sequence:
#
# PCOD8249755 Si02
#       6
#     8   8   8   8   8   8
#     4  11  23  38  56  79 107 138 174 215 261 311
#     4  11  23  38  56  79 107 138 174 215 261 311
#     4   9  19  35  54  76 103 136 172 212 257 305
#     4   9  19  35  54  76 103 136 172 212 257 305
#     4   9  18  33  52  75 104 136 171 211 255 304
#     4   9  18  33  52  75 104 136 171 211 255 304
#
# _framework density 19.664261
#
# number of rings (size 3 to 8) (size 9 to 14) (size 15 to 20)
#    0.000    2.333    0.000    2.000    0.000    7.333 
#    0.000    0.000    0.000    0.000    0.000    0.000 
#    0.000    0.000    0.000    0.000    0.000    0.000 
#
# Total GULP energy -595229.454359 kJ/mol
# GULP energy per Si atom -12400.613632 kJ/mol
# Density = 1.961950 g / cm^3
# Si number density = 19.664261 Si / 1000 Ang^3
#
#
#
# Elastic Constant Matrix: (Units=GPa)
#
#
# Indices 1 2 3 4 5 6 
#
# 1 25.4359 15.7327 -0.9167 0.0000 0.0000 0.0000
# 2 15.7327 95.1806 29.3240 0.0000 0.0000 0.0000
# 3 -0.9167 29.3240 52.0215 0.0000 0.0000 0.0000
# 4 0.0000 0.0000 0.0000 40.8637 0.0000 0.0000
# 5 0.0000 0.0000 0.0000 0.0000 33.0531 0.0000
# 6 0.0000 0.0000 0.0000 0.0000 0.0000 25.2073
#
#
#
# Elastic Compliance Matrix: (Units=1/GPa)
#
#
# Indices 1 2 3 4 5 6 
#
# 1 0.045326 -0.009364 0.006077 0.000000 0.000000 0.000000
# 2 -0.009364 0.014649 -0.008423 0.000000 0.000000 0.000000
# 3 0.006077 -0.008423 0.024078 0.000000 0.000000 0.000000
# 4 0.000000 0.000000 0.000000 0.024472 0.000000 0.000000
# 5 0.000000 0.000000 0.000000 0.000000 0.030254 0.000000
# 6 0.000000 0.000000 0.000000 0.000000 0.000000 0.039671
#
#
# Mechanical properties :
#
#
# Convention : Reuss Voigt Hill
#
# Bulk Modulus (GPa) = 16.49265 28.99089 22.74177
# Shear Modulus (GPa) = 22.51446 28.39135 25.45290
#
# Velocity S-wave (km/s) = 3.38737 3.80387 3.60164
# Velocity P-wave (km/s) = 4.86871 5.83673 5.37456
#
# Compressibility (1/GPa) = 0.06063307
#
# Stress axis : x y z
#
# Youngs Moduli (GPa) = 22.06261 68.26364 41.53233
#
# Poissons Ratio (x) = 0.63924 -0.25240
# Poissons Ratio (y) = 0.20660 0.34981
# Poissons Ratio (z) = -0.13408 0.57495
#
# Static dielectric constant tensor:
#      x y z
#    x 3.493500 0.000000 0.000000 
#    y 0.000000 3.983670 0.000000 
#    z 0.000000 0.000000 3.474200 
# 
# 
# High freq. dielectric constant tensor:
#      x y z
#    x 1.761410 0.000000 0.000000 
#    y 0.000000 1.779750 0.000000 
#    z 0.000000 0.000000 1.755790 
# 
# From -- ./inp_files/1861.got.cif
#   From: 2010.03.12/outbox.cif.g09.slc.cpg/sg61_1_cif.got.tgz:1861.got - 2010.04.10 19:05:03.
