data_PCOD8249764
_publ_section_title
;
Structure prediction by ZEFSAII (Michael W. Deem and Ramdas Pophale) SiO2 
 PCOD8249764
Probable space group: P B C A
;
_chemical_formula_sum "Si O2"
_cell_formula_units_Z 32
_cell_length_a 11.692382
_cell_length_b 14.847690
_cell_length_c 8.476790
_cell_angle_alpha 90.000000
_cell_angle_beta 90.000000
_cell_angle_gamma 90.000000
_cell_volume 1471.611969
_symmetry_space_group_name_H-M "P B C A"
_symmetry_group_IT_number 61
_symmetry_cell_setting 'orthorhombic'
loop_
_space_group_symop_operation_xyz
x,y,z
1/2-x,-y,1/2+z
1/2+x,1/2-y,-z
-x,1/2+y,1/2-z
-x,-y,-z
1/2+x,y,1/2-z
1/2-x,1/2+y,z
x,1/2-y,1/2+z
loop_
_atom_site_type_symbol
_atom_site_label
_atom_site_fract_x
_atom_site_fract_y
_atom_site_fract_z
Si Si1 0.597825 0.029169 0.747281
Si Si2 0.979336 0.317522 0.436227
Si Si3 0.552797 0.141219 0.223817
Si Si4 0.758635 0.411597 0.528552
O O1 0.526043 0.116687 0.699517
O O2 0.510814 0.952902 0.806367
O O3 0.668582 0.995059 0.595914
O O4 0.681844 0.053400 0.887571
O O5 0.845685 0.335672 0.467212
O O6 0.054096 0.331167 0.593614
O O7 0.987596 0.215424 0.379639
O O8 0.683486 0.132508 0.167400
#
# Coordination Sequence:
#
# PCOD8249764 Si02
#       4
#     8   8   8   8
#     4  11  23  42  66  95 128 166 214 259 313 381
#     4  11  25  43  63  95 128 163 215 262 311 383
#     4  11  24  42  64  94 127 166 213 260 313 380
#     4  11  23  41  67  92 129 173 204 261 321 364
#
# _framework density 21.744862999999999
#
# number of rings (size 3 to 8) (size 9 to 14) (size 15 to 20)
#    0.000    1.000    0.000    8.250    0.000   12.000 
#    0.000    0.000    0.000    0.000    0.000    0.000 
#    0.000    0.000    0.000    0.000    0.000    0.000 
#
# Total GULP energy -397042.186225 kJ/mol
# GULP energy per Si atom -12407.568320 kJ/mol
# Density = 2.169537 g / cm^3
# Si number density = 21.744863 Si / 1000 Ang^3
#
#
#
# Elastic Constant Matrix: (Units=GPa)
#
#
# Indices 1 2 3 4 5 6 
#
# 1 117.2199 29.3011 29.6000 0.0000 0.0000 0.0000
# 2 29.3011 50.7657 16.6040 0.0000 0.0000 0.0000
# 3 29.6000 16.6040 62.4940 0.0000 0.0000 0.0000
# 4 0.0000 0.0000 0.0000 30.2364 0.0000 0.0000
# 5 0.0000 0.0000 0.0000 0.0000 39.9677 0.0000
# 6 0.0000 0.0000 0.0000 0.0000 0.0000 24.2504
#
#
#
# Elastic Compliance Matrix: (Units=1/GPa)
#
#
# Indices 1 2 3 4 5 6 
#
# 1 0.010720 -0.004957 -0.003760 0.000000 0.000000 0.000000
# 2 -0.004957 0.023866 -0.003993 0.000000 0.000000 0.000000
# 3 -0.003760 -0.003993 0.018843 0.000000 0.000000 0.000000
# 4 0.000000 0.000000 0.000000 0.033073 0.000000 0.000000
# 5 0.000000 0.000000 0.000000 0.000000 0.025020 0.000000
# 6 0.000000 0.000000 0.000000 0.000000 0.000000 0.041236
#
#
# Mechanical properties :
#
#
# Convention : Reuss Voigt Hill
#
# Bulk Modulus (GPa) = 35.70422 42.38777 39.04599
# Shear Modulus (GPa) = 26.66460 29.22255 27.94357
#
# Velocity S-wave (km/s) = 3.50558 3.66988 3.58867
# Velocity P-wave (km/s) = 5.73068 6.12314 5.93016
#
# Compressibility (1/GPa) = 0.02800790
#
# Stress axis : x y z
#
# Youngs Moduli (GPa) = 93.28648 41.90141 53.06903
#
# Poissons Ratio (x) = 0.20772 0.19955
# Poissons Ratio (y) = 0.46245 0.21189
# Poissons Ratio (z) = 0.35078 0.16730
#
# Static dielectric constant tensor:
#      x y z
#    x 4.021900 0.000000 0.000000 
#    y 0.000000 3.969550 0.000000 
#    z 0.000000 0.000000 4.013860 
# 
# 
# High freq. dielectric constant tensor:
#      x y z
#    x 1.861940 0.000000 0.000000 
#    y 0.000000 1.857270 0.000000 
#    z 0.000000 0.000000 1.868020 
# 
# From -- ./inp_files/1979.got.cif
#   From: 2010.03.12/outbox.cif.g09.slc.cpg/sg61_1_cif.got.tgz:1979.got - 2010.04.10 19:05:03.
