data_PCOD8249700
_publ_section_title
;
Structure prediction by ZEFSAII (Michael W. Deem and Ramdas Pophale) SiO2 
 PCOD8249700
Probable space group: P B C A
;
_chemical_formula_sum "Si O2"
_cell_formula_units_Z 40
_cell_length_a 4.907893
_cell_length_b 25.269053
_cell_length_c 15.109536
_cell_angle_alpha 90.000000
_cell_angle_beta 90.000000
_cell_angle_gamma 90.000000
_cell_volume 1873.851540
_symmetry_space_group_name_H-M "P B C A"
_symmetry_group_IT_number 61
_symmetry_cell_setting 'orthorhombic'
loop_
_space_group_symop_operation_xyz
x,y,z
1/2-x,-y,1/2+z
1/2+x,1/2-y,-z
-x,1/2+y,1/2-z
-x,-y,-z
1/2+x,y,1/2-z
1/2-x,1/2+y,z
x,1/2-y,1/2+z
loop_
_atom_site_type_symbol
_atom_site_label
_atom_site_fract_x
_atom_site_fract_y
_atom_site_fract_z
Si Si1 0.742926 0.896871 0.469916
Si Si2 0.763519 0.930042 0.922838
Si Si3 0.437566 0.664127 0.191717
Si Si4 0.771036 0.532969 0.812114
Si Si5 0.054009 0.782557 0.980818
O O1 0.498997 0.935457 0.503084
O O2 0.813516 0.913442 0.369233
O O3 0.641987 0.836357 0.469802
O O4 0.000496 0.902133 0.534643
O O5 0.887381 0.894882 0.843916
O O6 0.677883 0.985881 0.881858
O O7 0.742102 0.673092 0.225883
O O8 0.406203 0.705915 0.112621
O O9 0.471446 0.530661 0.771019
O O10 0.321408 0.747100 0.963048
#
# Coordination Sequence:
#
# PCOD8249700 Si02
#       5
#     8   8   8   8   8
#     4  11  23  41  63  88 121 165 209 249 300 371
#     4  11  21  39  64  90 123 161 199 247 307 370
#     4  11  21  37  61  93 118 145 196 261 306 342
#     4  12  24  39  60  93 129 163 198 244 300 369
#     4  11  23  42  64  86 119 164 207 249 304 364
#
# _framework density 21.346408
#
# number of rings (size 3 to 8) (size 9 to 14) (size 15 to 20)
#    0.000    0.800    0.000   10.800    0.000    0.000 
#    0.000    6.000    0.000    0.000    0.000    0.000 
#    0.000    0.000    0.000    0.000    0.000    0.000 
#
# Total GULP energy -496130.501167 kJ/mol
# GULP energy per Si atom -12403.262529 kJ/mol
# Density = 2.129782 g / cm^3
# Si number density = 21.346408 Si / 1000 Ang^3
#
#
#
# Elastic Constant Matrix: (Units=GPa)
#
#
# Indices 1 2 3 4 5 6 
#
# 1 107.5458 34.1546 24.6613 0.0000 0.0000 0.0000
# 2 34.1546 104.8975 49.8950 0.0000 0.0000 0.0000
# 3 24.6613 49.8950 77.9190 0.0000 0.0000 0.0000
# 4 0.0000 0.0000 0.0000 22.7270 0.0000 0.0000
# 5 0.0000 0.0000 0.0000 0.0000 50.7732 0.0000
# 6 0.0000 0.0000 0.0000 0.0000 0.0000 30.5904
#
#
#
# Elastic Compliance Matrix: (Units=1/GPa)
#
#
# Indices 1 2 3 4 5 6 
#
# 1 0.010513 -0.002646 -0.001633 0.000000 0.000000 0.000000
# 2 -0.002646 0.014375 -0.008367 0.000000 0.000000 0.000000
# 3 -0.001633 -0.008367 0.018708 0.000000 0.000000 0.000000
# 4 0.000000 0.000000 0.000000 0.044001 0.000000 0.000000
# 5 0.000000 0.000000 0.000000 0.000000 0.019695 0.000000
# 6 0.000000 0.000000 0.000000 0.000000 0.000000 0.032690
#
#
# Mechanical properties :
#
#
# Convention : Reuss Voigt Hill
#
# Bulk Modulus (GPa) = 54.63403 56.42045 55.52724
# Shear Modulus (GPa) = 29.17553 32.92820 31.05186
#
# Velocity S-wave (km/s) = 3.70099 3.93181 3.81814
# Velocity P-wave (km/s) = 6.62666 6.86298 6.74585
#
# Compressibility (1/GPa) = 0.01830361
#
# Stress axis : x y z
#
# Youngs Moduli (GPa) = 95.11811 69.56673 53.45169
#
# Poissons Ratio (x) = 0.18411 0.08727
# Poissons Ratio (y) = 0.25173 0.44724
# Poissons Ratio (z) = 0.15531 0.58208
#
# Static dielectric constant tensor:
#      x y z
#    x 4.002440 0.000000 0.000000 
#    y 0.000000 3.763030 0.000000 
#    z 0.000000 0.000000 3.796920 
# 
# 
# High freq. dielectric constant tensor:
#      x y z
#    x 1.858340 0.000000 0.000000 
#    y 0.000000 1.826330 0.000000 
#    z 0.000000 0.000000 1.834080 
# 
# From -- ./inp_files/4690.got.cif
#   From: 2010.03.12/outbox.cif.g09.slc.cpg/sg61_3_cif.got.tgz:4690.got - 2010.04.10 19:05:03.
