data_PCOD8249890
_publ_section_title
;
Structure prediction by ZEFSAII (Michael W. Deem and Ramdas Pophale) SiO2 
 PCOD8249890
Probable space group: P B C A
;
_chemical_formula_sum "Si O2"
_cell_formula_units_Z 40
_cell_length_a 13.562352
_cell_length_b 5.154382
_cell_length_c 24.185786
_cell_angle_alpha 90.000000
_cell_angle_beta 90.000000
_cell_angle_gamma 90.000000
_cell_volume 1690.720504
_symmetry_space_group_name_H-M "P B C A"
_symmetry_group_IT_number 61
_symmetry_cell_setting 'orthorhombic'
loop_
_space_group_symop_operation_xyz
x,y,z
1/2-x,-y,1/2+z
1/2+x,1/2-y,-z
-x,1/2+y,1/2-z
-x,-y,-z
1/2+x,y,1/2-z
1/2-x,1/2+y,z
x,1/2-y,1/2+z
loop_
_atom_site_type_symbol
_atom_site_label
_atom_site_fract_x
_atom_site_fract_y
_atom_site_fract_z
Si Si1 0.493260 0.878644 0.214709
Si Si2 0.720240 0.273367 0.310638
Si Si3 0.309422 0.202807 0.466750
Si Si4 0.497998 0.745382 0.101824
Si Si5 0.633303 0.755684 0.909982
O O1 0.491325 0.668185 0.263281
O O2 0.388456 0.885153 0.182359
O O3 0.557422 0.806572 0.160580
O O4 0.782011 0.497659 0.277339
O O5 0.775855 0.184120 0.367470
O O6 0.256462 0.463091 0.445786
O O7 0.419598 0.180792 0.443107
O O8 0.315629 0.184822 0.532640
O O9 0.429366 0.491591 0.111327
O O10 0.435772 0.993355 0.080923
#
# Coordination Sequence:
#
# PCOD8249890 Si02
#       5
#     8   8   8   8   8
#     4  12  26  45  68 104 144 185 242 301 359 413
#     4  12  21  41  69 105 133 173 235 303 338 409
#     4  12  26  44  68 107 151 189 229 285 372 443
#     4  12  25  45  72 101 149 185 239 300 360 423
#     4  12  22  43  75 109 137 180 243 299 351 430
#
# _framework density 23.658550999999999
#
# number of rings (size 3 to 8) (size 9 to 14) (size 15 to 20)
#    0.000    0.000    4.000    7.200    0.000    0.000 
#    0.000    6.000    0.000    0.000    0.000    0.000 
#    0.000    0.000    0.000    0.000    0.000    0.000 
#
# Total GULP energy -495684.286469 kJ/mol
# GULP energy per Si atom -12392.107162 kJ/mol
# Density = 2.360470 g / cm^3
# Si number density = 23.658551 Si / 1000 Ang^3
#
#
#
# Elastic Constant Matrix: (Units=GPa)
#
#
# Indices 1 2 3 4 5 6 
#
# 1 83.2966 10.6208 24.0491 0.0000 0.0000 0.0000
# 2 10.6208 132.8852 8.7793 0.0000 0.0000 0.0000
# 3 24.0491 8.7793 63.6828 0.0000 0.0000 0.0000
# 4 0.0000 0.0000 0.0000 28.3551 0.0000 0.0000
# 5 0.0000 0.0000 0.0000 0.0000 23.4621 0.0000
# 6 0.0000 0.0000 0.0000 0.0000 0.0000 47.0933
#
#
#
# Elastic Compliance Matrix: (Units=1/GPa)
#
#
# Indices 1 2 3 4 5 6 
#
# 1 0.013548 -0.000752 -0.005013 0.000000 0.000000 0.000000
# 2 -0.000752 0.007636 -0.000769 0.000000 0.000000 0.000000
# 3 -0.005013 -0.000769 0.017702 0.000000 0.000000 0.000000
# 4 0.000000 0.000000 0.000000 0.035267 0.000000 0.000000
# 5 0.000000 0.000000 0.000000 0.000000 0.042622 0.000000
# 6 0.000000 0.000000 0.000000 0.000000 0.000000 0.021234
#
#
# Mechanical properties :
#
#
# Convention : Reuss Voigt Hill
#
# Bulk Modulus (GPa) = 38.72999 40.75144 39.74072
# Shear Modulus (GPa) = 31.31204 35.54313 33.42758
#
# Velocity S-wave (km/s) = 3.64194 3.88020 3.76296
# Velocity P-wave (km/s) = 5.83874 6.11039 5.97611
#
# Compressibility (1/GPa) = 0.02581979
#
# Stress axis : x y z
#
# Youngs Moduli (GPa) = 73.80944 130.95575 56.49132
#
# Poissons Ratio (x) = 0.09844 0.28318
# Poissons Ratio (y) = 0.05548 0.04343
# Poissons Ratio (z) = 0.36999 0.10069
#
# Static dielectric constant tensor:
#      x y z
#    x 4.168510 0.000000 0.000000 
#    y 0.000000 5.196780 0.000000 
#    z 0.000000 0.000000 4.134370 
# 
# 
# High freq. dielectric constant tensor:
#      x y z
#    x 1.927510 0.000000 0.000000 
#    y 0.000000 1.982900 0.000000 
#    z 0.000000 0.000000 1.912340 
# 
# From -- ./inp_files/11415.got.cif
#   From: 2010.03.12/outbox.cif.g09.slc.cpg/sg61_6_cif.got.tgz:11415.got - 2010.04.10 19:05:03.
