data_PCOD8249427
_publ_section_title
;
Structure prediction by ZEFSAII (Michael W. Deem and Ramdas Pophale) SiO2 
 PCOD8249427
Probable space group: P B C A
;
_chemical_formula_sum "Si O2"
_cell_formula_units_Z 40
_cell_length_a 10.190518
_cell_length_b 15.622883
_cell_length_c 11.211918
_cell_angle_alpha 90.000000
_cell_angle_beta 90.000000
_cell_angle_gamma 90.000000
_cell_volume 1784.996437
_symmetry_space_group_name_H-M "P B C A"
_symmetry_group_IT_number 61
_symmetry_cell_setting 'orthorhombic'
loop_
_space_group_symop_operation_xyz
x,y,z
1/2-x,-y,1/2+z
1/2+x,1/2-y,-z
-x,1/2+y,1/2-z
-x,-y,-z
1/2+x,y,1/2-z
1/2-x,1/2+y,z
x,1/2-y,1/2+z
loop_
_atom_site_type_symbol
_atom_site_label
_atom_site_fract_x
_atom_site_fract_y
_atom_site_fract_z
Si Si1 0.973254 0.739183 0.199921
Si Si2 0.207005 0.795363 0.352994
Si Si3 0.556965 0.934023 0.722788
Si Si4 0.626993 0.837224 0.481385
Si Si5 0.698610 0.544056 0.775015
O O1 0.062359 0.774706 0.305468
O O2 0.005429 0.638440 0.185649
O O3 0.820087 0.752888 0.230431
O O4 0.999427 0.795694 0.081329
O O5 0.215724 0.745559 0.479349
O O6 0.219243 0.899003 0.346763
O O7 0.582092 0.896393 0.591148
O O8 0.447339 0.006835 0.717388
O O9 0.691338 0.971266 0.777307
O O10 0.713438 0.892798 0.388869
#
# Coordination Sequence:
#
# PCOD8249427 Si02
#       5
#     8   8   8   8   8
#     4  10  22  41  64  89 124 167 207 252 309 383
#     4  10  22  41  63  91 125 169 210 250 310 381
#     4  11  23  41  63  93 125 158 206 265 312 359
#     4  10  23  40  63  89 125 170 206 247 317 382
#     4  11  23  41  63  92 125 158 205 266 310 359
#
# _framework density 22.409009999999999
#
# number of rings (size 3 to 8) (size 9 to 14) (size 15 to 20)
#    0.000    1.600    0.000    5.400    0.000   11.200 
#    0.000    3.000    0.000    0.000    0.000    0.000 
#    0.000    0.000    0.000    0.000    0.000    0.000 
#
# Total GULP energy -495613.710030 kJ/mol
# GULP energy per Si atom -12390.342751 kJ/mol
# Density = 2.235801 g / cm^3
# Si number density = 22.409010 Si / 1000 Ang^3
#
#
#
# Elastic Constant Matrix: (Units=GPa)
#
#
# Indices 1 2 3 4 5 6 
#
# 1 47.7120 1.0565 15.5637 0.0000 0.0000 0.0000
# 2 1.0565 123.5866 43.9279 0.0000 0.0000 0.0000
# 3 15.5637 43.9279 85.8781 0.0000 0.0000 0.0000
# 4 0.0000 0.0000 0.0000 61.4364 0.0000 0.0000
# 5 0.0000 0.0000 0.0000 0.0000 19.1726 0.0000
# 6 0.0000 0.0000 0.0000 0.0000 0.0000 40.8871
#
#
#
# Elastic Compliance Matrix: (Units=1/GPa)
#
#
# Indices 1 2 3 4 5 6 
#
# 1 0.022512 0.001537 -0.004866 0.000000 0.000000 0.000000
# 2 0.001537 0.009995 -0.005391 0.000000 0.000000 0.000000
# 3 -0.004866 -0.005391 0.015284 0.000000 0.000000 0.000000
# 4 0.000000 0.000000 0.000000 0.016277 0.000000 0.000000
# 5 0.000000 0.000000 0.000000 0.000000 0.052158 0.000000
# 6 0.000000 0.000000 0.000000 0.000000 0.000000 0.024458
#
#
# Mechanical properties :
#
#
# Convention : Reuss Voigt Hill
#
# Bulk Modulus (GPa) = 32.94795 42.03031 37.48913
# Shear Modulus (GPa) = 29.71949 37.40782 33.56366
#
# Velocity S-wave (km/s) = 3.64569 4.09016 3.87431
# Velocity P-wave (km/s) = 5.69705 6.41113 6.06461
#
# Compressibility (1/GPa) = 0.03035090
#
# Stress axis : x y z
#
# Youngs Moduli (GPa) = 44.41995 100.05498 65.42860
#
# Poissons Ratio (x) = -0.15381 0.31839
# Poissons Ratio (y) = -0.06828 0.35272
# Poissons Ratio (z) = 0.21616 0.53939
#
# Static dielectric constant tensor:
#      x y z
#    x 3.925960 0.000000 0.000000 
#    y 0.000000 4.594950 0.000000 
#    z 0.000000 0.000000 3.969430 
# 
# 
# High freq. dielectric constant tensor:
#      x y z
#    x 1.887520 0.000000 0.000000 
#    y 0.000000 1.905370 0.000000 
#    z 0.000000 0.000000 1.851460 
# 
# From -- ./inp_files/2689.got.cif
#   From: 2010.03.12/outbox.cif.g09.slc.cpg/sg61_2_cif.got.tgz:2689.got - 2010.04.10 19:05:03.
