data_PCOD8249507
_publ_section_title
;
Structure prediction by ZEFSAII (Michael W. Deem and Ramdas Pophale) SiO2 
 PCOD8249507
Probable space group: P B C A
;
_chemical_formula_sum "Si O2"
_cell_formula_units_Z 48
_cell_length_a 9.643823
_cell_length_b 14.552754
_cell_length_c 15.823626
_cell_angle_alpha 90.000000
_cell_angle_beta 90.000000
_cell_angle_gamma 90.000000
_cell_volume 2220.753875
_symmetry_space_group_name_H-M "P B C A"
_symmetry_group_IT_number 61
_symmetry_cell_setting 'orthorhombic'
loop_
_space_group_symop_operation_xyz
x,y,z
1/2-x,-y,1/2+z
1/2+x,1/2-y,-z
-x,1/2+y,1/2-z
-x,-y,-z
1/2+x,y,1/2-z
1/2-x,1/2+y,z
x,1/2-y,1/2+z
loop_
_atom_site_type_symbol
_atom_site_label
_atom_site_fract_x
_atom_site_fract_y
_atom_site_fract_z
Si Si1 0.418023 0.818763 0.819344
Si Si2 0.829874 0.301197 0.350631
Si Si3 0.441826 0.783229 0.634830
Si Si4 0.090042 0.588451 0.498985
Si Si5 0.696732 0.834200 0.165977
Si Si6 0.629834 0.485795 0.563663
O O1 0.575104 0.785031 0.827276
O O2 0.389989 0.835423 0.719711
O O3 0.308812 0.744812 0.859738
O O4 0.414076 0.918316 0.861429
O O5 0.698021 0.261796 0.403814
O O6 0.921944 0.366208 0.409316
O O7 0.779468 0.355986 0.266042
O O8 0.525251 0.847037 0.571911
O O9 0.540142 0.699623 0.659077
O O10 0.250402 0.565178 0.487234
O O11 0.000000 0.500000 0.500000
O O12 0.700102 0.922756 0.104542
O O13 0.500000 0.500000 0.500000
#
# Coordination Sequence:
#
# PCOD8249507 Si02
#       6
#     8   8   8   8   8   8
#     4  10  23  45  71  97 134 185 226 281 343 403
#     4  10  24  43  70  95 133 183 224 279 344 405
#     4  10  23  46  69  94 134 183 227 278 343 402
#     4  12  27  41  66 107 137 175 227 288 344 403
#     4  10  22  48  69  95 135 179 228 278 341 406
#     4  12  27  43  71 106 137 179 226 283 349 413
#
# _framework density 21.614281999999999
#
# number of rings (size 3 to 8) (size 9 to 14) (size 15 to 20)
#    0.000    1.333    1.667    2.000    9.333    0.000 
#    3.000    0.000    0.000    0.000    0.000    0.000 
#    0.000    0.000    0.000    0.000    0.000    0.000 
#
# Total GULP energy -594943.217272 kJ/mol
# GULP energy per Si atom -12394.650360 kJ/mol
# Density = 2.156509 g / cm^3
# Si number density = 21.614282 Si / 1000 Ang^3
#
#
#
# Elastic Constant Matrix: (Units=GPa)
#
#
# Indices 1 2 3 4 5 6 
#
# 1 119.1002 23.9421 22.7643 0.0000 0.0000 0.0000
# 2 23.9421 94.7189 53.4762 0.0000 0.0000 0.0000
# 3 22.7643 53.4762 94.9261 0.0000 0.0000 0.0000
# 4 0.0000 0.0000 0.0000 30.6331 0.0000 0.0000
# 5 0.0000 0.0000 0.0000 0.0000 35.6406 0.0000
# 6 0.0000 0.0000 0.0000 0.0000 0.0000 41.4381
#
#
#
# Elastic Compliance Matrix: (Units=1/GPa)
#
#
# Indices 1 2 3 4 5 6 
#
# 1 0.008950 -0.001541 -0.001279 0.000000 0.000000 0.000000
# 2 -0.001541 0.015747 -0.008501 0.000000 0.000000 0.000000
# 3 -0.001279 -0.008501 0.015630 0.000000 0.000000 0.000000
# 4 0.000000 0.000000 0.000000 0.032644 0.000000 0.000000
# 5 0.000000 0.000000 0.000000 0.000000 0.028058 0.000000
# 6 0.000000 0.000000 0.000000 0.000000 0.000000 0.024132
#
#
# Mechanical properties :
#
#
# Convention : Reuss Voigt Hill
#
# Bulk Modulus (GPa) = 56.54050 56.56781 56.55416
# Shear Modulus (GPa) = 32.53125 35.44654 33.98889
#
# Velocity S-wave (km/s) = 3.88375 4.05403 3.96980
# Velocity P-wave (km/s) = 6.80639 6.93844 6.87273
#
# Compressibility (1/GPa) = 0.01768644
#
# Stress axis : x y z
#
# Youngs Moduli (GPa) = 111.72744 63.50565 63.97823
#
# Poissons Ratio (x) = 0.09783 0.08180
# Poissons Ratio (y) = 0.17212 0.54390
# Poissons Ratio (z) = 0.14285 0.53988
#
# Static dielectric constant tensor:
#      x y z
#    x 3.952280 0.000000 0.000000 
#    y 0.000000 3.517270 0.000000 
#    z 0.000000 0.000000 4.492870 
# 
# 
# High freq. dielectric constant tensor:
#      x y z
#    x 1.872220 0.000000 0.000000 
#    y 0.000000 1.832600 0.000000 
#    z 0.000000 0.000000 1.851140 
# 
# From -- ./inp_files/8898.got.cif
#   From: 2010.03.12/outbox.cif.g09.slc.cpg/sg61_5_cif.got.tgz:8898.got - 2010.04.10 19:05:03.
