data_PCOD8249308
_publ_section_title
;
Structure prediction by ZEFSAII (Michael W. Deem and Ramdas Pophale) SiO2 
 PCOD8249308
Probable space group: P B C A
;
_chemical_formula_sum "Si O2"
_cell_formula_units_Z 56
_cell_length_a 11.436251
_cell_length_b 13.997607
_cell_length_c 14.069540
_cell_angle_alpha 90.000000
_cell_angle_beta 90.000000
_cell_angle_gamma 90.000000
_cell_volume 2252.254032
_symmetry_space_group_name_H-M "P B C A"
_symmetry_group_IT_number 61
_symmetry_cell_setting 'orthorhombic'
loop_
_space_group_symop_operation_xyz
x,y,z
1/2-x,-y,1/2+z
1/2+x,1/2-y,-z
-x,1/2+y,1/2-z
-x,-y,-z
1/2+x,y,1/2-z
1/2-x,1/2+y,z
x,1/2-y,1/2+z
loop_
_atom_site_type_symbol
_atom_site_label
_atom_site_fract_x
_atom_site_fract_y
_atom_site_fract_z
Si Si1 0.828818 0.836385 0.885445
Si Si2 0.690056 0.131830 0.592602
Si Si3 0.473691 0.198632 0.933342
Si Si4 0.904147 0.479641 0.151223
Si Si5 0.451965 0.696925 0.364932
Si Si6 0.146625 0.815942 0.784858
Si Si7 0.482841 0.489877 0.844165
O O1 0.753872 0.821612 0.789494
O O2 0.907864 0.742482 0.891533
O O3 0.906413 0.932068 0.883425
O O4 0.758063 0.850071 0.985275
O O5 0.774603 0.066215 0.656216
O O6 0.661251 0.234155 0.642926
O O7 0.564688 0.074438 0.587454
O O8 0.476905 0.083530 0.925405
O O9 0.358474 0.237469 0.872762
O O10 0.468123 0.225546 0.044650
O O11 0.898494 0.590764 0.123772
O O12 0.973212 0.460582 0.248101
O O13 0.527425 0.707692 0.271281
O O14 0.128818 0.920225 0.828711
#
# Coordination Sequence:
#
# PCOD8249308 Si02
#       7
#     8   8   8   8   8   8   8
#     4  10  22  41  65  97 133 170 220 279 335 407
#     4  11  23  42  66  95 130 177 226 280 351 408
#     4  10  22  39  64  93 129 172 219 272 336 402
#     4  11  23  40  66  94 128 176 223 278 345 415
#     4  10  23  43  63  95 134 169 224 284 332 407
#     4  10  21  41  67  96 133 175 221 274 334 407
#     4  10  22  40  64  96 132 171 219 277 336 408
#
# _framework density 24.863979
#
# number of rings (size 3 to 8) (size 9 to 14) (size 15 to 20)
#    0.000    1.714    0.000    3.429    0.000    8.000 
#    0.000   11.429    0.000    0.000    0.000    0.000 
#    0.000    0.000    0.000    0.000    0.000    0.000 
#
# Total GULP energy -693887.302557 kJ/mol
# GULP energy per Si atom -12390.844689 kJ/mol
# Density = 2.480739 g / cm^3
# Si number density = 24.863979 Si / 1000 Ang^3
#
#
#
# Elastic Constant Matrix: (Units=GPa)
#
#
# Indices 1 2 3 4 5 6 
#
# 1 53.5165 22.4784 -14.2232 0.0000 0.0000 0.0000
# 2 22.4784 133.1684 24.0592 0.0000 0.0000 0.0000
# 3 -14.2232 24.0592 100.2846 0.0000 0.0000 0.0000
# 4 0.0000 0.0000 0.0000 33.6877 0.0000 0.0000
# 5 0.0000 0.0000 0.0000 0.0000 26.9290 0.0000
# 6 0.0000 0.0000 0.0000 0.0000 0.0000 20.5308
#
#
#
# Elastic Compliance Matrix: (Units=1/GPa)
#
#
# Indices 1 2 3 4 5 6 
#
# 1 0.021627 -0.004395 0.004122 0.000000 0.000000 0.000000
# 2 -0.004395 0.008743 -0.002721 0.000000 0.000000 0.000000
# 3 0.004122 -0.002721 0.011209 0.000000 0.000000 0.000000
# 4 0.000000 0.000000 0.000000 0.029684 0.000000 0.000000
# 5 0.000000 0.000000 0.000000 0.000000 0.037135 0.000000
# 6 0.000000 0.000000 0.000000 0.000000 0.000000 0.048707
#
#
# Mechanical properties :
#
#
# Convention : Reuss Voigt Hill
#
# Bulk Modulus (GPa) = 28.09733 39.06648 33.58191
# Shear Modulus (GPa) = 28.57831 33.20651 30.89241
#
# Velocity S-wave (km/s) = 3.39394 3.65845 3.52867
# Velocity P-wave (km/s) = 5.16559 5.79585 5.48977
#
# Compressibility (1/GPa) = 0.03559057
#
# Stress axis : x y z
#
# Youngs Moduli (GPa) = 46.23752 114.38014 89.21422
#
# Poissons Ratio (x) = 0.50274 -0.36773
# Poissons Ratio (y) = 0.20323 0.24274
# Poissons Ratio (z) = -0.19059 0.31121
#
# Static dielectric constant tensor:
#      x y z
#    x 4.396300 0.000000 0.000000 
#    y 0.000000 4.700740 0.000000 
#    z 0.000000 0.000000 4.763210 
# 
# 
# High freq. dielectric constant tensor:
#      x y z
#    x 1.998060 0.000000 0.000000 
#    y 0.000000 2.000490 0.000000 
#    z 0.000000 0.000000 1.995600 
# 
# From -- ./inp_files/7514.got.cif
#   From: 2010.03.12/outbox.cif.g09.slc.cpg/sg61_4_cif.got.tgz:7514.got - 2010.04.10 19:05:03.
