data_PCOD8249463
_publ_section_title
;
Structure prediction by ZEFSAII (Michael W. Deem and Ramdas Pophale) SiO2 
 PCOD8249463
Probable space group: P B C A
;
_chemical_formula_sum "Si O2"
_cell_formula_units_Z 64
_cell_length_a 18.534673
_cell_length_b 29.862834
_cell_length_c 5.342389
_cell_angle_alpha 90.000000
_cell_angle_beta 90.000000
_cell_angle_gamma 90.000000
_cell_volume 2957.000895
_symmetry_space_group_name_H-M "P B C A"
_symmetry_group_IT_number 61
_symmetry_cell_setting 'orthorhombic'
loop_
_space_group_symop_operation_xyz
x,y,z
1/2-x,-y,1/2+z
1/2+x,1/2-y,-z
-x,1/2+y,1/2-z
-x,-y,-z
1/2+x,y,1/2-z
1/2-x,1/2+y,z
x,1/2-y,1/2+z
loop_
_atom_site_type_symbol
_atom_site_label
_atom_site_fract_x
_atom_site_fract_y
_atom_site_fract_z
Si Si1 0.606826 0.056565 0.218340
Si Si2 0.543907 0.916094 0.682221
Si Si3 0.112606 0.776060 0.213669
Si Si4 0.472655 0.364167 0.292568
Si Si5 0.646005 0.982484 0.899019
Si Si6 0.720431 0.277048 0.305940
Si Si7 0.221715 0.054648 0.895710
Si Si8 0.637896 0.368117 0.339211
O O1 0.535151 0.064355 0.380610
O O2 0.674667 0.038414 0.370235
O O3 0.629270 0.103700 0.092836
O O4 0.588204 0.013977 0.041270
O O5 0.567109 0.887020 0.444012
O O6 0.601712 0.956202 0.688617
O O7 0.543071 0.890092 0.948188
O O8 0.095971 0.739223 0.429246
O O9 0.060694 0.815310 0.304563
O O10 0.195929 0.791039 0.209370
O O11 0.557707 0.361342 0.227989
O O12 0.692390 0.945014 0.051415
O O13 0.706689 0.018223 0.816896
O O14 0.701672 0.242596 0.531304
O O15 0.672900 0.319879 0.377223
O O16 0.192252 0.104440 0.838893
#
# Coordination Sequence:
#
# PCOD8249463 Si02
#       8
#     8   8   8   8   8   8   8   8
#     4  10  22  43  60  89 130 169 212 266 312 369
#     4  11  25  41  63  95 127 169 215 264 313 380
#     4  10  22  43  65  93 128 161 203 262 313 379
#     4  11  24  42  64  97 125 166 216 255 323 382
#     4  11  24  38  63  91 122 174 219 259 320 374
#     4  10  24  42  67  98 128 164 209 255 318 384
#     4  11  22  40  62  90 130 163 216 268 314 375
#     4  10  24  41  65  92 130 168 206 267 318 374
#
# _framework density 21.643553000000001
#
# number of rings (size 3 to 8) (size 9 to 14) (size 15 to 20)
#    0.000    1.500    2.500    1.125    5.250    2.500 
#    0.000    0.000    0.000    0.000    0.000    0.000 
#    0.000    0.000    0.000    0.000    0.000    0.000 
#
# Total GULP energy -793058.222949 kJ/mol
# GULP energy per Si atom -12391.534734 kJ/mol
# Density = 2.159429 g / cm^3
# Si number density = 21.643553 Si / 1000 Ang^3
#
#
#
# Elastic Constant Matrix: (Units=GPa)
#
#
# Indices 1 2 3 4 5 6 
#
# 1 58.5232 35.9912 2.9265 0.0000 0.0000 0.0000
# 2 35.9912 86.7048 7.0925 0.0000 0.0000 0.0000
# 3 2.9265 7.0925 87.3783 0.0000 0.0000 0.0000
# 4 0.0000 0.0000 0.0000 20.8130 0.0000 0.0000
# 5 0.0000 0.0000 0.0000 0.0000 21.8808 0.0000
# 6 0.0000 0.0000 0.0000 0.0000 0.0000 31.0398
#
#
#
# Elastic Compliance Matrix: (Units=1/GPa)
#
#
# Indices 1 2 3 4 5 6 
#
# 1 0.022945 -0.009525 0.000005 0.000000 0.000000 0.000000
# 2 -0.009525 0.015564 -0.000944 0.000000 0.000000 0.000000
# 3 0.000005 -0.000944 0.011521 0.000000 0.000000 0.000000
# 4 0.000000 0.000000 0.000000 0.048047 0.000000 0.000000
# 5 0.000000 0.000000 0.000000 0.000000 0.045702 0.000000
# 6 0.000000 0.000000 0.000000 0.000000 0.000000 0.032217
#
#
# Mechanical properties :
#
#
# Convention : Reuss Voigt Hill
#
# Bulk Modulus (GPa) = 34.36292 36.06963 35.21627
# Shear Modulus (GPa) = 24.19846 27.18648 25.69247
#
# Velocity S-wave (km/s) = 3.34734 3.54800 3.44913
# Velocity P-wave (km/s) = 5.55435 5.78670 5.67171
#
# Compressibility (1/GPa) = 0.02910114
#
# Stress axis : x y z
#
# Youngs Moduli (GPa) = 43.58324 64.24949 86.79816
#
# Poissons Ratio (x) = 0.61196 -0.00040
# Poissons Ratio (y) = 0.41512 0.08197
# Poissons Ratio (z) = -0.00020 0.06067
#
# Static dielectric constant tensor:
#      x y z
#    x 3.828280 0.000000 0.000000 
#    y 0.000000 3.731050 0.000000 
#    z 0.000000 0.000000 3.920580 
# 
# 
# High freq. dielectric constant tensor:
#      x y z
#    x 1.850680 0.000000 0.000000 
#    y 0.000000 1.845360 0.000000 
#    z 0.000000 0.000000 1.852270 
# 
# From -- ./inp_files/859.got.cif
#   From: 2010.03.12/outbox.cif.g09.slc.cpg/sg61_1_cif.got.tgz:859.got - 2010.04.10 19:05:03.
