data_PCOD8249860
_publ_section_title
;
Structure prediction by ZEFSAII (Michael W. Deem and Ramdas Pophale) SiO2 
 PCOD8249860
Probable space group: P B C A
;
_chemical_formula_sum "Si O2"
_cell_formula_units_Z 48
_cell_length_a 17.992958
_cell_length_b 12.182960
_cell_length_c 9.977737
_cell_angle_alpha 90.000000
_cell_angle_beta 90.000000
_cell_angle_gamma 90.000000
_cell_volume 2187.194660
_symmetry_space_group_name_H-M "P B C A"
_symmetry_group_IT_number 61
_symmetry_cell_setting 'orthorhombic'
loop_
_space_group_symop_operation_xyz
x,y,z
1/2-x,-y,1/2+z
1/2+x,1/2-y,-z
-x,1/2+y,1/2-z
-x,-y,-z
1/2+x,y,1/2-z
1/2-x,1/2+y,z
x,1/2-y,1/2+z
loop_
_atom_site_type_symbol
_atom_site_label
_atom_site_fract_x
_atom_site_fract_y
_atom_site_fract_z
Si Si1 0.977400 0.324824 0.038911
Si Si2 0.895519 0.666961 0.393448
Si Si3 0.828412 0.191396 0.036891
Si Si4 0.238087 0.208395 0.726715
Si Si5 0.860546 0.961122 0.151950
Si Si6 0.009233 0.467158 0.795211
O O1 0.911945 0.236391 0.042419
O O2 0.049761 0.271086 0.105488
O O3 0.954497 0.433244 0.121468
O O4 0.995240 0.360244 0.886958
O O5 0.821007 0.699123 0.315843
O O6 0.880062 0.633286 0.545720
O O7 0.932402 0.563070 0.319836
O O8 0.774743 0.259973 0.132636
O O9 0.824816 0.065139 0.079431
O O10 0.801298 0.200312 0.884933
O O11 0.198745 0.090116 0.744174
O O12 0.932065 0.996589 0.233352
#
# Coordination Sequence:
#
# PCOD8249860 Si02
#       6
#     8   8   8   8   8   8
#     4  11  26  46  74 109 142 190 246 303 361 428
#     4  12  25  47  76 103 146 191 243 302 364 433
#     4  12  29  46  76 107 152 193 245 300 367 446
#     4  12  28  50  70 106 151 194 238 307 370 440
#     4  12  26  45  73 109 139 195 246 296 377 434
#     4  11  25  44  78 106 143 185 249 307 358 430
#
# _framework density 21.945920999999998
#
# number of rings (size 3 to 8) (size 9 to 14) (size 15 to 20)
#    0.000    0.333    5.000    2.500    4.667    1.333 
#    0.000    0.000    0.000    0.000    0.000    0.000 
#    0.000    0.000    0.000    0.000    0.000    0.000 
#
# Total GULP energy -595655.683296 kJ/mol
# GULP energy per Si atom -12409.493402 kJ/mol
# Density = 2.189597 g / cm^3
# Si number density = 21.945921 Si / 1000 Ang^3
#
#
#
# Elastic Constant Matrix: (Units=GPa)
#
#
# Indices 1 2 3 4 5 6 
#
# 1 70.5367 14.3756 9.9198 0.0000 0.0000 0.0000
# 2 14.3756 87.1956 13.2998 0.0000 0.0000 0.0000
# 3 9.9198 13.2998 86.5261 0.0000 0.0000 0.0000
# 4 0.0000 0.0000 0.0000 38.7643 0.0000 0.0000
# 5 0.0000 0.0000 0.0000 0.0000 27.3947 0.0000
# 6 0.0000 0.0000 0.0000 0.0000 0.0000 28.5728
#
#
#
# Elastic Compliance Matrix: (Units=1/GPa)
#
#
# Indices 1 2 3 4 5 6 
#
# 1 0.014824 -0.002237 -0.001356 0.000000 0.000000 0.000000
# 2 -0.002237 0.012081 -0.001601 0.000000 0.000000 0.000000
# 3 -0.001356 -0.001601 0.011959 0.000000 0.000000 0.000000
# 4 0.000000 0.000000 0.000000 0.025797 0.000000 0.000000
# 5 0.000000 0.000000 0.000000 0.000000 0.036503 0.000000
# 6 0.000000 0.000000 0.000000 0.000000 0.000000 0.034998
#
#
# Mechanical properties :
#
#
# Convention : Reuss Voigt Hill
#
# Bulk Modulus (GPa) = 35.11592 35.49432 35.30512
# Shear Modulus (GPa) = 32.04279 32.72389 32.38334
#
# Velocity S-wave (km/s) = 3.82524 3.86568 3.84552
# Velocity P-wave (km/s) = 5.96203 6.01110 5.98662
#
# Compressibility (1/GPa) = 0.02847711
#
# Stress axis : x y z
#
# Youngs Moduli (GPa) = 67.46001 82.77166 83.62157
#
# Poissons Ratio (x) = 0.18517 0.11336
# Poissons Ratio (y) = 0.15092 0.13384
# Poissons Ratio (z) = 0.09145 0.13248
#
# Static dielectric constant tensor:
#      x y z
#    x 3.869170 0.000000 0.000000 
#    y 0.000000 4.105540 0.000000 
#    z 0.000000 0.000000 4.077350 
# 
# 
# High freq. dielectric constant tensor:
#      x y z
#    x 1.865910 0.000000 0.000000 
#    y 0.000000 1.871890 0.000000 
#    z 0.000000 0.000000 1.878360 
# 
# From -- ./inp_files/6137.got.cif
#   From: 2010.03.12/outbox.cif.g09.slc.cpg/sg61_4_cif.got.tgz:6137.got - 2010.04.10 19:05:03.
