data_PCOD8249488
_publ_section_title
;
Structure prediction by ZEFSAII (Michael W. Deem and Ramdas Pophale) SiO2 
 PCOD8249488
Probable space group: P B C A
;
_chemical_formula_sum "Si O2"
_cell_formula_units_Z 56
_cell_length_a 21.895089
_cell_length_b 8.592831
_cell_length_c 14.114569
_cell_angle_alpha 90.000000
_cell_angle_beta 90.000000
_cell_angle_gamma 90.000000
_cell_volume 2655.526296
_symmetry_space_group_name_H-M "P B C A"
_symmetry_group_IT_number 61
_symmetry_cell_setting 'orthorhombic'
loop_
_space_group_symop_operation_xyz
x,y,z
1/2-x,-y,1/2+z
1/2+x,1/2-y,-z
-x,1/2+y,1/2-z
-x,-y,-z
1/2+x,y,1/2-z
1/2-x,1/2+y,z
x,1/2-y,1/2+z
loop_
_atom_site_type_symbol
_atom_site_label
_atom_site_fract_x
_atom_site_fract_y
_atom_site_fract_z
Si Si1 0.928555 0.337331 0.933292
Si Si2 0.190352 0.845925 0.813954
Si Si3 0.276821 0.853714 0.199952
Si Si4 0.315254 0.371638 0.028758
Si Si5 0.522184 0.165303 0.905254
Si Si6 0.876880 0.889532 0.851730
Si Si7 0.576746 0.827805 0.244025
O O1 0.860203 0.278665 0.960315
O O2 0.930106 0.525848 0.927832
O O3 0.949574 0.259454 0.835675
O O4 0.979823 0.286055 0.007443
O O5 0.232273 0.702977 0.782684
O O6 0.119889 0.791702 0.813257
O O7 0.199163 0.979490 0.734875
O O8 0.208088 0.891274 0.921237
O O9 0.242605 0.859169 0.098812
O O10 0.333958 0.740732 0.191918
O O11 0.350195 0.531225 0.053599
O O12 0.558060 0.320029 0.878575
O O13 0.479387 0.113892 0.818600
O O14 0.883825 0.021502 0.772038
#
# Coordination Sequence:
#
# PCOD8249488 Si02
#       7
#     8   8   8   8   8   8   8
#     4  10  22  44  66  97 137 176 224 288 335 407
#     4  12  24  45  70 100 135 182 229 284 356 406
#     4  12  25  47  68 100 140 175 234 288 345 426
#     4  11  25  45  68  97 141 184 229 290 349 414
#     4  11  23  43  69 102 135 181 230 278 351 406
#     4  11  25  44  66 103 137 180 228 286 347 411
#     4  11  22  45  68  99 137 178 226 283 338 412
#
# _framework density 21.088100000000001
#
# number of rings (size 3 to 8) (size 9 to 14) (size 15 to 20)
#    0.000    0.857    5.714    1.714    2.000    2.286 
#   10.286    0.000    0.000    0.000    0.000    0.000 
#    0.000    0.000    0.000    0.000    0.000    0.000 
#
# Total GULP energy -694532.447155 kJ/mol
# GULP energy per Si atom -12402.365128 kJ/mol
# Density = 2.104010 g / cm^3
# Si number density = 21.088100 Si / 1000 Ang^3
#
#
#
# Elastic Constant Matrix: (Units=GPa)
#
#
# Indices 1 2 3 4 5 6 
#
# 1 75.1365 39.2715 35.6682 0.0000 0.0000 0.0000
# 2 39.2715 93.3484 22.9344 0.0000 0.0000 0.0000
# 3 35.6682 22.9344 133.9466 0.0000 0.0000 0.0000
# 4 0.0000 0.0000 0.0000 22.8756 0.0000 0.0000
# 5 0.0000 0.0000 0.0000 0.0000 29.5409 0.0000
# 6 0.0000 0.0000 0.0000 0.0000 0.0000 35.2412
#
#
#
# Elastic Compliance Matrix: (Units=1/GPa)
#
#
# Indices 1 2 3 4 5 6 
#
# 1 0.018748 -0.006953 -0.003802 0.000000 0.000000 0.000000
# 2 -0.006953 0.013762 -0.000505 0.000000 0.000000 0.000000
# 3 -0.003802 -0.000505 0.008564 0.000000 0.000000 0.000000
# 4 0.000000 0.000000 0.000000 0.043715 0.000000 0.000000
# 5 0.000000 0.000000 0.000000 0.000000 0.033851 0.000000
# 6 0.000000 0.000000 0.000000 0.000000 0.000000 0.028376
#
#
# Mechanical properties :
#
#
# Convention : Reuss Voigt Hill
#
# Bulk Modulus (GPa) = 53.89462 55.35329 54.62396
# Shear Modulus (GPa) = 28.45420 31.16869 29.81144
#
# Velocity S-wave (km/s) = 3.67727 3.84868 3.76395
# Velocity P-wave (km/s) = 6.60622 6.78641 6.69692
#
# Compressibility (1/GPa) = 0.01855473
#
# Stress axis : x y z
#
# Youngs Moduli (GPa) = 53.33863 72.66504 116.76152
#
# Poissons Ratio (x) = 0.50526 0.44391
# Poissons Ratio (y) = 0.37088 0.05893
# Poissons Ratio (z) = 0.20279 0.03668
#
# Static dielectric constant tensor:
#      x y z
#    x 3.796950 0.000000 0.000000 
#    y 0.000000 3.887860 0.000000 
#    z 0.000000 0.000000 3.830720 
# 
# 
# High freq. dielectric constant tensor:
#      x y z
#    x 1.827700 0.000000 0.000000 
#    y 0.000000 1.831170 0.000000 
#    z 0.000000 0.000000 1.829020 
# 
# From -- ./inp_files/8385.got.cif
#   From: 2010.03.12/outbox.cif.g09.slc.cpg/sg61_5_cif.got.tgz:8385.got - 2010.04.10 19:05:03.
