data_PCOD8249292
_publ_section_title
;
Structure prediction by ZEFSAII (Michael W. Deem and Ramdas Pophale) SiO2 
 PCOD8249292
Probable space group: P B C A
;
_chemical_formula_sum "Si O2"
_cell_formula_units_Z 64
_cell_length_a 23.784385
_cell_length_b 11.284190
_cell_length_c 10.723404
_cell_angle_alpha 90.000000
_cell_angle_beta 90.000000
_cell_angle_gamma 90.000000
_cell_volume 2878.027799
_symmetry_space_group_name_H-M "P B C A"
_symmetry_group_IT_number 61
_symmetry_cell_setting 'orthorhombic'
loop_
_space_group_symop_operation_xyz
x,y,z
1/2-x,-y,1/2+z
1/2+x,1/2-y,-z
-x,1/2+y,1/2-z
-x,-y,-z
1/2+x,y,1/2-z
1/2-x,1/2+y,z
x,1/2-y,1/2+z
loop_
_atom_site_type_symbol
_atom_site_label
_atom_site_fract_x
_atom_site_fract_y
_atom_site_fract_z
Si Si1 0.355325 0.322840 0.246095
Si Si2 0.630099 0.273825 0.854232
Si Si3 0.439874 0.774881 0.900010
Si Si4 0.440982 0.226948 0.545353
Si Si5 0.642346 0.598134 0.114423
Si Si6 0.167312 0.020408 0.637606
Si Si7 0.418348 0.463759 0.427994
Si Si8 0.793444 0.504610 0.393807
O O1 0.393207 0.248921 0.148349
O O2 0.335348 0.231274 0.352930
O O3 0.393579 0.431873 0.293027
O O4 0.301554 0.383321 0.183982
O O5 0.590504 0.260263 0.732900
O O6 0.671849 0.162186 0.857379
O O7 0.668587 0.389168 0.842024
O O8 0.595298 0.277889 0.983883
O O9 0.498020 0.698991 0.894858
O O10 0.453917 0.915218 0.920022
O O11 0.417462 0.118557 0.457989
O O12 0.453350 0.348436 0.470108
O O13 0.634006 0.523774 0.239928
O O14 0.688887 0.527413 0.035099
O O15 0.228543 0.960772 0.621811
O O16 0.134422 0.981999 0.516633
#
# Coordination Sequence:
#
# PCOD8249292 Si02
#       8
#     8   8   8   8   8   8   8   8
#     4  10  21  42  67  97 135 165 234 274 320 412
#     4  11  26  45  65 100 141 169 232 280 336 418
#     4  11  24  44  67  97 141 178 220 281 348 399
#     4  10  22  41  71  97 132 180 219 271 343 394
#     4  10  23  43  67 102 134 164 239 276 315 419
#     4  11  25  42  69  96 134 177 221 279 341 394
#     4  10  21  41  62  99 131 175 220 275 320 414
#     4  11  25  44  68  96 131 187 215 281 346 392
#
# _framework density 22.237451
#
# number of rings (size 3 to 8) (size 9 to 14) (size 15 to 20)
#    0.000    1.500    2.500    1.125    7.000    0.000 
#    0.000    5.625    0.000    0.000    0.000    0.000 
#    0.000    0.000    0.000    0.000    0.000    0.000 
#
# Total GULP energy -793197.706882 kJ/mol
# GULP energy per Si atom -12393.714170 kJ/mol
# Density = 2.218684 g / cm^3
# Si number density = 22.237451 Si / 1000 Ang^3
#
#
#
# Elastic Constant Matrix: (Units=GPa)
#
#
# Indices 1 2 3 4 5 6 
#
# 1 56.8314 11.8860 -7.7097 0.0000 0.0000 0.0000
# 2 11.8860 71.5496 9.9286 0.0000 0.0000 0.0000
# 3 -7.7097 9.9286 71.9432 0.0000 0.0000 0.0000
# 4 0.0000 0.0000 0.0000 37.1227 0.0000 0.0000
# 5 0.0000 0.0000 0.0000 0.0000 14.8742 0.0000
# 6 0.0000 0.0000 0.0000 0.0000 0.0000 20.5173
#
#
#
# Elastic Compliance Matrix: (Units=1/GPa)
#
#
# Indices 1 2 3 4 5 6 
#
# 1 0.018651 -0.003442 0.002474 0.000000 0.000000 0.000000
# 2 -0.003442 0.014884 -0.002423 0.000000 0.000000 0.000000
# 3 0.002474 -0.002423 0.014499 0.000000 0.000000 0.000000
# 4 0.000000 0.000000 0.000000 0.026938 0.000000 0.000000
# 5 0.000000 0.000000 0.000000 0.000000 0.067230 0.000000
# 6 0.000000 0.000000 0.000000 0.000000 0.000000 0.048739
#
#
# Mechanical properties :
#
#
# Convention : Reuss Voigt Hill
#
# Bulk Modulus (GPa) = 24.24060 25.39268 24.81664
# Shear Modulus (GPa) = 23.64346 26.91747 25.28046
#
# Velocity S-wave (km/s) = 3.26425 3.48294 3.37537
# Velocity P-wave (km/s) = 5.01314 5.25530 5.13565
#
# Compressibility (1/GPa) = 0.04125310
#
# Stress axis : x y z
#
# Youngs Moduli (GPa) = 53.61556 67.18502 68.96869
#
# Poissons Ratio (x) = 0.23123 -0.17061
# Poissons Ratio (y) = 0.18453 0.16711
# Poissons Ratio (z) = -0.13263 0.16279
#
# Static dielectric constant tensor:
#      x y z
#    x 3.591090 0.000000 0.000000 
#    y 0.000000 4.208460 0.000000 
#    z 0.000000 0.000000 4.139840 
# 
# 
# High freq. dielectric constant tensor:
#      x y z
#    x 1.848770 0.000000 0.000000 
#    y 0.000000 1.882760 0.000000 
#    z 0.000000 0.000000 1.887930 
# 
# From -- ./inp_files/6623.got.cif
#   From: 2010.03.12/outbox.cif.g09.slc.cpg/sg61_4_cif.got.tgz:6623.got - 2010.04.10 19:05:03.
