data_PCOD8249020
_publ_section_title
;
Structure prediction by ZEFSAII (Michael W. Deem and Ramdas Pophale) SiO2 
 PCOD8249020
Probable space group: P B C A
;
_chemical_formula_sum "Si O2"
_cell_formula_units_Z 48
_cell_length_a 4.792002
_cell_length_b 16.315392
_cell_length_c 29.022051
_cell_angle_alpha 90.000000
_cell_angle_beta 90.000000
_cell_angle_gamma 90.000000
_cell_volume 2269.042364
_symmetry_space_group_name_H-M "P B C A"
_symmetry_group_IT_number 61
_symmetry_cell_setting 'orthorhombic'
loop_
_space_group_symop_operation_xyz
x,y,z
1/2-x,-y,1/2+z
1/2+x,1/2-y,-z
-x,1/2+y,1/2-z
-x,-y,-z
1/2+x,y,1/2-z
1/2-x,1/2+y,z
x,1/2-y,1/2+z
loop_
_atom_site_type_symbol
_atom_site_label
_atom_site_fract_x
_atom_site_fract_y
_atom_site_fract_z
Si Si1 0.727095 0.392767 0.099310
Si Si2 0.833506 0.737045 0.530327
Si Si3 0.762364 0.669879 0.848551
Si Si4 0.073725 0.834035 0.616528
Si Si5 0.948303 0.456649 0.281515
Si Si6 0.072655 0.940020 0.868445
O O1 0.792797 0.348829 0.050683
O O2 0.408049 0.368146 0.109022
O O3 0.727388 0.491465 0.099458
O O4 0.917554 0.356043 0.141037
O O5 0.575359 0.783014 0.506261
O O6 0.953333 0.795958 0.569780
O O7 0.715730 0.767669 0.849028
O O8 0.643627 0.632597 0.800890
O O9 0.319666 0.897782 0.603723
O O10 0.816585 0.875623 0.643776
O O11 0.761287 0.468883 0.236404
O O12 0.927742 0.522564 0.322662
#
# Coordination Sequence:
#
# PCOD8249020 Si02
#       6
#     8   8   8   8   8   8
#     4  10  20  38  61  84 116 163 200 233 296 378
#     4  11  22  39  61  88 118 156 206 260 302 350
#     4  10  20  38  61  84 113 159 206 236 282 364
#     4  11  22  39  62  88 118 158 203 248 302 366
#     4  11  22  39  61  88 118 155 197 243 291 349
#     4  11  22  39  61  88 122 161 198 242 309 377
#
# _framework density 21.154297
#
# number of rings (size 3 to 8) (size 9 to 14) (size 15 to 20)
#    0.000    1.333    0.000   10.000    0.000    0.000 
#    0.000   10.000    0.000    0.000    0.000    0.000 
#    0.000    0.000    0.000    0.000    0.000    0.000 
#
# Total GULP energy -594857.596372 kJ/mol
# GULP energy per Si atom -12392.866591 kJ/mol
# Density = 2.110615 g / cm^3
# Si number density = 21.154297 Si / 1000 Ang^3
#
#
#
# Elastic Constant Matrix: (Units=GPa)
#
#
# Indices 1 2 3 4 5 6 
#
# 1 99.2499 41.6163 21.2362 0.0000 0.0000 0.0000
# 2 41.6163 120.1810 40.1781 0.0000 0.0000 0.0000
# 3 21.2362 40.1781 68.3177 0.0000 0.0000 0.0000
# 4 0.0000 0.0000 0.0000 18.1975 0.0000 0.0000
# 5 0.0000 0.0000 0.0000 0.0000 44.4159 0.0000
# 6 0.0000 0.0000 0.0000 0.0000 0.0000 36.5229
#
#
#
# Elastic Compliance Matrix: (Units=1/GPa)
#
#
# Indices 1 2 3 4 5 6 
#
# 1 0.011924 -0.003597 -0.001591 0.000000 0.000000 0.000000
# 2 -0.003597 0.011442 -0.005611 0.000000 0.000000 0.000000
# 3 -0.001591 -0.005611 0.018432 0.000000 0.000000 0.000000
# 4 0.000000 0.000000 0.000000 0.054952 0.000000 0.000000
# 5 0.000000 0.000000 0.000000 0.000000 0.022514 0.000000
# 6 0.000000 0.000000 0.000000 0.000000 0.000000 0.027380
#
#
# Mechanical properties :
#
#
# Convention : Reuss Voigt Hill
#
# Bulk Modulus (GPa) = 49.50538 54.86776 52.18657
# Shear Modulus (GPa) = 28.57504 32.14179 30.35842
#
# Velocity S-wave (km/s) = 3.67930 3.90217 3.79237
# Velocity P-wave (km/s) = 6.44224 6.80411 6.62565
#
# Compressibility (1/GPa) = 0.02019983
#
# Stress axis : x y z
#
# Youngs Moduli (GPa) = 83.86182 87.39486 54.25342
#
# Poissons Ratio (x) = 0.31438 0.08632
# Poissons Ratio (y) = 0.30167 0.30442
# Poissons Ratio (z) = 0.13343 0.49038
#
# Static dielectric constant tensor:
#      x y z
#    x 3.990480 0.000000 0.000000 
#    y 0.000000 4.093370 0.000000 
#    z 0.000000 0.000000 3.635440 
# 
# 
# High freq. dielectric constant tensor:
#      x y z
#    x 1.854790 0.000000 0.000000 
#    y 0.000000 1.823950 0.000000 
#    z 0.000000 0.000000 1.796050 
# 
# From -- ./inp_files/11237.got.cif
#   From: 2010.03.12/outbox.cif.g09.slc.cpg/sg61_6_cif.got.tgz:11237.got - 2010.04.10 19:05:03.
