data_PCOD8249835
_publ_section_title
;
Structure prediction by ZEFSAII (Michael W. Deem and Ramdas Pophale) SiO2 
 PCOD8249835
Probable space group: P B C A
;
_chemical_formula_sum "Si O2"
_cell_formula_units_Z 48
_cell_length_a 21.014952
_cell_length_b 11.458524
_cell_length_c 9.318359
_cell_angle_alpha 90.000000
_cell_angle_beta 90.000000
_cell_angle_gamma 90.000000
_cell_volume 2243.863940
_symmetry_space_group_name_H-M "P B C A"
_symmetry_group_IT_number 61
_symmetry_cell_setting 'orthorhombic'
loop_
_space_group_symop_operation_xyz
x,y,z
1/2-x,-y,1/2+z
1/2+x,1/2-y,-z
-x,1/2+y,1/2-z
-x,-y,-z
1/2+x,y,1/2-z
1/2-x,1/2+y,z
x,1/2-y,1/2+z
loop_
_atom_site_type_symbol
_atom_site_label
_atom_site_fract_x
_atom_site_fract_y
_atom_site_fract_z
Si Si1 0.347429 0.059066 0.508320
Si Si2 0.440509 0.251819 0.893518
Si Si3 0.649648 0.161479 0.684590
Si Si4 0.972768 0.690309 0.142250
Si Si5 0.120647 0.986672 0.322529
Si Si6 0.793228 0.858565 0.498176
O O1 0.403143 0.151117 0.482233
O O2 0.360464 0.992862 0.657179
O O3 0.281443 0.127184 0.521782
O O4 0.346729 0.967982 0.378515
O O5 0.467209 0.307373 0.747979
O O6 0.392548 0.147664 0.855676
O O7 0.501195 0.208785 0.982786
O O8 0.577649 0.208501 0.678974
O O9 0.696060 0.244749 0.594781
O O10 0.672015 0.158697 0.847670
O O11 0.941671 0.563028 0.146488
O O12 0.178639 0.027475 0.422958
#
# Coordination Sequence:
#
# PCOD8249835 Si02
#       6
#     8   8   8   8   8   8
#     4  12  27  43  72 103 141 180 233 286 341 414
#     4  12  26  42  70 104 136 182 229 290 341 414
#     4  11  25  47  72 103 136 188 226 283 353 402
#     4  11  24  45  70  96 140 178 231 285 343 419
#     4  11  25  48  66 105 134 187 227 285 350 399
#     4  11  26  45  74  98 142 180 232 287 341 420
#
# _framework density 21.391670999999999
#
# number of rings (size 3 to 8) (size 9 to 14) (size 15 to 20)
#    0.000    0.667    1.667    6.500    9.333    1.333 
#    0.000    0.000    0.000    0.000    0.000    0.000 
#    0.000    0.000    0.000    0.000    0.000    0.000 
#
# Total GULP energy -595620.823215 kJ/mol
# GULP energy per Si atom -12408.767150 kJ/mol
# Density = 2.134298 g / cm^3
# Si number density = 21.391671 Si / 1000 Ang^3
#
#
#
# Elastic Constant Matrix: (Units=GPa)
#
#
# Indices 1 2 3 4 5 6 
#
# 1 76.3334 13.0493 -8.8095 0.0000 0.0000 0.0000
# 2 13.0493 68.4668 12.5466 0.0000 0.0000 0.0000
# 3 -8.8095 12.5466 81.5961 0.0000 0.0000 0.0000
# 4 0.0000 0.0000 0.0000 37.1386 0.0000 0.0000
# 5 0.0000 0.0000 0.0000 0.0000 20.7282 0.0000
# 6 0.0000 0.0000 0.0000 0.0000 0.0000 30.7680
#
#
#
# Elastic Compliance Matrix: (Units=1/GPa)
#
#
# Indices 1 2 3 4 5 6 
#
# 1 0.013838 -0.002996 0.001955 0.000000 0.000000 0.000000
# 2 -0.002996 0.015678 -0.002734 0.000000 0.000000 0.000000
# 3 0.001955 -0.002734 0.012887 0.000000 0.000000 0.000000
# 4 0.000000 0.000000 0.000000 0.026926 0.000000 0.000000
# 5 0.000000 0.000000 0.000000 0.000000 0.048243 0.000000
# 6 0.000000 0.000000 0.000000 0.000000 0.000000 0.032501
#
#
# Mechanical properties :
#
#
# Convention : Reuss Voigt Hill
#
# Bulk Modulus (GPa) = 28.69236 28.88546 28.78891
# Shear Modulus (GPa) = 29.54365 31.70097 30.62231
#
# Velocity S-wave (km/s) = 3.72032 3.85376 3.78763
# Velocity P-wave (km/s) = 5.64769 5.77360 5.71099
#
# Compressibility (1/GPa) = 0.03485249
#
# Stress axis : x y z
#
# Youngs Moduli (GPa) = 72.26414 63.78525 77.59804
#
# Poissons Ratio (x) = 0.19108 -0.15168
# Poissons Ratio (y) = 0.21648 0.21216
# Poissons Ratio (z) = -0.14125 0.17439
#
# Static dielectric constant tensor:
#      x y z
#    x 3.843970 0.000000 0.000000 
#    y 0.000000 3.773280 0.000000 
#    z 0.000000 0.000000 3.984410 
# 
# 
# High freq. dielectric constant tensor:
#      x y z
#    x 1.846340 0.000000 0.000000 
#    y 0.000000 1.842380 0.000000 
#    z 0.000000 0.000000 1.858790 
# 
# From -- ./inp_files/4211.got.cif
#   From: 2010.03.12/outbox.cif.g09.slc.cpg/sg61_3_cif.got.tgz:4211.got - 2010.04.10 19:05:03.
