data_PCOD8249846
_publ_section_title
;
Structure prediction by ZEFSAII (Michael W. Deem and Ramdas Pophale) SiO2 
 PCOD8249846
Probable space group: P B C A
;
_chemical_formula_sum "Si O2"
_cell_formula_units_Z 48
_cell_length_a 9.685767
_cell_length_b 13.201856
_cell_length_c 17.571062
_cell_angle_alpha 90.000000
_cell_angle_beta 90.000000
_cell_angle_gamma 90.000000
_cell_volume 2246.813476
_symmetry_space_group_name_H-M "P B C A"
_symmetry_group_IT_number 61
_symmetry_cell_setting 'orthorhombic'
loop_
_space_group_symop_operation_xyz
x,y,z
1/2-x,-y,1/2+z
1/2+x,1/2-y,-z
-x,1/2+y,1/2-z
-x,-y,-z
1/2+x,y,1/2-z
1/2-x,1/2+y,z
x,1/2-y,1/2+z
loop_
_atom_site_type_symbol
_atom_site_label
_atom_site_fract_x
_atom_site_fract_y
_atom_site_fract_z
Si Si1 0.427277 0.535506 0.751727
Si Si2 0.812343 0.331923 0.257814
Si Si3 0.665111 0.381937 0.529481
Si Si4 0.884667 0.053993 0.410245
Si Si5 0.678465 0.231106 0.399093
Si Si6 0.608150 0.844654 0.651780
O O1 0.536267 0.623522 0.770337
O O2 0.280414 0.579821 0.779951
O O3 0.427460 0.512746 0.662020
O O4 0.458749 0.434388 0.798639
O O5 0.741764 0.307976 0.338207
O O6 0.809876 0.231909 0.206411
O O7 0.514802 0.375164 0.568477
O O8 0.664922 0.482249 0.478248
O O9 0.694827 0.280212 0.482127
O O10 0.786273 0.391311 0.591130
O O11 0.755374 0.124672 0.392109
O O12 0.515746 0.215747 0.387266
#
# Coordination Sequence:
#
# PCOD8249846 Si02
#       6
#     8   8   8   8   8   8
#     4  12  25  44  74 103 139 184 238 288 352 419
#     4  12  25  44  70 104 139 183 235 294 348 413
#     4  11  26  46  71 102 141 187 228 290 354 423
#     4  11  24  47  72  99 144 183 230 291 354 414
#     4  12  25  46  68 103 141 184 230 292 350 415
#     4  12  27  45  73 108 138 188 243 286 352 427
#
# _framework density 21.363589000000001
#
# number of rings (size 3 to 8) (size 9 to 14) (size 15 to 20)
#    0.000    0.333    5.000    3.000    4.667    4.667 
#    0.000    0.000    0.000    0.000    0.000    0.000 
#    0.000    0.000    0.000    0.000    0.000    0.000 
#
# Total GULP energy -595541.861936 kJ/mol
# GULP energy per Si atom -12407.122124 kJ/mol
# Density = 2.131496 g / cm^3
# Si number density = 21.363589 Si / 1000 Ang^3
#
#
#
# Elastic Constant Matrix: (Units=GPa)
#
#
# Indices 1 2 3 4 5 6 
#
# 1 104.8906 29.7049 50.1636 0.0000 0.0000 0.0000
# 2 29.7049 90.8445 38.8682 0.0000 0.0000 0.0000
# 3 50.1636 38.8682 106.5093 0.0000 0.0000 0.0000
# 4 0.0000 0.0000 0.0000 43.0378 0.0000 0.0000
# 5 0.0000 0.0000 0.0000 0.0000 34.0715 0.0000
# 6 0.0000 0.0000 0.0000 0.0000 0.0000 48.7212
#
#
#
# Elastic Compliance Matrix: (Units=1/GPa)
#
#
# Indices 1 2 3 4 5 6 
#
# 1 0.012568 -0.001869 -0.005237 0.000000 0.000000 0.000000
# 2 -0.001869 0.013322 -0.003982 0.000000 0.000000 0.000000
# 3 -0.005237 -0.003982 0.013308 0.000000 0.000000 0.000000
# 4 0.000000 0.000000 0.000000 0.023235 0.000000 0.000000
# 5 0.000000 0.000000 0.000000 0.000000 0.029350 0.000000
# 6 0.000000 0.000000 0.000000 0.000000 0.000000 0.020525
#
#
# Mechanical properties :
#
#
# Convention : Reuss Voigt Hill
#
# Bulk Modulus (GPa) = 58.74208 59.96864 59.35536
# Shear Modulus (GPa) = 35.67397 37.39994 36.53695
#
# Velocity S-wave (km/s) = 4.09081 4.18860 4.14000
# Velocity P-wave (km/s) = 7.06180 7.17802 7.12015
#
# Compressibility (1/GPa) = 0.01702357
#
# Stress axis : x y z
#
# Youngs Moduli (GPa) = 79.56972 75.06150 75.14036
#
# Poissons Ratio (x) = 0.14027 0.39352
# Poissons Ratio (y) = 0.14869 0.29918
# Poissons Ratio (z) = 0.41672 0.29886
#
# Static dielectric constant tensor:
#      x y z
#    x 3.865610 0.000000 0.000000 
#    y 0.000000 3.826950 0.000000 
#    z 0.000000 0.000000 3.846410 
# 
# 
# High freq. dielectric constant tensor:
#      x y z
#    x 1.848470 0.000000 0.000000 
#    y 0.000000 1.851140 0.000000 
#    z 0.000000 0.000000 1.838470 
# 
# From -- ./inp_files/8907.got.cif
#   From: 2010.03.12/outbox.cif.g09.slc.cpg/sg61_5_cif.got.tgz:8907.got - 2010.04.10 19:05:03.
