data_PCOD8249706
_publ_section_title
;
Structure prediction by ZEFSAII (Michael W. Deem and Ramdas Pophale) SiO2 
 PCOD8249706
Probable space group: P B C A
;
_chemical_formula_sum "Si O2"
_cell_formula_units_Z 48
_cell_length_a 16.821054
_cell_length_b 27.639408
_cell_length_c 4.906119
_cell_angle_alpha 90.000000
_cell_angle_beta 90.000000
_cell_angle_gamma 90.000000
_cell_volume 2280.972345
_symmetry_space_group_name_H-M "P B C A"
_symmetry_group_IT_number 61
_symmetry_cell_setting 'orthorhombic'
loop_
_space_group_symop_operation_xyz
x,y,z
1/2-x,-y,1/2+z
1/2+x,1/2-y,-z
-x,1/2+y,1/2-z
-x,-y,-z
1/2+x,y,1/2-z
1/2-x,1/2+y,z
x,1/2-y,1/2+z
loop_
_atom_site_type_symbol
_atom_site_label
_atom_site_fract_x
_atom_site_fract_y
_atom_site_fract_z
Si Si1 0.042914 0.367129 0.626823
Si Si2 0.816742 0.137386 0.860847
Si Si3 0.143492 0.112570 0.617635
Si Si4 0.803877 0.507330 0.922682
Si Si5 0.565175 0.782587 0.438792
Si Si6 0.113318 0.587336 0.155707
O O1 0.087588 0.393186 0.379399
O O2 0.008585 0.316848 0.513670
O O3 0.975140 0.403183 0.736746
O O4 0.102464 0.356593 0.876930
O O5 0.723558 0.140925 0.790850
O O6 0.851872 0.188223 0.970678
O O7 0.869286 0.121586 0.602366
O O8 0.824008 0.098292 0.103190
O O9 0.160358 0.059184 0.499095
O O10 0.761675 0.512194 0.631740
O O11 0.876214 0.468836 0.919749
O O12 0.561466 0.735509 0.628783
#
# Coordination Sequence:
#
# PCOD8249706 Si02
#       6
#     8   8   8   8   8   8
#     4  11  25  40  63  95 132 170 207 268 346 378
#     4  11  22  40  68  91 124 166 217 266 319 380
#     4  12  23  40  63  98 133 169 211 273 325 376
#     4  12  22  38  63  95 128 177 227 260 307 374
#     4  11  23  45  69  91 118 164 214 257 320 408
#     4  11  21  41  62  91 129 179 218 256 307 392
#
# _framework density 21.043655999999999
#
# number of rings (size 3 to 8) (size 9 to 14) (size 15 to 20)
#    0.000    0.667    3.333    7.000    0.000    1.333 
#    0.000    5.000    0.000    0.000    0.000    0.000 
#    0.000    0.000    0.000    0.000    0.000    0.000 
#
# Total GULP energy -595449.963488 kJ/mol
# GULP energy per Si atom -12405.207573 kJ/mol
# Density = 2.099576 g / cm^3
# Si number density = 21.043656 Si / 1000 Ang^3
#
#
#
# Elastic Constant Matrix: (Units=GPa)
#
#
# Indices 1 2 3 4 5 6 
#
# 1 110.4893 55.9318 31.6562 0.0000 0.0000 0.0000
# 2 55.9318 73.9071 25.9454 0.0000 0.0000 0.0000
# 3 31.6562 25.9454 108.7834 0.0000 0.0000 0.0000
# 4 0.0000 0.0000 0.0000 36.9915 0.0000 0.0000
# 5 0.0000 0.0000 0.0000 0.0000 38.4959 0.0000
# 6 0.0000 0.0000 0.0000 0.0000 0.0000 15.4134
#
#
#
# Elastic Compliance Matrix: (Units=1/GPa)
#
#
# Indices 1 2 3 4 5 6 
#
# 1 0.014990 -0.010710 -0.001808 0.000000 0.000000 0.000000
# 2 -0.010710 0.022418 -0.002230 0.000000 0.000000 0.000000
# 3 -0.001808 -0.002230 0.010251 0.000000 0.000000 0.000000
# 4 0.000000 0.000000 0.000000 0.027033 0.000000 0.000000
# 5 0.000000 0.000000 0.000000 0.000000 0.025977 0.000000
# 6 0.000000 0.000000 0.000000 0.000000 0.000000 0.064879
#
#
# Mechanical properties :
#
#
# Convention : Reuss Voigt Hill
#
# Bulk Modulus (GPa) = 55.05581 57.80519 56.43050
# Shear Modulus (GPa) = 24.86354 30.15658 27.51006
#
# Velocity S-wave (km/s) = 3.44106 3.78967 3.61956
# Velocity P-wave (km/s) = 6.48130 6.83210 6.65901
#
# Compressibility (1/GPa) = 0.01816339
#
# Stress axis : x y z
#
# Youngs Moduli (GPa) = 66.71112 44.60635 97.55509
#
# Poissons Ratio (x) = 0.47771 0.17636
# Poissons Ratio (y) = 0.71445 0.21758
# Poissons Ratio (z) = 0.12060 0.09949
#
# Static dielectric constant tensor:
#      x y z
#    x 3.786580 0.000000 0.000000 
#    y 0.000000 3.604930 0.000000 
#    z 0.000000 0.000000 3.969070 
# 
# 
# High freq. dielectric constant tensor:
#      x y z
#    x 1.821960 0.000000 0.000000 
#    y 0.000000 1.809410 0.000000 
#    z 0.000000 0.000000 1.845740 
# 
# From -- ./inp_files/545.got.cif
#   From: 2010.03.12/outbox.cif.g09.slc.cpg/sg61_1_cif.got.tgz:545.got - 2010.04.10 19:05:03.
