data_PCOD8249218
_publ_section_title
;
Structure prediction by ZEFSAII (Michael W. Deem and Ramdas Pophale) SiO2 
 PCOD8249218
Probable space group: P B C A
;
_chemical_formula_sum "Si O2"
_cell_formula_units_Z 48
_cell_length_a 13.486161
_cell_length_b 32.110984
_cell_length_c 4.981579
_cell_angle_alpha 90.000000
_cell_angle_beta 90.000000
_cell_angle_gamma 90.000000
_cell_volume 2157.292215
_symmetry_space_group_name_H-M "P B C A"
_symmetry_group_IT_number 61
_symmetry_cell_setting 'orthorhombic'
loop_
_space_group_symop_operation_xyz
x,y,z
1/2-x,-y,1/2+z
1/2+x,1/2-y,-z
-x,1/2+y,1/2-z
-x,-y,-z
1/2+x,y,1/2-z
1/2-x,1/2+y,z
x,1/2-y,1/2+z
loop_
_atom_site_type_symbol
_atom_site_label
_atom_site_fract_x
_atom_site_fract_y
_atom_site_fract_z
Si Si1 0.489754 0.346032 0.924067
Si Si2 0.334436 0.042519 0.878288
Si Si3 0.153744 0.774932 0.886376
Si Si4 0.514047 0.400063 0.448174
Si Si5 0.294773 0.552138 0.383618
Si Si6 0.386973 0.724853 0.338834
O O1 0.392689 0.318488 0.979754
O O2 0.459143 0.379337 0.700416
O O3 0.575026 0.318547 0.779680
O O4 0.525756 0.368423 0.196749
O O5 0.445138 0.060617 0.883523
O O6 0.294369 0.056102 0.591091
O O7 0.345893 0.993017 0.905139
O O8 0.254919 0.059983 0.094181
O O9 0.116770 0.760676 0.594004
O O10 0.270336 0.780112 0.871608
O O11 0.622579 0.413773 0.547531
O O12 0.423355 0.738264 0.635661
#
# Coordination Sequence:
#
# PCOD8249218 Si02
#       6
#     8   8   8   8   8   8
#     4  12  24  37  59  90 125 158 193 250 313 363
#     4  10  22  42  66  89 119 163 209 250 296 361
#     4  10  21  39  61  83 112 156 205 247 290 351
#     4  12  25  39  60  94 129 160 197 252 316 367
#     4  10  22  42  66  89 119 163 209 250 296 361
#     4  10  21  39  61  83 112 156 205 247 290 351
#
# _framework density 22.250116999999999
#
# number of rings (size 3 to 8) (size 9 to 14) (size 15 to 20)
#    0.000    1.333    0.000    5.500    0.000    4.000 
#    0.000    6.667    0.000    0.000    0.000    0.000 
#    0.000    0.000    0.000    0.000    0.000    0.000 
#
# Total GULP energy -595116.737336 kJ/mol
# GULP energy per Si atom -12398.265361 kJ/mol
# Density = 2.219947 g / cm^3
# Si number density = 22.250117 Si / 1000 Ang^3
#
#
#
# Elastic Constant Matrix: (Units=GPa)
#
#
# Indices 1 2 3 4 5 6 
#
# 1 38.0466 17.2589 6.5256 0.0000 0.0000 0.0000
# 2 17.2589 65.9044 16.5970 0.0000 0.0000 0.0000
# 3 6.5256 16.5970 95.3674 0.0000 0.0000 0.0000
# 4 0.0000 0.0000 0.0000 36.0053 0.0000 0.0000
# 5 0.0000 0.0000 0.0000 0.0000 16.0394 0.0000
# 6 0.0000 0.0000 0.0000 0.0000 0.0000 17.0946
#
#
#
# Elastic Compliance Matrix: (Units=1/GPa)
#
#
# Indices 1 2 3 4 5 6 
#
# 1 0.029873 -0.007643 -0.000714 0.000000 0.000000 0.000000
# 2 -0.007643 0.017825 -0.002579 0.000000 0.000000 0.000000
# 3 -0.000714 -0.002579 0.010983 0.000000 0.000000 0.000000
# 4 0.000000 0.000000 0.000000 0.027774 0.000000 0.000000
# 5 0.000000 0.000000 0.000000 0.000000 0.062347 0.000000
# 6 0.000000 0.000000 0.000000 0.000000 0.000000 0.058498
#
#
# Mechanical properties :
#
#
# Convention : Reuss Voigt Hill
#
# Bulk Modulus (GPa) = 27.16751 31.12014 29.14383
# Shear Modulus (GPa) = 20.70892 24.42366 22.56629
#
# Velocity S-wave (km/s) = 3.05410 3.31673 3.18812
# Velocity P-wave (km/s) = 4.96722 5.35579 5.16516
#
# Compressibility (1/GPa) = 0.03680867
#
# Stress axis : x y z
#
# Youngs Moduli (GPa) = 33.47482 56.10222 91.04611
#
# Poissons Ratio (x) = 0.42881 0.06500
# Poissons Ratio (y) = 0.25586 0.23481
# Poissons Ratio (z) = 0.02390 0.14469
#
# Static dielectric constant tensor:
#      x y z
#    x 3.805940 0.000000 0.000000 
#    y 0.000000 3.995760 0.000000 
#    z 0.000000 0.000000 4.353620 
# 
# 
# High freq. dielectric constant tensor:
#      x y z
#    x 1.879380 0.000000 0.000000 
#    y 0.000000 1.869470 0.000000 
#    z 0.000000 0.000000 1.896960 
# 
# From -- ./inp_files/531.got.cif
#   From: 2010.03.12/outbox.cif.g09.slc.cpg/sg61_1_cif.got.tgz:531.got - 2010.04.10 19:05:03.
