data_PCOD8249793
_publ_section_title
;
Structure prediction by ZEFSAII (Michael W. Deem and Ramdas Pophale) SiO2 
 PCOD8249793
Probable space group: P B C A
;
_chemical_formula_sum "Si O2"
_cell_formula_units_Z 48
_cell_length_a 9.418703
_cell_length_b 17.196416
_cell_length_c 13.708777
_cell_angle_alpha 90.000000
_cell_angle_beta 90.000000
_cell_angle_gamma 90.000000
_cell_volume 2220.382302
_symmetry_space_group_name_H-M "P B C A"
_symmetry_group_IT_number 61
_symmetry_cell_setting 'orthorhombic'
loop_
_space_group_symop_operation_xyz
x,y,z
1/2-x,-y,1/2+z
1/2+x,1/2-y,-z
-x,1/2+y,1/2-z
-x,-y,-z
1/2+x,y,1/2-z
1/2-x,1/2+y,z
x,1/2-y,1/2+z
loop_
_atom_site_type_symbol
_atom_site_label
_atom_site_fract_x
_atom_site_fract_y
_atom_site_fract_z
Si Si1 0.384566 0.186770 0.351244
Si Si2 0.396646 0.385823 0.654910
Si Si3 0.160959 0.181024 0.033934
Si Si4 0.782802 0.138486 0.662478
Si Si5 0.407798 0.932913 0.168935
Si Si6 0.652636 0.354589 0.523383
O O1 0.453342 0.155677 0.252010
O O2 0.495781 0.183423 0.439677
O O3 0.328457 0.272474 0.326351
O O4 0.259120 0.127936 0.386668
O O5 0.241931 0.353283 0.627722
O O6 0.391360 0.475931 0.680774
O O7 0.493352 0.362049 0.563142
O O8 0.197690 0.127810 0.939657
O O9 0.201743 0.269782 0.012586
O O10 0.672834 0.113595 0.746204
O O11 0.925059 0.086942 0.666743
O O12 0.331920 0.912559 0.066846
#
# Coordination Sequence:
#
# PCOD8249793 Si02
#       6
#     8   8   8   8   8   8
#     4  11  25  42  74 103 133 183 238 292 341 427
#     4  12  26  44  72 101 146 180 235 289 360 416
#     4  11  23  46  69 103 133 185 235 288 341 422
#     4  11  27  46  72 100 143 185 242 286 357 422
#     4  12  27  46  70 103 144 188 226 299 362 417
#     4  11  23  46  69  98 137 183 234 284 352 415
#
# _framework density 21.617899999999999
#
# number of rings (size 3 to 8) (size 9 to 14) (size 15 to 20)
#    0.000    0.667    3.333    3.500   11.667    0.000 
#    0.000    1.667    0.000    0.000    0.000    0.000 
#    0.000    0.000    0.000    0.000    0.000    0.000 
#
# Total GULP energy -595186.977730 kJ/mol
# GULP energy per Si atom -12399.728703 kJ/mol
# Density = 2.156870 g / cm^3
# Si number density = 21.617900 Si / 1000 Ang^3
#
#
#
# Elastic Constant Matrix: (Units=GPa)
#
#
# Indices 1 2 3 4 5 6 
#
# 1 94.6868 47.2504 43.8683 0.0000 0.0000 0.0000
# 2 47.2504 106.1102 50.6100 0.0000 0.0000 0.0000
# 3 43.8683 50.6100 130.9460 0.0000 0.0000 0.0000
# 4 0.0000 0.0000 0.0000 18.6125 0.0000 0.0000
# 5 0.0000 0.0000 0.0000 0.0000 36.8280 0.0000
# 6 0.0000 0.0000 0.0000 0.0000 0.0000 30.4947
#
#
#
# Elastic Compliance Matrix: (Units=1/GPa)
#
#
# Indices 1 2 3 4 5 6 
#
# 1 0.014412 -0.005045 -0.002878 0.000000 0.000000 0.000000
# 2 -0.005045 0.013320 -0.003458 0.000000 0.000000 0.000000
# 3 -0.002878 -0.003458 0.009938 0.000000 0.000000 0.000000
# 4 0.000000 0.000000 0.000000 0.053727 0.000000 0.000000
# 5 0.000000 0.000000 0.000000 0.000000 0.027153 0.000000
# 6 0.000000 0.000000 0.000000 0.000000 0.000000 0.032793
#
#
# Mechanical properties :
#
#
# Convention : Reuss Voigt Hill
#
# Bulk Modulus (GPa) = 67.08201 68.35560 67.71881
# Shear Modulus (GPa) = 27.92138 29.85466 28.88802
#
# Velocity S-wave (km/s) = 3.59776 3.72023 3.65951
# Velocity P-wave (km/s) = 6.95390 7.08111 7.01779
#
# Compressibility (1/GPa) = 0.01490713
#
# Stress axis : x y z
#
# Youngs Moduli (GPa) = 69.38585 75.07560 100.62838
#
# Poissons Ratio (x) = 0.37874 0.28965
# Poissons Ratio (y) = 0.35004 0.34797
# Poissons Ratio (z) = 0.19972 0.25961
#
# Static dielectric constant tensor:
#      x y z
#    x 4.041750 0.000000 0.000000 
#    y 0.000000 3.730150 0.000000 
#    z 0.000000 0.000000 4.095410 
# 
# 
# High freq. dielectric constant tensor:
#      x y z
#    x 1.855820 0.000000 0.000000 
#    y 0.000000 1.837190 0.000000 
#    z 0.000000 0.000000 1.868530 
# 
# From -- ./inp_files/7038.got.cif
#   From: 2010.03.12/outbox.cif.g09.slc.cpg/sg61_4_cif.got.tgz:7038.got - 2010.04.10 19:05:03.
