data_PCOD8249097
_publ_section_title
;
Structure prediction by ZEFSAII (Michael W. Deem and Ramdas Pophale) SiO2 
 PCOD8249097
Probable space group: P B C A
;
_chemical_formula_sum "Si O2"
_cell_formula_units_Z 48
_cell_length_a 12.446552
_cell_length_b 9.588770
_cell_length_c 19.997057
_cell_angle_alpha 90.000000
_cell_angle_beta 90.000000
_cell_angle_gamma 90.000000
_cell_volume 2386.591250
_symmetry_space_group_name_H-M "P B C A"
_symmetry_group_IT_number 61
_symmetry_cell_setting 'orthorhombic'
loop_
_space_group_symop_operation_xyz
x,y,z
1/2-x,-y,1/2+z
1/2+x,1/2-y,-z
-x,1/2+y,1/2-z
-x,-y,-z
1/2+x,y,1/2-z
1/2-x,1/2+y,z
x,1/2-y,1/2+z
loop_
_atom_site_type_symbol
_atom_site_label
_atom_site_fract_x
_atom_site_fract_y
_atom_site_fract_z
Si Si1 0.650245 0.541866 0.909987
Si Si2 0.723555 0.870851 0.123251
Si Si3 0.025762 0.722934 0.800977
Si Si4 0.548414 0.044760 0.678629
Si Si5 0.769021 0.615239 0.032043
Si Si6 0.660596 0.222962 0.900995
O O1 0.529884 0.568610 0.884806
O O2 0.687328 0.385178 0.895160
O O3 0.736109 0.640470 0.870719
O O4 0.660487 0.574205 0.989844
O O5 0.638418 0.851389 0.182695
O O6 0.831550 0.931678 0.154462
O O7 0.738746 0.721519 0.089871
O O8 0.681176 0.978747 0.067177
O O9 0.980038 0.660356 0.733085
O O10 0.946373 0.684173 0.861475
O O11 0.036521 0.889379 0.791733
O O12 0.855495 0.678234 0.979253
#
# Coordination Sequence:
#
# PCOD8249097 Si02
#       6
#     8   8   8   8   8   8
#     4   9  20  42  66  94 128 167 209 263 326 379
#     4  12  24  43  65 100 130 165 218 271 322 391
#     4  11  27  45  66  94 131 176 220 268 322 385
#     4  11  27  45  67  93 131 178 219 270 318 386
#     4  10  20  41  67 100 130 164 210 268 328 388
#     4   9  20  42  65  95 129 165 210 263 324 381
#
# _framework density 20.112366999999999
#
# number of rings (size 3 to 8) (size 9 to 14) (size 15 to 20)
#    1.000    0.667    3.333    0.000    4.667    4.000 
#    0.000    0.000    0.000    0.000    0.000    0.000 
#    0.000    0.000    0.000    0.000    0.000    0.000 
#
# Total GULP energy -595023.706112 kJ/mol
# GULP energy per Si atom -12396.327211 kJ/mol
# Density = 2.006659 g / cm^3
# Si number density = 20.112367 Si / 1000 Ang^3
#
#
#
# Elastic Constant Matrix: (Units=GPa)
#
#
# Indices 1 2 3 4 5 6 
#
# 1 92.7425 38.8372 20.6475 0.0000 0.0000 0.0000
# 2 38.8372 92.7826 31.9221 0.0000 0.0000 0.0000
# 3 20.6475 31.9221 73.9159 0.0000 0.0000 0.0000
# 4 0.0000 0.0000 0.0000 37.0209 0.0000 0.0000
# 5 0.0000 0.0000 0.0000 0.0000 27.7722 0.0000
# 6 0.0000 0.0000 0.0000 0.0000 0.0000 24.4115
#
#
#
# Elastic Compliance Matrix: (Units=1/GPa)
#
#
# Indices 1 2 3 4 5 6 
#
# 1 0.013220 -0.005007 -0.001530 0.000000 0.000000 0.000000
# 2 -0.005007 0.014555 -0.004887 0.000000 0.000000 0.000000
# 3 -0.001530 -0.004887 0.016067 0.000000 0.000000 0.000000
# 4 0.000000 0.000000 0.000000 0.027012 0.000000 0.000000
# 5 0.000000 0.000000 0.000000 0.000000 0.036007 0.000000
# 6 0.000000 0.000000 0.000000 0.000000 0.000000 0.040964
#
#
# Mechanical properties :
#
#
# Convention : Reuss Voigt Hill
#
# Bulk Modulus (GPa) = 47.63569 49.13940 48.38755
# Shear Modulus (GPa) = 28.14157 29.04319 28.59238
#
# Velocity S-wave (km/s) = 3.74467 3.80418 3.77454
# Velocity P-wave (km/s) = 6.51406 6.61674 6.56560
#
# Compressibility (1/GPa) = 0.02099266
#
# Stress axis : x y z
#
# Youngs Moduli (GPa) = 75.64251 68.70360 62.23907
#
# Poissons Ratio (x) = 0.34401 0.09525
# Poissons Ratio (y) = 0.37875 0.30418
# Poissons Ratio (z) = 0.11577 0.33578
#
# Static dielectric constant tensor:
#      x y z
#    x 3.520680 0.000000 0.000000 
#    y 0.000000 3.789990 0.000000 
#    z 0.000000 0.000000 3.535730 
# 
# 
# High freq. dielectric constant tensor:
#      x y z
#    x 1.769680 0.000000 0.000000 
#    y 0.000000 1.802840 0.000000 
#    z 0.000000 0.000000 1.778390 
# 
# From -- ./inp_files/10978.got.cif
#   From: 2010.03.12/outbox.cif.g09.slc.cpg/sg61_6_cif.got.tgz:10978.got - 2010.04.10 19:05:03.
