data_PCOD8249050
_publ_section_title
;
Structure prediction by ZEFSAII (Michael W. Deem and Ramdas Pophale) SiO2 
 PCOD8249050
Probable space group: P B C A
;
_chemical_formula_sum "Si O2"
_cell_formula_units_Z 64
_cell_length_a 12.177675
_cell_length_b 14.875955
_cell_length_c 17.308871
_cell_angle_alpha 90.000000
_cell_angle_beta 90.000000
_cell_angle_gamma 90.000000
_cell_volume 3135.580656
_symmetry_space_group_name_H-M "P B C A"
_symmetry_group_IT_number 61
_symmetry_cell_setting 'orthorhombic'
loop_
_space_group_symop_operation_xyz
x,y,z
1/2-x,-y,1/2+z
1/2+x,1/2-y,-z
-x,1/2+y,1/2-z
-x,-y,-z
1/2+x,y,1/2-z
1/2-x,1/2+y,z
x,1/2-y,1/2+z
loop_
_atom_site_type_symbol
_atom_site_label
_atom_site_fract_x
_atom_site_fract_y
_atom_site_fract_z
Si Si1 0.031036 0.121922 0.954025
Si Si2 0.326320 0.740185 0.366837
Si Si3 0.936042 0.026501 0.813781
Si Si4 0.452416 0.669211 0.224411
Si Si5 0.640465 0.699888 0.738035
Si Si6 0.217966 0.638812 0.495918
Si Si7 0.246602 0.279379 0.617819
Si Si8 0.708834 0.041237 0.438789
O O1 0.103431 0.208287 0.931291
O O2 0.023013 0.064488 0.875362
O O3 0.093570 0.067019 0.020137
O O4 0.912482 0.148809 0.988303
O O5 0.408644 0.689932 0.309668
O O6 0.247309 0.806070 0.316710
O O7 0.249223 0.666923 0.409217
O O8 0.911019 0.100695 0.747743
O O9 0.985924 0.936102 0.775931
O O10 0.821004 0.003960 0.856362
O O11 0.554112 0.731637 0.200959
O O12 0.364383 0.689787 0.158675
O O13 0.665168 0.741122 0.822606
O O14 0.280728 0.704129 0.555185
O O15 0.263491 0.537111 0.509289
O O16 0.287560 0.371770 0.574043
#
# Coordination Sequence:
#
# PCOD8249050 Si02
#       8
#     8   8   8   8   8   8   8   8
#     4  11  21  40  63  92 122 154 214 255 295 371
#     4  11  24  37  64  94 123 162 203 259 308 368
#     4  10  20  39  62  83 121 166 202 248 307 366
#     4  10  23  41  58  90 125 156 209 253 304 368
#     4  11  22  41  60  88 125 167 199 255 317 357
#     4  11  21  38  65  89 122 158 198 256 310 353
#     4  10  20  40  61  85 121 161 200 247 308 366
#     4  10  21  36  63  92 114 159 211 248 296 371
#
# _framework density 20.410893000000002
#
# number of rings (size 3 to 8) (size 9 to 14) (size 15 to 20)
#    0.000    1.500    5.000    1.500    5.250    1.000 
#    6.750    0.000    0.000    1.500    0.000    0.000 
#    0.000    0.000    0.000    0.000    0.000    0.000 
#
# Total GULP energy -793403.593323 kJ/mol
# GULP energy per Si atom -12396.931146 kJ/mol
# Density = 2.036444 g / cm^3
# Si number density = 20.410893 Si / 1000 Ang^3
#
#
#
# Elastic Constant Matrix: (Units=GPa)
#
#
# Indices 1 2 3 4 5 6 
#
# 1 50.2038 26.1974 11.0566 0.0000 0.0000 0.0000
# 2 26.1974 114.3431 8.7769 0.0000 0.0000 0.0000
# 3 11.0566 8.7769 42.2942 0.0000 0.0000 0.0000
# 4 0.0000 0.0000 0.0000 37.6904 0.0000 0.0000
# 5 0.0000 0.0000 0.0000 0.0000 25.4222 0.0000
# 6 0.0000 0.0000 0.0000 0.0000 0.0000 27.3662
#
#
#
# Elastic Compliance Matrix: (Units=1/GPa)
#
#
# Indices 1 2 3 4 5 6 
#
# 1 0.023677 -0.005030 -0.005146 0.000000 0.000000 0.000000
# 2 -0.005030 0.009956 -0.000751 0.000000 0.000000 0.000000
# 3 -0.005146 -0.000751 0.025145 0.000000 0.000000 0.000000
# 4 0.000000 0.000000 0.000000 0.026532 0.000000 0.000000
# 5 0.000000 0.000000 0.000000 0.000000 0.039336 0.000000
# 6 0.000000 0.000000 0.000000 0.000000 0.000000 0.036541
#
#
# Mechanical properties :
#
#
# Convention : Reuss Voigt Hill
#
# Bulk Modulus (GPa) = 27.08258 33.21145 30.14701
# Shear Modulus (GPa) = 25.59541 28.81644 27.20593
#
# Velocity S-wave (km/s) = 3.54504 3.76149 3.65487
# Velocity P-wave (km/s) = 5.48214 5.93059 5.71077
#
# Compressibility (1/GPa) = 0.03692411
#
# Stress axis : x y z
#
# Youngs Moduli (GPa) = 42.23570 100.44584 39.76932
#
# Poissons Ratio (x) = 0.50520 0.20465
# Poissons Ratio (y) = 0.21243 0.02987
# Poissons Ratio (z) = 0.21734 0.07545
#
# Static dielectric constant tensor:
#      x y z
#    x 3.376710 0.000000 0.000000 
#    y 0.000000 4.064370 0.000000 
#    z 0.000000 0.000000 3.747210 
# 
# 
# High freq. dielectric constant tensor:
#      x y z
#    x 1.763020 0.000000 0.000000 
#    y 0.000000 1.810570 0.000000 
#    z 0.000000 0.000000 1.799320 
# 
# From -- ./inp_files/5995.got.cif
#   From: 2010.03.12/outbox.cif.g09.slc.cpg/sg61_3_cif.got.tgz:5995.got - 2010.04.10 19:05:03.
