data_PCOD8249827
_publ_section_title
;
Structure prediction by ZEFSAII (Michael W. Deem and Ramdas Pophale) SiO2 
 PCOD8249827
Probable space group: P B C A
;
_chemical_formula_sum "Si O2"
_cell_formula_units_Z 48
_cell_length_a 9.807889
_cell_length_b 23.135884
_cell_length_c 8.615907
_cell_angle_alpha 90.000000
_cell_angle_beta 90.000000
_cell_angle_gamma 90.000000
_cell_volume 1955.071491
_symmetry_space_group_name_H-M "P B C A"
_symmetry_group_IT_number 61
_symmetry_cell_setting 'orthorhombic'
loop_
_space_group_symop_operation_xyz
x,y,z
1/2-x,-y,1/2+z
1/2+x,1/2-y,-z
-x,1/2+y,1/2-z
-x,-y,-z
1/2+x,y,1/2-z
1/2-x,1/2+y,z
x,1/2-y,1/2+z
loop_
_atom_site_type_symbol
_atom_site_label
_atom_site_fract_x
_atom_site_fract_y
_atom_site_fract_z
Si Si1 0.138874 0.546175 0.851677
Si Si2 0.014080 0.844313 0.205056
Si Si3 0.368511 0.479858 0.700132
Si Si4 0.126823 0.633413 0.389216
Si Si5 0.607653 0.724046 0.369537
Si Si6 0.342430 0.793624 0.060618
O O1 0.084674 0.609883 0.819012
O O2 0.273671 0.533782 0.749613
O O3 0.025417 0.498858 0.805836
O O4 0.177406 0.543560 0.032810
O O5 0.104695 0.786564 0.213339
O O6 0.865469 0.826120 0.272588
O O7 0.013068 0.867757 0.026832
O O8 0.348168 0.431222 0.831112
O O9 0.077033 0.671866 0.245576
O O10 0.268414 0.660265 0.449543
O O11 0.763364 0.731121 0.433913
O O12 0.493816 0.721439 0.501639
#
# Coordination Sequence:
#
# PCOD8249827 Si02
#       6
#     8   8   8   8   8   8
#     4  11  27  49  77 107 153 187 254 299 373 434
#     4  11  24  43  73 104 147 193 240 303 358 437
#     4  11  27  50  77 110 143 200 241 312 360 448
#     4  11  26  45  75 112 148 193 252 301 375 439
#     4  11  25  48  75 111 149 195 245 306 367 447
#     4  11  25  47  73 106 153 193 245 301 376 437
#
# _framework density 24.551532000000002
#
# number of rings (size 3 to 8) (size 9 to 14) (size 15 to 20)
#    0.000    1.000    0.000    5.000   11.667    4.000 
#    3.000    0.000    0.000    0.000    0.000    0.000 
#    0.000    0.000    0.000    0.000    0.000    0.000 
#
# Total GULP energy -595003.782737 kJ/mol
# GULP energy per Si atom -12395.912140 kJ/mol
# Density = 2.449565 g / cm^3
# Si number density = 24.551532 Si / 1000 Ang^3
#
#
#
# Elastic Constant Matrix: (Units=GPa)
#
#
# Indices 1 2 3 4 5 6 
#
# 1 99.5305 6.6364 59.4615 0.0000 0.0000 0.0000
# 2 6.6364 74.7761 11.0909 0.0000 0.0000 0.0000
# 3 59.4615 11.0909 117.9808 0.0000 0.0000 0.0000
# 4 0.0000 0.0000 0.0000 41.6194 0.0000 0.0000
# 5 0.0000 0.0000 0.0000 0.0000 43.6698 0.0000
# 6 0.0000 0.0000 0.0000 0.0000 0.0000 38.5066
#
#
#
# Elastic Compliance Matrix: (Units=1/GPa)
#
#
# Indices 1 2 3 4 5 6 
#
# 1 0.014379 -0.000204 -0.007228 0.000000 0.000000 0.000000
# 2 -0.000204 0.013565 -0.001172 0.000000 0.000000 0.000000
# 3 -0.007228 -0.001172 0.012229 0.000000 0.000000 0.000000
# 4 0.000000 0.000000 0.000000 0.024027 0.000000 0.000000
# 5 0.000000 0.000000 0.000000 0.000000 0.022899 0.000000
# 6 0.000000 0.000000 0.000000 0.000000 0.000000 0.025970
#
#
# Mechanical properties :
#
#
# Convention : Reuss Voigt Hill
#
# Bulk Modulus (GPa) = 43.54511 49.62945 46.58728
# Shear Modulus (GPa) = 36.24985 39.09906 37.67445
#
# Velocity S-wave (km/s) = 3.84667 3.99498 3.92153
# Velocity P-wave (km/s) = 6.12404 6.44501 6.28657
#
# Compressibility (1/GPa) = 0.02296469
#
# Stress axis : x y z
#
# Youngs Moduli (GPa) = 69.54747 73.71777 81.77416
#
# Poissons Ratio (x) = 0.01505 0.59103
# Poissons Ratio (y) = 0.01420 0.09587
# Poissons Ratio (z) = 0.50266 0.08642
#
# Static dielectric constant tensor:
#      x y z
#    x 4.670250 0.000000 0.000000 
#    y 0.000000 4.415330 0.000000 
#    z 0.000000 0.000000 4.660270 
# 
# 
# High freq. dielectric constant tensor:
#      x y z
#    x 1.973750 0.000000 0.000000 
#    y 0.000000 1.974680 0.000000 
#    z 0.000000 0.000000 1.989210 
# 
# From -- ./inp_files/2268.got.cif
#   From: 2010.03.12/outbox.cif.g09.slc.cpg/sg61_2_cif.got.tgz:2268.got - 2010.04.10 19:05:03.
