data_PCOD8249112
_publ_section_title
;
Structure prediction by ZEFSAII (Michael W. Deem and Ramdas Pophale) SiO2 
 PCOD8249112
Probable space group: P B C A
;
_chemical_formula_sum "Si O2"
_cell_formula_units_Z 56
_cell_length_a 20.918813
_cell_length_b 8.199344
_cell_length_c 13.457247
_cell_angle_alpha 90.000000
_cell_angle_beta 90.000000
_cell_angle_gamma 90.000000
_cell_volume 2308.194324
_symmetry_space_group_name_H-M "P B C A"
_symmetry_group_IT_number 61
_symmetry_cell_setting 'orthorhombic'
loop_
_space_group_symop_operation_xyz
x,y,z
1/2-x,-y,1/2+z
1/2+x,1/2-y,-z
-x,1/2+y,1/2-z
-x,-y,-z
1/2+x,y,1/2-z
1/2-x,1/2+y,z
x,1/2-y,1/2+z
loop_
_atom_site_type_symbol
_atom_site_label
_atom_site_fract_x
_atom_site_fract_y
_atom_site_fract_z
Si Si1 0.321458 0.999853 0.087388
Si Si2 0.069707 0.292608 0.042686
Si Si3 0.782272 0.187706 0.803851
Si Si4 0.006674 0.666557 0.626128
Si Si5 0.634797 0.524847 0.944483
Si Si6 0.676482 0.719587 0.591027
Si Si7 0.957828 0.320774 0.674599
O O1 0.314033 0.141931 0.166808
O O2 0.396605 0.960013 0.074563
O O3 0.282956 0.846447 0.134694
O O4 0.303317 0.064738 0.977039
O O5 0.022919 0.247775 0.130564
O O6 0.128810 0.164695 0.031225
O O7 0.033977 0.298074 0.937033
O O8 0.832216 0.044689 0.835714
O O9 0.774875 0.202171 0.684392
O O10 0.062429 0.596995 0.553627
O O11 0.040071 0.770857 0.710861
O O12 0.959688 0.518270 0.661530
O O13 0.681952 0.616671 0.023063
O O14 0.603426 0.728359 0.629580
#
# Coordination Sequence:
#
# PCOD8249112 Si02
#       7
#     8   8   8   8   8   8   8
#     4  11  28  45  72 102 133 191 237 301 360 433
#     4  11  23  41  67 105 150 179 226 286 355 434
#     4  11  25  48  68  98 135 178 251 300 345 427
#     4  11  22  38  66 105 152 182 230 285 344 439
#     4  10  20  42  67  97 137 186 229 285 348 419
#     4  11  23  44  72  98 139 189 231 296 363 410
#     4  11  23  39  67 109 144 190 229 282 359 424
#
# _framework density 24.261388
#
# number of rings (size 3 to 8) (size 9 to 14) (size 15 to 20)
#    0.000    1.143    4.286    1.714    4.000    2.857 
#    0.000    4.286    0.000    0.000    0.000    0.000 
#    0.000    0.000    0.000    0.000    0.000    0.000 
#
# Total GULP energy -693854.249555 kJ/mol
# GULP energy per Si atom -12390.254456 kJ/mol
# Density = 2.420617 g / cm^3
# Si number density = 24.261388 Si / 1000 Ang^3
#
#
#
# Elastic Constant Matrix: (Units=GPa)
#
#
# Indices 1 2 3 4 5 6 
#
# 1 59.8969 8.4503 19.7237 0.0000 0.0000 0.0000
# 2 8.4503 37.7564 29.9737 0.0000 0.0000 0.0000
# 3 19.7237 29.9737 142.9585 0.0000 0.0000 0.0000
# 4 0.0000 0.0000 0.0000 26.7895 0.0000 0.0000
# 5 0.0000 0.0000 0.0000 0.0000 35.3674 0.0000
# 6 0.0000 0.0000 0.0000 0.0000 0.0000 37.3842
#
#
#
# Elastic Compliance Matrix: (Units=1/GPa)
#
#
# Indices 1 2 3 4 5 6 
#
# 1 0.017673 -0.002423 -0.001930 0.000000 0.000000 0.000000
# 2 -0.002423 0.032107 -0.006397 0.000000 0.000000 0.000000
# 3 -0.001930 -0.006397 0.008603 0.000000 0.000000 0.000000
# 4 0.000000 0.000000 0.000000 0.037328 0.000000 0.000000
# 5 0.000000 0.000000 0.000000 0.000000 0.028275 0.000000
# 6 0.000000 0.000000 0.000000 0.000000 0.000000 0.026749
#
#
# Mechanical properties :
#
#
# Convention : Reuss Voigt Hill
#
# Bulk Modulus (GPa) = 27.11439 39.65634 33.38537
# Shear Modulus (GPa) = 27.09602 32.07248 29.58425
#
# Velocity S-wave (km/s) = 3.34554 3.63982 3.49577
# Velocity P-wave (km/s) = 5.11113 5.83483 5.48493
#
# Compressibility (1/GPa) = 0.03688079
#
# Stress axis : x y z
#
# Youngs Moduli (GPa) = 56.58409 31.14628 116.24295
#
# Poissons Ratio (x) = 0.07547 0.22438
# Poissons Ratio (y) = 0.13710 0.74365
# Poissons Ratio (z) = 0.10922 0.19926
#
# Static dielectric constant tensor:
#      x y z
#    x 4.274600 0.000000 0.000000 
#    y 0.000000 4.360610 0.000000 
#    z 0.000000 0.000000 4.460610 
# 
# 
# High freq. dielectric constant tensor:
#      x y z
#    x 1.955080 0.000000 0.000000 
#    y 0.000000 1.950360 0.000000 
#    z 0.000000 0.000000 1.967900 
# 
# From -- ./inp_files/8358.got.cif
#   From: 2010.03.12/outbox.cif.g09.slc.cpg/sg61_5_cif.got.tgz:8358.got - 2010.04.10 19:05:03.
