data_PCOD8249197
_publ_section_title
;
Structure prediction by ZEFSAII (Michael W. Deem and Ramdas Pophale) SiO2 
 PCOD8249197
Probable space group: P B C A
;
_chemical_formula_sum "Si O2"
_cell_formula_units_Z 64
_cell_length_a 20.415886
_cell_length_b 9.350662
_cell_length_c 16.718329
_cell_angle_alpha 90.000000
_cell_angle_beta 90.000000
_cell_angle_gamma 90.000000
_cell_volume 3191.563269
_symmetry_space_group_name_H-M "P B C A"
_symmetry_group_IT_number 61
_symmetry_cell_setting 'orthorhombic'
loop_
_space_group_symop_operation_xyz
x,y,z
1/2-x,-y,1/2+z
1/2+x,1/2-y,-z
-x,1/2+y,1/2-z
-x,-y,-z
1/2+x,y,1/2-z
1/2-x,1/2+y,z
x,1/2-y,1/2+z
loop_
_atom_site_type_symbol
_atom_site_label
_atom_site_fract_x
_atom_site_fract_y
_atom_site_fract_z
Si Si1 0.039894 0.400253 0.686210
Si Si2 0.886033 0.864361 0.370302
Si Si3 0.060983 0.577454 0.540263
Si Si4 0.462465 0.102300 0.058236
Si Si5 0.690121 0.309484 0.524156
Si Si6 0.315426 0.007719 0.440866
Si Si7 0.417033 0.826749 0.850034
Si Si8 0.898404 0.518644 0.700824
O O1 0.053544 0.250036 0.637997
O O2 0.060905 0.537408 0.634206
O O3 0.090857 0.395031 0.761303
O O4 0.962555 0.415864 0.710606
O O5 0.831146 0.798830 0.429998
O O6 0.865187 0.919037 0.281882
O O7 0.900650 0.014553 0.412487
O O8 0.058976 0.746165 0.521508
O O9 0.127336 0.517660 0.505083
O O10 0.000000 0.500000 0.500000
O O11 0.509587 0.127614 0.132217
O O12 0.500000 0.000000 0.000000
O O13 0.755493 0.398773 0.530512
O O14 0.634687 0.380419 0.582908
O O15 0.708378 0.155498 0.559297
O O16 0.341980 0.057715 0.352739
O O17 0.419398 0.655157 0.851872
#
# Coordination Sequence:
#
# PCOD8249197 Si02
#       8
#     8   8   8   8   8   8   8   8
#     4  11  20  39  67  96 127 170 206 265 342 392
#     4  11  23  39  64  98 136 164 209 281 324 388
#     4  12  22  41  66  93 126 169 218 270 340 399
#     4  12  22  33  62 101 127 161 210 272 325 385
#     4  11  24  46  61  90 130 180 224 264 329 396
#     4  11  25  44  67  87 128 180 222 269 323 400
#     4  10  21  38  62  92 134 162 207 269 329 386
#     4  10  21  40  65  95 128 167 212 267 334 393
#
# _framework density 20.052869999999999
#
# number of rings (size 3 to 8) (size 9 to 14) (size 15 to 20)
#    0.000    1.000    6.250    1.500    1.750    0.000 
#    2.250    0.000    0.000    0.000    0.000    0.000 
#    0.000    0.000    0.000    0.000    0.000    0.000 
#
# Total GULP energy -792852.475815 kJ/mol
# GULP energy per Si atom -12388.319935 kJ/mol
# Density = 2.000723 g / cm^3
# Si number density = 20.052870 Si / 1000 Ang^3
#
#
#
# Elastic Constant Matrix: (Units=GPa)
#
#
# Indices 1 2 3 4 5 6 
#
# 1 95.1383 21.3545 40.2571 0.0000 0.0000 0.0000
# 2 21.3545 84.0255 22.5377 0.0000 0.0000 0.0000
# 3 40.2571 22.5377 115.5848 0.0000 0.0000 0.0000
# 4 0.0000 0.0000 0.0000 31.1909 0.0000 0.0000
# 5 0.0000 0.0000 0.0000 0.0000 25.9980 0.0000
# 6 0.0000 0.0000 0.0000 0.0000 0.0000 32.9226
#
#
#
# Elastic Compliance Matrix: (Units=1/GPa)
#
#
# Indices 1 2 3 4 5 6 
#
# 1 0.012686 -0.002151 -0.003999 0.000000 0.000000 0.000000
# 2 -0.002151 0.012923 -0.001770 0.000000 0.000000 0.000000
# 3 -0.003999 -0.001770 0.010390 0.000000 0.000000 0.000000
# 4 0.000000 0.000000 0.000000 0.032061 0.000000 0.000000
# 5 0.000000 0.000000 0.000000 0.000000 0.038464 0.000000
# 6 0.000000 0.000000 0.000000 0.000000 0.000000 0.030374
#
#
# Mechanical properties :
#
#
# Convention : Reuss Voigt Hill
#
# Bulk Modulus (GPa) = 49.61098 51.44968 50.53033
# Shear Modulus (GPa) = 31.35613 32.06227 31.70920
#
# Velocity S-wave (km/s) = 3.95862 4.00295 3.98084
# Velocity P-wave (km/s) = 6.75929 6.86130 6.81049
#
# Compressibility (1/GPa) = 0.02015683
#
# Stress axis : x y z
#
# Youngs Moduli (GPa) = 78.82686 77.38250 96.24962
#
# Poissons Ratio (x) = 0.16649 0.38489
# Poissons Ratio (y) = 0.16959 0.17041
# Poissons Ratio (z) = 0.31522 0.13700
#
# Static dielectric constant tensor:
#      x y z
#    x 3.375410 0.000000 0.000000 
#    y 0.000000 3.653640 0.000000 
#    z 0.000000 0.000000 3.233930 
# 
# 
# High freq. dielectric constant tensor:
#      x y z
#    x 1.746410 0.000000 0.000000 
#    y 0.000000 1.782430 0.000000 
#    z 0.000000 0.000000 1.798640 
# 
# From -- ./inp_files/9794.got.cif
#   From: 2010.03.12/outbox.cif.g09.slc.cpg/sg61_5_cif.got.tgz:9794.got - 2010.04.10 19:05:03.
