data_PCOD8249202
_publ_section_title
;
Structure prediction by ZEFSAII (Michael W. Deem and Ramdas Pophale) SiO2 
 PCOD8249202
Probable space group: P B C A
;
_chemical_formula_sum "Si O2"
_cell_formula_units_Z 64
_cell_length_a 13.974874
_cell_length_b 17.294346
_cell_length_c 13.781020
_cell_angle_alpha 90.000000
_cell_angle_beta 90.000000
_cell_angle_gamma 90.000000
_cell_volume 3330.683820
_symmetry_space_group_name_H-M "P B C A"
_symmetry_group_IT_number 61
_symmetry_cell_setting 'orthorhombic'
loop_
_space_group_symop_operation_xyz
x,y,z
1/2-x,-y,1/2+z
1/2+x,1/2-y,-z
-x,1/2+y,1/2-z
-x,-y,-z
1/2+x,y,1/2-z
1/2-x,1/2+y,z
x,1/2-y,1/2+z
loop_
_atom_site_type_symbol
_atom_site_label
_atom_site_fract_x
_atom_site_fract_y
_atom_site_fract_z
Si Si1 0.591516 0.168558 0.198239
Si Si2 0.541679 0.894564 0.380553
Si Si3 0.639701 0.155549 0.508647
Si Si4 0.755644 0.796733 0.187979
Si Si5 0.357818 0.959638 0.659317
Si Si6 0.411422 0.674376 0.519455
Si Si7 0.032726 0.792663 0.301512
Si Si8 0.748940 0.104843 0.870433
O O1 0.689100 0.215984 0.185639
O O2 0.617518 0.084911 0.241544
O O3 0.516971 0.212253 0.268862
O O4 0.548496 0.158431 0.089237
O O5 0.467525 0.869717 0.462097
O O6 0.509556 0.857280 0.278693
O O7 0.648072 0.863324 0.409921
O O8 0.548809 0.988156 0.368858
O O9 0.714167 0.149109 0.597288
O O10 0.673361 0.100392 0.423035
O O11 0.639504 0.242667 0.470330
O O12 0.644496 0.777243 0.186760
O O13 0.788886 0.842286 0.283221
O O14 0.266380 0.017388 0.670199
O O15 0.498044 0.673580 0.595635
O O16 0.331222 0.609546 0.545764
#
# Coordination Sequence:
#
# PCOD8249202 Si02
#       8
#     8   8   8   8   8   8   8   8
#     4  11  22  42  64  96 123 163 217 270 305 393
#     4   9  20  37  63  88 122 169 198 253 324 382
#     4  11  19  37  62  92 120 161 211 261 306 380
#     4  10  21  38  66  88 119 170 211 256 323 376
#     4  10  22  38  63  91 133 157 213 260 323 381
#     4  11  21  38  67  90 124 165 217 260 312 373
#     4  11  20  42  63  87 128 166 209 261 322 378
#     4   9  20  37  59  87 126 163 199 258 317 375
#
# _framework density 19.215273
#
# number of rings (size 3 to 8) (size 9 to 14) (size 15 to 20)
#    0.750    1.000    5.000    0.375    0.000    3.000 
#    2.250    3.125    0.000    0.000    0.000    0.000 
#    0.000    0.000    0.000    0.000    0.000    0.000 
#
# Total GULP energy -793282.809499 kJ/mol
# GULP energy per Si atom -12395.043898 kJ/mol
# Density = 1.917154 g / cm^3
# Si number density = 19.215273 Si / 1000 Ang^3
#
#
#
# Elastic Constant Matrix: (Units=GPa)
#
#
# Indices 1 2 3 4 5 6 
#
# 1 64.6805 5.9476 19.4175 0.0000 0.0000 0.0000
# 2 5.9476 78.1100 8.0257 0.0000 0.0000 0.0000
# 3 19.4175 8.0257 74.8345 0.0000 0.0000 0.0000
# 4 0.0000 0.0000 0.0000 33.1620 0.0000 0.0000
# 5 0.0000 0.0000 0.0000 0.0000 23.0827 0.0000
# 6 0.0000 0.0000 0.0000 0.0000 0.0000 25.6467
#
#
#
# Elastic Compliance Matrix: (Units=1/GPa)
#
#
# Indices 1 2 3 4 5 6 
#
# 1 0.016821 -0.000842 -0.004274 0.000000 0.000000 0.000000
# 2 -0.000842 0.012987 -0.001174 0.000000 0.000000 0.000000
# 3 -0.004274 -0.001174 0.014598 0.000000 0.000000 0.000000
# 4 0.000000 0.000000 0.000000 0.030155 0.000000 0.000000
# 5 0.000000 0.000000 0.000000 0.000000 0.043322 0.000000
# 6 0.000000 0.000000 0.000000 0.000000 0.000000 0.038991
#
#
# Mechanical properties :
#
#
# Convention : Reuss Voigt Hill
#
# Bulk Modulus (GPa) = 31.42151 31.60075 31.51113
# Shear Modulus (GPa) = 27.76784 28.66058 28.21421
#
# Velocity S-wave (km/s) = 3.80556 3.86625 3.83603
# Velocity P-wave (km/s) = 5.97475 6.03423 6.00456
#
# Compressibility (1/GPa) = 0.03182533
#
# Stress axis : x y z
#
# Youngs Moduli (GPa) = 59.44877 76.99884 68.50322
#
# Poissons Ratio (x) = 0.06481 0.29281
# Poissons Ratio (y) = 0.05004 0.08045
# Poissons Ratio (z) = 0.25411 0.09043
#
# Static dielectric constant tensor:
#      x y z
#    x 3.338310 0.000000 0.000000 
#    y 0.000000 3.391470 0.000000 
#    z 0.000000 0.000000 3.618820 
# 
# 
# High freq. dielectric constant tensor:
#      x y z
#    x 1.734000 0.000000 0.000000 
#    y 0.000000 1.731780 0.000000 
#    z 0.000000 0.000000 1.752770 
# 
# From -- ./inp_files/8018.got.cif
#   From: 2010.03.12/outbox.cif.g09.slc.cpg/sg61_5_cif.got.tgz:8018.got - 2010.04.10 19:05:03.
