data_PCOD8249606
_publ_section_title
;
Structure prediction by ZEFSAII (Michael W. Deem and Ramdas Pophale) SiO2 
 PCOD8249606
Probable space group: P B C A
;
_chemical_formula_sum "Si O2"
_cell_formula_units_Z 64
_cell_length_a 8.913667
_cell_length_b 22.773072
_cell_length_c 14.472577
_cell_angle_alpha 90.000000
_cell_angle_beta 90.000000
_cell_angle_gamma 90.000000
_cell_volume 2937.811277
_symmetry_space_group_name_H-M "P B C A"
_symmetry_group_IT_number 61
_symmetry_cell_setting 'orthorhombic'
loop_
_space_group_symop_operation_xyz
x,y,z
1/2-x,-y,1/2+z
1/2+x,1/2-y,-z
-x,1/2+y,1/2-z
-x,-y,-z
1/2+x,y,1/2-z
1/2-x,1/2+y,z
x,1/2-y,1/2+z
loop_
_atom_site_type_symbol
_atom_site_label
_atom_site_fract_x
_atom_site_fract_y
_atom_site_fract_z
Si Si1 0.988296 0.770315 0.433409
Si Si2 0.121465 0.112023 0.495041
Si Si3 0.800658 0.060972 0.523590
Si Si4 0.635031 0.026344 0.337304
Si Si5 0.457040 0.673286 0.761297
Si Si6 0.809390 0.807983 0.053888
Si Si7 0.722067 0.600915 0.819842
Si Si8 0.784976 0.455232 0.652963
O O1 0.931492 0.820967 0.503137
O O2 0.947992 0.783678 0.326995
O O3 0.913658 0.709454 0.466592
O O4 0.165466 0.766018 0.447584
O O5 0.246613 0.101717 0.572057
O O6 0.209450 0.098484 0.401487
O O7 0.979164 0.068290 0.509089
O O8 0.724302 0.034530 0.432431
O O9 0.727801 0.123326 0.548559
O O10 0.769583 0.017091 0.608765
O O11 0.465455 0.048932 0.348127
O O12 0.726592 0.058207 0.256143
O O13 0.635966 0.959255 0.301682
O O14 0.390200 0.705976 0.849656
O O15 0.626541 0.656755 0.785589
O O16 0.376442 0.610942 0.736533
#
# Coordination Sequence:
#
# PCOD8249606 Si02
#       8
#     8   8   8   8   8   8   8   8
#     4  10  25  43  68 102 125 183 227 284 342 393
#     4  10  24  42  65  93 137 175 227 281 337 401
#     4  11  24  45  66 102 138 180 227 281 347 413
#     4  12  25  38  66  99 134 182 221 270 349 410
#     4  11  23  42  68 101 131 169 230 279 335 399
#     4  11  24  44  69  96 137 172 226 281 339 405
#     4  11  22  39  66  98 134 173 219 283 326 398
#     4  12  25  41  64  99 136 181 224 279 345 412
#
# _framework density 21.784925000000001
#
# number of rings (size 3 to 8) (size 9 to 14) (size 15 to 20)
#    0.000    1.000    2.500    3.750   10.500    0.000 
#    2.250    0.000    0.000    0.000    0.000    0.000 
#    0.000    0.000    0.000    0.000    0.000    0.000 
#
# Total GULP energy -793483.412051 kJ/mol
# GULP energy per Si atom -12398.178313 kJ/mol
# Density = 2.173534 g / cm^3
# Si number density = 21.784925 Si / 1000 Ang^3
#
#
#
# Elastic Constant Matrix: (Units=GPa)
#
#
# Indices 1 2 3 4 5 6 
#
# 1 87.3658 8.5837 40.1232 0.0000 0.0000 0.0000
# 2 8.5837 33.3859 23.2324 0.0000 0.0000 0.0000
# 3 40.1232 23.2324 128.8523 0.0000 0.0000 0.0000
# 4 0.0000 0.0000 0.0000 28.5010 0.0000 0.0000
# 5 0.0000 0.0000 0.0000 0.0000 42.1014 0.0000
# 6 0.0000 0.0000 0.0000 0.0000 0.0000 33.1594
#
#
#
# Elastic Compliance Matrix: (Units=1/GPa)
#
#
# Indices 1 2 3 4 5 6 
#
# 1 0.013367 -0.000618 -0.004051 0.000000 0.000000 0.000000
# 2 -0.000618 0.034279 -0.005988 0.000000 0.000000 0.000000
# 3 -0.004051 -0.005988 0.010102 0.000000 0.000000 0.000000
# 4 0.000000 0.000000 0.000000 0.035086 0.000000 0.000000
# 5 0.000000 0.000000 0.000000 0.000000 0.023752 0.000000
# 6 0.000000 0.000000 0.000000 0.000000 0.000000 0.030157
#
#
# Mechanical properties :
#
#
# Convention : Reuss Voigt Hill
#
# Bulk Modulus (GPa) = 27.44698 43.72032 35.58365
# Shear Modulus (GPa) = 27.74656 32.59666 30.17161
#
# Velocity S-wave (km/s) = 3.57271 3.87239 3.72556
# Velocity P-wave (km/s) = 5.44476 6.33297 5.90559
#
# Compressibility (1/GPa) = 0.03643388
#
# Stress axis : x y z
#
# Youngs Moduli (GPa) = 74.80951 29.17271 98.99072
#
# Poissons Ratio (x) = 0.01802 0.40102
# Poissons Ratio (y) = 0.04622 0.59277
# Poissons Ratio (z) = 0.30306 0.17469
#
# Static dielectric constant tensor:
#      x y z
#    x 4.115950 0.000000 0.000000 
#    y 0.000000 3.626700 0.000000 
#    z 0.000000 0.000000 4.010460 
# 
# 
# High freq. dielectric constant tensor:
#      x y z
#    x 1.875340 0.000000 0.000000 
#    y 0.000000 1.826180 0.000000 
#    z 0.000000 0.000000 1.865360 
# 
# From -- ./inp_files/7246.got.cif
#   From: 2010.03.12/outbox.cif.g09.slc.cpg/sg61_4_cif.got.tgz:7246.got - 2010.04.10 19:05:03.
