data_PCOD8249939
_publ_section_title
;
Structure prediction by ZEFSAII (Michael W. Deem and Ramdas Pophale) SiO2 
 PCOD8249939
Probable space group: P N M A
;
_chemical_formula_sum "Si O2"
_cell_formula_units_Z 36
_cell_length_a 11.434475
_cell_length_b 10.747245
_cell_length_c 13.297853
_cell_angle_alpha 90.000000
_cell_angle_beta 90.000000
_cell_angle_gamma 90.000000
_cell_volume 1634.161244
_symmetry_space_group_name_H-M "P N M A"
_symmetry_group_IT_number 62
_symmetry_cell_setting 'orthorhombic'
loop_
_space_group_symop_operation_xyz
x,y,z
1/2-x,-y,1/2+z
1/2+x,1/2-y,1/2-z
-x,1/2+y,-z
-x,-y,-z
1/2+x,y,1/2-z
1/2-x,1/2+y,1/2+z
x,1/2-y,z
loop_
_atom_site_type_symbol
_atom_site_label
_atom_site_fract_x
_atom_site_fract_y
_atom_site_fract_z
Si Si1 0.851790 0.499575 0.050373
Si Si2 0.361582 0.044780 0.822090
Si Si3 0.718432 0.750000 0.324785
Si Si4 0.971890 0.750000 0.117757
Si Si5 0.471088 0.750000 0.144483
Si Si6 0.428923 0.607298 0.639055
O O1 0.723044 0.481102 0.095743
O O2 0.909498 0.631916 0.073855
O O3 0.937561 0.395590 0.097109
O O4 0.849080 0.510322 0.927964
O O5 0.283970 0.131430 0.749562
O O6 0.457927 0.124855 0.885199
O O7 0.424019 0.938928 0.754627
O O8 0.612220 0.750000 0.405782
O O9 0.836838 0.750000 0.393414
O O10 0.963955 0.750000 0.236199
O O11 0.384993 0.750000 0.633773
#
# Coordination Sequence:
#
# PCOD8249939 Si02
#       6
#     8   8   4   4   4   8
#     4  11  20  37  57  87 117 146 197 243 284 341
#     4  10  19  34  56  84 115 152 186 237 294 339
#     4  10  16  28  56  84 107 139 192 239 283 334
#     4  10  15  30  55  88 102 143 190 241 287 319
#     4  10  17  30  57  88 107 142 198 240 284 345
#     4  11  23  34  57  89 116 153 193 238 290 340
#
# _framework density 22.029651999999999
#
# number of rings (size 3 to 8) (size 9 to 14) (size 15 to 20)
#    0.000    1.778    7.778    0.667    0.000    0.889 
#    0.000    0.000    0.000    5.333    0.000    0.000 
#    0.000    0.000    0.000    0.000    0.000    0.000 
#
# Total GULP energy -446058.744137 kJ/mol
# GULP energy per Si atom -12390.520670 kJ/mol
# Density = 2.197951 g / cm^3
# Si number density = 22.029652 Si / 1000 Ang^3
#
#
#
# Elastic Constant Matrix: (Units=GPa)
#
#
# Indices 1 2 3 4 5 6 
#
# 1 90.9517 1.3361 7.3211 0.0000 0.0000 0.0000
# 2 1.3361 62.9320 5.6812 0.0000 0.0000 0.0000
# 3 7.3211 5.6812 31.3728 0.0000 0.0000 0.0000
# 4 0.0000 0.0000 0.0000 7.5124 0.0000 0.0000
# 5 0.0000 0.0000 0.0000 0.0000 37.1563 0.0000
# 6 0.0000 0.0000 0.0000 0.0000 0.0000 34.4631
#
#
#
# Elastic Compliance Matrix: (Units=1/GPa)
#
#
# Indices 1 2 3 4 5 6 
#
# 1 0.011205 -0.000002 -0.002615 0.000000 0.000000 0.000000
# 2 -0.000002 0.016154 -0.002925 0.000000 0.000000 0.000000
# 3 -0.002615 -0.002925 0.033015 0.000000 0.000000 0.000000
# 4 0.000000 0.000000 0.000000 0.133114 0.000000 0.000000
# 5 0.000000 0.000000 0.000000 0.000000 0.026913 0.000000
# 6 0.000000 0.000000 0.000000 0.000000 0.000000 0.029017
#
#
# Mechanical properties :
#
#
# Convention : Reuss Voigt Hill
#
# Bulk Modulus (GPa) = 20.28744 23.77036 22.02890
# Shear Modulus (GPa) = 18.05503 27.22090 22.63796
#
# Velocity S-wave (km/s) = 2.86593 3.51899 3.20912
# Velocity P-wave (km/s) = 4.49228 5.22730 4.87367
#
# Compressibility (1/GPa) = 0.04929157
#
# Stress axis : x y z
#
# Youngs Moduli (GPa) = 89.24324 61.90317 30.28967
#
# Poissons Ratio (x) = 0.00012 0.07919
# Poissons Ratio (y) = 0.00017 0.08859
# Poissons Ratio (z) = 0.23333 0.18106
#
# Static dielectric constant tensor:
#      x y z
#    x 4.738920 0.000000 0.000000 
#    y 0.000000 2.508690 0.000000 
#    z 0.000000 0.000000 3.908780 
# 
# 
# High freq. dielectric constant tensor:
#      x y z
#    x 1.848620 0.000000 0.000000 
#    y 0.000000 1.861080 0.000000 
#    z 0.000000 0.000000 1.835340 
# 
# From -- ./inp_files/17751.got.cif
#   From: 2010.03.12/outbox.cif.g09.slc.cpg/sg62_9_cif.got.tgz:17751.got - 2010.04.10 19:12:36.
