data_PCOD8249203
_publ_section_title
;
Structure prediction by ZEFSAII (Michael W. Deem and Ramdas Pophale) SiO2 
 PCOD8249203
Probable space group: P B C A
;
_chemical_formula_sum "Si O2"
_cell_formula_units_Z 64
_cell_length_a 13.224396
_cell_length_b 16.505795
_cell_length_c 12.801600
_cell_angle_alpha 90.000000
_cell_angle_beta 90.000000
_cell_angle_gamma 90.000000
_cell_volume 2794.322615
_symmetry_space_group_name_H-M "P B C A"
_symmetry_group_IT_number 61
_symmetry_cell_setting 'orthorhombic'
loop_
_space_group_symop_operation_xyz
x,y,z
1/2-x,-y,1/2+z
1/2+x,1/2-y,-z
-x,1/2+y,1/2-z
-x,-y,-z
1/2+x,y,1/2-z
1/2-x,1/2+y,z
x,1/2-y,1/2+z
loop_
_atom_site_type_symbol
_atom_site_label
_atom_site_fract_x
_atom_site_fract_y
_atom_site_fract_z
Si Si1 0.524608 0.117794 0.715645
Si Si2 0.713053 0.853724 0.018935
Si Si3 0.650398 0.489259 0.063336
Si Si4 0.744730 0.352848 0.787681
Si Si5 0.006599 0.305227 0.068382
Si Si6 0.431161 0.362563 0.841392
Si Si7 0.629905 0.257130 0.619686
Si Si8 0.103873 0.481092 0.669547
O O1 0.599950 0.052493 0.664696
O O2 0.548456 0.141041 0.835391
O O3 0.533695 0.199965 0.648167
O O4 0.414154 0.073759 0.709199
O O5 0.758800 0.825021 0.907697
O O6 0.739652 0.948059 0.046062
O O7 0.593377 0.847193 0.023343
O O8 0.768568 0.794328 0.099707
O O9 0.647800 0.586028 0.084333
O O10 0.589627 0.474887 0.955733
O O11 0.858080 0.333330 0.751340
O O12 0.657531 0.309384 0.720827
O O13 0.712526 0.449196 0.787726
O O14 0.980825 0.212929 0.099469
O O15 0.093716 0.308914 0.980133
O O16 0.517422 0.418744 0.790921
#
# Coordination Sequence:
#
# PCOD8249203 Si02
#       8
#     8   8   8   8   8   8   8   8
#     4  10  21  38  66  91 121 167 209 267 320 377
#     4  10  23  41  61  93 129 163 215 264 322 383
#     4   9  20  43  68  87 125 173 220 260 307 395
#     4  11  24  40  63  93 128 166 212 274 320 382
#     4  12  24  37  65  99 127 166 212 271 336 382
#     4  11  21  40  66  93 120 172 215 251 330 387
#     4  11  22  43  62  89 131 167 214 266 316 395
#     4  10  21  42  66  91 121 173 221 262 307 393
#
# _framework density 22.903583000000001
#
# number of rings (size 3 to 8) (size 9 to 14) (size 15 to 20)
#    0.000    1.500    1.250    6.000    5.250    0.000 
#    0.000    5.625    0.000    0.000    0.000    0.000 
#    0.000    0.000    0.000    0.000    0.000    0.000 
#
# Total GULP energy -792927.928528 kJ/mol
# GULP energy per Si atom -12389.498883 kJ/mol
# Density = 2.285145 g / cm^3
# Si number density = 22.903583 Si / 1000 Ang^3
#
#
#
# Elastic Constant Matrix: (Units=GPa)
#
#
# Indices 1 2 3 4 5 6 
#
# 1 41.5776 -1.1126 8.2023 0.0000 0.0000 0.0000
# 2 -1.1126 66.4477 33.0987 0.0000 0.0000 0.0000
# 3 8.2023 33.0987 103.6614 0.0000 0.0000 0.0000
# 4 0.0000 0.0000 0.0000 31.2998 0.0000 0.0000
# 5 0.0000 0.0000 0.0000 0.0000 30.0087 0.0000
# 6 0.0000 0.0000 0.0000 0.0000 0.0000 22.5170
#
#
#
# Elastic Compliance Matrix: (Units=1/GPa)
#
#
# Indices 1 2 3 4 5 6 
#
# 1 0.024582 0.001642 -0.002469 0.000000 0.000000 0.000000
# 2 0.001642 0.018005 -0.005879 0.000000 0.000000 0.000000
# 3 -0.002469 -0.005879 0.011719 0.000000 0.000000 0.000000
# 4 0.000000 0.000000 0.000000 0.031949 0.000000 0.000000
# 5 0.000000 0.000000 0.000000 0.000000 0.033324 0.000000
# 6 0.000000 0.000000 0.000000 0.000000 0.000000 0.044411
#
#
# Mechanical properties :
#
#
# Convention : Reuss Voigt Hill
#
# Bulk Modulus (GPa) = 24.45354 32.45152 28.45253
# Shear Modulus (GPa) = 26.17319 28.19832 27.18576
#
# Velocity S-wave (km/s) = 3.38413 3.51262 3.44897
# Velocity P-wave (km/s) = 5.09605 5.53632 5.32074
#
# Compressibility (1/GPa) = 0.04089387
#
# Stress axis : x y z
#
# Youngs Moduli (GPa) = 40.67936 55.53917 85.32939
#
# Poissons Ratio (x) = -0.09117 0.21070
# Poissons Ratio (y) = -0.06678 0.50164
# Poissons Ratio (z) = 0.10045 0.32651
#
# Static dielectric constant tensor:
#      x y z
#    x 3.850030 0.000000 0.000000 
#    y 0.000000 4.302060 0.000000 
#    z 0.000000 0.000000 4.118930 
# 
# 
# High freq. dielectric constant tensor:
#      x y z
#    x 1.887160 0.000000 0.000000 
#    y 0.000000 1.895870 0.000000 
#    z 0.000000 0.000000 1.905580 
# 
# From -- ./inp_files/5987.got.cif
#   From: 2010.03.12/outbox.cif.g09.slc.cpg/sg61_3_cif.got.tgz:5987.got - 2010.04.10 19:05:03.
