data_PCOD8249198
_publ_section_title
;
Structure prediction by ZEFSAII (Michael W. Deem and Ramdas Pophale) SiO2 
 PCOD8249198
Probable space group: P B C A
;
_chemical_formula_sum "Si O2"
_cell_formula_units_Z 56
_cell_length_a 11.523557
_cell_length_b 20.163120
_cell_length_c 10.677625
_cell_angle_alpha 90.000000
_cell_angle_beta 90.000000
_cell_angle_gamma 90.000000
_cell_volume 2480.955379
_symmetry_space_group_name_H-M "P B C A"
_symmetry_group_IT_number 61
_symmetry_cell_setting 'orthorhombic'
loop_
_space_group_symop_operation_xyz
x,y,z
1/2-x,-y,1/2+z
1/2+x,1/2-y,-z
-x,1/2+y,1/2-z
-x,-y,-z
1/2+x,y,1/2-z
1/2-x,1/2+y,z
x,1/2-y,1/2+z
loop_
_atom_site_type_symbol
_atom_site_label
_atom_site_fract_x
_atom_site_fract_y
_atom_site_fract_z
Si Si1 0.217435 0.626053 0.776917
Si Si2 0.338343 0.041867 0.563326
Si Si3 0.395804 0.812598 0.676903
Si Si4 0.590583 0.091687 0.535288
Si Si5 0.515125 0.810780 0.083452
Si Si6 0.813429 0.242280 0.922930
Si Si7 0.687546 0.144953 0.066560
O O1 0.216847 0.556410 0.700674
O O2 0.338577 0.629200 0.853473
O O3 0.111692 0.637226 0.872200
O O4 0.191240 0.681922 0.673451
O O5 0.472795 0.060496 0.586410
O O6 0.272490 0.082186 0.452033
O O7 0.326906 0.965049 0.525356
O O8 0.453325 0.858349 0.571491
O O9 0.472400 0.744732 0.685705
O O10 0.264120 0.800901 0.632059
O O11 0.384855 0.853995 0.804949
O O12 0.561022 0.771775 0.958618
O O13 0.405219 0.855525 0.047351
O O14 0.759793 0.214103 0.054502
#
# Coordination Sequence:
#
# PCOD8249198 Si02
#       7
#     8   8   8   8   8   8   8
#     4  11  23  42  72  96 134 179 225 287 337 411
#     4  10  26  46  68  95 132 179 233 279 331 409
#     4  11  22  37  67  95 138 172 215 279 341 408
#     4  11  25  47  70  95 130 186 225 276 350 398
#     4  11  22  39  65 106 134 174 225 276 359 405
#     4  10  21  38  62  98 134 170 213 273 338 416
#     4  10  23  39  61  97 131 171 222 279 329 400
#
# _framework density 22.571950000000001
#
# number of rings (size 3 to 8) (size 9 to 14) (size 15 to 20)
#    0.000    1.429    1.429    3.429   10.000    1.143 
#    0.000    0.714    0.000    0.000    0.000    0.000 
#    0.000    0.000    0.000    0.000    0.000    0.000 
#
# Total GULP energy -693992.459837 kJ/mol
# GULP energy per Si atom -12392.722497 kJ/mol
# Density = 2.252058 g / cm^3
# Si number density = 22.571950 Si / 1000 Ang^3
#
#
#
# Elastic Constant Matrix: (Units=GPa)
#
#
# Indices 1 2 3 4 5 6 
#
# 1 76.2196 3.9154 0.0018 0.0000 0.0000 0.0000
# 2 3.9154 51.0790 13.3476 0.0000 0.0000 0.0000
# 3 0.0018 13.3476 81.8569 0.0000 0.0000 0.0000
# 4 0.0000 0.0000 0.0000 25.8223 0.0000 0.0000
# 5 0.0000 0.0000 0.0000 0.0000 16.8411 0.0000
# 6 0.0000 0.0000 0.0000 0.0000 0.0000 34.3357
#
#
#
# Elastic Compliance Matrix: (Units=1/GPa)
#
#
# Indices 1 2 3 4 5 6 
#
# 1 0.013174 -0.001055 0.000172 0.000000 0.000000 0.000000
# 2 -0.001055 0.020533 -0.003348 0.000000 0.000000 0.000000
# 3 0.000172 -0.003348 0.012762 0.000000 0.000000 0.000000
# 4 0.000000 0.000000 0.000000 0.038726 0.000000 0.000000
# 5 0.000000 0.000000 0.000000 0.000000 0.059379 0.000000
# 6 0.000000 0.000000 0.000000 0.000000 0.000000 0.029124
#
#
# Mechanical properties :
#
#
# Convention : Reuss Voigt Hill
#
# Bulk Modulus (GPa) = 26.31058 27.07611 26.69335
# Shear Modulus (GPa) = 25.66336 28.19253 26.92794
#
# Velocity S-wave (km/s) = 3.37554 3.53796 3.45771
# Velocity P-wave (km/s) = 5.18401 5.35827 5.27186
#
# Compressibility (1/GPa) = 0.03800752
#
# Stress axis : x y z
#
# Youngs Moduli (GPa) = 75.90612 48.70144 78.35526
#
# Poissons Ratio (x) = 0.05137 -0.01345
# Poissons Ratio (y) = 0.08006 0.26234
# Poissons Ratio (z) = -0.01303 0.16306
#
# Static dielectric constant tensor:
#      x y z
#    x 4.077730 0.000000 0.000000 
#    y 0.000000 4.059830 0.000000 
#    z 0.000000 0.000000 4.060430 
# 
# 
# High freq. dielectric constant tensor:
#      x y z
#    x 1.896570 0.000000 0.000000 
#    y 0.000000 1.862740 0.000000 
#    z 0.000000 0.000000 1.886690 
# 
# From -- ./inp_files/5341.got.cif
#   From: 2010.03.12/outbox.cif.g09.slc.cpg/sg61_3_cif.got.tgz:5341.got - 2010.04.10 19:05:03.
