data_PCOD8249776
_publ_section_title
;
Structure prediction by ZEFSAII (Michael W. Deem and Ramdas Pophale) SiO2 
 PCOD8249776
Probable space group: P B C A
;
_chemical_formula_sum "Si O2"
_cell_formula_units_Z 56
_cell_length_a 7.649983
_cell_length_b 22.680326
_cell_length_c 13.525753
_cell_angle_alpha 90.000000
_cell_angle_beta 90.000000
_cell_angle_gamma 90.000000
_cell_volume 2346.773714
_symmetry_space_group_name_H-M "P B C A"
_symmetry_group_IT_number 61
_symmetry_cell_setting 'orthorhombic'
loop_
_space_group_symop_operation_xyz
x,y,z
1/2-x,-y,1/2+z
1/2+x,1/2-y,-z
-x,1/2+y,1/2-z
-x,-y,-z
1/2+x,y,1/2-z
1/2-x,1/2+y,z
x,1/2-y,1/2+z
loop_
_atom_site_type_symbol
_atom_site_label
_atom_site_fract_x
_atom_site_fract_y
_atom_site_fract_z
Si Si1 0.715385 0.812264 0.119090
Si Si2 0.151045 0.941940 0.423915
Si Si3 0.754886 0.722831 0.289698
Si Si4 0.586279 0.840325 0.626946
Si Si5 0.170525 0.512684 0.130248
Si Si6 0.959384 0.256944 0.474928
Si Si7 0.057723 0.528340 0.343592
O O1 0.718596 0.882894 0.128903
O O2 0.753497 0.783979 0.226241
O O3 0.853810 0.787497 0.039497
O O4 0.536008 0.794276 0.060955
O O5 0.951994 0.955955 0.391026
O O6 0.152002 0.938737 0.543243
O O7 0.284185 0.993900 0.394115
O O8 0.723238 0.666944 0.216360
O O9 0.604316 0.731872 0.370543
O O10 0.932995 0.705777 0.342389
O O11 0.657277 0.810978 0.524494
O O12 0.535002 0.907608 0.606173
O O13 0.099867 0.541928 0.229920
O O14 0.374165 0.493414 0.142751
#
# Coordination Sequence:
#
# PCOD8249776 Si02
#       7
#     8   8   8   8   8   8   8
#     4  11  25  46  71 106 143 186 239 302 361 442
#     4  11  27  50  71 109 152 194 250 303 371 452
#     4  11  23  43  68 103 139 183 236 295 368 422
#     4  11  24  42  71 103 135 185 238 299 354 438
#     4  11  25  47  72 105 145 192 243 303 367 438
#     4  11  23  45  67 100 139 178 234 293 359 422
#     4  12  24  49  74 108 144 195 252 300 374 443
#
# _framework density 23.862549000000001
#
# number of rings (size 3 to 8) (size 9 to 14) (size 15 to 20)
#    0.000    0.857    4.286    2.143    2.000    1.143 
#   12.857    0.000    0.000    0.000    0.000    0.000 
#    0.000    0.000    0.000    0.000    0.000    0.000 
#
# Total GULP energy -693845.220099 kJ/mol
# GULP energy per Si atom -12390.093216 kJ/mol
# Density = 2.380824 g / cm^3
# Si number density = 23.862549 Si / 1000 Ang^3
#
#
#
# Elastic Constant Matrix: (Units=GPa)
#
#
# Indices 1 2 3 4 5 6 
#
# 1 86.1849 38.7090 17.5491 0.0000 0.0000 0.0000
# 2 38.7090 144.2027 41.5059 0.0000 0.0000 0.0000
# 3 17.5491 41.5059 87.2915 0.0000 0.0000 0.0000
# 4 0.0000 0.0000 0.0000 21.9227 0.0000 0.0000
# 5 0.0000 0.0000 0.0000 0.0000 32.7010 0.0000
# 6 0.0000 0.0000 0.0000 0.0000 0.0000 29.3477
#
#
#
# Elastic Compliance Matrix: (Units=1/GPa)
#
#
# Indices 1 2 3 4 5 6 
#
# 1 0.013289 -0.003242 -0.001130 0.000000 0.000000 0.000000
# 2 -0.003242 0.008825 -0.003544 0.000000 0.000000 0.000000
# 3 -0.001130 -0.003544 0.013368 0.000000 0.000000 0.000000
# 4 0.000000 0.000000 0.000000 0.045615 0.000000 0.000000
# 5 0.000000 0.000000 0.000000 0.000000 0.030580 0.000000
# 6 0.000000 0.000000 0.000000 0.000000 0.000000 0.034074
#
#
# Mechanical properties :
#
#
# Convention : Reuss Voigt Hill
#
# Bulk Modulus (GPa) = 50.89171 57.02300 53.95736
# Shear Modulus (GPa) = 29.73801 31.45527 30.59664
#
# Velocity S-wave (km/s) = 3.53402 3.63462 3.58467
# Velocity P-wave (km/s) = 6.16650 6.44688 6.30825
#
# Compressibility (1/GPa) = 0.01964956
#
# Stress axis : x y z
#
# Youngs Moduli (GPa) = 75.24915 113.31251 74.80312
#
# Poissons Ratio (x) = 0.36736 0.08454
# Poissons Ratio (y) = 0.24396 0.26514
# Poissons Ratio (z) = 0.08504 0.40163
#
# Static dielectric constant tensor:
#      x y z
#    x 4.463960 0.000000 0.000000 
#    y 0.000000 3.899030 0.000000 
#    z 0.000000 0.000000 4.682740 
# 
# 
# High freq. dielectric constant tensor:
#      x y z
#    x 1.947990 0.000000 0.000000 
#    y 0.000000 1.918190 0.000000 
#    z 0.000000 0.000000 1.968970 
# 
# From -- ./inp_files/7157.got.cif
#   From: 2010.03.12/outbox.cif.g09.slc.cpg/sg61_4_cif.got.tgz:7157.got - 2010.04.10 19:05:03.
