data_PCOD8249607
_publ_section_title
;
Structure prediction by ZEFSAII (Michael W. Deem and Ramdas Pophale) SiO2 
 PCOD8249607
Probable space group: P B C A
;
_chemical_formula_sum "Si O2"
_cell_formula_units_Z 40
_cell_length_a 10.548620
_cell_length_b 20.624137
_cell_length_c 8.804977
_cell_angle_alpha 90.000000
_cell_angle_beta 90.000000
_cell_angle_gamma 90.000000
_cell_volume 1915.577197
_symmetry_space_group_name_H-M "P B C A"
_symmetry_group_IT_number 61
_symmetry_cell_setting 'orthorhombic'
loop_
_space_group_symop_operation_xyz
x,y,z
1/2-x,-y,1/2+z
1/2+x,1/2-y,-z
-x,1/2+y,1/2-z
-x,-y,-z
1/2+x,y,1/2-z
1/2-x,1/2+y,z
x,1/2-y,1/2+z
loop_
_atom_site_type_symbol
_atom_site_label
_atom_site_fract_x
_atom_site_fract_y
_atom_site_fract_z
Si Si1 0.120283 0.736521 0.249620
Si Si2 0.012968 0.835335 0.474698
Si Si3 0.628638 0.525009 0.926988
Si Si4 0.621999 0.969149 0.077417
Si Si5 0.728131 0.662563 0.978609
O O1 0.025188 0.777116 0.355026
O O2 0.207562 0.783043 0.148655
O O3 0.209640 0.692415 0.354607
O O4 0.036732 0.690066 0.144238
O O5 0.112591 0.891356 0.432842
O O6 0.871260 0.863671 0.465627
O O7 0.626623 0.507591 0.750258
O O8 0.634501 0.602277 0.952917
O O9 0.500000 0.500000 0.000000
O O10 0.748008 0.488975 0.998641
O O11 0.500000 0.000000 0.000000
#
# Coordination Sequence:
#
# PCOD8249607 Si02
#       5
#     8   8   8   8   8
#     4  10  24  42  66 104 129 177 215 283 339 409
#     4  11  23  44  71  95 137 171 228 276 343 405
#     4  12  28  45  71 103 139 184 234 286 344 405
#     4  12  26  47  71  99 137 184 232 283 343 408
#     4  11  23  45  69  98 136 170 229 274 345 401
#
# _framework density 20.881435
#
# number of rings (size 3 to 8) (size 9 to 14) (size 15 to 20)
#    0.000    0.800    4.000    2.400    5.600    0.000 
#   14.400    0.000    0.000    0.000    0.000    0.000 
#    0.000    0.000    0.000    0.000    0.000    0.000 
#
# Total GULP energy -496267.522158 kJ/mol
# GULP energy per Si atom -12406.688054 kJ/mol
# Density = 2.083391 g / cm^3
# Si number density = 20.881435 Si / 1000 Ang^3
#
#
#
# Elastic Constant Matrix: (Units=GPa)
#
#
# Indices 1 2 3 4 5 6 
#
# 1 153.8955 46.8839 68.6720 0.0000 0.0000 0.0000
# 2 46.8839 86.1322 43.8686 0.0000 0.0000 0.0000
# 3 68.6720 43.8686 179.0705 0.0000 0.0000 0.0000
# 4 0.0000 0.0000 0.0000 20.6535 0.0000 0.0000
# 5 0.0000 0.0000 0.0000 0.0000 29.8575 0.0000
# 6 0.0000 0.0000 0.0000 0.0000 0.0000 38.2037
#
#
#
# Elastic Compliance Matrix: (Units=1/GPa)
#
#
# Indices 1 2 3 4 5 6 
#
# 1 0.008653 -0.003450 -0.002473 0.000000 0.000000 0.000000
# 2 -0.003450 0.014641 -0.002264 0.000000 0.000000 0.000000
# 3 -0.002473 -0.002264 0.007087 0.000000 0.000000 0.000000
# 4 0.000000 0.000000 0.000000 0.048418 0.000000 0.000000
# 5 0.000000 0.000000 0.000000 0.000000 0.033492 0.000000
# 6 0.000000 0.000000 0.000000 0.000000 0.000000 0.026175
#
#
# Mechanical properties :
#
#
# Convention : Reuss Voigt Hill
#
# Bulk Modulus (GPa) = 71.39175 81.99413 76.69294
# Shear Modulus (GPa) = 31.34612 35.05452 33.20032
#
# Velocity S-wave (km/s) = 3.87867 4.10169 3.99174
# Velocity P-wave (km/s) = 7.37035 7.86025 7.61924
#
# Compressibility (1/GPa) = 0.01400722
#
# Stress axis : x y z
#
# Youngs Moduli (GPa) = 115.57342 68.30123 141.09803
#
# Poissons Ratio (x) = 0.23566 0.34892
# Poissons Ratio (y) = 0.39876 0.31939
# Poissons Ratio (z) = 0.28580 0.15461
#
# Static dielectric constant tensor:
#      x y z
#    x 3.620550 0.000000 0.000000 
#    y 0.000000 3.904990 0.000000 
#    z 0.000000 0.000000 4.014960 
# 
# 
# High freq. dielectric constant tensor:
#      x y z
#    x 1.815600 0.000000 0.000000 
#    y 0.000000 1.829430 0.000000 
#    z 0.000000 0.000000 1.836550 
# 
# From -- ./inp_files/1726.got.cif
#   From: 2010.03.12/outbox.cif.g09.slc.cpg/sg61_1_cif.got.tgz:1726.got - 2010.04.10 19:05:03.
