data_PCOD8249119
_publ_section_title
;
Structure prediction by ZEFSAII (Michael W. Deem and Ramdas Pophale) SiO2 
 PCOD8249119
Probable space group: P B C A
;
_chemical_formula_sum "Si O2"
_cell_formula_units_Z 40
_cell_length_a 12.991250
_cell_length_b 9.360839
_cell_length_c 11.828460
_cell_angle_alpha 90.000000
_cell_angle_beta 90.000000
_cell_angle_gamma 90.000000
_cell_volume 1438.447188
_symmetry_space_group_name_H-M "P B C A"
_symmetry_group_IT_number 61
_symmetry_cell_setting 'orthorhombic'
loop_
_space_group_symop_operation_xyz
x,y,z
1/2-x,-y,1/2+z
1/2+x,1/2-y,-z
-x,1/2+y,1/2-z
-x,-y,-z
1/2+x,y,1/2-z
1/2-x,1/2+y,z
x,1/2-y,1/2+z
loop_
_atom_site_type_symbol
_atom_site_label
_atom_site_fract_x
_atom_site_fract_y
_atom_site_fract_z
Si Si1 0.242156 0.890843 0.269588
Si Si2 0.625645 0.169253 0.993661
Si Si3 0.935066 0.226532 0.104234
Si Si4 0.617574 0.148820 0.261119
Si Si5 0.682764 0.494178 0.004507
O O1 0.318691 0.790665 0.194994
O O2 0.167891 0.793358 0.346226
O O3 0.172340 0.000173 0.192929
O O4 0.307240 0.981785 0.358697
O O5 0.626631 0.154830 0.127391
O O6 0.648201 0.338741 0.954937
O O7 0.709766 0.053766 0.949089
O O8 0.509498 0.146892 0.946380
O O9 0.998626 0.148420 0.204384
O O10 0.905077 0.118324 0.001400
#
# Coordination Sequence:
#
# PCOD8249119 Si02
#       5
#     8   8   8   8   8
#     4  10  21  43  62  91 134 155 208 268 303 369
#     4  10  23  43  65  92 127 165 206 260 310 372
#     4  12  23  40  70  91 122 172 210 249 324 368
#     4  10  24  41  66  92 128 166 208 261 313 371
#     4  10  20  44  61  91 130 157 204 267 301 367
#
# _framework density 27.807765
#
# number of rings (size 3 to 8) (size 9 to 14) (size 15 to 20)
#    0.000    1.600    6.000    0.600    5.600    4.800 
#    3.600    0.000    0.000    0.000    0.000    0.000 
#    0.000    0.000    0.000    0.000    0.000    0.000 
#
# Total GULP energy -496044.108550 kJ/mol
# GULP energy per Si atom -12401.102714 kJ/mol
# Density = 2.774447 g / cm^3
# Si number density = 27.807765 Si / 1000 Ang^3
#
#
#
# Elastic Constant Matrix: (Units=GPa)
#
#
# Indices 1 2 3 4 5 6 
#
# 1 124.4253 11.1887 10.3567 0.0000 0.0000 0.0000
# 2 11.1887 76.5210 16.3967 0.0000 0.0000 0.0000
# 3 10.3567 16.3967 44.4130 0.0000 0.0000 0.0000
# 4 0.0000 0.0000 0.0000 64.1274 0.0000 0.0000
# 5 0.0000 0.0000 0.0000 0.0000 49.6379 0.0000
# 6 0.0000 0.0000 0.0000 0.0000 0.0000 32.9179
#
#
#
# Elastic Compliance Matrix: (Units=1/GPa)
#
#
# Indices 1 2 3 4 5 6 
#
# 1 0.008248 -0.000862 -0.001605 0.000000 0.000000 0.000000
# 2 -0.000862 0.014281 -0.005071 0.000000 0.000000 0.000000
# 3 -0.001605 -0.005071 0.024762 0.000000 0.000000 0.000000
# 4 0.000000 0.000000 0.000000 0.015594 0.000000 0.000000
# 5 0.000000 0.000000 0.000000 0.000000 0.020146 0.000000
# 6 0.000000 0.000000 0.000000 0.000000 0.000000 0.030379
#
#
# Mechanical properties :
#
#
# Convention : Reuss Voigt Hill
#
# Bulk Modulus (GPa) = 31.04188 35.69374 33.36781
# Shear Modulus (GPa) = 35.91304 43.16447 39.53876
#
# Velocity S-wave (km/s) = 3.59761 3.94413 3.77485
# Velocity P-wave (km/s) = 5.33332 5.79701 5.56999
#
# Compressibility (1/GPa) = 0.03221454
#
# Stress axis : x y z
#
# Youngs Moduli (GPa) = 121.24041 70.02299 40.38370
#
# Poissons Ratio (x) = 0.06037 0.06482
# Poissons Ratio (y) = 0.10452 0.20480
# Poissons Ratio (z) = 0.19460 0.35511
#
# Static dielectric constant tensor:
#      x y z
#    x 4.935430 0.000000 0.000000 
#    y 0.000000 5.531180 0.000000 
#    z 0.000000 0.000000 5.296160 
# 
# 
# High freq. dielectric constant tensor:
#      x y z
#    x 2.120940 0.000000 0.000000 
#    y 0.000000 2.132330 0.000000 
#    z 0.000000 0.000000 2.179360 
# 
# From -- ./inp_files/2651.got.cif
#   From: 2010.03.12/outbox.cif.g09.slc.cpg/sg61_2_cif.got.tgz:2651.got - 2010.04.10 19:05:03.
