data_PCOD8249545
_publ_section_title
;
Structure prediction by ZEFSAII (Michael W. Deem and Ramdas Pophale) SiO2 
 PCOD8249545
Probable space group: P B C A
;
_chemical_formula_sum "Si O2"
_cell_formula_units_Z 56
_cell_length_a 8.902694
_cell_length_b 19.844894
_cell_length_c 14.676428
_cell_angle_alpha 90.000000
_cell_angle_beta 90.000000
_cell_angle_gamma 90.000000
_cell_volume 2592.928839
_symmetry_space_group_name_H-M "P B C A"
_symmetry_group_IT_number 61
_symmetry_cell_setting 'orthorhombic'
loop_
_space_group_symop_operation_xyz
x,y,z
1/2-x,-y,1/2+z
1/2+x,1/2-y,-z
-x,1/2+y,1/2-z
-x,-y,-z
1/2+x,y,1/2-z
1/2-x,1/2+y,z
x,1/2-y,1/2+z
loop_
_atom_site_type_symbol
_atom_site_label
_atom_site_fract_x
_atom_site_fract_y
_atom_site_fract_z
Si Si1 0.346429 0.023632 0.627661
Si Si2 0.416875 0.574073 0.732071
Si Si3 0.380601 0.157097 0.514843
Si Si4 0.315575 0.364643 0.363426
Si Si5 0.231325 0.220557 0.350509
Si Si6 0.307769 0.884244 0.541537
Si Si7 0.876647 0.220893 0.348648
O O1 0.476728 0.032006 0.702007
O O2 0.181177 0.022166 0.673032
O O3 0.352277 0.082473 0.553261
O O4 0.376102 0.950569 0.586973
O O5 0.302973 0.623326 0.783169
O O6 0.515021 0.622720 0.668030
O O7 0.283544 0.163547 0.422180
O O8 0.555068 0.164782 0.487167
O O9 0.339003 0.211268 0.593871
O O10 0.291252 0.288691 0.398101
O O11 0.279253 0.410518 0.451124
O O12 0.308108 0.220872 0.251878
O O13 0.054401 0.213598 0.338450
O O14 0.191007 0.844936 0.604233
#
# Coordination Sequence:
#
# PCOD8249545 Si02
#       7
#     8   8   8   8   8   8   8
#     4  11  25  45  70 102 139 182 232 286 347 417
#     4  10  23  42  71 100 137 186 232 279 352 421
#     4  12  24  45  71 101 137 184 230 290 352 414
#     4  11  21  43  69 102 136 181 232 286 342 425
#     4  12  25  42  72  99 140 179 233 291 347 410
#     4  12  26  45  69 102 141 179 231 290 348 414
#     4  12  25  46  67 102 137 182 231 289 349 415
#
# _framework density 21.597199
#
# number of rings (size 3 to 8) (size 9 to 14) (size 15 to 20)
#    0.000    0.571    4.286    3.857    2.000    4.000 
#    2.571    0.000    0.000    0.000    0.000    0.000 
#    0.000    0.000    0.000    0.000    0.000    0.000 
#
# Total GULP energy -694449.802336 kJ/mol
# GULP energy per Si atom -12400.889327 kJ/mol
# Density = 2.154804 g / cm^3
# Si number density = 21.597199 Si / 1000 Ang^3
#
#
#
# Elastic Constant Matrix: (Units=GPa)
#
#
# Indices 1 2 3 4 5 6 
#
# 1 116.9997 23.9560 52.4734 0.0000 0.0000 0.0000
# 2 23.9560 80.9444 34.1726 0.0000 0.0000 0.0000
# 3 52.4734 34.1726 118.2170 0.0000 0.0000 0.0000
# 4 0.0000 0.0000 0.0000 25.6602 0.0000 0.0000
# 5 0.0000 0.0000 0.0000 0.0000 18.3638 0.0000
# 6 0.0000 0.0000 0.0000 0.0000 0.0000 19.6547
#
#
#
# Elastic Compliance Matrix: (Units=1/GPa)
#
#
# Indices 1 2 3 4 5 6 
#
# 1 0.010797 -0.001335 -0.004406 0.000000 0.000000 0.000000
# 2 -0.001335 0.014236 -0.003523 0.000000 0.000000 0.000000
# 3 -0.004406 -0.003523 0.011433 0.000000 0.000000 0.000000
# 4 0.000000 0.000000 0.000000 0.038971 0.000000 0.000000
# 5 0.000000 0.000000 0.000000 0.000000 0.054455 0.000000
# 6 0.000000 0.000000 0.000000 0.000000 0.000000 0.050878
#
#
# Mechanical properties :
#
#
# Convention : Reuss Voigt Hill
#
# Bulk Modulus (GPa) = 55.74765 59.70722 57.72743
# Shear Modulus (GPa) = 24.35718 26.43968 25.39843
#
# Velocity S-wave (km/s) = 3.36191 3.50268 3.43301
# Velocity P-wave (km/s) = 6.39831 6.63809 6.51930
#
# Compressibility (1/GPa) = 0.01793798
#
# Stress axis : x y z
#
# Youngs Moduli (GPa) = 92.62157 70.24212 87.46459
#
# Poissons Ratio (x) = 0.09378 0.38541
# Poissons Ratio (y) = 0.12365 0.30811
# Poissons Ratio (z) = 0.40813 0.24744
#
# Static dielectric constant tensor:
#      x y z
#    x 4.073490 0.000000 0.000000 
#    y 0.000000 3.700820 0.000000 
#    z 0.000000 0.000000 4.209910 
# 
# 
# High freq. dielectric constant tensor:
#      x y z
#    x 1.862670 0.000000 0.000000 
#    y 0.000000 1.827530 0.000000 
#    z 0.000000 0.000000 1.868250 
# 
# From -- ./inp_files/7160.got.cif
#   From: 2010.03.12/outbox.cif.g09.slc.cpg/sg61_4_cif.got.tgz:7160.got - 2010.04.10 19:05:03.
