data_PCOD8249804
_publ_section_title
;
Structure prediction by ZEFSAII (Michael W. Deem and Ramdas Pophale) SiO2 
 PCOD8249804
Probable space group: P B C A
;
_chemical_formula_sum "Si O2"
_cell_formula_units_Z 64
_cell_length_a 11.797703
_cell_length_b 18.071066
_cell_length_c 12.951413
_cell_angle_alpha 90.000000
_cell_angle_beta 90.000000
_cell_angle_gamma 90.000000
_cell_volume 2761.203298
_symmetry_space_group_name_H-M "P B C A"
_symmetry_group_IT_number 61
_symmetry_cell_setting 'orthorhombic'
loop_
_space_group_symop_operation_xyz
x,y,z
1/2-x,-y,1/2+z
1/2+x,1/2-y,-z
-x,1/2+y,1/2-z
-x,-y,-z
1/2+x,y,1/2-z
1/2-x,1/2+y,z
x,1/2-y,1/2+z
loop_
_atom_site_type_symbol
_atom_site_label
_atom_site_fract_x
_atom_site_fract_y
_atom_site_fract_z
Si Si1 0.705503 0.596119 0.942350
Si Si2 0.911500 0.383050 0.102473
Si Si3 0.156521 0.196978 0.420399
Si Si4 0.058106 0.865785 0.632460
Si Si5 0.516738 0.163018 0.505991
Si Si6 0.613747 0.728234 0.182012
Si Si7 0.174939 0.456031 0.417852
Si Si8 0.884638 0.527806 0.807357
O O1 0.760755 0.557764 0.842359
O O2 0.792953 0.659577 0.977653
O O3 0.584844 0.634682 0.918494
O O4 0.685868 0.536798 0.033492
O O5 0.923417 0.313597 0.179113
O O6 0.797276 0.428454 0.118092
O O7 0.017161 0.436192 0.123703
O O8 0.910141 0.350938 0.986489
O O9 0.072552 0.263471 0.449610
O O10 0.254582 0.226537 0.347580
O O11 0.079430 0.136696 0.359175
O O12 0.107757 0.799424 0.701092
O O13 0.112599 0.941122 0.670820
O O14 0.464446 0.177029 0.392128
O O15 0.612981 0.099115 0.501488
O O16 0.098639 0.459571 0.314182
#
# Coordination Sequence:
#
# PCOD8249804 Si02
#       8
#     8   8   8   8   8   8   8   8
#     4  11  24  47  73 105 149 192 246 315 368 453
#     4  12  25  48  78 108 152 197 252 311 375 454
#     4  11  23  47  71 104 149 189 246 308 370 442
#     4  12  25  47  75 108 146 195 251 310 374 445
#     4  11  24  46  69 108 152 191 241 315 370 436
#     4  11  26  45  74 110 146 200 251 305 381 446
#     4  12  27  46  73 111 151 195 251 309 381 445
#     4  12  26  45  75 109 142 202 249 305 377 458
#
# _framework density 23.178298999999999
#
# number of rings (size 3 to 8) (size 9 to 14) (size 15 to 20)
#    0.000    0.500    5.000    3.000    3.500    1.000 
#    2.250    0.000    0.000    0.000    0.000    0.000 
#    0.000    0.000    0.000    0.000    0.000    0.000 
#
# Total GULP energy -793739.935428 kJ/mol
# GULP energy per Si atom -12402.186491 kJ/mol
# Density = 2.312554 g / cm^3
# Si number density = 23.178299 Si / 1000 Ang^3
#
#
#
# Elastic Constant Matrix: (Units=GPa)
#
#
# Indices 1 2 3 4 5 6 
#
# 1 118.0722 45.8973 25.4888 0.0000 0.0000 0.0000
# 2 45.8973 118.2689 38.1725 0.0000 0.0000 0.0000
# 3 25.4888 38.1725 101.1031 0.0000 0.0000 0.0000
# 4 0.0000 0.0000 0.0000 29.0906 0.0000 0.0000
# 5 0.0000 0.0000 0.0000 0.0000 18.4251 0.0000
# 6 0.0000 0.0000 0.0000 0.0000 0.0000 46.4652
#
#
#
# Elastic Compliance Matrix: (Units=1/GPa)
#
#
# Indices 1 2 3 4 5 6 
#
# 1 0.010103 -0.003529 -0.001215 0.000000 0.000000 0.000000
# 2 -0.003529 0.010861 -0.003211 0.000000 0.000000 0.000000
# 3 -0.001215 -0.003211 0.011410 0.000000 0.000000 0.000000
# 4 0.000000 0.000000 0.000000 0.034375 0.000000 0.000000
# 5 0.000000 0.000000 0.000000 0.000000 0.054274 0.000000
# 6 0.000000 0.000000 0.000000 0.000000 0.000000 0.021521
#
#
# Mechanical properties :
#
#
# Convention : Reuss Voigt Hill
#
# Bulk Modulus (GPa) = 60.73609 61.84015 61.28812
# Shear Modulus (GPa) = 30.49856 33.98857 32.24356
#
# Velocity S-wave (km/s) = 3.63136 3.83351 3.73380
# Velocity P-wave (km/s) = 6.62142 6.80680 6.71475
#
# Compressibility (1/GPa) = 0.01646468
#
# Stress axis : x y z
#
# Youngs Moduli (GPa) = 98.97702 92.07121 87.64597
#
# Poissons Ratio (x) = 0.32490 0.10647
# Poissons Ratio (y) = 0.34927 0.28144
# Poissons Ratio (z) = 0.12024 0.29565
#
# Static dielectric constant tensor:
#      x y z
#    x 4.414480 0.000000 0.000000 
#    y 0.000000 4.286400 0.000000 
#    z 0.000000 0.000000 3.956390 
# 
# 
# High freq. dielectric constant tensor:
#      x y z
#    x 1.930050 0.000000 0.000000 
#    y 0.000000 1.931190 0.000000 
#    z 0.000000 0.000000 1.898880 
# 
# From -- ./inp_files/7620.got.cif
#   From: 2010.03.12/outbox.cif.g09.slc.cpg/sg61_4_cif.got.tgz:7620.got - 2010.04.10 19:05:03.
