data_PCOD8249293
_publ_section_title
;
Structure prediction by ZEFSAII (Michael W. Deem and Ramdas Pophale) SiO2 
 PCOD8249293
Probable space group: P B C A
;
_chemical_formula_sum "Si O2"
_cell_formula_units_Z 48
_cell_length_a 10.951575
_cell_length_b 12.823311
_cell_length_c 15.665353
_cell_angle_alpha 90.000000
_cell_angle_beta 90.000000
_cell_angle_gamma 90.000000
_cell_volume 2199.970932
_symmetry_space_group_name_H-M "P B C A"
_symmetry_group_IT_number 61
_symmetry_cell_setting 'orthorhombic'
loop_
_space_group_symop_operation_xyz
x,y,z
1/2-x,-y,1/2+z
1/2+x,1/2-y,-z
-x,1/2+y,1/2-z
-x,-y,-z
1/2+x,y,1/2-z
1/2-x,1/2+y,z
x,1/2-y,1/2+z
loop_
_atom_site_type_symbol
_atom_site_label
_atom_site_fract_x
_atom_site_fract_y
_atom_site_fract_z
Si Si1 0.897931 0.527543 0.167504
Si Si2 0.422055 0.300370 0.610222
Si Si3 0.335822 0.686679 0.187360
Si Si4 0.959126 0.632896 0.730036
Si Si5 0.843765 0.978138 0.081207
Si Si6 0.493563 0.838761 0.530852
O O1 0.835166 0.592839 0.244298
O O2 0.799701 0.497428 0.094735
O O3 0.002697 0.594711 0.123335
O O4 0.956213 0.419387 0.198611
O O5 0.280857 0.324801 0.626871
O O6 0.456914 0.209697 0.675657
O O7 0.447796 0.263020 0.513452
O O8 0.345616 0.799963 0.232364
O O9 0.455872 0.682513 0.127897
O O10 0.904961 0.538906 0.673776
O O11 0.874562 0.877122 0.023114
O O12 0.899166 0.076287 0.031515
#
# Coordination Sequence:
#
# PCOD8249293 Si02
#       6
#     8   8   8   8   8   8
#     4  11  22  40  67  95 123 165 224 263 313 384
#     4  10  24  39  62  96 125 166 212 261 328 381
#     4  11  23  40  66  92 136 163 214 273 312 384
#     4  10  21  41  63  96 122 170 211 261 321 377
#     4  10  21  42  65  86 127 166 209 259 320 382
#     4  10  23  42  62  89 127 172 204 257 336 375
#
# _framework density 21.818470999999999
#
# number of rings (size 3 to 8) (size 9 to 14) (size 15 to 20)
#    0.000    1.667    1.667    2.000    4.667    1.333 
#    0.000    1.667    0.000    0.000    0.000    0.000 
#    0.000    0.000    0.000    0.000    0.000    0.000 
#
# Total GULP energy -595291.446841 kJ/mol
# GULP energy per Si atom -12401.905143 kJ/mol
# Density = 2.176881 g / cm^3
# Si number density = 21.818471 Si / 1000 Ang^3
#
#
#
# Elastic Constant Matrix: (Units=GPa)
#
#
# Indices 1 2 3 4 5 6 
#
# 1 83.5140 16.9931 5.0358 0.0000 0.0000 0.0000
# 2 16.9931 61.4415 -0.3771 0.0000 0.0000 0.0000
# 3 5.0358 -0.3771 52.2265 0.0000 0.0000 0.0000
# 4 0.0000 0.0000 0.0000 18.2406 0.0000 0.0000
# 5 0.0000 0.0000 0.0000 0.0000 40.3621 0.0000
# 6 0.0000 0.0000 0.0000 0.0000 0.0000 22.3894
#
#
#
# Elastic Compliance Matrix: (Units=1/GPa)
#
#
# Indices 1 2 3 4 5 6 
#
# 1 0.012770 -0.003540 -0.001257 0.000000 0.000000 0.000000
# 2 -0.003540 0.017257 0.000466 0.000000 0.000000 0.000000
# 3 -0.001257 0.000466 0.019272 0.000000 0.000000 0.000000
# 4 0.000000 0.000000 0.000000 0.054823 0.000000 0.000000
# 5 0.000000 0.000000 0.000000 0.000000 0.024776 0.000000
# 6 0.000000 0.000000 0.000000 0.000000 0.000000 0.044664
#
#
# Mechanical properties :
#
#
# Convention : Reuss Voigt Hill
#
# Bulk Modulus (GPa) = 24.60731 26.72063 25.66397
# Shear Modulus (GPa) = 25.54027 27.90042 26.72034
#
# Velocity S-wave (km/s) = 3.42509 3.57984 3.50332
# Velocity P-wave (km/s) = 5.19079 5.41853 5.30588
#
# Compressibility (1/GPa) = 0.04063833
#
# Stress axis : x y z
#
# Youngs Moduli (GPa) = 78.30826 57.94592 51.88895
#
# Poissons Ratio (x) = 0.20510 0.06522
# Poissons Ratio (y) = 0.27718 -0.02418
# Poissons Ratio (z) = 0.09842 -0.02700
#
# Static dielectric constant tensor:
#      x y z
#    x 3.713210 0.000000 0.000000 
#    y 0.000000 3.843100 0.000000 
#    z 0.000000 0.000000 3.885680 
# 
# 
# High freq. dielectric constant tensor:
#      x y z
#    x 1.848300 0.000000 0.000000 
#    y 0.000000 1.856870 0.000000 
#    z 0.000000 0.000000 1.855960 
# 
# From -- ./inp_files/9166.got.cif
#   From: 2010.03.12/outbox.cif.g09.slc.cpg/sg61_5_cif.got.tgz:9166.got - 2010.04.10 19:05:03.
