data_PCOD8249914
_publ_section_title
;
Structure prediction by ZEFSAII (Michael W. Deem and Ramdas Pophale) SiO2 
 PCOD8249914
Probable space group: P B C A
;
_chemical_formula_sum "Si O2"
_cell_formula_units_Z 32
_cell_length_a 9.544042
_cell_length_b 9.290250
_cell_length_c 15.724360
_cell_angle_alpha 90.000000
_cell_angle_beta 90.000000
_cell_angle_gamma 90.000000
_cell_volume 1394.224535
_symmetry_space_group_name_H-M "P B C A"
_symmetry_group_IT_number 61
_symmetry_cell_setting 'orthorhombic'
loop_
_space_group_symop_operation_xyz
x,y,z
1/2-x,-y,1/2+z
1/2+x,1/2-y,-z
-x,1/2+y,1/2-z
-x,-y,-z
1/2+x,y,1/2-z
1/2-x,1/2+y,z
x,1/2-y,1/2+z
loop_
_atom_site_type_symbol
_atom_site_label
_atom_site_fract_x
_atom_site_fract_y
_atom_site_fract_z
Si Si1 0.747014 0.145343 0.438513
Si Si2 0.301804 0.596797 0.445584
Si Si3 0.022921 0.957088 0.849655
Si Si4 0.510131 0.781479 0.818277
O O1 0.672926 0.265107 0.495737
O O2 0.627648 0.050222 0.394165
O O3 0.843167 0.218379 0.367610
O O4 0.842107 0.043725 0.499163
O O5 0.399002 0.611820 0.362958
O O6 0.140190 0.580931 0.418661
O O7 0.034755 0.839116 0.775895
O O8 0.046838 0.118104 0.813454
#
# Coordination Sequence:
#
# PCOD8249914 Si02
#       4
#     8   8   8   8
#     4  12  25  47  74 100 138 182 230 285 341 404
#     4  12  25  47  74 100 138 182 230 285 341 404
#     4  12  28  47  68 105 143 178 231 283 341 414
#     4  12  28  46  70 103 141 183 227 283 347 408
#
# _framework density 22.951827000000002
#
# number of rings (size 3 to 8) (size 9 to 14) (size 15 to 20)
#    0.000    0.000    5.000    4.500    7.000    4.000 
#    0.000    0.000    0.000    0.000    0.000    0.000 
#    0.000    0.000    0.000    0.000    0.000    0.000 
#
# Total GULP energy -397125.729240 kJ/mol
# GULP energy per Si atom -12410.179039 kJ/mol
# Density = 2.289959 g / cm^3
# Si number density = 22.951827 Si / 1000 Ang^3
#
#
#
# Elastic Constant Matrix: (Units=GPa)
#
#
# Indices 1 2 3 4 5 6 
#
# 1 63.1123 -11.0458 2.2503 0.0000 0.0000 0.0000
# 2 -11.0458 98.3852 30.1427 0.0000 0.0000 0.0000
# 3 2.2503 30.1427 94.0179 0.0000 0.0000 0.0000
# 4 0.0000 0.0000 0.0000 37.3296 0.0000 0.0000
# 5 0.0000 0.0000 0.0000 0.0000 33.0139 0.0000
# 6 0.0000 0.0000 0.0000 0.0000 0.0000 31.7323
#
#
#
# Elastic Compliance Matrix: (Units=1/GPa)
#
#
# Indices 1 2 3 4 5 6 
#
# 1 0.016261 0.002157 -0.001081 0.000000 0.000000 0.000000
# 2 0.002157 0.011557 -0.003757 0.000000 0.000000 0.000000
# 3 -0.001081 -0.003757 0.011867 0.000000 0.000000 0.000000
# 4 0.000000 0.000000 0.000000 0.026788 0.000000 0.000000
# 5 0.000000 0.000000 0.000000 0.000000 0.030290 0.000000
# 6 0.000000 0.000000 0.000000 0.000000 0.000000 0.031514
#
#
# Mechanical properties :
#
#
# Convention : Reuss Voigt Hill
#
# Bulk Modulus (GPa) = 29.13511 33.13444 31.13478
# Shear Modulus (GPa) = 34.46379 36.02636 35.24508
#
# Velocity S-wave (km/s) = 3.87921 3.96618 3.92294
# Velocity P-wave (km/s) = 5.72590 5.95332 5.84072
#
# Compressibility (1/GPa) = 0.03432285
#
# Stress axis : x y z
#
# Youngs Moduli (GPa) = 61.49778 86.52540 84.26981
#
# Poissons Ratio (x) = -0.18661 0.09107
# Poissons Ratio (y) = -0.13263 0.31660
# Poissons Ratio (z) = 0.06646 0.32507
#
# Static dielectric constant tensor:
#      x y z
#    x 3.948140 0.000000 0.000000 
#    y 0.000000 4.135630 0.000000 
#    z 0.000000 0.000000 4.130160 
# 
# 
# High freq. dielectric constant tensor:
#      x y z
#    x 1.905540 0.000000 0.000000 
#    y 0.000000 1.917220 0.000000 
#    z 0.000000 0.000000 1.915970 
# 
# From -- ./inp_files/2503.got.cif
#   From: 2010.03.12/outbox.cif.g09.slc.cpg/sg61_2_cif.got.tgz:2503.got - 2010.04.10 19:05:03.
