data_PCOD8249981
_publ_section_title
;
Structure prediction by ZEFSAII (Michael W. Deem and Ramdas Pophale) SiO2 
 PCOD8249981
Probable space group: P N M A
;
_chemical_formula_sum "Si O2"
_cell_formula_units_Z 40
_cell_length_a 5.177635
_cell_length_b 12.965867
_cell_length_c 39.650351
_cell_angle_alpha 90.000000
_cell_angle_beta 90.000000
_cell_angle_gamma 90.000000
_cell_volume 2661.828251
_symmetry_space_group_name_H-M "P N M A"
_symmetry_group_IT_number 62
_symmetry_cell_setting 'orthorhombic'
loop_
_space_group_symop_operation_xyz
x,y,z
1/2-x,-y,1/2+z
1/2+x,1/2-y,1/2-z
-x,1/2+y,-z
-x,-y,-z
1/2+x,y,1/2-z
1/2-x,1/2+y,1/2+z
x,1/2-y,z
loop_
_atom_site_type_symbol
_atom_site_label
_atom_site_fract_x
_atom_site_fract_y
_atom_site_fract_z
Si Si1 0.242999 0.127963 0.345246
Si Si2 0.733029 0.126929 0.230434
Si Si3 0.263369 0.365915 0.497131
Si Si4 0.244848 0.372465 0.114206
Si Si5 0.233117 0.561931 0.539411
O O1 0.233387 0.250000 0.342706
O O2 0.235782 0.081830 0.307500
O O3 0.502427 0.091860 0.363609
O O4 0.998079 0.088646 0.366299
O O5 0.481354 0.085027 0.249615
O O6 0.734311 0.250000 0.229647
O O7 0.238403 0.250000 0.511004
O O8 0.235712 0.441838 0.528923
O O9 0.539300 0.377557 0.479345
O O10 0.040533 0.387316 0.469792
O O11 0.246810 0.250000 0.107592
O O12 0.227479 0.432335 0.079162
#
# Coordination Sequence:
#
# PCOD8249981 Si02
#       5
#     8   8   8   8   8
#     4   9  17  25  35  52  72  98 129 161 194 227
#     4   9  15  23  34  47  66  93 127 161 187 217
#     4  10  19  32  46  62  83 104 136 174 205 244
#     4  10  17  26  38  53  76 100 128 163 197 233
#     4  10  20  30  45  64  80 107 138 167 210 249
#
# _framework density 15.027265
#
# number of rings (size 3 to 8) (size 9 to 14) (size 15 to 20)
#    0.000    2.400    0.000    4.200    0.000    6.400 
#    0.000    0.000    0.000    0.000    0.000    0.000 
#    0.000    0.000    0.000    0.000    0.000   20.000 
#
# Total GULP energy -496033.088737 kJ/mol
# GULP energy per Si atom -12400.827218 kJ/mol
# Density = 1.499306 g / cm^3
# Si number density = 15.027265 Si / 1000 Ang^3
#
#
#
# Elastic Constant Matrix: (Units=GPa)
#
#
# Indices 1 2 3 4 5 6 
#
# 1 95.8117 17.6776 32.1988 0.0000 0.0000 0.0000
# 2 17.6776 57.2797 27.8617 0.0000 0.0000 0.0000
# 3 32.1988 27.8617 120.3445 0.0000 0.0000 0.0000
# 4 0.0000 0.0000 0.0000 12.6067 0.0000 0.0000
# 5 0.0000 0.0000 0.0000 0.0000 24.3615 0.0000
# 6 0.0000 0.0000 0.0000 0.0000 0.0000 6.6377
#
#
#
# Elastic Compliance Matrix: (Units=1/GPa)
#
#
# Indices 1 2 3 4 5 6 
#
# 1 0.011745 -0.002362 -0.002596 0.000000 0.000000 0.000000
# 2 -0.002362 0.020149 -0.004033 0.000000 0.000000 0.000000
# 3 -0.002596 -0.004033 0.009938 0.000000 0.000000 0.000000
# 4 0.000000 0.000000 0.000000 0.079323 0.000000 0.000000
# 5 0.000000 0.000000 0.000000 0.000000 0.041048 0.000000
# 6 0.000000 0.000000 0.000000 0.000000 0.000000 0.150654
#
#
# Mechanical properties :
#
#
# Convention : Reuss Voigt Hill
#
# Bulk Modulus (GPa) = 41.92794 47.65690 44.79242
# Shear Modulus (GPa) = 14.75847 21.76771 18.26309
#
# Velocity S-wave (km/s) = 3.13727 3.81011 3.48994
# Velocity P-wave (km/s) = 6.40976 7.15111 6.79056
#
# Compressibility (1/GPa) = 0.02385045
#
# Stress axis : x y z
#
# Youngs Moduli (GPa) = 85.14061 49.63072 100.62798
#
# Poissons Ratio (x) = 0.11724 0.26119
# Poissons Ratio (y) = 0.20113 0.40581
# Poissons Ratio (z) = 0.22099 0.20015
#
# Static dielectric constant tensor:
#      x y z
#    x 3.239620 0.000000 0.000000 
#    y 0.000000 2.438480 0.000000 
#    z 0.000000 0.000000 2.972560 
# 
# 
# High freq. dielectric constant tensor:
#      x y z
#    x 1.603290 0.000000 0.000000 
#    y 0.000000 1.501040 0.000000 
#    z 0.000000 0.000000 1.580480 
# 
# From -- ./inp_files/31505.got.cif
#   From: 2010.03.12/outbox.cif.g09.slc.cpg/sg62_16_cif.got.tgz:31505.got - 2010.04.10 19:12:36.
