data_PCOD8249978
_publ_section_title
;
Structure prediction by ZEFSAII (Michael W. Deem and Ramdas Pophale) SiO2 
 PCOD8249978
Probable space group: P N M A
;
_chemical_formula_sum "Si O2"
_cell_formula_units_Z 64
_cell_length_a 20.431385
_cell_length_b 9.056416
_cell_length_c 22.468708
_cell_angle_alpha 90.000000
_cell_angle_beta 90.000000
_cell_angle_gamma 90.000000
_cell_volume 4157.500126
_symmetry_space_group_name_H-M "P N M A"
_symmetry_group_IT_number 62
_symmetry_cell_setting 'orthorhombic'
loop_
_space_group_symop_operation_xyz
x,y,z
1/2-x,-y,1/2+z
1/2+x,1/2-y,1/2-z
-x,1/2+y,-z
-x,-y,-z
1/2+x,y,1/2-z
1/2-x,1/2+y,1/2+z
x,1/2-y,z
loop_
_atom_site_type_symbol
_atom_site_label
_atom_site_fract_x
_atom_site_fract_y
_atom_site_fract_z
Si Si1 0.263749 0.424228 0.834964
Si Si2 0.659017 0.919722 0.741318
Si Si3 0.848483 0.917492 0.753113
Si Si4 0.186388 0.576733 0.930695
Si Si5 0.815501 0.423419 0.935182
Si Si6 0.928121 0.075685 0.846745
Si Si7 0.766904 0.087048 0.348590
Si Si8 0.440212 0.417401 0.352777
O O1 0.274262 0.250000 0.839513
O O2 0.203285 0.461402 0.792231
O O3 0.329565 0.498497 0.808063
O O4 0.246688 0.491114 0.899763
O O5 0.683179 0.750000 0.727478
O O6 0.664901 0.948795 0.812961
O O7 0.585613 0.937242 0.715540
O O8 0.868982 0.750000 0.738337
O O9 0.787383 0.924110 0.797376
O O10 0.909508 0.999054 0.784340
O O11 0.202144 0.750000 0.928572
O O12 0.117892 0.542702 0.898271
O O13 0.181022 0.515366 0.997899
O O14 0.812938 0.250000 0.936213
O O15 0.879120 0.478693 0.898950
O O16 0.748947 0.477191 0.902525
O O17 0.924459 0.250000 0.838340
O O18 0.000735 0.028247 0.865490
O O19 0.769164 0.250000 0.376666
O O20 0.464535 0.250000 0.363156
#
# Coordination Sequence:
#
# PCOD8249978 Si02
#       8
#     8   8   8   8   8   8   8   8
#     4  10  17  25  41  64  83  99 128 174 219 248
#     4   8  15  28  43  58  79 108 138 167 207 259
#     4   9  16  28  44  59  78 107 137 164 205 259
#     4   9  18  32  44  55  79 116 150 173 201 248
#     4   9  18  30  42  57  81 113 144 175 209 245
#     4  10  19  29  41  61  86 109 140 182 217 241
#     4   8  14  25  42  61  78  99 131 171 210 248
#     4   9  17  29  43  57  78 113 150 176 202 245
#
# _framework density 15.393865999999999
#
# number of rings (size 3 to 8) (size 9 to 14) (size 15 to 20)
#    0.000    3.000    0.000    3.375    0.000    6.500 
#    0.000    0.000    0.000    0.000    0.000    0.000 
#    0.000    1.000    0.000    3.000    0.000    4.875 
#
# Total GULP energy -793087.542963 kJ/mol
# GULP energy per Si atom -12391.992859 kJ/mol
# Density = 1.535883 g / cm^3
# Si number density = 15.393866 Si / 1000 Ang^3
#
#
#
# Elastic Constant Matrix: (Units=GPa)
#
#
# Indices 1 2 3 4 5 6 
#
# 1 30.5561 21.7447 52.5812 0.0000 0.0000 0.0000
# 2 21.7447 61.9108 40.8004 0.0000 0.0000 0.0000
# 3 52.5812 40.8004 104.4376 0.0000 0.0000 0.0000
# 4 0.0000 0.0000 0.0000 22.0400 0.0000 0.0000
# 5 0.0000 0.0000 0.0000 0.0000 15.8629 0.0000
# 6 0.0000 0.0000 0.0000 0.0000 0.0000 21.6906
#
#
#
# Elastic Compliance Matrix: (Units=1/GPa)
#
#
# Indices 1 2 3 4 5 6 
#
# 1 0.246818 -0.006458 -0.121742 0.000000 0.000000 0.000000
# 2 -0.006458 0.021922 -0.005313 0.000000 0.000000 0.000000
# 3 -0.121742 -0.005313 0.072944 0.000000 0.000000 0.000000
# 4 0.000000 0.000000 0.000000 0.045372 0.000000 0.000000
# 5 0.000000 0.000000 0.000000 0.000000 0.063040 0.000000
# 6 0.000000 0.000000 0.000000 0.000000 0.000000 0.046103
#
#
# Mechanical properties :
#
#
# Convention : Reuss Voigt Hill
#
# Bulk Modulus (GPa) = 13.39452 47.46189 30.42821
# Shear Modulus (GPa) = 6.34428 17.37057 11.85743
#
# Velocity S-wave (km/s) = 2.03230 3.36282 2.77838
# Velocity P-wave (km/s) = 3.77188 6.78061 5.48652
#
# Compressibility (1/GPa) = 0.07465741
#
# Stress axis : x y z
#
# Youngs Moduli (GPa) = 4.05157 45.61702 13.70913
#
# Poissons Ratio (x) = 0.29461 1.66898
# Poissons Ratio (y) = 0.02617 0.07283
# Poissons Ratio (z) = 0.49325 0.24234
#
# Static dielectric constant tensor:
#      x y z
#    x 2.770010 0.000000 0.000000 
#    y 0.000000 2.908410 0.000000 
#    z 0.000000 0.000000 3.140150 
# 
# 
# High freq. dielectric constant tensor:
#      x y z
#    x 1.549630 0.000000 0.000000 
#    y 0.000000 1.593390 0.000000 
#    z 0.000000 0.000000 1.574190 
# 
# From -- ./inp_files/27947.got.cif
#   From: 2010.03.12/outbox.cif.g09.slc.cpg/sg62_14_cif.got.tgz:27947.got - 2010.04.10 19:12:36.
