data_PCOD8249569
_publ_section_title
;
Structure prediction by ZEFSAII (Michael W. Deem and Ramdas Pophale) SiO2 
 PCOD8249569
Probable space group: P B C A
;
_chemical_formula_sum "Si O2"
_cell_formula_units_Z 64
_cell_length_a 9.117267
_cell_length_b 22.151976
_cell_length_c 15.240786
_cell_angle_alpha 90.000000
_cell_angle_beta 90.000000
_cell_angle_gamma 90.000000
_cell_volume 3078.112657
_symmetry_space_group_name_H-M "P B C A"
_symmetry_group_IT_number 61
_symmetry_cell_setting 'orthorhombic'
loop_
_space_group_symop_operation_xyz
x,y,z
1/2-x,-y,1/2+z
1/2+x,1/2-y,-z
-x,1/2+y,1/2-z
-x,-y,-z
1/2+x,y,1/2-z
1/2-x,1/2+y,z
x,1/2-y,1/2+z
loop_
_atom_site_type_symbol
_atom_site_label
_atom_site_fract_x
_atom_site_fract_y
_atom_site_fract_z
Si Si1 0.292972 0.863451 0.094186
Si Si2 0.847951 0.967321 0.746035
Si Si3 0.448422 0.752173 0.160831
Si Si4 0.797743 0.753972 0.155613
Si Si5 0.098279 0.446781 0.250212
Si Si6 0.295470 0.878889 0.897700
Si Si7 0.957503 0.881467 0.891623
Si Si8 0.950750 0.864841 0.088967
O O1 0.380121 0.800250 0.093195
O O2 0.355952 0.908043 0.166718
O O3 0.120960 0.850814 0.109135
O O4 0.318932 0.894546 0.999615
O O5 0.887403 0.924940 0.662849
O O6 0.870916 0.931338 0.836464
O O7 0.680633 0.989104 0.743496
O O8 0.931250 0.031437 0.741066
O O9 0.623163 0.759891 0.164869
O O10 0.377074 0.768471 0.253443
O O11 0.399887 0.685444 0.131697
O O12 0.848183 0.688911 0.121305
O O13 0.859016 0.802838 0.087010
O O14 0.118541 0.408975 0.338988
O O15 0.127757 0.885313 0.868149
O O16 0.931106 0.895581 0.994034
#
# Coordination Sequence:
#
# PCOD8249569 Si02
#       8
#     8   8   8   8   8   8   8   8
#     4  11  24  44  67  96 130 169 210 268 322 380
#     4  12  24  45  65  94 126 170 222 263 313 374
#     4  11  22  39  68  99 129 163 211 261 328 382
#     4  11  22  39  68  98 128 167 206 264 324 387
#     4  12  26  41  67  92 128 170 220 266 308 376
#     4  10  23  44  68  96 131 164 213 267 323 380
#     4  10  23  44  69  96 127 171 212 263 323 385
#     4  11  24  44  68  95 130 170 214 261 323 384
#
# _framework density 20.791961000000001
#
# number of rings (size 3 to 8) (size 9 to 14) (size 15 to 20)
#    0.000    1.000    5.000    1.500    1.750    2.000 
#    4.500    0.000    0.000    0.000    0.000    0.000 
#    0.000    0.000    0.000    0.000    0.000    0.000 
#
# Total GULP energy -793837.936906 kJ/mol
# GULP energy per Si atom -12403.717764 kJ/mol
# Density = 2.074464 g / cm^3
# Si number density = 20.791961 Si / 1000 Ang^3
#
#
#
# Elastic Constant Matrix: (Units=GPa)
#
#
# Indices 1 2 3 4 5 6 
#
# 1 51.4751 29.1621 24.3758 0.0000 0.0000 0.0000
# 2 29.1621 116.8126 48.6788 0.0000 0.0000 0.0000
# 3 24.3758 48.6788 119.8064 0.0000 0.0000 0.0000
# 4 0.0000 0.0000 0.0000 18.5304 0.0000 0.0000
# 5 0.0000 0.0000 0.0000 0.0000 29.4931 0.0000
# 6 0.0000 0.0000 0.0000 0.0000 0.0000 39.5274
#
#
#
# Elastic Compliance Matrix: (Units=1/GPa)
#
#
# Indices 1 2 3 4 5 6 
#
# 1 0.023423 -0.004649 -0.002877 0.000000 0.000000 0.000000
# 2 -0.004649 0.011228 -0.003616 0.000000 0.000000 0.000000
# 3 -0.002877 -0.003616 0.010401 0.000000 0.000000 0.000000
# 4 0.000000 0.000000 0.000000 0.053965 0.000000 0.000000
# 5 0.000000 0.000000 0.000000 0.000000 0.033906 0.000000
# 6 0.000000 0.000000 0.000000 0.000000 0.000000 0.025299
#
#
# Mechanical properties :
#
#
# Convention : Reuss Voigt Hill
#
# Bulk Modulus (GPa) = 43.91954 54.72527 49.32240
# Shear Modulus (GPa) = 26.58213 29.90200 28.24206
#
# Velocity S-wave (km/s) = 3.57946 3.79641 3.68953
# Velocity P-wave (km/s) = 6.18487 6.75237 6.47484
#
# Compressibility (1/GPa) = 0.02276891
#
# Stress axis : x y z
#
# Youngs Moduli (GPa) = 42.69360 89.06081 96.14017
#
# Poissons Ratio (x) = 0.41401 0.27657
# Poissons Ratio (y) = 0.19847 0.34768
# Poissons Ratio (z) = 0.12282 0.32208
#
# Static dielectric constant tensor:
#      x y z
#    x 3.705340 0.000000 0.000000 
#    y 0.000000 3.754880 0.000000 
#    z 0.000000 0.000000 3.749520 
# 
# 
# High freq. dielectric constant tensor:
#      x y z
#    x 1.808500 0.000000 0.000000 
#    y 0.000000 1.821910 0.000000 
#    z 0.000000 0.000000 1.820540 
# 
# From -- ./inp_files/7256.got.cif
#   From: 2010.03.12/outbox.cif.g09.slc.cpg/sg61_4_cif.got.tgz:7256.got - 2010.04.10 19:05:03.
