data_PCOD8249346
_publ_section_title
;
Structure prediction by ZEFSAII (Michael W. Deem and Ramdas Pophale) SiO2 
 PCOD8249346
Probable space group: P B C A
;
_chemical_formula_sum "Si O2"
_cell_formula_units_Z 48
_cell_length_a 15.770938
_cell_length_b 10.993798
_cell_length_c 9.763998
_cell_angle_alpha 90.000000
_cell_angle_beta 90.000000
_cell_angle_gamma 90.000000
_cell_volume 1692.906448
_symmetry_space_group_name_H-M "P B C A"
_symmetry_group_IT_number 61
_symmetry_cell_setting 'orthorhombic'
loop_
_space_group_symop_operation_xyz
x,y,z
1/2-x,-y,1/2+z
1/2+x,1/2-y,-z
-x,1/2+y,1/2-z
-x,-y,-z
1/2+x,y,1/2-z
1/2-x,1/2+y,z
x,1/2-y,1/2+z
loop_
_atom_site_type_symbol
_atom_site_label
_atom_site_fract_x
_atom_site_fract_y
_atom_site_fract_z
Si Si1 0.068306 0.875883 0.776583
Si Si2 0.392813 0.798000 0.626219
Si Si3 0.304424 0.056126 0.491334
Si Si4 0.384206 0.977827 0.027391
Si Si5 0.132623 0.894857 0.268246
Si Si6 0.787170 0.718167 0.618797
O O1 0.063260 0.935126 0.627309
O O2 0.090639 0.735531 0.758174
O O3 0.978760 0.872775 0.855344
O O4 0.137518 0.959614 0.854914
O O5 0.403664 0.662394 0.562432
O O6 0.341734 0.861329 0.496036
O O7 0.344062 0.794441 0.772439
O O8 0.368008 0.040249 0.621029
O O9 0.272062 0.196097 0.472941
O O10 0.215626 0.984953 0.519236
O O11 0.416804 0.017647 0.874939
O O12 0.233623 0.880959 0.299028
#
# Coordination Sequence:
#
# PCOD8249346 Si02
#       6
#     8   8   8   8   8   8
#     4  11  25  44  74 108 156 193 252 322 398 451
#     4  11  26  46  71 108 157 200 243 325 409 457
#     4  10  22  43  72 111 138 199 259 311 365 462
#     4  11  24  46  75 107 145 200 264 308 376 476
#     4  11  22  43  71 103 144 200 266 314 376 442
#     4  10  21  44  68 101 151 198 248 314 385 452
#
# _framework density 28.353605999999999
#
# number of rings (size 3 to 8) (size 9 to 14) (size 15 to 20)
#    0.000    1.333    3.333    3.000    7.000    0.667 
#    3.000    0.833    0.000    0.000    0.000    0.000 
#    0.000    0.000    0.000    0.000    0.000    0.000 
#
# Total GULP energy -594907.017209 kJ/mol
# GULP energy per Si atom -12393.896192 kJ/mol
# Density = 2.828907 g / cm^3
# Si number density = 28.353606 Si / 1000 Ang^3
#
#
#
# Elastic Constant Matrix: (Units=GPa)
#
#
# Indices 1 2 3 4 5 6 
#
# 1 99.8955 2.2420 -13.1114 0.0000 0.0000 0.0000
# 2 2.2420 83.9169 3.9000 0.0000 0.0000 0.0000
# 3 -13.1114 3.9000 111.4806 0.0000 0.0000 0.0000
# 4 0.0000 0.0000 0.0000 48.3771 0.0000 0.0000
# 5 0.0000 0.0000 0.0000 0.0000 31.5108 0.0000
# 6 0.0000 0.0000 0.0000 0.0000 0.0000 47.5434
#
#
#
# Elastic Compliance Matrix: (Units=1/GPa)
#
#
# Indices 1 2 3 4 5 6 
#
# 1 0.010176 -0.000328 0.001208 0.000000 0.000000 0.000000
# 2 -0.000328 0.011947 -0.000457 0.000000 0.000000 0.000000
# 3 0.001208 -0.000457 0.009128 0.000000 0.000000 0.000000
# 4 0.000000 0.000000 0.000000 0.020671 0.000000 0.000000
# 5 0.000000 0.000000 0.000000 0.000000 0.031735 0.000000
# 6 0.000000 0.000000 0.000000 0.000000 0.000000 0.021033
#
#
# Mechanical properties :
#
#
# Convention : Reuss Voigt Hill
#
# Bulk Modulus (GPa) = 31.15382 31.26157 31.20770
# Shear Modulus (GPa) = 43.65184 45.63709 44.64447
#
# Velocity S-wave (km/s) = 3.92797 4.01630 3.97238
# Velocity P-wave (km/s) = 5.61991 5.70588 5.66306
#
# Compressibility (1/GPa) = 0.03209879
#
# Stress axis : x y z
#
# Youngs Moduli (GPa) = 98.26635 83.70627 109.54997
#
# Poissons Ratio (x) = 0.02746 -0.13237
# Poissons Ratio (y) = 0.03224 0.05001
# Poissons Ratio (z) = -0.11874 0.03821
#
# Static dielectric constant tensor:
#      x y z
#    x 5.391170 0.000000 0.000000 
#    y 0.000000 5.545720 0.000000 
#    z 0.000000 0.000000 5.667680 
# 
# 
# High freq. dielectric constant tensor:
#      x y z
#    x 2.144890 0.000000 0.000000 
#    y 0.000000 2.185090 0.000000 
#    z 0.000000 0.000000 2.163440 
# 
# From -- ./inp_files/3446.got.cif
#   From: 2010.03.12/outbox.cif.g09.slc.cpg/sg61_2_cif.got.tgz:3446.got - 2010.04.10 19:05:03.
