data_PCOD8249380
_publ_section_title
;
Structure prediction by ZEFSAII (Michael W. Deem and Ramdas Pophale) SiO2 
 PCOD8249380
Probable space group: P B C A
;
_chemical_formula_sum "Si O2"
_cell_formula_units_Z 48
_cell_length_a 8.202281
_cell_length_b 31.052215
_cell_length_c 8.644188
_cell_angle_alpha 90.000000
_cell_angle_beta 90.000000
_cell_angle_gamma 90.000000
_cell_volume 2201.665980
_symmetry_space_group_name_H-M "P B C A"
_symmetry_group_IT_number 61
_symmetry_cell_setting 'orthorhombic'
loop_
_space_group_symop_operation_xyz
x,y,z
1/2-x,-y,1/2+z
1/2+x,1/2-y,-z
-x,1/2+y,1/2-z
-x,-y,-z
1/2+x,y,1/2-z
1/2-x,1/2+y,z
x,1/2-y,1/2+z
loop_
_atom_site_type_symbol
_atom_site_label
_atom_site_fract_x
_atom_site_fract_y
_atom_site_fract_z
Si Si1 0.666795 0.626863 0.133626
Si Si2 0.842576 0.957378 0.135887
Si Si3 0.705544 0.371853 0.965626
Si Si4 0.164489 0.789994 0.362868
Si Si5 0.205889 0.208492 0.533189
Si Si6 0.786997 0.041134 0.965991
O O1 0.675724 0.627854 0.318652
O O2 0.479942 0.632014 0.087920
O O3 0.773568 0.665026 0.063130
O O4 0.743470 0.582249 0.074169
O O5 0.833714 0.956830 0.320970
O O6 0.031153 0.959705 0.097263
O O7 0.761524 0.914783 0.064311
O O8 0.748649 0.998723 0.066652
O O9 0.745932 0.331902 0.073651
O O10 0.171003 0.790822 0.177396
O O11 0.258406 0.748118 0.421388
O O12 0.977666 0.788455 0.409234
#
# Coordination Sequence:
#
# PCOD8249380 Si02
#       6
#     8   8   8   8   8   8
#     4  11  23  40  62  90 123 160 203 249 301 358
#     4  10  22  39  60  88 121 158 201 248 299 356
#     4  11  23  40  62  90 123 160 203 249 301 358
#     4  12  25  43  65  91 123 159 201 248 301 358
#     4  12  25  43  65  91 123 159 201 248 301 358
#     4  10  22  39  60  88 121 158 201 248 299 356
#
# _framework density 21.801673000000001
#
# number of rings (size 3 to 8) (size 9 to 14) (size 15 to 20)
#    0.000    1.000    0.000    7.000    0.000    6.000 
#    0.000    0.000    0.000    0.000    0.000    0.000 
#    0.000    0.000    0.000    0.000    0.000    0.000 
#
# Total GULP energy -595624.703758 kJ/mol
# GULP energy per Si atom -12408.847995 kJ/mol
# Density = 2.175205 g / cm^3
# Si number density = 21.801673 Si / 1000 Ang^3
#
#
#
# Elastic Constant Matrix: (Units=GPa)
#
#
# Indices 1 2 3 4 5 6 
#
# 1 47.2957 12.9041 -15.9167 0.0000 0.0000 0.0000
# 2 12.9041 193.7899 34.4583 0.0000 0.0000 0.0000
# 3 -15.9167 34.4583 87.6578 0.0000 0.0000 0.0000
# 4 0.0000 0.0000 0.0000 13.9358 0.0000 0.0000
# 5 0.0000 0.0000 0.0000 0.0000 31.6872 0.0000
# 6 0.0000 0.0000 0.0000 0.0000 0.0000 33.5746
#
#
#
# Elastic Compliance Matrix: (Units=1/GPa)
#
#
# Indices 1 2 3 4 5 6 
#
# 1 0.023602 -0.002509 0.005272 0.000000 0.000000 0.000000
# 2 -0.002509 0.005815 -0.002741 0.000000 0.000000 0.000000
# 3 0.005272 -0.002741 0.013443 0.000000 0.000000 0.000000
# 4 0.000000 0.000000 0.000000 0.071758 0.000000 0.000000
# 5 0.000000 0.000000 0.000000 0.000000 0.031558 0.000000
# 6 0.000000 0.000000 0.000000 0.000000 0.000000 0.029784
#
#
# Mechanical properties :
#
#
# Convention : Reuss Voigt Hill
#
# Bulk Modulus (GPa) = 23.30837 43.51500 33.41168
# Shear Modulus (GPa) = 26.28554 35.65935 30.97244
#
# Velocity S-wave (km/s) = 3.47604 4.04867 3.77323
# Velocity P-wave (km/s) = 5.17926 6.46981 5.86017
#
# Compressibility (1/GPa) = 0.04290304
#
# Stress axis : x y z
#
# Youngs Moduli (GPa) = 42.36871 171.97637 74.38870
#
# Poissons Ratio (x) = 0.43150 -0.39217
# Poissons Ratio (y) = 0.10631 0.20393
# Poissons Ratio (z) = -0.22337 0.47145
#
# Static dielectric constant tensor:
#      x y z
#    x 3.756000 0.000000 0.000000 
#    y 0.000000 4.208050 0.000000 
#    z 0.000000 0.000000 4.099520 
# 
# 
# High freq. dielectric constant tensor:
#      x y z
#    x 1.856220 0.000000 0.000000 
#    y 0.000000 1.877020 0.000000 
#    z 0.000000 0.000000 1.869750 
# 
# From -- ./inp_files/1870.got.cif
#   From: 2010.03.12/outbox.cif.g09.slc.cpg/sg61_1_cif.got.tgz:1870.got - 2010.04.10 19:05:03.
