data_PCOD8249010
_publ_section_title
;
Structure prediction by ZEFSAII (Michael W. Deem and Ramdas Pophale) SiO2 
 PCOD8249010
Probable space group: P B C A
;
_chemical_formula_sum "Si O2"
_cell_formula_units_Z 56
_cell_length_a 15.325464
_cell_length_b 16.283415
_cell_length_c 9.645229
_cell_angle_alpha 90.000000
_cell_angle_beta 90.000000
_cell_angle_gamma 90.000000
_cell_volume 2406.975485
_symmetry_space_group_name_H-M "P B C A"
_symmetry_group_IT_number 61
_symmetry_cell_setting 'orthorhombic'
loop_
_space_group_symop_operation_xyz
x,y,z
1/2-x,-y,1/2+z
1/2+x,1/2-y,-z
-x,1/2+y,1/2-z
-x,-y,-z
1/2+x,y,1/2-z
1/2-x,1/2+y,z
x,1/2-y,1/2+z
loop_
_atom_site_type_symbol
_atom_site_label
_atom_site_fract_x
_atom_site_fract_y
_atom_site_fract_z
Si Si1 0.112241 0.915096 0.255330
Si Si2 0.626375 0.470913 0.112017
Si Si3 0.114512 0.728256 0.953758
Si Si4 0.299055 0.940204 0.870734
Si Si5 0.271228 0.204465 0.219174
Si Si6 0.196483 0.365004 0.154403
Si Si7 0.484316 0.111434 0.479787
O O1 0.081623 0.853018 0.376399
O O2 0.203046 0.887432 0.185956
O O3 0.041560 0.917297 0.135323
O O4 0.119395 0.005583 0.321071
O O5 0.724425 0.497451 0.072854
O O6 0.629456 0.416895 0.252088
O O7 0.587105 0.413899 0.985954
O O8 0.569679 0.555444 0.129809
O O9 0.150945 0.706185 0.105984
O O10 0.033006 0.791958 0.960728
O O11 0.192128 0.771127 0.869939
O O12 0.266506 0.887033 0.738428
O O13 0.329408 0.882344 0.995981
O O14 0.191829 0.266704 0.180552
#
# Coordination Sequence:
#
# PCOD8249010 Si02
#       7
#     8   8   8   8   8   8   8
#     4  10  22  34  63  89 125 161 210 271 310 381
#     4  10  22  36  67  85 128 165 205 271 319 384
#     4  11  20  36  62  90 121 166 213 258 315 387
#     4  11  21  38  64  98 121 164 219 271 323 375
#     4  11  19  36  64  90 123 162 214 266 321 377
#     4  10  20  38  56  94 125 155 213 267 314 378
#     4  11  20  42  59  94 123 172 221 251 326 407
#
# _framework density 23.265712000000001
#
# number of rings (size 3 to 8) (size 9 to 14) (size 15 to 20)
#    0.000    1.429    7.143    0.000    4.000    1.143 
#    0.000    2.143    6.286    0.000    0.000    0.000 
#    0.000    0.000    0.000    0.000    0.000    0.000 
#
# Total GULP energy -694145.266771 kJ/mol
# GULP energy per Si atom -12395.451192 kJ/mol
# Density = 2.321276 g / cm^3
# Si number density = 23.265712 Si / 1000 Ang^3
#
#
#
# Elastic Constant Matrix: (Units=GPa)
#
#
# Indices 1 2 3 4 5 6 
#
# 1 31.9109 22.3054 14.3399 0.0000 0.0000 0.0000
# 2 22.3054 143.6080 36.6288 0.0000 0.0000 0.0000
# 3 14.3399 36.6288 78.5812 0.0000 0.0000 0.0000
# 4 0.0000 0.0000 0.0000 38.9440 0.0000 0.0000
# 5 0.0000 0.0000 0.0000 0.0000 16.2155 0.0000
# 6 0.0000 0.0000 0.0000 0.0000 0.0000 33.9578
#
#
#
# Elastic Compliance Matrix: (Units=1/GPa)
#
#
# Indices 1 2 3 4 5 6 
#
# 1 0.036542 -0.004511 -0.004566 0.000000 0.000000 0.000000
# 2 -0.004511 0.008460 -0.003120 0.000000 0.000000 0.000000
# 3 -0.004566 -0.003120 0.015013 0.000000 0.000000 0.000000
# 4 0.000000 0.000000 0.000000 0.025678 0.000000 0.000000
# 5 0.000000 0.000000 0.000000 0.000000 0.061669 0.000000
# 6 0.000000 0.000000 0.000000 0.000000 0.000000 0.029448
#
#
# Mechanical properties :
#
#
# Convention : Reuss Voigt Hill
#
# Bulk Modulus (GPa) = 28.07308 44.51647 36.29478
# Shear Modulus (GPa) = 23.46550 29.87853 26.67202
#
# Velocity S-wave (km/s) = 3.17927 3.58750 3.38954
# Velocity P-wave (km/s) = 5.05663 6.02791 5.56351
#
# Compressibility (1/GPa) = 0.03562131
#
# Stress axis : x y z
#
# Youngs Moduli (GPa) = 27.36563 118.20430 66.60786
#
# Poissons Ratio (x) = 0.53325 0.30410
# Poissons Ratio (y) = 0.12345 0.20783
# Poissons Ratio (z) = 0.12494 0.36882
#
# Static dielectric constant tensor:
#      x y z
#    x 3.772190 0.000000 0.000000 
#    y 0.000000 4.588100 0.000000 
#    z 0.000000 0.000000 4.101040 
# 
# 
# High freq. dielectric constant tensor:
#      x y z
#    x 1.874820 0.000000 0.000000 
#    y 0.000000 1.933570 0.000000 
#    z 0.000000 0.000000 1.912200 
# 
# From -- ./inp_files/4033.got.cif
#   From: 2010.03.12/outbox.cif.g09.slc.cpg/sg61_3_cif.got.tgz:4033.got - 2010.04.10 19:05:03.
