data_PCOD8249975
_publ_section_title
;
Structure prediction by ZEFSAII (Michael W. Deem and Ramdas Pophale) SiO2 
 PCOD8249975
Probable space group: P N M A
;
_chemical_formula_sum "Si O2"
_cell_formula_units_Z 64
_cell_length_a 26.602932
_cell_length_b 9.101688
_cell_length_c 18.458475
_cell_angle_alpha 90.000000
_cell_angle_beta 90.000000
_cell_angle_gamma 90.000000
_cell_volume 4469.379844
_symmetry_space_group_name_H-M "P N M A"
_symmetry_group_IT_number 62
_symmetry_cell_setting 'orthorhombic'
loop_
_space_group_symop_operation_xyz
x,y,z
1/2-x,-y,1/2+z
1/2+x,1/2-y,1/2-z
-x,1/2+y,-z
-x,-y,-z
1/2+x,y,1/2-z
1/2-x,1/2+y,1/2+z
x,1/2-y,z
loop_
_atom_site_type_symbol
_atom_site_label
_atom_site_fract_x
_atom_site_fract_y
_atom_site_fract_z
Si Si1 0.704108 0.911080 0.711683
Si Si2 0.194468 0.089485 0.197806
Si Si3 0.746014 0.924736 0.930237
Si Si4 0.147219 0.576599 0.649583
Si Si5 0.242294 0.923359 0.406077
Si Si6 0.553380 0.421836 0.916870
Si Si7 0.952142 0.578821 0.583336
Si Si8 0.648362 0.074546 0.162492
O O1 0.690791 0.750000 0.679574
O O2 0.754379 0.896890 0.757593
O O3 0.660449 0.963482 0.766806
O O4 0.712130 0.024429 0.645642
O O5 0.172759 0.250000 0.178660
O O6 0.209283 0.007937 0.122059
O O7 0.154729 0.014707 0.253866
O O8 0.746962 0.750000 0.919218
O O9 0.691324 0.980927 0.904142
O O10 0.756713 0.970829 0.012345
O O11 0.139039 0.750000 0.640129
O O12 0.096483 0.493400 0.630963
O O13 0.235417 0.750000 0.398685
O O14 0.189648 0.999849 0.388396
O O15 0.552809 0.250000 0.902093
O O16 0.500227 0.487270 0.891271
O O17 0.562863 0.459562 0.001019
O O18 0.964778 0.750000 0.591389
O O19 0.906400 0.529913 0.634688
O O20 0.656931 0.250000 0.159136
#
# Coordination Sequence:
#
# PCOD8249975 Si02
#       8
#     8   8   8   8   8   8   8   8
#     4   8  15  27  40  53  72 101 132 158 185 220
#     4   7  11  22  38  53  70  94 125 156 182 213
#     4   8  14  23  36  56  78 100 126 153 185 224
#     4   9  16  28  44  56  72 103 137 163 188 224
#     4  10  17  23  36  58  81 102 124 154 189 225
#     4  10  19  28  39  57  80 102 126 162 200 228
#     4   9  18  30  41  55  76 103 134 162 190 227
#     4   9  16  27  42  55  71 100 134 163 187 216
#
# _framework density 14.319659
#
# number of rings (size 3 to 8) (size 9 to 14) (size 15 to 20)
#    0.000    3.250    0.000    3.750    0.000    1.500 
#    0.000    0.625    0.000    6.000    0.000    0.000 
#    0.000    1.000    0.000    2.000    0.000    2.625 
#
# Total GULP energy -792892.669508 kJ/mol
# GULP energy per Si atom -12388.947961 kJ/mol
# Density = 1.428707 g / cm^3
# Si number density = 14.319659 Si / 1000 Ang^3
#
#
#
# Elastic Constant Matrix: (Units=GPa)
#
#
# Indices 1 2 3 4 5 6 
#
# 1 93.5181 34.8841 61.6604 0.0000 0.0000 0.0000
# 2 34.8841 41.6557 37.2099 0.0000 0.0000 0.0000
# 3 61.6604 37.2099 108.9917 0.0000 0.0000 0.0000
# 4 0.0000 0.0000 0.0000 17.4718 0.0000 0.0000
# 5 0.0000 0.0000 0.0000 0.0000 26.6846 0.0000
# 6 0.0000 0.0000 0.0000 0.0000 0.0000 18.7129
#
#
#
# Elastic Compliance Matrix: (Units=1/GPa)
#
#
# Indices 1 2 3 4 5 6 
#
# 1 0.019221 -0.009184 -0.007739 0.000000 0.000000 0.000000
# 2 -0.009184 0.038928 -0.008094 0.000000 0.000000 0.000000
# 3 -0.007739 -0.008094 0.016317 0.000000 0.000000 0.000000
# 4 0.000000 0.000000 0.000000 0.057235 0.000000 0.000000
# 5 0.000000 0.000000 0.000000 0.000000 0.037475 0.000000
# 6 0.000000 0.000000 0.000000 0.000000 0.000000 0.053439
#
#
# Mechanical properties :
#
#
# Convention : Reuss Voigt Hill
#
# Bulk Modulus (GPa) = 40.93065 56.85271 48.89168
# Shear Modulus (GPa) = 17.80673 19.93458 18.87065
#
# Velocity S-wave (km/s) = 3.53018 3.73515 3.63411
# Velocity P-wave (km/s) = 6.72769 7.64137 7.19904
#
# Compressibility (1/GPa) = 0.02443157
#
# Stress axis : x y z
#
# Youngs Moduli (GPa) = 52.02532 25.68870 61.28739
#
# Poissons Ratio (x) = 0.23592 0.47429
# Poissons Ratio (y) = 0.47779 0.49608
# Poissons Ratio (z) = 0.40262 0.20793
#
# Static dielectric constant tensor:
#      x y z
#    x 2.705760 0.000000 0.000000 
#    y 0.000000 2.659800 0.000000 
#    z 0.000000 0.000000 3.062860 
# 
# 
# High freq. dielectric constant tensor:
#      x y z
#    x 1.517620 0.000000 0.000000 
#    y 0.000000 1.530590 0.000000 
#    z 0.000000 0.000000 1.540840 
# 
# From -- ./inp_files/25006.got.cif
#   From: 2010.03.12/outbox.cif.g09.slc.cpg/sg62_13_cif.got.tgz:25006.got - 2010.04.10 19:12:36.
