data_PCOD8249668
_publ_section_title
;
Structure prediction by ZEFSAII (Michael W. Deem and Ramdas Pophale) SiO2 
 PCOD8249668
Probable space group: P B C A
;
_chemical_formula_sum "Si O2"
_cell_formula_units_Z 40
_cell_length_a 8.936223
_cell_length_b 10.370698
_cell_length_c 18.199008
_cell_angle_alpha 90.000000
_cell_angle_beta 90.000000
_cell_angle_gamma 90.000000
_cell_volume 1686.590700
_symmetry_space_group_name_H-M "P B C A"
_symmetry_group_IT_number 61
_symmetry_cell_setting 'orthorhombic'
loop_
_space_group_symop_operation_xyz
x,y,z
1/2-x,-y,1/2+z
1/2+x,1/2-y,-z
-x,1/2+y,1/2-z
-x,-y,-z
1/2+x,y,1/2-z
1/2-x,1/2+y,z
x,1/2-y,1/2+z
loop_
_atom_site_type_symbol
_atom_site_label
_atom_site_fract_x
_atom_site_fract_y
_atom_site_fract_z
Si Si1 0.490215 0.654522 0.302689
Si Si2 0.152635 0.627133 0.345150
Si Si3 0.454093 0.293095 0.473104
Si Si4 0.514545 0.603912 0.899118
Si Si5 0.332819 0.002528 0.081148
O O1 0.315288 0.627034 0.310060
O O2 0.528724 0.649987 0.217167
O O3 0.532957 0.794700 0.333231
O O4 0.579378 0.543770 0.345751
O O5 0.141799 0.741060 0.404793
O O6 0.126057 0.489359 0.384225
O O7 0.509886 0.174837 0.523399
O O8 0.603948 0.365618 0.446795
O O9 0.348871 0.390054 0.518141
O O10 0.659798 0.512982 0.900374
#
# Coordination Sequence:
#
# PCOD8249668 Si02
#       5
#     8   8   8   8   8
#     4  11  29  48  72 112 147 198 248 303 370 449
#     4  12  28  46  76 105 151 194 247 302 372 439
#     4  10  26  44  78 108 146 190 245 306 365 442
#     4  11  27  48  77 108 149 195 248 307 377 434
#     4  10  25  48  75 106 151 187 250 306 365 436
#
# _framework density 23.716484999999999
#
# number of rings (size 3 to 8) (size 9 to 14) (size 15 to 20)
#    0.000    1.200    0.000    1.800   22.400    0.000 
#    0.000    0.000    0.000    0.000    0.000    0.000 
#    0.000    0.000    0.000    0.000    0.000    0.000 
#
# Total GULP energy -496400.686734 kJ/mol
# GULP energy per Si atom -12410.017168 kJ/mol
# Density = 2.366250 g / cm^3
# Si number density = 23.716485 Si / 1000 Ang^3
#
#
#
# Elastic Constant Matrix: (Units=GPa)
#
#
# Indices 1 2 3 4 5 6 
#
# 1 93.2275 50.6918 36.4675 0.0000 0.0000 0.0000
# 2 50.6918 115.9367 66.1418 0.0000 0.0000 0.0000
# 3 36.4675 66.1418 131.1651 0.0000 0.0000 0.0000
# 4 0.0000 0.0000 0.0000 32.0484 0.0000 0.0000
# 5 0.0000 0.0000 0.0000 0.0000 30.3603 0.0000
# 6 0.0000 0.0000 0.0000 0.0000 0.0000 33.2917
#
#
#
# Elastic Compliance Matrix: (Units=1/GPa)
#
#
# Indices 1 2 3 4 5 6 
#
# 1 0.014194 -0.005552 -0.001147 0.000000 0.000000 0.000000
# 2 -0.005552 0.014281 -0.005658 0.000000 0.000000 0.000000
# 3 -0.001147 -0.005658 0.010796 0.000000 0.000000 0.000000
# 4 0.000000 0.000000 0.000000 0.031203 0.000000 0.000000
# 5 0.000000 0.000000 0.000000 0.000000 0.032938 0.000000
# 6 0.000000 0.000000 0.000000 0.000000 0.000000 0.030038
#
#
# Mechanical properties :
#
#
# Convention : Reuss Voigt Hill
#
# Bulk Modulus (GPa) = 68.69177 71.88127 70.28652
# Shear Modulus (GPa) = 30.67245 31.60864 31.14055
#
# Velocity S-wave (km/s) = 3.60014 3.65467 3.62751
# Velocity P-wave (km/s) = 6.80500 6.94141 6.87354
#
# Compressibility (1/GPa) = 0.01455778
#
# Stress axis : x y z
#
# Youngs Moduli (GPa) = 70.45347 70.02551 92.62963
#
# Poissons Ratio (x) = 0.38877 0.10621
# Poissons Ratio (y) = 0.39115 0.52406
# Poissons Ratio (z) = 0.08079 0.39617
#
# Static dielectric constant tensor:
#      x y z
#    x 4.064930 0.000000 0.000000 
#    y 0.000000 4.444420 0.000000 
#    z 0.000000 0.000000 4.343910 
# 
# 
# High freq. dielectric constant tensor:
#      x y z
#    x 1.941290 0.000000 0.000000 
#    y 0.000000 1.952610 0.000000 
#    z 0.000000 0.000000 1.947510 
# 
# From -- ./inp_files/8818.got.cif
#   From: 2010.03.12/outbox.cif.g09.slc.cpg/sg61_5_cif.got.tgz:8818.got - 2010.04.10 19:05:03.
