data_PCOD8249039
_publ_section_title
;
Structure prediction by ZEFSAII (Michael W. Deem and Ramdas Pophale) SiO2 
 PCOD8249039
Probable space group: P B C A
;
_chemical_formula_sum "Si O2"
_cell_formula_units_Z 64
_cell_length_a 13.311942
_cell_length_b 8.715646
_cell_length_c 22.980088
_cell_angle_alpha 90.000000
_cell_angle_beta 90.000000
_cell_angle_gamma 90.000000
_cell_volume 2666.199769
_symmetry_space_group_name_H-M "P B C A"
_symmetry_group_IT_number 61
_symmetry_cell_setting 'orthorhombic'
loop_
_space_group_symop_operation_xyz
x,y,z
1/2-x,-y,1/2+z
1/2+x,1/2-y,-z
-x,1/2+y,1/2-z
-x,-y,-z
1/2+x,y,1/2-z
1/2-x,1/2+y,z
x,1/2-y,1/2+z
loop_
_atom_site_type_symbol
_atom_site_label
_atom_site_fract_x
_atom_site_fract_y
_atom_site_fract_z
Si Si1 0.656064 0.466298 0.808510
Si Si2 0.957295 0.233200 0.025142
Si Si3 0.622083 0.088571 0.538505
Si Si4 0.317173 0.142051 0.888984
Si Si5 0.797251 0.809492 0.380968
Si Si6 0.191253 0.147977 0.315175
Si Si7 0.006024 0.178589 0.847721
Si Si8 0.624213 0.889425 0.918715
O O1 0.639616 0.301220 0.838695
O O2 0.731911 0.573080 0.842993
O O3 0.705687 0.440375 0.745196
O O4 0.548602 0.551229 0.807700
O O5 0.926386 0.307145 0.087031
O O6 0.881524 0.087434 0.017694
O O7 0.936262 0.360846 0.977069
O O8 0.075197 0.184666 0.016862
O O9 0.732306 0.143559 0.559178
O O10 0.543724 0.103014 0.592134
O O11 0.288266 0.254145 0.835285
O O12 0.330334 0.970214 0.867023
O O13 0.731172 0.699489 0.422726
O O14 0.868762 0.924911 0.416964
O O15 0.097998 0.263312 0.308901
O O16 0.932680 0.321415 0.862095
#
# Coordination Sequence:
#
# PCOD8249039 Si02
#       8
#     8   8   8   8   8   8   8   8
#     4  10  20  40  63  88 124 168 211 274 339 393
#     4  10  20  38  66  92 133 182 216 272 338 401
#     4   9  20  41  63  91 133 178 227 269 337 405
#     4  11  22  41  64  99 134 178 227 286 327 405
#     4   9  19  36  60  91 119 158 211 266 325 392
#     4  11  23  40  63  94 127 171 225 277 337 404
#     4   9  21  41  57  83 127 162 218 278 322 398
#     4   9  19  35  58  89 123 159 208 262 318 394
#
# _framework density 24.004201999999999
#
# number of rings (size 3 to 8) (size 9 to 14) (size 15 to 20)
#    0.000    2.250    1.250    0.750    1.750    1.000 
#    6.750    8.125    0.000    0.000    0.000    0.000 
#    0.000    0.000    0.000    0.000    0.000    0.000 
#
# Total GULP energy -793359.083158 kJ/mol
# GULP energy per Si atom -12396.235674 kJ/mol
# Density = 2.394957 g / cm^3
# Si number density = 24.004202 Si / 1000 Ang^3
#
#
#
# Elastic Constant Matrix: (Units=GPa)
#
#
# Indices 1 2 3 4 5 6 
#
# 1 46.8828 13.1408 4.9187 0.0000 0.0000 0.0000
# 2 13.1408 129.1077 20.1900 0.0000 0.0000 0.0000
# 3 4.9187 20.1900 25.3599 0.0000 0.0000 0.0000
# 4 0.0000 0.0000 0.0000 29.6415 0.0000 0.0000
# 5 0.0000 0.0000 0.0000 0.0000 19.7626 0.0000
# 6 0.0000 0.0000 0.0000 0.0000 0.0000 31.4507
#
#
#
# Elastic Compliance Matrix: (Units=1/GPa)
#
#
# Indices 1 2 3 4 5 6 
#
# 1 0.022136 -0.001807 -0.002855 0.000000 0.000000 0.000000
# 2 -0.001807 0.008994 -0.006810 0.000000 0.000000 0.000000
# 3 -0.002855 -0.006810 0.045408 0.000000 0.000000 0.000000
# 4 0.000000 0.000000 0.000000 0.033737 0.000000 0.000000
# 5 0.000000 0.000000 0.000000 0.000000 0.050601 0.000000
# 6 0.000000 0.000000 0.000000 0.000000 0.000000 0.031796
#
#
# Mechanical properties :
#
#
# Convention : Reuss Voigt Hill
#
# Bulk Modulus (GPa) = 18.65874 30.87215 24.76545
# Shear Modulus (GPa) = 21.41511 27.04433 24.22972
#
# Velocity S-wave (km/s) = 2.99011 3.36020 3.18054
# Velocity P-wave (km/s) = 4.43971 5.28618 4.88133
#
# Compressibility (1/GPa) = 0.05359419
#
# Stress axis : x y z
#
# Youngs Moduli (GPa) = 45.17598 111.18084 22.02247
#
# Poissons Ratio (x) = 0.20085 0.06288
# Poissons Ratio (y) = 0.08161 0.14998
# Poissons Ratio (z) = 0.12898 0.75718
#
# Static dielectric constant tensor:
#      x y z
#    x 4.226060 0.000000 0.000000 
#    y 0.000000 4.543040 0.000000 
#    z 0.000000 0.000000 4.007730 
# 
# 
# High freq. dielectric constant tensor:
#      x y z
#    x 1.938220 0.000000 0.000000 
#    y 0.000000 1.970330 0.000000 
#    z 0.000000 0.000000 1.927570 
# 
# From -- ./inp_files/11066.got.cif
#   From: 2010.03.12/outbox.cif.g09.slc.cpg/sg61_6_cif.got.tgz:11066.got - 2010.04.10 19:05:03.
