data_PCOD8249876
_publ_section_title
;
Structure prediction by ZEFSAII (Michael W. Deem and Ramdas Pophale) SiO2 
 PCOD8249876
Probable space group: P B C A
;
_chemical_formula_sum "Si O2"
_cell_formula_units_Z 40
_cell_length_a 10.478774
_cell_length_b 16.778420
_cell_length_c 9.961238
_cell_angle_alpha 90.000000
_cell_angle_beta 90.000000
_cell_angle_gamma 90.000000
_cell_volume 1751.357684
_symmetry_space_group_name_H-M "P B C A"
_symmetry_group_IT_number 61
_symmetry_cell_setting 'orthorhombic'
loop_
_space_group_symop_operation_xyz
x,y,z
1/2-x,-y,1/2+z
1/2+x,1/2-y,-z
-x,1/2+y,1/2-z
-x,-y,-z
1/2+x,y,1/2-z
1/2-x,1/2+y,z
x,1/2-y,1/2+z
loop_
_atom_site_type_symbol
_atom_site_label
_atom_site_fract_x
_atom_site_fract_y
_atom_site_fract_z
Si Si1 0.075296 0.582087 0.252965
Si Si2 0.287471 0.661524 0.876943
Si Si3 0.052094 0.884388 0.052760
Si Si4 0.836662 0.014141 0.733035
Si Si5 0.307134 0.266591 0.637553
O O1 0.021148 0.590710 0.402491
O O2 0.213194 0.541105 0.256468
O O3 0.090194 0.668086 0.185155
O O4 0.961648 0.533398 0.178086
O O5 0.425018 0.621053 0.855774
O O6 0.182851 0.591081 0.863323
O O7 0.267871 0.730231 0.764964
O O8 0.288801 0.695725 0.028320
O O9 0.141374 0.952106 0.117088
O O10 0.118778 0.799124 0.052897
#
# Coordination Sequence:
#
# PCOD8249876 Si02
#       5
#     8   8   8   8   8
#     4  12  25  47  73 107 146 196 242 302 365 435
#     4  11  25  48  72 107 148 191 243 301 362 435
#     4  11  25  48  72 103 151 192 243 300 365 433
#     4  11  26  45  73 105 145 192 239 302 363 425
#     4  11  26  44  72 109 140 194 241 300 360 438
#
# _framework density 22.839423
#
# number of rings (size 3 to 8) (size 9 to 14) (size 15 to 20)
#    0.000    0.800    4.000    1.800    8.400    0.800 
#    0.000    0.000    0.000    0.000    0.000    0.000 
#    0.000    0.000    0.000    0.000    0.000    0.000 
#
# Total GULP energy -496060.703344 kJ/mol
# GULP energy per Si atom -12401.517584 kJ/mol
# Density = 2.278744 g / cm^3
# Si number density = 22.839423 Si / 1000 Ang^3
#
#
#
# Elastic Constant Matrix: (Units=GPa)
#
#
# Indices 1 2 3 4 5 6 
#
# 1 132.8559 48.3371 26.7100 0.0000 0.0000 0.0000
# 2 48.3371 117.2271 24.5476 0.0000 0.0000 0.0000
# 3 26.7100 24.5476 84.8445 0.0000 0.0000 0.0000
# 4 0.0000 0.0000 0.0000 21.8685 0.0000 0.0000
# 5 0.0000 0.0000 0.0000 0.0000 26.7652 0.0000
# 6 0.0000 0.0000 0.0000 0.0000 0.0000 35.0611
#
#
#
# Elastic Compliance Matrix: (Units=1/GPa)
#
#
# Indices 1 2 3 4 5 6 
#
# 1 0.009135 -0.003368 -0.001901 0.000000 0.000000 0.000000
# 2 -0.003368 0.010323 -0.001926 0.000000 0.000000 0.000000
# 3 -0.001901 -0.001926 0.012942 0.000000 0.000000 0.000000
# 4 0.000000 0.000000 0.000000 0.045728 0.000000 0.000000
# 5 0.000000 0.000000 0.000000 0.000000 0.037362 0.000000
# 6 0.000000 0.000000 0.000000 0.000000 0.000000 0.028522
#
#
# Mechanical properties :
#
#
# Convention : Reuss Voigt Hill
#
# Bulk Modulus (GPa) = 55.53109 59.34631 57.43870
# Shear Modulus (GPa) = 30.41264 32.42780 31.42022
#
# Velocity S-wave (km/s) = 3.65305 3.77213 3.71307
# Velocity P-wave (km/s) = 6.49303 6.70914 6.60197
#
# Compressibility (1/GPa) = 0.01800793
#
# Stress axis : x y z
#
# Youngs Moduli (GPa) = 109.47237 96.87339 77.26746
#
# Poissons Ratio (x) = 0.32632 0.14690
# Poissons Ratio (y) = 0.36876 0.14883
# Poissons Ratio (z) = 0.20812 0.18660
#
# Static dielectric constant tensor:
#      x y z
#    x 3.966380 0.000000 0.000000 
#    y 0.000000 4.418820 0.000000 
#    z 0.000000 0.000000 3.898830 
# 
# 
# High freq. dielectric constant tensor:
#      x y z
#    x 1.898480 0.000000 0.000000 
#    y 0.000000 1.929170 0.000000 
#    z 0.000000 0.000000 1.888970 
# 
# From -- ./inp_files/2124.got.cif
#   From: 2010.03.12/outbox.cif.g09.slc.cpg/sg61_2_cif.got.tgz:2124.got - 2010.04.10 19:05:03.
