data_PCOD8249705
_publ_section_title
;
Structure prediction by ZEFSAII (Michael W. Deem and Ramdas Pophale) SiO2 
 PCOD8249705
Probable space group: P B C A
;
_chemical_formula_sum "Si O2"
_cell_formula_units_Z 56
_cell_length_a 14.601467
_cell_length_b 15.063373
_cell_length_c 11.044317
_cell_angle_alpha 90.000000
_cell_angle_beta 90.000000
_cell_angle_gamma 90.000000
_cell_volume 2429.168188
_symmetry_space_group_name_H-M "P B C A"
_symmetry_group_IT_number 61
_symmetry_cell_setting 'orthorhombic'
loop_
_space_group_symop_operation_xyz
x,y,z
1/2-x,-y,1/2+z
1/2+x,1/2-y,-z
-x,1/2+y,1/2-z
-x,-y,-z
1/2+x,y,1/2-z
1/2-x,1/2+y,z
x,1/2-y,1/2+z
loop_
_atom_site_type_symbol
_atom_site_label
_atom_site_fract_x
_atom_site_fract_y
_atom_site_fract_z
Si Si1 0.063585 0.097119 0.423555
Si Si2 0.257227 0.149603 0.393879
Si Si3 0.289972 0.840956 0.381294
Si Si4 0.115944 0.561995 0.785570
Si Si5 0.431650 0.615944 0.704019
Si Si6 0.376933 0.422791 0.686821
Si Si7 0.201588 0.014997 0.059649
O O1 0.152934 0.131030 0.349293
O O2 0.080257 0.129547 0.560342
O O3 0.965109 0.129024 0.370661
O O4 0.069643 0.989983 0.401846
O O5 0.254912 0.252329 0.438809
O O6 0.328458 0.141410 0.283637
O O7 0.288629 0.081922 0.498219
O O8 0.212185 0.896979 0.315513
O O9 0.365203 0.817335 0.277461
O O10 0.340058 0.905795 0.477507
O O11 0.134660 0.495491 0.673679
O O12 0.037322 0.634545 0.755308
O O13 0.408011 0.515323 0.747837
O O14 0.303666 0.449056 0.584832
#
# Coordination Sequence:
#
# PCOD8249705 Si02
#       7
#     8   8   8   8   8   8   8
#     4  11  21  42  70  98 126 184 226 275 338 406
#     4  12  25  42  67 103 137 178 224 280 341 406
#     4  12  25  42  67 103 136 176 223 284 342 403
#     4  11  22  41  71  96 130 180 229 274 335 408
#     4  11  21  42  71  95 131 179 231 275 336 406
#     4  11  21  40  72  93 130 176 230 265 334 408
#     4  12  21  45  67  98 138 179 221 280 342 399
#
# _framework density 23.053158
#
# number of rings (size 3 to 8) (size 9 to 14) (size 15 to 20)
#    0.000    0.571    7.143    2.571    0.000    4.000 
#    0.000    1.429    0.000    0.000    0.000    0.000 
#    0.000    0.000    0.000    0.000    0.000    0.000 
#
# Total GULP energy -693887.731928 kJ/mol
# GULP energy per Si atom -12390.852356 kJ/mol
# Density = 2.300069 g / cm^3
# Si number density = 23.053158 Si / 1000 Ang^3
#
#
#
# Elastic Constant Matrix: (Units=GPa)
#
#
# Indices 1 2 3 4 5 6 
#
# 1 106.0885 -21.8622 26.7107 0.0000 0.0000 0.0000
# 2 -21.8622 74.3459 29.8965 0.0000 0.0000 0.0000
# 3 26.7107 29.8965 85.3513 0.0000 0.0000 0.0000
# 4 0.0000 0.0000 0.0000 11.6739 0.0000 0.0000
# 5 0.0000 0.0000 0.0000 0.0000 31.5076 0.0000
# 6 0.0000 0.0000 0.0000 0.0000 0.0000 12.4984
#
#
#
# Elastic Compliance Matrix: (Units=1/GPa)
#
#
# Indices 1 2 3 4 5 6 
#
# 1 0.012125 0.005926 -0.005870 0.000000 0.000000 0.000000
# 2 0.005926 0.018552 -0.008353 0.000000 0.000000 0.000000
# 3 -0.005870 -0.008353 0.016479 0.000000 0.000000 0.000000
# 4 0.000000 0.000000 0.000000 0.085661 0.000000 0.000000
# 5 0.000000 0.000000 0.000000 0.000000 0.031738 0.000000
# 6 0.000000 0.000000 0.000000 0.000000 0.000000 0.080010
#
#
# Mechanical properties :
#
#
# Convention : Reuss Voigt Hill
#
# Bulk Modulus (GPa) = 32.71981 37.25286 34.98634
# Shear Modulus (GPa) = 18.42651 26.53871 22.48261
#
# Velocity S-wave (km/s) = 2.83027 3.39661 3.12629
# Velocity P-wave (km/s) = 4.99045 5.61936 5.31422
#
# Compressibility (1/GPa) = 0.03056252
#
# Stress axis : x y z
#
# Youngs Moduli (GPa) = 82.47155 53.90166 60.68214
#
# Poissons Ratio (x) = -0.31944 0.35623
# Poissons Ratio (y) = -0.48875 0.50688
# Poissons Ratio (z) = 0.48415 0.45024
#
# Static dielectric constant tensor:
#      x y z
#    x 4.503760 0.000000 0.000000 
#    y 0.000000 3.890150 0.000000 
#    z 0.000000 0.000000 3.981360 
# 
# 
# High freq. dielectric constant tensor:
#      x y z
#    x 1.927350 0.000000 0.000000 
#    y 0.000000 1.870750 0.000000 
#    z 0.000000 0.000000 1.901370 
# 
# From -- ./inp_files/5834.got.cif
#   From: 2010.03.12/outbox.cif.g09.slc.cpg/sg61_3_cif.got.tgz:5834.got - 2010.04.10 19:05:03.
