data_PCOD8249888
_publ_section_title
;
Structure prediction by ZEFSAII (Michael W. Deem and Ramdas Pophale) SiO2 
 PCOD8249888
Probable space group: P B C A
;
_chemical_formula_sum "Si O2"
_cell_formula_units_Z 24
_cell_length_a 13.248551
_cell_length_b 7.525136
_cell_length_c 9.034954
_cell_angle_alpha 90.000000
_cell_angle_beta 90.000000
_cell_angle_gamma 90.000000
_cell_volume 900.759147
_symmetry_space_group_name_H-M "P B C A"
_symmetry_group_IT_number 61
_symmetry_cell_setting 'orthorhombic'
loop_
_space_group_symop_operation_xyz
x,y,z
1/2-x,-y,1/2+z
1/2+x,1/2-y,-z
-x,1/2+y,1/2-z
-x,-y,-z
1/2+x,y,1/2-z
1/2-x,1/2+y,z
x,1/2-y,1/2+z
loop_
_atom_site_type_symbol
_atom_site_label
_atom_site_fract_x
_atom_site_fract_y
_atom_site_fract_z
Si Si1 0.640219 0.075538 0.499837
Si Si2 0.946696 0.627896 0.193605
Si Si3 0.363329 0.169703 0.006460
O O1 0.611953 0.196284 0.639812
O O2 0.559261 0.122197 0.371207
O O3 0.751556 0.119311 0.439123
O O4 0.632748 0.872009 0.547301
O O5 0.063008 0.631843 0.144303
O O6 0.893595 0.449374 0.134369
#
# Coordination Sequence:
#
# PCOD8249888 Si02
#       3
#     8   8   8
#     4  12  27  47  79 103 153 189 245 301 364 437
#     4  11  29  48  74 111 146 194 245 301 366 434
#     4  11  27  47  72 111 147 193 240 300 366 433
#
# _framework density 26.644193000000001
#
# number of rings (size 3 to 8) (size 9 to 14) (size 15 to 20)
#    0.000    0.667    3.333    1.000   14.000    2.667 
#    0.000    0.000    0.000    0.000    0.000    0.000 
#    0.000    0.000    0.000    0.000    0.000    0.000 
#
# Total GULP energy -297868.090138 kJ/mol
# GULP energy per Si atom -12411.170422 kJ/mol
# Density = 2.658355 g / cm^3
# Si number density = 26.644193 Si / 1000 Ang^3
#
#
#
# Elastic Constant Matrix: (Units=GPa)
#
#
# Indices 1 2 3 4 5 6 
#
# 1 107.6430 1.9898 -35.5728 0.0000 0.0000 0.0000
# 2 1.9898 236.4188 25.2334 0.0000 0.0000 0.0000
# 3 -35.5728 25.2334 40.5549 0.0000 0.0000 0.0000
# 4 0.0000 0.0000 0.0000 12.7540 0.0000 0.0000
# 5 0.0000 0.0000 0.0000 0.0000 24.3545 0.0000
# 6 0.0000 0.0000 0.0000 0.0000 0.0000 31.0963
#
#
#
# Elastic Compliance Matrix: (Units=1/GPa)
#
#
# Indices 1 2 3 4 5 6 
#
# 1 0.013549 -0.001481 0.012806 0.000000 0.000000 0.000000
# 2 -0.001481 0.004693 -0.004219 0.000000 0.000000 0.000000
# 3 0.012806 -0.004219 0.038516 0.000000 0.000000 0.000000
# 4 0.000000 0.000000 0.000000 0.078407 0.000000 0.000000
# 5 0.000000 0.000000 0.000000 0.000000 0.041060 0.000000
# 6 0.000000 0.000000 0.000000 0.000000 0.000000 0.032158
#
#
# Mechanical properties :
#
#
# Convention : Reuss Voigt Hill
#
# Bulk Modulus (GPa) = 14.09016 40.87972 27.48494
# Shear Modulus (GPa) = 22.95404 39.83870 31.39637
#
# Velocity S-wave (km/s) = 2.93832 3.87099 3.43644
# Velocity P-wave (km/s) = 4.10017 5.94605 5.10720
#
# Compressibility (1/GPa) = 0.07097149
#
# Stress axis : x y z
#
# Youngs Moduli (GPa) = 73.80367 213.10549 25.96330
#
# Poissons Ratio (x) = 0.31558 -0.33250
# Poissons Ratio (y) = 0.10929 0.10953
# Poissons Ratio (z) = -0.94516 0.89902
#
# Static dielectric constant tensor:
#      x y z
#    x 5.291960 0.000000 0.000000 
#    y 0.000000 5.261240 0.000000 
#    z 0.000000 0.000000 4.173090 
# 
# 
# High freq. dielectric constant tensor:
#      x y z
#    x 2.092590 0.000000 0.000000 
#    y 0.000000 2.097690 0.000000 
#    z 0.000000 0.000000 2.046780 
# 
# From -- ./inp_files/1572.got.cif
#   From: 2010.03.12/outbox.cif.g09.slc.cpg/sg61_1_cif.got.tgz:1572.got - 2010.04.10 19:05:03.
