data_PCOD8249280
_publ_section_title
;
Structure prediction by ZEFSAII (Michael W. Deem and Ramdas Pophale) SiO2 
 PCOD8249280
Probable space group: P B C A
;
_chemical_formula_sum "Si O2"
_cell_formula_units_Z 64
_cell_length_a 7.531372
_cell_length_b 24.908993
_cell_length_c 14.299694
_cell_angle_alpha 90.000000
_cell_angle_beta 90.000000
_cell_angle_gamma 90.000000
_cell_volume 2682.606756
_symmetry_space_group_name_H-M "P B C A"
_symmetry_group_IT_number 61
_symmetry_cell_setting 'orthorhombic'
loop_
_space_group_symop_operation_xyz
x,y,z
1/2-x,-y,1/2+z
1/2+x,1/2-y,-z
-x,1/2+y,1/2-z
-x,-y,-z
1/2+x,y,1/2-z
1/2-x,1/2+y,z
x,1/2-y,1/2+z
loop_
_atom_site_type_symbol
_atom_site_label
_atom_site_fract_x
_atom_site_fract_y
_atom_site_fract_z
Si Si1 0.657550 0.687138 0.348403
Si Si2 0.652032 0.121997 0.211227
Si Si3 0.942201 0.454609 0.671488
Si Si4 0.505732 0.352784 0.340980
Si Si5 0.790147 0.519066 0.518766
Si Si6 0.823151 0.643419 0.523644
Si Si7 0.879871 0.309098 0.354355
Si Si8 0.556389 0.024590 0.857201
O O1 0.505560 0.640981 0.356763
O O2 0.752485 0.675880 0.248850
O O3 0.795196 0.678694 0.431503
O O4 0.575200 0.746149 0.348277
O O5 0.597045 0.087369 0.303847
O O6 0.771994 0.082797 0.150388
O O7 0.959156 0.487678 0.572020
O O8 0.920246 0.494874 0.758538
O O9 0.342722 0.344215 0.410025
O O10 0.669612 0.315473 0.373062
O O11 0.436046 0.338021 0.239772
O O12 0.579880 0.412889 0.337572
O O13 0.840317 0.580642 0.501320
O O14 0.634626 0.513057 0.596790
O O15 0.720484 0.493813 0.422091
O O16 0.009303 0.664053 0.563048
#
# Coordination Sequence:
#
# PCOD8249280 Si02
#       8
#     8   8   8   8   8   8   8   8
#     4  11  26  48  68 101 138 187 242 304 354 421
#     4  10  23  41  67  94 140 179 235 288 356 426
#     4  11  20  37  65  99 133 183 230 278 355 435
#     4  11  25  44  73 104 142 185 238 297 361 430
#     4  10  21  40  67  95 143 188 224 293 358 424
#     4  11  26  46  71 105 144 181 248 296 352 439
#     4  12  25  48  73 101 140 189 241 299 370 411
#     4  10  22  38  65 100 140 184 233 283 356 433
#
# _framework density 23.857391
#
# number of rings (size 3 to 8) (size 9 to 14) (size 15 to 20)
#    0.000    1.250    2.500    3.000    7.000    2.000 
#    2.250    1.875    0.000    0.000    0.000    0.000 
#    0.000    0.000    0.000    0.000    0.000    0.000 
#
# Total GULP energy -793752.148402 kJ/mol
# GULP energy per Si atom -12402.377319 kJ/mol
# Density = 2.380309 g / cm^3
# Si number density = 23.857391 Si / 1000 Ang^3
#
#
#
# Elastic Constant Matrix: (Units=GPa)
#
#
# Indices 1 2 3 4 5 6 
#
# 1 63.3957 3.8429 -9.4040 0.0000 0.0000 0.0000
# 2 3.8429 119.3533 40.0972 0.0000 0.0000 0.0000
# 3 -9.4040 40.0972 94.9479 0.0000 0.0000 0.0000
# 4 0.0000 0.0000 0.0000 32.8859 0.0000 0.0000
# 5 0.0000 0.0000 0.0000 0.0000 34.2642 0.0000
# 6 0.0000 0.0000 0.0000 0.0000 0.0000 38.4379
#
#
#
# Elastic Compliance Matrix: (Units=1/GPa)
#
#
# Indices 1 2 3 4 5 6 
#
# 1 0.016163 -0.001233 0.002122 0.000000 0.000000 0.000000
# 2 -0.001233 0.009858 -0.004285 0.000000 0.000000 0.000000
# 3 0.002122 -0.004285 0.012552 0.000000 0.000000 0.000000
# 4 0.000000 0.000000 0.000000 0.030408 0.000000 0.000000
# 5 0.000000 0.000000 0.000000 0.000000 0.029185 0.000000
# 6 0.000000 0.000000 0.000000 0.000000 0.000000 0.026016
#
#
# Mechanical properties :
#
#
# Convention : Reuss Voigt Hill
#
# Bulk Modulus (GPa) = 31.46658 38.52988 34.99823
# Shear Modulus (GPa) = 35.31848 37.32831 36.32339
#
# Velocity S-wave (km/s) = 3.85177 3.95985 3.90618
# Velocity P-wave (km/s) = 5.74453 6.09035 5.91996
#
# Compressibility (1/GPa) = 0.03177975
#
# Stress axis : x y z
#
# Youngs Moduli (GPa) = 61.86806 101.44246 79.66930
#
# Poissons Ratio (x) = 0.12510 -0.16903
# Poissons Ratio (y) = 0.07630 0.34140
# Poissons Ratio (z) = -0.13126 0.43470
#
# Static dielectric constant tensor:
#      x y z
#    x 4.684040 0.000000 0.000000 
#    y 0.000000 4.342210 0.000000 
#    z 0.000000 0.000000 4.209240 
# 
# 
# High freq. dielectric constant tensor:
#      x y z
#    x 1.966890 0.000000 0.000000 
#    y 0.000000 1.951860 0.000000 
#    z 0.000000 0.000000 1.949090 
# 
# From -- ./inp_files/7253.got.cif
#   From: 2010.03.12/outbox.cif.g09.slc.cpg/sg61_4_cif.got.tgz:7253.got - 2010.04.10 19:05:03.
