data_PCOD8249296
_publ_section_title
;
Structure prediction by ZEFSAII (Michael W. Deem and Ramdas Pophale) SiO2 
 PCOD8249296
Probable space group: P B C A
;
_chemical_formula_sum "Si O2"
_cell_formula_units_Z 64
_cell_length_a 9.015025
_cell_length_b 13.533339
_cell_length_c 21.146528
_cell_angle_alpha 90.000000
_cell_angle_beta 90.000000
_cell_angle_gamma 90.000000
_cell_volume 2579.948090
_symmetry_space_group_name_H-M "P B C A"
_symmetry_group_IT_number 61
_symmetry_cell_setting 'orthorhombic'
loop_
_space_group_symop_operation_xyz
x,y,z
1/2-x,-y,1/2+z
1/2+x,1/2-y,-z
-x,1/2+y,1/2-z
-x,-y,-z
1/2+x,y,1/2-z
1/2-x,1/2+y,z
x,1/2-y,1/2+z
loop_
_atom_site_type_symbol
_atom_site_label
_atom_site_fract_x
_atom_site_fract_y
_atom_site_fract_z
Si Si1 0.165308 0.615051 0.228842
Si Si2 0.038413 0.298745 0.681425
Si Si3 0.924439 0.911775 0.064181
Si Si4 0.789261 0.834682 0.937836
Si Si5 0.432742 0.580746 0.663881
Si Si6 0.339139 0.541820 0.419381
Si Si7 0.492434 0.225063 0.120552
Si Si8 0.245458 0.045584 0.556605
O O1 0.337542 0.641941 0.222324
O O2 0.127544 0.500202 0.214013
O O3 0.075028 0.694010 0.186962
O O4 0.113125 0.643068 0.300387
O O5 0.072177 0.304191 0.606503
O O6 0.022591 0.181679 0.699807
O O7 0.943097 0.835912 0.122634
O O8 0.082288 0.948426 0.036838
O O9 0.830485 0.004599 0.090063
O O10 0.839112 0.849250 0.009857
O O11 0.642156 0.766271 0.932324
O O12 0.722612 0.937873 0.910462
O O13 0.560099 0.536823 0.618136
O O14 0.304886 0.617324 0.613465
O O15 0.371894 0.651793 0.395827
O O16 0.361618 0.549470 0.495606
#
# Coordination Sequence:
#
# PCOD8249296 Si02
#       8
#     8   8   8   8   8   8   8   8
#     4  10  24  49  65  96 129 173 227 290 330 397
#     4  11  24  45  70  94 130 175 232 275 339 401
#     4  11  25  37  65 109 136 172 224 273 331 400
#     4  10  21  41  64  95 135 179 210 275 337 398
#     4  11  23  44  72  93 132 184 214 269 356 397
#     4  10  22  40  64  98 135 176 217 259 323 412
#     4  10  22  43  64  91 141 178 217 276 340 398
#     4  11  20  42  65  99 140 175 213 272 335 410
#
# _framework density 24.806701
#
# number of rings (size 3 to 8) (size 9 to 14) (size 15 to 20)
#    0.000    1.500    3.750    3.375    5.250    2.000 
#   13.500    0.000    0.000    0.000    0.000    0.000 
#    0.000    0.000    0.000    0.000    0.000    0.000 
#
# Total GULP energy -792881.121024 kJ/mol
# GULP energy per Si atom -12388.767516 kJ/mol
# Density = 2.475024 g / cm^3
# Si number density = 24.806701 Si / 1000 Ang^3
#
#
#
# Elastic Constant Matrix: (Units=GPa)
#
#
# Indices 1 2 3 4 5 6 
#
# 1 78.7609 -1.5358 7.2766 0.0000 0.0000 0.0000
# 2 -1.5358 53.3103 8.7998 0.0000 0.0000 0.0000
# 3 7.2766 8.7998 33.5891 0.0000 0.0000 0.0000
# 4 0.0000 0.0000 0.0000 21.0057 0.0000 0.0000
# 5 0.0000 0.0000 0.0000 0.0000 34.8144 0.0000
# 6 0.0000 0.0000 0.0000 0.0000 0.0000 27.1148
#
#
#
# Elastic Compliance Matrix: (Units=1/GPa)
#
#
# Indices 1 2 3 4 5 6 
#
# 1 0.012995 0.000877 -0.003045 0.000000 0.000000 0.000000
# 2 0.000877 0.019665 -0.005342 0.000000 0.000000 0.000000
# 3 -0.003045 -0.005342 0.031831 0.000000 0.000000 0.000000
# 4 0.000000 0.000000 0.000000 0.047606 0.000000 0.000000
# 5 0.000000 0.000000 0.000000 0.000000 0.028724 0.000000
# 6 0.000000 0.000000 0.000000 0.000000 0.000000 0.036880
#
#
# Mechanical properties :
#
#
# Convention : Reuss Voigt Hill
#
# Bulk Modulus (GPa) = 20.21380 21.63794 20.92587
# Shear Modulus (GPa) = 23.89932 26.66165 25.28049
#
# Velocity S-wave (km/s) = 3.10727 3.28193 3.19580
# Velocity P-wave (km/s) = 4.58691 4.80656 4.69802
#
# Compressibility (1/GPa) = 0.04947116
#
# Stress axis : x y z
#
# Youngs Moduli (GPa) = 76.95226 50.85139 31.41624
#
# Poissons Ratio (x) = -0.04460 0.09566
# Poissons Ratio (y) = -0.06749 0.16782
# Poissons Ratio (z) = 0.23431 0.27164
#
# Static dielectric constant tensor:
#      x y z
#    x 4.530510 0.000000 0.000000 
#    y 0.000000 4.508370 0.000000 
#    z 0.000000 0.000000 4.111270 
# 
# 
# High freq. dielectric constant tensor:
#      x y z
#    x 1.986090 0.000000 0.000000 
#    y 0.000000 1.996040 0.000000 
#    z 0.000000 0.000000 1.965060 
# 
# From -- ./inp_files/10908.got.cif
#   From: 2010.03.12/outbox.cif.g09.slc.cpg/sg61_6_cif.got.tgz:10908.got - 2010.04.10 19:05:03.
