data_PCOD8249680
_publ_section_title
;
Structure prediction by ZEFSAII (Michael W. Deem and Ramdas Pophale) SiO2 
 PCOD8249680
Probable space group: P B C A
;
_chemical_formula_sum "Si O2"
_cell_formula_units_Z 48
_cell_length_a 9.702787
_cell_length_b 19.638311
_cell_length_c 11.518283
_cell_angle_alpha 90.000000
_cell_angle_beta 90.000000
_cell_angle_gamma 90.000000
_cell_volume 2194.766769
_symmetry_space_group_name_H-M "P B C A"
_symmetry_group_IT_number 61
_symmetry_cell_setting 'orthorhombic'
loop_
_space_group_symop_operation_xyz
x,y,z
1/2-x,-y,1/2+z
1/2+x,1/2-y,-z
-x,1/2+y,1/2-z
-x,-y,-z
1/2+x,y,1/2-z
1/2-x,1/2+y,z
x,1/2-y,1/2+z
loop_
_atom_site_type_symbol
_atom_site_label
_atom_site_fract_x
_atom_site_fract_y
_atom_site_fract_z
Si Si1 0.776226 0.807192 0.990000
Si Si2 0.412887 0.318346 0.952802
Si Si3 0.242556 0.570416 0.851490
Si Si4 0.563641 0.026285 0.839257
Si Si5 0.825508 0.117418 0.265674
Si Si6 0.255853 0.560220 0.458502
O O1 0.699874 0.736922 0.010949
O O2 0.727204 0.856022 0.092841
O O3 0.744721 0.838398 0.864768
O O4 0.939931 0.795416 0.000981
O O5 0.421846 0.332039 0.812992
O O6 0.358944 0.389028 0.014474
O O7 0.340652 0.573813 0.740662
O O8 0.307349 0.516191 0.944307
O O9 0.093670 0.542427 0.812877
O O10 0.591835 0.946050 0.820599
O O11 0.602396 0.051504 0.969906
O O12 0.711260 0.088389 0.173010
#
# Coordination Sequence:
#
# PCOD8249680 Si02
#       6
#     8   8   8   8   8   8
#     4  12  26  49  71 105 143 195 237 303 354 441
#     4  10  28  44  72 101 147 190 243 291 365 436
#     4  11  26  40  73 106 142 188 240 294 363 419
#     4  11  23  42  73 105 148 179 234 302 351 436
#     4   9  24  43  73 104 142 184 237 292 368 415
#     4   9  22  44  69 107 132 187 230 301 351 429
#
# _framework density 21.870204000000001
#
# number of rings (size 3 to 8) (size 9 to 14) (size 15 to 20)
#    1.000    0.667    1.667    0.500    9.333    3.333 
#    0.000    0.000    0.000    0.000    0.000    0.000 
#    0.000    0.000    0.000    0.000    0.000    0.000 
#
# Total GULP energy -594645.630747 kJ/mol
# GULP energy per Si atom -12388.450641 kJ/mol
# Density = 2.182043 g / cm^3
# Si number density = 21.870204 Si / 1000 Ang^3
#
#
#
# Elastic Constant Matrix: (Units=GPa)
#
#
# Indices 1 2 3 4 5 6 
#
# 1 145.5263 61.5025 39.5775 0.0000 0.0000 0.0000
# 2 61.5025 89.9408 45.4229 0.0000 0.0000 0.0000
# 3 39.5775 45.4229 82.8119 0.0000 0.0000 0.0000
# 4 0.0000 0.0000 0.0000 36.9909 0.0000 0.0000
# 5 0.0000 0.0000 0.0000 0.0000 20.0248 0.0000
# 6 0.0000 0.0000 0.0000 0.0000 0.0000 26.3247
#
#
#
# Elastic Compliance Matrix: (Units=1/GPa)
#
#
# Indices 1 2 3 4 5 6 
#
# 1 0.009779 -0.005985 -0.001391 0.000000 0.000000 0.000000
# 2 -0.005985 0.019041 -0.007584 0.000000 0.000000 0.000000
# 3 -0.001391 -0.007584 0.016900 0.000000 0.000000 0.000000
# 4 0.000000 0.000000 0.000000 0.027034 0.000000 0.000000
# 5 0.000000 0.000000 0.000000 0.000000 0.049938 0.000000
# 6 0.000000 0.000000 0.000000 0.000000 0.000000 0.037987
#
#
# Mechanical properties :
#
#
# Convention : Reuss Voigt Hill
#
# Bulk Modulus (GPa) = 63.28659 67.92050 65.60354
# Shear Modulus (GPa) = 25.52779 28.11983 26.82381
#
# Velocity S-wave (km/s) = 3.42020 3.58964 3.50594
# Velocity P-wave (km/s) = 6.67811 6.95013 6.81548
#
# Compressibility (1/GPa) = 0.01580114
#
# Stress axis : x y z
#
# Youngs Moduli (GPa) = 102.25870 52.51881 59.17091
#
# Poissons Ratio (x) = 0.31430 0.08231
# Poissons Ratio (y) = 0.61197 0.44874
# Poissons Ratio (z) = 0.14225 0.39830
#
# Static dielectric constant tensor:
#      x y z
#    x 3.622080 0.000000 0.000000 
#    y 0.000000 3.964880 0.000000 
#    z 0.000000 0.000000 3.959440 
# 
# 
# High freq. dielectric constant tensor:
#      x y z
#    x 1.845950 0.000000 0.000000 
#    y 0.000000 1.858510 0.000000 
#    z 0.000000 0.000000 1.857590 
# 
# From -- ./inp_files/5233.got.cif
#   From: 2010.03.12/outbox.cif.g09.slc.cpg/sg61_3_cif.got.tgz:5233.got - 2010.04.10 19:05:03.
