data_PCOD8249892
_publ_section_title
;
Structure prediction by ZEFSAII (Michael W. Deem and Ramdas Pophale) SiO2 
 PCOD8249892
Probable space group: P B C A
;
_chemical_formula_sum "Si O2"
_cell_formula_units_Z 64
_cell_length_a 9.657313
_cell_length_b 27.387717
_cell_length_c 11.218517
_cell_angle_alpha 90.000000
_cell_angle_beta 90.000000
_cell_angle_gamma 90.000000
_cell_volume 2967.205255
_symmetry_space_group_name_H-M "P B C A"
_symmetry_group_IT_number 61
_symmetry_cell_setting 'orthorhombic'
loop_
_space_group_symop_operation_xyz
x,y,z
1/2-x,-y,1/2+z
1/2+x,1/2-y,-z
-x,1/2+y,1/2-z
-x,-y,-z
1/2+x,y,1/2-z
1/2-x,1/2+y,z
x,1/2-y,1/2+z
loop_
_atom_site_type_symbol
_atom_site_label
_atom_site_fract_x
_atom_site_fract_y
_atom_site_fract_z
Si Si1 0.223400 0.054455 0.991831
Si Si2 0.270311 0.402588 0.726032
Si Si3 0.964306 0.103480 0.882783
Si Si4 0.596827 0.800125 0.515721
Si Si5 0.276940 0.944025 0.984654
Si Si6 0.019242 0.605734 0.896969
Si Si7 0.918718 0.704767 0.013672
Si Si8 0.017608 0.341491 0.746843
O O1 0.070331 0.070922 0.958205
O O2 0.322555 0.094282 0.929742
O O3 0.251818 0.999786 0.948748
O O4 0.240771 0.052868 0.135863
O O5 0.248738 0.413904 0.864353
O O6 0.159730 0.360751 0.689140
O O7 0.427152 0.385763 0.696898
O O8 0.000708 0.101018 0.744252
O O9 0.961475 0.160080 0.922597
O O10 0.818601 0.077713 0.910784
O O11 0.500951 0.752990 0.518403
O O12 0.756102 0.787697 0.485982
O O13 0.586889 0.819990 0.649527
O O14 0.430839 0.935365 0.033512
O O15 0.975914 0.659934 0.936032
O O16 0.944111 0.697574 0.153464
#
# Coordination Sequence:
#
# PCOD8249892 Si02
#       8
#     8   8   8   8   8   8   8   8
#     4  12  27  42  77 108 133 194 241 283 350 420
#     4  12  22  44  76  96 140 188 240 294 342 410
#     4  12  26  48  69 102 151 185 229 293 354 420
#     4  12  28  48  73 105 140 186 235 293 359 423
#     4  12  25  50  67 106 145 188 237 293 350 406
#     4  12  26  48  69 102 151 185 229 293 354 420
#     4  12  28  48  73 105 140 186 235 293 359 423
#     4  12  22  48  70 100 140 182 236 300 348 412
#
# _framework density 21.569119000000001
#
# number of rings (size 3 to 8) (size 9 to 14) (size 15 to 20)
#    0.000    0.000    7.500    1.500    8.750    0.000 
#    0.000    0.000    0.000    0.000    0.000    0.000 
#    0.000    0.000    0.000    0.000    0.000    0.000 
#
# Total GULP energy -793835.691029 kJ/mol
# GULP energy per Si atom -12403.682672 kJ/mol
# Density = 2.152003 g / cm^3
# Si number density = 21.569119 Si / 1000 Ang^3
#
#
#
# Elastic Constant Matrix: (Units=GPa)
#
#
# Indices 1 2 3 4 5 6 
#
# 1 87.6072 31.7542 16.6498 0.0000 0.0000 0.0000
# 2 31.7542 104.3986 23.2869 0.0000 0.0000 0.0000
# 3 16.6498 23.2869 97.2662 0.0000 0.0000 0.0000
# 4 0.0000 0.0000 0.0000 17.7113 0.0000 0.0000
# 5 0.0000 0.0000 0.0000 0.0000 32.2764 0.0000
# 6 0.0000 0.0000 0.0000 0.0000 0.0000 38.1332
#
#
#
# Elastic Compliance Matrix: (Units=1/GPa)
#
#
# Indices 1 2 3 4 5 6 
#
# 1 0.012995 -0.003651 -0.001350 0.000000 0.000000 0.000000
# 2 -0.003651 0.011145 -0.002043 0.000000 0.000000 0.000000
# 3 -0.001350 -0.002043 0.011001 0.000000 0.000000 0.000000
# 4 0.000000 0.000000 0.000000 0.056461 0.000000 0.000000
# 5 0.000000 0.000000 0.000000 0.000000 0.030982 0.000000
# 6 0.000000 0.000000 0.000000 0.000000 0.000000 0.026224
#
#
# Mechanical properties :
#
#
# Convention : Reuss Voigt Hill
#
# Bulk Modulus (GPa) = 47.50257 48.07263 47.78760
# Shear Modulus (GPa) = 29.42646 32.12961 30.77804
#
# Velocity S-wave (km/s) = 3.69763 3.86374 3.78160
# Velocity P-wave (km/s) = 6.34832 6.49928 6.42425
#
# Compressibility (1/GPa) = 0.02105149
#
# Stress axis : x y z
#
# Youngs Moduli (GPa) = 76.95473 89.72615 90.89779
#
# Poissons Ratio (x) = 0.32762 0.12273
# Poissons Ratio (y) = 0.28099 0.18573
# Poissons Ratio (z) = 0.10391 0.18333
#
# Static dielectric constant tensor:
#      x y z
#    x 4.042730 0.000000 0.000000 
#    y 0.000000 3.788140 0.000000 
#    z 0.000000 0.000000 3.941060 
# 
# 
# High freq. dielectric constant tensor:
#      x y z
#    x 1.866780 0.000000 0.000000 
#    y 0.000000 1.838800 0.000000 
#    z 0.000000 0.000000 1.854760 
# 
# From -- ./inp_files/4971.got.cif
#   From: 2010.03.12/outbox.cif.g09.slc.cpg/sg61_3_cif.got.tgz:4971.got - 2010.04.10 19:05:03.
