data_PCOD8249789
_publ_section_title
;
Structure prediction by ZEFSAII (Michael W. Deem and Ramdas Pophale) SiO2 
 PCOD8249789
Probable space group: P B C A
;
_chemical_formula_sum "Si O2"
_cell_formula_units_Z 64
_cell_length_a 18.441482
_cell_length_b 17.385557
_cell_length_c 9.324459
_cell_angle_alpha 90.000000
_cell_angle_beta 90.000000
_cell_angle_gamma 90.000000
_cell_volume 2989.565492
_symmetry_space_group_name_H-M "P B C A"
_symmetry_group_IT_number 61
_symmetry_cell_setting 'orthorhombic'
loop_
_space_group_symop_operation_xyz
x,y,z
1/2-x,-y,1/2+z
1/2+x,1/2-y,-z
-x,1/2+y,1/2-z
-x,-y,-z
1/2+x,y,1/2-z
1/2-x,1/2+y,z
x,1/2-y,1/2+z
loop_
_atom_site_type_symbol
_atom_site_label
_atom_site_fract_x
_atom_site_fract_y
_atom_site_fract_z
Si Si1 0.589697 0.870683 0.598619
Si Si2 0.813862 0.920858 0.793474
Si Si3 0.343626 0.581024 0.523834
Si Si4 0.845351 0.090073 0.381017
Si Si5 0.807412 0.094935 0.849497
Si Si6 0.071271 0.163050 0.029414
Si Si7 0.610032 0.806576 0.132557
Si Si8 0.945781 0.817817 0.301324
O O1 0.601706 0.918103 0.744634
O O2 0.636320 0.912151 0.478396
O O3 0.506132 0.875984 0.555698
O O4 0.618406 0.784225 0.618692
O O5 0.844623 0.890946 0.641276
O O6 0.734980 0.885840 0.828706
O O7 0.867470 0.896846 0.921508
O O8 0.806422 0.012223 0.775042
O O9 0.343902 0.488737 0.530557
O O10 0.272205 0.616796 0.595964
O O11 0.413284 0.611894 0.608062
O O12 0.879386 0.157834 0.475917
O O13 0.828666 0.161073 0.737796
O O14 0.079321 0.239562 0.123369
O O15 0.082251 0.181858 0.861960
O O16 0.532066 0.828152 0.197615
#
# Coordination Sequence:
#
# PCOD8249789 Si02
#       8
#     8   8   8   8   8   8   8   8
#     4  11  24  43  67  95 131 172 220 272 323 391
#     4  11  25  44  67  97 136 174 218 270 329 391
#     4  11  25  44  67  96 137 174 217 273 327 392
#     4  11  25  43  69  98 131 174 222 270 331 384
#     4  11  23  45  67  95 133 169 221 271 326 386
#     4  11  26  44  67  96 135 174 217 274 330 391
#     4  11  24  43  67  98 131 171 220 274 324 394
#     4  11  26  44  67  97 134 174 218 271 332 387
#
# _framework density 21.407793000000002
#
# number of rings (size 3 to 8) (size 9 to 14) (size 15 to 20)
#    0.000    1.000    3.750    1.500   10.500    4.000 
#    0.000    0.000    0.000    0.000    0.000    0.000 
#    0.000    0.000    0.000    0.000    0.000    0.000 
#
# Total GULP energy -794032.805353 kJ/mol
# GULP energy per Si atom -12406.762584 kJ/mol
# Density = 2.135907 g / cm^3
# Si number density = 21.407793 Si / 1000 Ang^3
#
#
#
# Elastic Constant Matrix: (Units=GPa)
#
#
# Indices 1 2 3 4 5 6 
#
# 1 59.6320 25.0764 11.0700 0.0000 0.0000 0.0000
# 2 25.0764 39.9883 4.1114 0.0000 0.0000 0.0000
# 3 11.0700 4.1114 122.8927 0.0000 0.0000 0.0000
# 4 0.0000 0.0000 0.0000 34.6906 0.0000 0.0000
# 5 0.0000 0.0000 0.0000 0.0000 39.4489 0.0000
# 6 0.0000 0.0000 0.0000 0.0000 0.0000 31.8992
#
#
#
# Elastic Compliance Matrix: (Units=1/GPa)
#
#
# Indices 1 2 3 4 5 6 
#
# 1 0.023085 -0.014312 -0.001601 0.000000 0.000000 0.000000
# 2 -0.014312 0.033967 0.000153 0.000000 0.000000 0.000000
# 3 -0.001601 0.000153 0.008276 0.000000 0.000000 0.000000
# 4 0.000000 0.000000 0.000000 0.028826 0.000000 0.000000
# 5 0.000000 0.000000 0.000000 0.000000 0.025349 0.000000
# 6 0.000000 0.000000 0.000000 0.000000 0.000000 0.031349
#
#
# Mechanical properties :
#
#
# Convention : Reuss Voigt Hill
#
# Bulk Modulus (GPa) = 29.57851 33.66986 31.62418
# Shear Modulus (GPa) = 25.82094 33.35808 29.58951
#
# Velocity S-wave (km/s) = 3.47673 3.95171 3.72181
# Velocity P-wave (km/s) = 5.47390 6.04842 5.76832
#
# Compressibility (1/GPa) = 0.03380833
#
# Stress axis : x y z
#
# Youngs Moduli (GPa) = 43.31793 29.44073 120.82764
#
# Poissons Ratio (x) = 0.42135 0.19340
# Poissons Ratio (y) = 0.61996 -0.01847
# Poissons Ratio (z) = 0.06934 -0.00450
#
# Static dielectric constant tensor:
#      x y z
#    x 3.909880 0.000000 0.000000 
#    y 0.000000 3.647580 0.000000 
#    z 0.000000 0.000000 3.995400 
# 
# 
# High freq. dielectric constant tensor:
#      x y z
#    x 1.842440 0.000000 0.000000 
#    y 0.000000 1.831530 0.000000 
#    z 0.000000 0.000000 1.859620 
# 
# From -- ./inp_files/4082.got.cif
#   From: 2010.03.12/outbox.cif.g09.slc.cpg/sg61_3_cif.got.tgz:4082.got - 2010.04.10 19:05:03.
