data_PCOD8249494
_publ_section_title
;
Structure prediction by ZEFSAII (Michael W. Deem and Ramdas Pophale) SiO2 
 PCOD8249494
Probable space group: P B C A
;
_chemical_formula_sum "Si O2"
_cell_formula_units_Z 56
_cell_length_a 22.477619
_cell_length_b 10.897220
_cell_length_c 11.011243
_cell_angle_alpha 90.000000
_cell_angle_beta 90.000000
_cell_angle_gamma 90.000000
_cell_volume 2697.133053
_symmetry_space_group_name_H-M "P B C A"
_symmetry_group_IT_number 61
_symmetry_cell_setting 'orthorhombic'
loop_
_space_group_symop_operation_xyz
x,y,z
1/2-x,-y,1/2+z
1/2+x,1/2-y,-z
-x,1/2+y,1/2-z
-x,-y,-z
1/2+x,y,1/2-z
1/2-x,1/2+y,z
x,1/2-y,1/2+z
loop_
_atom_site_type_symbol
_atom_site_label
_atom_site_fract_x
_atom_site_fract_y
_atom_site_fract_z
Si Si1 0.084920 0.637238 0.315431
Si Si2 0.050870 0.337582 0.680655
Si Si3 0.168113 0.639105 0.765642
Si Si4 0.201580 0.177023 0.837522
Si Si5 0.607279 0.088834 0.833932
Si Si6 0.125902 0.086950 0.387771
Si Si7 0.642681 0.013054 0.472035
O O1 0.117034 0.757995 0.263412
O O2 0.081163 0.541536 0.204894
O O3 0.118339 0.585001 0.432332
O O4 0.017639 0.661457 0.356395
O O5 0.065499 0.197209 0.713957
O O6 0.066751 0.411368 0.803706
O O7 0.090033 0.395656 0.571330
O O8 0.230567 0.700615 0.800131
O O9 0.156024 0.545171 0.874560
O O10 0.170943 0.564097 0.638545
O O11 0.172360 0.103153 0.725550
O O12 0.173208 0.311034 0.847376
O O13 0.192409 0.098832 0.962292
O O14 0.606879 0.103876 0.976219
#
# Coordination Sequence:
#
# PCOD8249494 Si02
#       7
#     8   8   8   8   8   8   8
#     4  11  26  42  68 102 135 175 220 277 338 392
#     4  10  22  44  70  95 133 177 226 271 334 397
#     4  11  27  41  67 101 134 170 223 276 332 395
#     4  10  23  44  68  94 129 177 223 268 334 398
#     4  10  23  42  66  95 129 178 219 271 334 388
#     4  10  23  44  65  97 128 175 225 272 326 397
#     4  10  23  47  65 101 134 180 218 277 338 385
#
# _framework density 20.762788
#
# number of rings (size 3 to 8) (size 9 to 14) (size 15 to 20)
#    0.000    1.714    1.429    0.429   12.000    1.714 
#    0.000    0.000    0.000    0.000    0.000    0.000 
#    0.000    0.000    0.000    0.000    0.000    0.000 
#
# Total GULP energy -694376.304551 kJ/mol
# GULP energy per Si atom -12399.576867 kJ/mol
# Density = 2.071553 g / cm^3
# Si number density = 20.762788 Si / 1000 Ang^3
#
#
#
# Elastic Constant Matrix: (Units=GPa)
#
#
# Indices 1 2 3 4 5 6 
#
# 1 109.8322 30.1353 18.1328 0.0000 0.0000 0.0000
# 2 30.1353 114.4016 14.6527 0.0000 0.0000 0.0000
# 3 18.1328 14.6527 85.4729 0.0000 0.0000 0.0000
# 4 0.0000 0.0000 0.0000 24.3194 0.0000 0.0000
# 5 0.0000 0.0000 0.0000 0.0000 18.1679 0.0000
# 6 0.0000 0.0000 0.0000 0.0000 0.0000 22.1816
#
#
#
# Elastic Compliance Matrix: (Units=1/GPa)
#
#
# Indices 1 2 3 4 5 6 
#
# 1 0.010055 -0.002429 -0.001717 0.000000 0.000000 0.000000
# 2 -0.002429 0.009524 -0.001117 0.000000 0.000000 0.000000
# 3 -0.001717 -0.001117 0.012255 0.000000 0.000000 0.000000
# 4 0.000000 0.000000 0.000000 0.041119 0.000000 0.000000
# 5 0.000000 0.000000 0.000000 0.000000 0.055042 0.000000
# 6 0.000000 0.000000 0.000000 0.000000 0.000000 0.045082
#
#
# Mechanical properties :
#
#
# Convention : Reuss Voigt Hill
#
# Bulk Modulus (GPa) = 46.93008 48.39425 47.66216
# Shear Modulus (GPa) = 26.21831 29.38617 27.80224
#
# Velocity S-wave (km/s) = 3.55738 3.76617 3.66326
# Velocity P-wave (km/s) = 6.28692 6.50160 6.39516
#
# Compressibility (1/GPa) = 0.02130829
#
# Stress axis : x y z
#
# Youngs Moduli (GPa) = 99.45712 104.99771 81.59681
#
# Poissons Ratio (x) = 0.25500 0.14008
# Poissons Ratio (y) = 0.24155 0.09118
# Poissons Ratio (z) = 0.17074 0.11733
#
# Static dielectric constant tensor:
#      x y z
#    x 3.562200 0.000000 0.000000 
#    y 0.000000 3.909960 0.000000 
#    z 0.000000 0.000000 3.775450 
# 
# 
# High freq. dielectric constant tensor:
#      x y z
#    x 1.797840 0.000000 0.000000 
#    y 0.000000 1.826150 0.000000 
#    z 0.000000 0.000000 1.817220 
# 
# From -- ./inp_files/6448.got.cif
#   From: 2010.03.12/outbox.cif.g09.slc.cpg/sg61_4_cif.got.tgz:6448.got - 2010.04.10 19:05:03.
