data_PCOD8249376
_publ_section_title
;
Structure prediction by ZEFSAII (Michael W. Deem and Ramdas Pophale) SiO2 
 PCOD8249376
Probable space group: P B C A
;
_chemical_formula_sum "Si O2"
_cell_formula_units_Z 40
_cell_length_a 23.705171
_cell_length_b 15.469091
_cell_length_c 5.068311
_cell_angle_alpha 90.000000
_cell_angle_beta 90.000000
_cell_angle_gamma 90.000000
_cell_volume 1858.536706
_symmetry_space_group_name_H-M "P B C A"
_symmetry_group_IT_number 61
_symmetry_cell_setting 'orthorhombic'
loop_
_space_group_symop_operation_xyz
x,y,z
1/2-x,-y,1/2+z
1/2+x,1/2-y,-z
-x,1/2+y,1/2-z
-x,-y,-z
1/2+x,y,1/2-z
1/2-x,1/2+y,z
x,1/2-y,1/2+z
loop_
_atom_site_type_symbol
_atom_site_label
_atom_site_fract_x
_atom_site_fract_y
_atom_site_fract_z
Si Si1 0.374636 0.936556 0.503147
Si Si2 0.280561 0.467459 0.297044
Si Si3 0.034003 0.309927 0.706392
Si Si4 0.717640 0.307519 0.203934
Si Si5 0.467958 0.465131 0.752469
O O1 0.417346 0.882617 0.688271
O O2 0.334757 0.870992 0.346895
O O3 0.341321 0.000763 0.699961
O O4 0.404515 0.998000 0.281859
O O5 0.232633 0.491853 0.081379
O O6 0.275656 0.362878 0.326153
O O7 0.040620 0.249133 0.457950
O O8 0.973652 0.360115 0.733629
O O9 0.714986 0.271416 0.499951
O O10 0.500000 0.500000 0.500000
O O11 0.500000 0.500000 0.000000
#
# Coordination Sequence:
#
# PCOD8249376 Si02
#       5
#     8   8   8   8   8
#     4  10  22  40  64  86 118 166 204 238 302 374
#     4  10  22  39  58  86 121 157 195 241 298 364
#     4  11  22  38  60  91 119 148 196 255 296 340
#     4  11  22  38  60  91 119 148 196 255 296 340
#     4  10  22  39  58  86 121 157 196 243 300 364
#
# _framework density 21.522309
#
# number of rings (size 3 to 8) (size 9 to 14) (size 15 to 20)
#    0.000    1.600    0.000    6.000    0.000   12.800 
#    0.000    2.000    0.000    0.000    0.000    0.000 
#    0.000    0.000    0.000    0.000    0.000    0.000 
#
# Total GULP energy -495711.808108 kJ/mol
# GULP energy per Si atom -12392.795203 kJ/mol
# Density = 2.147332 g / cm^3
# Si number density = 21.522309 Si / 1000 Ang^3
#
#
#
# Elastic Constant Matrix: (Units=GPa)
#
#
# Indices 1 2 3 4 5 6 
#
# 1 51.1127 76.0544 11.2802 0.0000 0.0000 0.0000
# 2 76.0544 122.3100 25.9632 0.0000 0.0000 0.0000
# 3 11.2802 25.9632 102.8756 0.0000 0.0000 0.0000
# 4 0.0000 0.0000 0.0000 30.0952 0.0000 0.0000
# 5 0.0000 0.0000 0.0000 0.0000 27.5454 0.0000
# 6 0.0000 0.0000 0.0000 0.0000 0.0000 50.4278
#
#
#
# Elastic Compliance Matrix: (Units=1/GPa)
#
#
# Indices 1 2 3 4 5 6 
#
# 1 0.279500 -0.176761 0.013963 0.000000 0.000000 0.000000
# 2 -0.176761 0.120426 -0.011011 0.000000 0.000000 0.000000
# 3 0.013963 -0.011011 0.010968 0.000000 0.000000 0.000000
# 4 0.000000 0.000000 0.000000 0.033228 0.000000 0.000000
# 5 0.000000 0.000000 0.000000 0.000000 0.036304 0.000000
# 6 0.000000 0.000000 0.000000 0.000000 0.000000 0.019830
#
#
# Mechanical properties :
#
#
# Convention : Reuss Voigt Hill
#
# Bulk Modulus (GPa) = 15.80372 55.87708 35.84040
# Shear Modulus (GPa) = 5.75396 32.48040 19.11718
#
# Velocity S-wave (km/s) = 1.63685 3.88899 2.98358
# Velocity P-wave (km/s) = 3.30625 6.79591 5.34396
#
# Compressibility (1/GPa) = 0.06327625
#
# Stress axis : x y z
#
# Youngs Moduli (GPa) = 3.57782 8.30382 91.17185
#
# Poissons Ratio (x) = 1.46780 -1.27307
# Poissons Ratio (y) = 0.63242 1.00389
# Poissons Ratio (z) = -0.04996 0.09143
#
# Static dielectric constant tensor:
#      x y z
#    x 4.612530 0.000000 0.000000 
#    y 0.000000 37.390640 0.000000 
#    z 0.000000 0.000000 3.915810 
# 
# 
# High freq. dielectric constant tensor:
#      x y z
#    x 1.819140 0.000000 0.000000 
#    y 0.000000 1.855220 0.000000 
#    z 0.000000 0.000000 1.864070 
# 
# From -- ./inp_files/1302.got.cif
#   From: 2010.03.12/outbox.cif.g09.slc.cpg/sg61_1_cif.got.tgz:1302.got - 2010.04.10 19:05:03.
