data_PCOD8249137
_publ_section_title
;
Structure prediction by ZEFSAII (Michael W. Deem and Ramdas Pophale) SiO2 
 PCOD8249137
Probable space group: P B C A
;
_chemical_formula_sum "Si O2"
_cell_formula_units_Z 40
_cell_length_a 8.883034
_cell_length_b 14.322825
_cell_length_c 15.458308
_cell_angle_alpha 90.000000
_cell_angle_beta 90.000000
_cell_angle_gamma 90.000000
_cell_volume 1966.762713
_symmetry_space_group_name_H-M "P B C A"
_symmetry_group_IT_number 61
_symmetry_cell_setting 'orthorhombic'
loop_
_space_group_symop_operation_xyz
x,y,z
1/2-x,-y,1/2+z
1/2+x,1/2-y,-z
-x,1/2+y,1/2-z
-x,-y,-z
1/2+x,y,1/2-z
1/2-x,1/2+y,z
x,1/2-y,1/2+z
loop_
_atom_site_type_symbol
_atom_site_label
_atom_site_fract_x
_atom_site_fract_y
_atom_site_fract_z
Si Si1 0.767363 0.779992 0.862368
Si Si2 0.505981 0.868732 0.755546
Si Si3 0.851122 0.611677 0.964802
Si Si4 0.250446 0.949654 0.864483
Si Si5 0.319396 0.409670 0.496635
O O1 0.609181 0.806511 0.818563
O O2 0.770046 0.671298 0.889918
O O3 0.789639 0.840794 0.950373
O O4 0.904454 0.796403 0.797553
O O5 0.401005 0.940479 0.807241
O O6 0.602391 0.932383 0.690828
O O7 0.850851 0.500677 0.941360
O O8 0.763282 0.625366 0.056532
O O9 0.024695 0.643576 0.975687
O O10 0.243700 0.054233 0.906559
#
# Coordination Sequence:
#
# PCOD8249137 Si02
#       5
#     8   8   8   8   8
#     4  11  21  38  63  81 124 152 197 239 300 340
#     4  10  21  35  58  92 119 153 183 261 294 337
#     4   9  19  36  64  82 113 155 199 236 278 363
#     4   9  19  38  61  80 122 150 197 234 302 335
#     4   9  19  40  62  84 109 160 199 238 280 359
#
# _framework density 20.337990999999999
#
# number of rings (size 3 to 8) (size 9 to 14) (size 15 to 20)
#    1.200    1.200    2.000    0.000    2.800    0.800 
#    0.000    8.000    0.000    0.000    0.000    0.000 
#    0.000    0.000    0.000    0.000    0.000    0.000 
#
# Total GULP energy -495660.338338 kJ/mol
# GULP energy per Si atom -12391.508458 kJ/mol
# Density = 2.029170 g / cm^3
# Si number density = 20.337991 Si / 1000 Ang^3
#
#
#
# Elastic Constant Matrix: (Units=GPa)
#
#
# Indices 1 2 3 4 5 6 
#
# 1 74.8625 13.9408 25.9075 0.0000 0.0000 0.0000
# 2 13.9408 54.8116 18.3656 0.0000 0.0000 0.0000
# 3 25.9075 18.3656 76.9244 0.0000 0.0000 0.0000
# 4 0.0000 0.0000 0.0000 22.1242 0.0000 0.0000
# 5 0.0000 0.0000 0.0000 0.0000 27.9667 0.0000
# 6 0.0000 0.0000 0.0000 0.0000 0.0000 16.7430
#
#
#
# Elastic Compliance Matrix: (Units=1/GPa)
#
#
# Indices 1 2 3 4 5 6 
#
# 1 0.015398 -0.002368 -0.004620 0.000000 0.000000 0.000000
# 2 -0.002368 0.020195 -0.004024 0.000000 0.000000 0.000000
# 3 -0.004620 -0.004024 0.015517 0.000000 0.000000 0.000000
# 4 0.000000 0.000000 0.000000 0.045199 0.000000 0.000000
# 5 0.000000 0.000000 0.000000 0.000000 0.035757 0.000000
# 6 0.000000 0.000000 0.000000 0.000000 0.000000 0.059727
#
#
# Mechanical properties :
#
#
# Convention : Reuss Voigt Hill
#
# Bulk Modulus (GPa) = 34.38282 35.89181 35.13732
# Shear Modulus (GPa) = 22.37017 23.25908 22.81462
#
# Velocity S-wave (km/s) = 3.32010 3.38542 3.35292
# Velocity P-wave (km/s) = 5.62493 5.74173 5.68363
#
# Compressibility (1/GPa) = 0.02908429
#
# Stress axis : x y z
#
# Youngs Moduli (GPa) = 64.94430 49.51740 64.44696
#
# Poissons Ratio (x) = 0.11726 0.29778
# Poissons Ratio (y) = 0.15379 0.25933
# Poissons Ratio (z) = 0.30007 0.19926
#
# Static dielectric constant tensor:
#      x y z
#    x 3.546670 0.000000 0.000000 
#    y 0.000000 3.227860 0.000000 
#    z 0.000000 0.000000 3.798910 
# 
# 
# High freq. dielectric constant tensor:
#      x y z
#    x 1.786570 0.000000 0.000000 
#    y 0.000000 1.758300 0.000000 
#    z 0.000000 0.000000 1.797820 
# 
# From -- ./inp_files/8846.got.cif
#   From: 2010.03.12/outbox.cif.g09.slc.cpg/sg61_5_cif.got.tgz:8846.got - 2010.04.10 19:05:03.
