data_PCOD8249625
_publ_section_title
;
Structure prediction by ZEFSAII (Michael W. Deem and Ramdas Pophale) SiO2 
 PCOD8249625
Probable space group: P B C A
;
_chemical_formula_sum "Si O2"
_cell_formula_units_Z 40
_cell_length_a 7.479753
_cell_length_b 13.810718
_cell_length_c 17.536459
_cell_angle_alpha 90.000000
_cell_angle_beta 90.000000
_cell_angle_gamma 90.000000
_cell_volume 1811.529532
_symmetry_space_group_name_H-M "P B C A"
_symmetry_group_IT_number 61
_symmetry_cell_setting 'orthorhombic'
loop_
_space_group_symop_operation_xyz
x,y,z
1/2-x,-y,1/2+z
1/2+x,1/2-y,-z
-x,1/2+y,1/2-z
-x,-y,-z
1/2+x,y,1/2-z
1/2-x,1/2+y,z
x,1/2-y,1/2+z
loop_
_atom_site_type_symbol
_atom_site_label
_atom_site_fract_x
_atom_site_fract_y
_atom_site_fract_z
Si Si1 0.775898 0.562405 0.199362
Si Si2 0.100021 0.235861 0.817233
Si Si3 0.915716 0.569094 0.808858
Si Si4 0.898072 0.192116 0.088201
Si Si5 0.237449 0.796609 0.080615
O O1 0.891220 0.658163 0.223132
O O2 0.680692 0.524869 0.274862
O O3 0.634009 0.590355 0.132533
O O4 0.891269 0.471900 0.167225
O O5 0.071694 0.154654 0.753870
O O6 0.285569 0.223556 0.865905
O O7 0.932634 0.240926 0.873565
O O8 0.810560 0.603903 0.883188
O O9 0.106550 0.216412 0.084743
O O10 0.815333 0.180500 0.005002
#
# Coordination Sequence:
#
# PCOD8249625 Si02
#       5
#     8   8   8   8   8
#     4  10  26  42  69 106 138 187 238 284 361 413
#     4  10  25  45  71 103 142 186 232 296 347 418
#     4  12  24  44  72 104 143 185 240 293 352 422
#     4  10  24  44  73 101 143 188 235 285 359 422
#     4  12  23  47  75 103 143 189 233 294 353 419
#
# _framework density 22.080788999999999
#
# number of rings (size 3 to 8) (size 9 to 14) (size 15 to 20)
#    1.200    0.000    4.000    1.200    5.600    0.800 
#    0.000    1.000    0.000    0.000    0.000    0.000 
#    0.000    0.000    0.000    0.000    0.000    0.000 
#
# Total GULP energy -495715.738936 kJ/mol
# GULP energy per Si atom -12392.893473 kJ/mol
# Density = 2.203053 g / cm^3
# Si number density = 22.080789 Si / 1000 Ang^3
#
#
#
# Elastic Constant Matrix: (Units=GPa)
#
#
# Indices 1 2 3 4 5 6 
#
# 1 43.8022 -7.4450 -13.5617 0.0000 0.0000 0.0000
# 2 -7.4450 98.0351 33.2913 0.0000 0.0000 0.0000
# 3 -13.5617 33.2913 44.5330 0.0000 0.0000 0.0000
# 4 0.0000 0.0000 0.0000 28.9612 0.0000 0.0000
# 5 0.0000 0.0000 0.0000 0.0000 19.0841 0.0000
# 6 0.0000 0.0000 0.0000 0.0000 0.0000 36.6272
#
#
#
# Elastic Compliance Matrix: (Units=1/GPa)
#
#
# Indices 1 2 3 4 5 6 
#
# 1 0.025270 -0.000930 0.008391 0.000000 0.000000 0.000000
# 2 -0.000930 0.013705 -0.010529 0.000000 0.000000 0.000000
# 3 0.008391 -0.010529 0.032882 0.000000 0.000000 0.000000
# 4 0.000000 0.000000 0.000000 0.034529 0.000000 0.000000
# 5 0.000000 0.000000 0.000000 0.000000 0.052400 0.000000
# 6 0.000000 0.000000 0.000000 0.000000 0.000000 0.027302
#
#
# Mechanical properties :
#
#
# Convention : Reuss Voigt Hill
#
# Bulk Modulus (GPa) = 15.21609 23.43772 19.32690
# Shear Modulus (GPa) = 23.35025 28.54024 25.94524
#
# Velocity S-wave (km/s) = 3.25544 3.59909 3.43157
# Velocity P-wave (km/s) = 4.58656 5.28288 4.94699
#
# Compressibility (1/GPa) = 0.06571993
#
# Stress axis : x y z
#
# Youngs Moduli (GPa) = 39.57307 72.96480 30.41208
#
# Poissons Ratio (x) = 0.06789 -0.25519
# Poissons Ratio (y) = 0.03682 0.32021
# Poissons Ratio (z) = -0.33206 0.76824
#
# Static dielectric constant tensor:
#      x y z
#    x 4.272990 0.000000 0.000000 
#    y 0.000000 3.849620 0.000000 
#    z 0.000000 0.000000 3.938480 
# 
# 
# High freq. dielectric constant tensor:
#      x y z
#    x 1.887770 0.000000 0.000000 
#    y 0.000000 1.859770 0.000000 
#    z 0.000000 0.000000 1.857750 
# 
# From -- ./inp_files/10062.got.cif
#   From: 2010.03.12/outbox.cif.g09.slc.cpg/sg61_6_cif.got.tgz:10062.got - 2010.04.10 19:05:03.
