data_PCOD8249147
_publ_section_title
;
Structure prediction by ZEFSAII (Michael W. Deem and Ramdas Pophale) SiO2 
 PCOD8249147
Probable space group: P B C A
;
_chemical_formula_sum "Si O2"
_cell_formula_units_Z 56
_cell_length_a 21.941131
_cell_length_b 12.475646
_cell_length_c 9.794253
_cell_angle_alpha 90.000000
_cell_angle_beta 90.000000
_cell_angle_gamma 90.000000
_cell_volume 2680.978750
_symmetry_space_group_name_H-M "P B C A"
_symmetry_group_IT_number 61
_symmetry_cell_setting 'orthorhombic'
loop_
_space_group_symop_operation_xyz
x,y,z
1/2-x,-y,1/2+z
1/2+x,1/2-y,-z
-x,1/2+y,1/2-z
-x,-y,-z
1/2+x,y,1/2-z
1/2-x,1/2+y,z
x,1/2-y,1/2+z
loop_
_atom_site_type_symbol
_atom_site_label
_atom_site_fract_x
_atom_site_fract_y
_atom_site_fract_z
Si Si1 0.941120 0.587909 0.148276
Si Si2 0.786093 0.734998 0.831884
Si Si3 0.260274 0.451897 0.996892
Si Si4 0.130789 0.064169 0.092059
Si Si5 0.300711 0.093858 0.205819
Si Si6 0.073937 0.505794 0.135249
Si Si7 0.397328 0.671194 0.828011
O O1 0.913919 0.534950 0.284613
O O2 0.925405 0.713142 0.143792
O O3 0.013666 0.576622 0.147308
O O4 0.911485 0.523213 0.022172
O O5 0.773170 0.657981 0.960471
O O6 0.827566 0.833365 0.877095
O O7 0.720370 0.781470 0.781757
O O8 0.824865 0.673966 0.713951
O O9 0.328172 0.459441 0.061828
O O10 0.221042 0.548412 0.059857
O O11 0.266242 0.464452 0.833194
O O12 0.092239 0.097275 0.959838
O O13 0.373338 0.077098 0.207758
O O14 0.066318 0.390050 0.207984
#
# Coordination Sequence:
#
# PCOD8249147 Si02
#       7
#     8   8   8   8   8   8   8
#     4  10  24  41  66  90 121 175 217 262 322 380
#     4  10  21  36  62  93 129 167 204 252 321 395
#     4  11  21  39  60  97 126 166 205 262 326 383
#     4  10  21  37  63  93 118 165 215 257 309 378
#     4  11  24  38  64  93 131 163 211 264 321 387
#     4  11  23  45  63  91 129 166 217 273 318 378
#     4  11  20  42  70  91 123 169 216 260 318 391
#
# _framework density 20.887892999999998
#
# number of rings (size 3 to 8) (size 9 to 14) (size 15 to 20)
#    0.000    1.429    2.857    2.571    6.000    1.714 
#    2.571    1.429    0.000    0.000    0.000    0.000 
#    0.000    0.000    0.000    0.000    0.000    0.000 
#
# Total GULP energy -694043.857662 kJ/mol
# GULP energy per Si atom -12393.640315 kJ/mol
# Density = 2.084035 g / cm^3
# Si number density = 20.887893 Si / 1000 Ang^3
#
#
#
# Elastic Constant Matrix: (Units=GPa)
#
#
# Indices 1 2 3 4 5 6 
#
# 1 87.2077 38.2111 42.9290 0.0000 0.0000 0.0000
# 2 38.2111 59.0698 18.1151 0.0000 0.0000 0.0000
# 3 42.9290 18.1151 112.8122 0.0000 0.0000 0.0000
# 4 0.0000 0.0000 0.0000 24.3234 0.0000 0.0000
# 5 0.0000 0.0000 0.0000 0.0000 31.6152 0.0000
# 6 0.0000 0.0000 0.0000 0.0000 0.0000 34.9266
#
#
#
# Elastic Compliance Matrix: (Units=1/GPa)
#
#
# Indices 1 2 3 4 5 6 
#
# 1 0.018724 -0.010441 -0.005448 0.000000 0.000000 0.000000
# 2 -0.010441 0.023628 0.000179 0.000000 0.000000 0.000000
# 3 -0.005448 0.000179 0.010909 0.000000 0.000000 0.000000
# 4 0.000000 0.000000 0.000000 0.041113 0.000000 0.000000
# 5 0.000000 0.000000 0.000000 0.000000 0.031630 0.000000
# 6 0.000000 0.000000 0.000000 0.000000 0.000000 0.028632
#
#
# Mechanical properties :
#
#
# Convention : Reuss Voigt Hill
#
# Bulk Modulus (GPa) = 45.78768 50.84444 48.31606
# Shear Modulus (GPa) = 25.86156 28.82866 27.34511
#
# Velocity S-wave (km/s) = 3.52250 3.71908 3.62213
# Velocity P-wave (km/s) = 6.20583 6.54496 6.37765
#
# Compressibility (1/GPa) = 0.02183993
#
# Stress axis : x y z
#
# Youngs Moduli (GPa) = 53.40761 42.32183 91.66849
#
# Poissons Ratio (x) = 0.44189 0.49945
# Poissons Ratio (y) = 0.55764 -0.01642
# Poissons Ratio (z) = 0.29099 -0.00758
#
# Static dielectric constant tensor:
#      x y z
#    x 3.810490 0.000000 0.000000 
#    y 0.000000 3.797400 0.000000 
#    z 0.000000 0.000000 3.978100 
# 
# 
# High freq. dielectric constant tensor:
#      x y z
#    x 1.800540 0.000000 0.000000 
#    y 0.000000 1.800510 0.000000 
#    z 0.000000 0.000000 1.831490 
# 
# From -- ./inp_files/3965.got.cif
#   From: 2010.03.12/outbox.cif.g09.slc.cpg/sg61_2_cif.got.tgz:3965.got - 2010.04.10 19:05:03.
