data_PCOD8249679
_publ_section_title
;
Structure prediction by ZEFSAII (Michael W. Deem and Ramdas Pophale) SiO2 
 PCOD8249679
Probable space group: P B C A
;
_chemical_formula_sum "Si O2"
_cell_formula_units_Z 40
_cell_length_a 7.559977
_cell_length_b 8.391071
_cell_length_c 23.847300
_cell_angle_alpha 90.000000
_cell_angle_beta 90.000000
_cell_angle_gamma 90.000000
_cell_volume 1512.784567
_symmetry_space_group_name_H-M "P B C A"
_symmetry_group_IT_number 61
_symmetry_cell_setting 'orthorhombic'
loop_
_space_group_symop_operation_xyz
x,y,z
1/2-x,-y,1/2+z
1/2+x,1/2-y,-z
-x,1/2+y,1/2-z
-x,-y,-z
1/2+x,y,1/2-z
1/2-x,1/2+y,z
x,1/2-y,1/2+z
loop_
_atom_site_type_symbol
_atom_site_label
_atom_site_fract_x
_atom_site_fract_y
_atom_site_fract_z
Si Si1 0.453781 0.470347 0.080381
Si Si2 0.003660 0.022695 0.200167
Si Si3 0.859029 0.969968 0.580137
Si Si4 0.159532 0.180377 0.304492
Si Si5 0.644911 0.204158 0.966310
O O1 0.380992 0.511510 0.143007
O O2 0.665871 0.445993 0.085941
O O3 0.344192 0.317723 0.058049
O O4 0.400587 0.609294 0.036462
O O5 0.871318 0.172108 0.190842
O O6 0.121099 0.057910 0.253885
O O7 0.901423 0.856660 0.209782
O O8 0.921702 0.881170 0.636762
O O9 0.857842 0.839543 0.531375
O O10 0.999565 0.108360 0.568796
#
# Coordination Sequence:
#
# PCOD8249679 Si02
#       5
#     8   8   8   8   8
#     4  11  28  45  76 108 151 191 256 301 382 438
#     4  11  27  46  76 105 148 197 245 318 366 456
#     4  10  27  47  74 107 152 194 249 307 375 445
#     4  11  26  46  73 104 145 189 250 301 383 430
#     4  11  27  46  77 108 147 202 244 309 374 452
#
# _framework density 26.441307999999999
#
# number of rings (size 3 to 8) (size 9 to 14) (size 15 to 20)
#    0.000    1.200    0.000    1.800   25.200    0.000 
#    0.000    0.000    0.000    0.000    0.000    0.000 
#    0.000    0.000    0.000    0.000    0.000    0.000 
#
# Total GULP energy -496138.251018 kJ/mol
# GULP energy per Si atom -12403.456275 kJ/mol
# Density = 2.638113 g / cm^3
# Si number density = 26.441308 Si / 1000 Ang^3
#
#
#
# Elastic Constant Matrix: (Units=GPa)
#
#
# Indices 1 2 3 4 5 6 
#
# 1 84.8012 2.8515 6.4448 0.0000 0.0000 0.0000
# 2 2.8515 57.3246 -24.9752 0.0000 0.0000 0.0000
# 3 6.4448 -24.9752 121.1646 0.0000 0.0000 0.0000
# 4 0.0000 0.0000 0.0000 35.8373 0.0000 0.0000
# 5 0.0000 0.0000 0.0000 0.0000 42.1351 0.0000
# 6 0.0000 0.0000 0.0000 0.0000 0.0000 37.4077
#
#
#
# Elastic Compliance Matrix: (Units=1/GPa)
#
#
# Indices 1 2 3 4 5 6 
#
# 1 0.011887 -0.000952 -0.000829 0.000000 0.000000 0.000000
# 2 -0.000952 0.019242 0.004017 0.000000 0.000000 0.000000
# 3 -0.000829 0.004017 0.009125 0.000000 0.000000 0.000000
# 4 0.000000 0.000000 0.000000 0.027904 0.000000 0.000000
# 5 0.000000 0.000000 0.000000 0.000000 0.023733 0.000000
# 6 0.000000 0.000000 0.000000 0.000000 0.000000 0.026732
#
#
# Mechanical properties :
#
#
# Convention : Reuss Voigt Hill
#
# Bulk Modulus (GPa) = 22.35805 25.77030 24.06418
# Shear Modulus (GPa) = 38.74141 41.67398 40.20769
#
# Velocity S-wave (km/s) = 3.83193 3.97431 3.90377
# Velocity P-wave (km/s) = 5.29644 5.55226 5.42586
#
# Compressibility (1/GPa) = 0.04472662
#
# Stress axis : x y z
#
# Youngs Moduli (GPa) = 84.12352 51.96970 109.58543
#
# Poissons Ratio (x) = 0.04949 0.09080
# Poissons Ratio (y) = 0.08011 -0.44020
# Poissons Ratio (z) = 0.06970 -0.20876
#
# Static dielectric constant tensor:
#      x y z
#    x 4.841980 0.000000 0.000000 
#    y 0.000000 4.573470 0.000000 
#    z 0.000000 0.000000 5.263720 
# 
# 
# High freq. dielectric constant tensor:
#      x y z
#    x 2.052260 0.000000 0.000000 
#    y 0.000000 2.060620 0.000000 
#    z 0.000000 0.000000 2.086070 
# 
# From -- ./inp_files/1770.got.cif
#   From: 2010.03.12/outbox.cif.g09.slc.cpg/sg61_1_cif.got.tgz:1770.got - 2010.04.10 19:05:03.
