data_PCOD8249251
_publ_section_title
;
Structure prediction by ZEFSAII (Michael W. Deem and Ramdas Pophale) SiO2 
 PCOD8249251
Probable space group: P B C A
;
_chemical_formula_sum "Si O2"
_cell_formula_units_Z 48
_cell_length_a 17.323979
_cell_length_b 14.901538
_cell_length_c 8.508568
_cell_angle_alpha 90.000000
_cell_angle_beta 90.000000
_cell_angle_gamma 90.000000
_cell_volume 2196.520280
_symmetry_space_group_name_H-M "P B C A"
_symmetry_group_IT_number 61
_symmetry_cell_setting 'orthorhombic'
loop_
_space_group_symop_operation_xyz
x,y,z
1/2-x,-y,1/2+z
1/2+x,1/2-y,-z
-x,1/2+y,1/2-z
-x,-y,-z
1/2+x,y,1/2-z
1/2-x,1/2+y,z
x,1/2-y,1/2+z
loop_
_atom_site_type_symbol
_atom_site_label
_atom_site_fract_x
_atom_site_fract_y
_atom_site_fract_z
Si Si1 0.686610 0.668394 0.740704
Si Si2 0.009393 0.588547 0.207593
Si Si3 0.901658 0.323220 0.552008
Si Si4 0.556494 0.238075 0.602061
Si Si5 0.644422 0.153958 0.859144
Si Si6 0.890108 0.021762 0.557127
O O1 0.648297 0.756506 0.663229
O O2 0.775737 0.682140 0.778532
O O3 0.678645 0.581929 0.626705
O O4 0.647944 0.644400 0.906242
O O5 0.071949 0.587623 0.349294
O O6 0.963190 0.681459 0.221271
O O7 0.943536 0.511719 0.203632
O O8 0.055194 0.586494 0.043359
O O9 0.979739 0.278986 0.493968
O O10 0.583390 0.155132 0.713177
O O11 0.625007 0.269020 0.485540
O O12 0.643295 0.057327 0.945348
#
# Coordination Sequence:
#
# PCOD8249251 Si02
#       6
#     8   8   8   8   8   8
#     4  12  24  43  66  98 138 170 220 271 338 391
#     4  10  21  39  68  92 129 164 228 277 314 376
#     4  12  22  40  71 100 119 175 231 274 311 393
#     4  11  20  42  67  99 120 174 229 268 313 388
#     4  11  25  42  66  94 138 174 210 272 338 389
#     4  10  24  44  60  95 139 175 209 277 332 391
#
# _framework density 21.852746
#
# number of rings (size 3 to 8) (size 9 to 14) (size 15 to 20)
#    0.000    1.000    5.000    1.000    4.667    2.000 
#    3.000    1.667    0.000    0.000    0.000    0.000 
#    0.000    0.000    0.000    0.000    0.000    0.000 
#
# Total GULP energy -594752.189616 kJ/mol
# GULP energy per Si atom -12390.670617 kJ/mol
# Density = 2.180301 g / cm^3
# Si number density = 21.852746 Si / 1000 Ang^3
#
#
#
# Elastic Constant Matrix: (Units=GPa)
#
#
# Indices 1 2 3 4 5 6 
#
# 1 99.0061 15.6940 28.4761 0.0000 0.0000 0.0000
# 2 15.6940 54.7724 27.6369 0.0000 0.0000 0.0000
# 3 28.4761 27.6369 68.3679 0.0000 0.0000 0.0000
# 4 0.0000 0.0000 0.0000 32.8865 0.0000 0.0000
# 5 0.0000 0.0000 0.0000 0.0000 46.3178 0.0000
# 6 0.0000 0.0000 0.0000 0.0000 0.0000 18.1774
#
#
#
# Elastic Compliance Matrix: (Units=1/GPa)
#
#
# Indices 1 2 3 4 5 6 
#
# 1 0.011528 -0.001106 -0.004355 0.000000 0.000000 0.000000
# 2 -0.001106 0.023042 -0.008854 0.000000 0.000000 0.000000
# 3 -0.004355 -0.008854 0.020019 0.000000 0.000000 0.000000
# 4 0.000000 0.000000 0.000000 0.030408 0.000000 0.000000
# 5 0.000000 0.000000 0.000000 0.000000 0.021590 0.000000
# 6 0.000000 0.000000 0.000000 0.000000 0.000000 0.055013
#
#
# Mechanical properties :
#
#
# Convention : Reuss Voigt Hill
#
# Bulk Modulus (GPa) = 38.51946 40.64004 39.57975
# Shear Modulus (GPa) = 25.14051 29.49896 27.31973
#
# Velocity S-wave (km/s) = 3.39551 3.67808 3.53962
# Velocity P-wave (km/s) = 5.74785 6.05601 5.90394
#
# Compressibility (1/GPa) = 0.02596090
#
# Stress axis : x y z
#
# Youngs Moduli (GPa) = 86.74421 43.39972 49.95145
#
# Poissons Ratio (x) = 0.04800 0.21752
# Poissons Ratio (y) = 0.09594 0.44225
# Poissons Ratio (z) = 0.37773 0.38425
#
# Static dielectric constant tensor:
#      x y z
#    x 3.999790 0.000000 0.000000 
#    y 0.000000 4.043980 0.000000 
#    z 0.000000 0.000000 4.227230 
# 
# 
# High freq. dielectric constant tensor:
#      x y z
#    x 1.853760 0.000000 0.000000 
#    y 0.000000 1.839530 0.000000 
#    z 0.000000 0.000000 1.872640 
# 
# From -- ./inp_files/3520.got.cif
#   From: 2010.03.12/outbox.cif.g09.slc.cpg/sg61_2_cif.got.tgz:3520.got - 2010.04.10 19:05:03.
