data_PCOD8249166
_publ_section_title
;
Structure prediction by ZEFSAII (Michael W. Deem and Ramdas Pophale) SiO2 
 PCOD8249166
Probable space group: P B C A
;
_chemical_formula_sum "Si O2"
_cell_formula_units_Z 64
_cell_length_a 24.386154
_cell_length_b 14.130946
_cell_length_c 9.659047
_cell_angle_alpha 90.000000
_cell_angle_beta 90.000000
_cell_angle_gamma 90.000000
_cell_volume 3328.502045
_symmetry_space_group_name_H-M "P B C A"
_symmetry_group_IT_number 61
_symmetry_cell_setting 'orthorhombic'
loop_
_space_group_symop_operation_xyz
x,y,z
1/2-x,-y,1/2+z
1/2+x,1/2-y,-z
-x,1/2+y,1/2-z
-x,-y,-z
1/2+x,y,1/2-z
1/2-x,1/2+y,z
x,1/2-y,1/2+z
loop_
_atom_site_type_symbol
_atom_site_label
_atom_site_fract_x
_atom_site_fract_y
_atom_site_fract_z
Si Si1 0.887096 0.825373 0.053989
Si Si2 0.999735 0.406726 0.410690
Si Si3 0.114457 0.823508 0.008357
Si Si4 0.863251 0.846989 0.366036
Si Si5 0.380897 0.147759 0.194925
Si Si6 0.312199 0.997071 0.513464
Si Si7 0.716090 0.501134 0.289458
Si Si8 0.459720 0.515050 0.626056
O O1 0.875171 0.806684 0.214201
O O2 0.952572 0.835617 0.035476
O O3 0.859715 0.740142 0.970404
O O4 0.861783 0.923613 0.000734
O O5 0.942875 0.353331 0.424977
O O6 0.000000 0.500000 0.500000
O O7 0.008117 0.436634 0.251996
O O8 0.130606 0.725663 0.079311
O O9 0.161231 0.900642 0.038812
O O10 0.110434 0.804844 0.844666
O O11 0.805811 0.904027 0.360222
O O12 0.910726 0.916291 0.420370
O O13 0.327766 0.082897 0.188984
O O14 0.435512 0.086658 0.168528
O O15 0.273962 0.971345 0.643259
O O16 0.275077 0.990501 0.375178
O O17 0.500000 0.500000 0.500000
#
# Coordination Sequence:
#
# PCOD8249166 Si02
#       8
#     8   8   8   8   8   8   8   8
#     4  10  21  37  60  85 117 152 192 236 289 347
#     4  11  20  39  60  82 122 160 189 235 289 347
#     4  11  23  39  61  90 120 158 199 240 295 357
#     4   9  21  39  56  84 116 149 191 238 286 340
#     4  10  23  40  58  85 123 154 196 245 294 349
#     4  10  21  41  62  83 114 155 195 241 300 347
#     4   9  21  42  60  80 117 151 191 250 292 346
#     4  10  22  39  56  84 122 158 193 237 286 344
#
# _framework density 19.227868999999998
#
# number of rings (size 3 to 8) (size 9 to 14) (size 15 to 20)
#    0.000    2.000    2.500    1.500    3.500    5.000 
#    2.250    5.000    0.000    0.000    0.000    0.000 
#    0.000    0.000    0.000    0.000    0.000    0.000 
#
# Total GULP energy -793696.886801 kJ/mol
# GULP energy per Si atom -12401.513856 kJ/mol
# Density = 1.918411 g / cm^3
# Si number density = 19.227869 Si / 1000 Ang^3
#
#
#
# Elastic Constant Matrix: (Units=GPa)
#
#
# Indices 1 2 3 4 5 6 
#
# 1 74.7613 2.8589 40.8701 0.0000 0.0000 0.0000
# 2 2.8589 84.9635 44.2515 0.0000 0.0000 0.0000
# 3 40.8701 44.2515 90.0836 0.0000 0.0000 0.0000
# 4 0.0000 0.0000 0.0000 37.8959 0.0000 0.0000
# 5 0.0000 0.0000 0.0000 0.0000 33.8184 0.0000
# 6 0.0000 0.0000 0.0000 0.0000 0.0000 12.5284
#
#
#
# Elastic Compliance Matrix: (Units=1/GPa)
#
#
# Indices 1 2 3 4 5 6 
#
# 1 0.019406 0.005285 -0.011400 0.000000 0.000000 0.000000
# 2 0.005285 0.017255 -0.010874 0.000000 0.000000 0.000000
# 3 -0.011400 -0.010874 0.021615 0.000000 0.000000 0.000000
# 4 0.000000 0.000000 0.000000 0.026388 0.000000 0.000000
# 5 0.000000 0.000000 0.000000 0.000000 0.029570 0.000000
# 6 0.000000 0.000000 0.000000 0.000000 0.000000 0.079819
#
#
# Mechanical properties :
#
#
# Convention : Reuss Voigt Hill
#
# Bulk Modulus (GPa) = 41.15757 47.30773 44.23265
# Shear Modulus (GPa) = 21.17472 27.63706 24.40589
#
# Velocity S-wave (km/s) = 3.32211 3.79534 3.56659
# Velocity P-wave (km/s) = 6.01389 6.62294 6.32575
#
# Compressibility (1/GPa) = 0.02429687
#
# Stress axis : x y z
#
# Youngs Moduli (GPa) = 51.53021 57.95284 46.26501
#
# Poissons Ratio (x) = -0.30626 0.52744
# Poissons Ratio (y) = -0.27232 0.50308
# Poissons Ratio (z) = 0.58746 0.63018
#
# Static dielectric constant tensor:
#      x y z
#    x 3.452060 0.000000 0.000000 
#    y 0.000000 3.481130 0.000000 
#    z 0.000000 0.000000 3.739320 
# 
# 
# High freq. dielectric constant tensor:
#      x y z
#    x 1.745240 0.000000 0.000000 
#    y 0.000000 1.748230 0.000000 
#    z 0.000000 0.000000 1.751570 
# 
# From -- ./inp_files/4326.got.cif
#   From: 2010.03.12/outbox.cif.g09.slc.cpg/sg61_3_cif.got.tgz:4326.got - 2010.04.10 19:05:03.
