data_PCOD8249064
_publ_section_title
;
Structure prediction by ZEFSAII (Michael W. Deem and Ramdas Pophale) SiO2 
 PCOD8249064
Probable space group: P B C A
;
_chemical_formula_sum "Si O2"
_cell_formula_units_Z 40
_cell_length_a 18.239343
_cell_length_b 8.120582
_cell_length_c 11.603621
_cell_angle_alpha 90.000000
_cell_angle_beta 90.000000
_cell_angle_gamma 90.000000
_cell_volume 1718.659654
_symmetry_space_group_name_H-M "P B C A"
_symmetry_group_IT_number 61
_symmetry_cell_setting 'orthorhombic'
loop_
_space_group_symop_operation_xyz
x,y,z
1/2-x,-y,1/2+z
1/2+x,1/2-y,-z
-x,1/2+y,1/2-z
-x,-y,-z
1/2+x,y,1/2-z
1/2-x,1/2+y,z
x,1/2-y,1/2+z
loop_
_atom_site_type_symbol
_atom_site_label
_atom_site_fract_x
_atom_site_fract_y
_atom_site_fract_z
Si Si1 0.351246 0.171641 0.160102
Si Si2 0.207620 0.020853 0.229283
Si Si3 0.486628 0.490224 0.741436
Si Si4 0.888588 0.524259 0.057638
Si Si5 0.412611 0.778744 0.634243
O O1 0.294735 0.039086 0.215661
O O2 0.318639 0.351357 0.172851
O O3 0.428430 0.159512 0.227093
O O4 0.368198 0.124942 0.027718
O O5 0.170451 0.168095 0.157488
O O6 0.183208 0.042540 0.362196
O O7 0.540147 0.515230 0.632255
O O8 0.439818 0.660002 0.740718
O O9 0.534390 0.442561 0.855496
O O10 0.910432 0.690368 0.988511
#
# Coordination Sequence:
#
# PCOD8249064 Si02
#       5
#     8   8   8   8   8
#     4  11  22  41  65  93 129 168 215 268 318 384
#     4  11  25  42  63  94 130 172 217 267 324 388
#     4  10  20  39  66  95 128 168 211 264 322 385
#     4  10  23  44  66  94 131 170 212 266 329 391
#     4  10  20  40  63  92 130 166 210 263 317 386
#
# _framework density 23.273949000000002
#
# number of rings (size 3 to 8) (size 9 to 14) (size 15 to 20)
#    0.000    1.600    0.000    7.200    0.000    3.200 
#    0.000   24.000    0.000    0.000    0.000    0.000 
#    0.000    0.000    0.000    0.000    0.000    0.000 
#
# Total GULP energy -495608.887394 kJ/mol
# GULP energy per Si atom -12390.222185 kJ/mol
# Density = 2.322098 g / cm^3
# Si number density = 23.273949 Si / 1000 Ang^3
#
#
#
# Elastic Constant Matrix: (Units=GPa)
#
#
# Indices 1 2 3 4 5 6 
#
# 1 103.2405 39.0068 71.6662 0.0000 0.0000 0.0000
# 2 39.0068 79.2778 29.8466 0.0000 0.0000 0.0000
# 3 71.6662 29.8466 84.1284 0.0000 0.0000 0.0000
# 4 0.0000 0.0000 0.0000 26.9662 0.0000 0.0000
# 5 0.0000 0.0000 0.0000 0.0000 26.4569 0.0000
# 6 0.0000 0.0000 0.0000 0.0000 0.0000 46.2042
#
#
#
# Elastic Compliance Matrix: (Units=1/GPa)
#
#
# Indices 1 2 3 4 5 6 
#
# 1 0.025313 -0.005005 -0.019788 0.000000 0.000000 0.000000
# 2 -0.005005 0.015548 -0.001252 0.000000 0.000000 0.000000
# 3 -0.019788 -0.001252 0.029188 0.000000 0.000000 0.000000
# 4 0.000000 0.000000 0.000000 0.037083 0.000000 0.000000
# 5 0.000000 0.000000 0.000000 0.000000 0.037797 0.000000
# 6 0.000000 0.000000 0.000000 0.000000 0.000000 0.021643
#
#
# Mechanical properties :
#
#
# Convention : Reuss Voigt Hill
#
# Bulk Modulus (GPa) = 55.68492 60.85398 58.26945
# Shear Modulus (GPa) = 22.25693 28.33394 25.29543
#
# Velocity S-wave (km/s) = 3.09577 3.49293 3.30033
# Velocity P-wave (km/s) = 6.06269 6.51697 6.29393
#
# Compressibility (1/GPa) = 0.01795818
#
# Stress axis : x y z
#
# Youngs Moduli (GPa) = 39.50508 64.31696 34.26124
#
# Poissons Ratio (x) = 0.32191 0.67796
# Poissons Ratio (y) = 0.19772 0.04291
# Poissons Ratio (z) = 0.78172 0.08055
#
# Static dielectric constant tensor:
#      x y z
#    x 4.590800 0.000000 0.000000 
#    y 0.000000 4.170440 0.000000 
#    z 0.000000 0.000000 3.857250 
# 
# 
# High freq. dielectric constant tensor:
#      x y z
#    x 1.946150 0.000000 0.000000 
#    y 0.000000 1.926980 0.000000 
#    z 0.000000 0.000000 1.884620 
# 
# From -- ./inp_files/6070.got.cif
#   From: 2010.03.12/outbox.cif.g09.slc.cpg/sg61_4_cif.got.tgz:6070.got - 2010.04.10 19:05:03.
