data_PCOD8249424
_publ_section_title
;
Structure prediction by ZEFSAII (Michael W. Deem and Ramdas Pophale) SiO2 
 PCOD8249424
Probable space group: P B C A
;
_chemical_formula_sum "Si O2"
_cell_formula_units_Z 48
_cell_length_a 16.560627
_cell_length_b 8.903707
_cell_length_c 16.527196
_cell_angle_alpha 90.000000
_cell_angle_beta 90.000000
_cell_angle_gamma 90.000000
_cell_volume 2436.951091
_symmetry_space_group_name_H-M "P B C A"
_symmetry_group_IT_number 61
_symmetry_cell_setting 'orthorhombic'
loop_
_space_group_symop_operation_xyz
x,y,z
1/2-x,-y,1/2+z
1/2+x,1/2-y,-z
-x,1/2+y,1/2-z
-x,-y,-z
1/2+x,y,1/2-z
1/2-x,1/2+y,z
x,1/2-y,1/2+z
loop_
_atom_site_type_symbol
_atom_site_label
_atom_site_fract_x
_atom_site_fract_y
_atom_site_fract_z
Si Si1 0.346622 0.404621 0.188731
Si Si2 0.077300 0.592217 0.021079
Si Si3 0.816656 0.441372 0.835540
Si Si4 0.177566 0.672792 0.865812
Si Si5 0.656026 0.022357 0.659553
Si Si6 0.491225 0.404188 0.080253
O O1 0.320173 0.237922 0.164711
O O2 0.277069 0.516368 0.158463
O O3 0.360653 0.404125 0.285635
O O4 0.426747 0.468661 0.145069
O O5 0.131735 0.503987 0.087210
O O6 0.042717 0.743934 0.057389
O O7 0.131246 0.609446 0.942175
O O8 0.000000 0.500000 0.000000
O O9 0.853773 0.520942 0.756434
O O10 0.271325 0.628081 0.869905
O O11 0.169891 0.852352 0.869496
O O12 0.577376 0.100689 0.623275
O O13 0.500000 0.500000 0.000000
#
# Coordination Sequence:
#
# PCOD8249424 Si02
#       6
#     8   8   8   8   8   8
#     4   9  21  41  62  88 122 160 204 251 305 366
#     4  11  25  39  59  94 125 156 208 255 306 358
#     4   9  21  41  61  88 119 158 204 246 302 370
#     4  10  22  41  62  90 123 162 206 251 308 373
#     4  10  22  42  64  87 122 164 204 248 311 366
#     4  11  23  41  62  90 123 162 206 253 309 361
#
# _framework density 19.696743999999999
#
# number of rings (size 3 to 8) (size 9 to 14) (size 15 to 20)
#    0.000    2.000    1.667    0.000    7.000    1.333 
#    0.000    0.000    0.000    0.000    0.000    0.000 
#    0.000    0.000    0.000    0.000    0.000    0.000 
#
# Total GULP energy -595109.913797 kJ/mol
# GULP energy per Si atom -12398.123204 kJ/mol
# Density = 1.965191 g / cm^3
# Si number density = 19.696744 Si / 1000 Ang^3
#
#
#
# Elastic Constant Matrix: (Units=GPa)
#
#
# Indices 1 2 3 4 5 6 
#
# 1 160.7419 38.7583 106.4141 0.0000 0.0000 0.0000
# 2 38.7583 36.2440 35.8490 0.0000 0.0000 0.0000
# 3 106.4141 35.8490 154.7995 0.0000 0.0000 0.0000
# 4 0.0000 0.0000 0.0000 23.3840 0.0000 0.0000
# 5 0.0000 0.0000 0.0000 0.0000 28.8566 0.0000
# 6 0.0000 0.0000 0.0000 0.0000 0.0000 36.2810
#
#
#
# Elastic Compliance Matrix: (Units=1/GPa)
#
#
# Indices 1 2 3 4 5 6 
#
# 1 0.012429 -0.006278 -0.007090 0.000000 0.000000 0.000000
# 2 -0.006278 0.038960 -0.004707 0.000000 0.000000 0.000000
# 3 -0.007090 -0.004707 0.012424 0.000000 0.000000 0.000000
# 4 0.000000 0.000000 0.000000 0.042764 0.000000 0.000000
# 5 0.000000 0.000000 0.000000 0.000000 0.034654 0.000000
# 6 0.000000 0.000000 0.000000 0.000000 0.000000 0.027563
#
#
# Mechanical properties :
#
#
# Convention : Reuss Voigt Hill
#
# Bulk Modulus (GPa) = 36.14962 79.31424 57.73193
# Shear Modulus (GPa) = 23.34664 29.08858 26.21761
#
# Velocity S-wave (km/s) = 3.44656 3.84711 3.65233
# Velocity P-wave (km/s) = 5.85075 7.75170 6.86732
#
# Compressibility (1/GPa) = 0.02766281
#
# Stress axis : x y z
#
# Youngs Moduli (GPa) = 80.45974 25.66744 80.49092
#
# Poissons Ratio (x) = 0.16114 0.57067
# Poissons Ratio (y) = 0.50514 0.37884
# Poissons Ratio (z) = 0.57045 0.12081
#
# Static dielectric constant tensor:
#      x y z
#    x 4.961600 0.000000 0.000000 
#    y 0.000000 3.426120 0.000000 
#    z 0.000000 0.000000 3.918080 
# 
# 
# High freq. dielectric constant tensor:
#      x y z
#    x 1.776530 0.000000 0.000000 
#    y 0.000000 1.756580 0.000000 
#    z 0.000000 0.000000 1.785110 
# 
# From -- ./inp_files/5716.got.cif
#   From: 2010.03.12/outbox.cif.g09.slc.cpg/sg61_3_cif.got.tgz:5716.got - 2010.04.10 19:05:03.
