data_PCOD8249009
_publ_section_title
;
Structure prediction by ZEFSAII (Michael W. Deem and Ramdas Pophale) SiO2 
 PCOD8249009
Probable space group: P B C A
;
_chemical_formula_sum "Si O2"
_cell_formula_units_Z 64
_cell_length_a 28.897947
_cell_length_b 12.574880
_cell_length_c 8.868371
_cell_angle_alpha 90.000000
_cell_angle_beta 90.000000
_cell_angle_gamma 90.000000
_cell_volume 3222.661514
_symmetry_space_group_name_H-M "P B C A"
_symmetry_group_IT_number 61
_symmetry_cell_setting 'orthorhombic'
loop_
_space_group_symop_operation_xyz
x,y,z
1/2-x,-y,1/2+z
1/2+x,1/2-y,-z
-x,1/2+y,1/2-z
-x,-y,-z
1/2+x,y,1/2-z
1/2-x,1/2+y,z
x,1/2-y,1/2+z
loop_
_atom_site_type_symbol
_atom_site_label
_atom_site_fract_x
_atom_site_fract_y
_atom_site_fract_z
Si Si1 0.411777 0.924071 0.175867
Si Si2 0.995037 0.028169 0.829687
Si Si3 0.393402 0.156475 0.246618
Si Si4 0.521683 0.107968 0.065204
Si Si5 0.291656 0.371350 0.776605
Si Si6 0.553313 0.789947 0.459558
Si Si7 0.762972 0.745270 0.473761
Si Si8 0.187108 0.380480 0.277689
O O1 0.457467 0.916543 0.277433
O O2 0.368223 0.865003 0.252343
O O3 0.396793 0.045427 0.159968
O O4 0.427245 0.877035 0.010722
O O5 0.957007 0.121037 0.832606
O O6 0.976884 0.921677 0.742888
O O7 0.000000 0.000000 0.000000
O O8 0.342448 0.176103 0.309632
O O9 0.401501 0.237208 0.110668
O O10 0.432844 0.162793 0.376838
O O11 0.489754 0.208496 0.026873
O O12 0.500000 0.000000 0.000000
O O13 0.272929 0.331058 0.614548
O O14 0.294243 0.498949 0.777576
O O15 0.261066 0.326598 0.911726
O O16 0.789289 0.818980 0.357571
O O17 0.799465 0.671060 0.562289
#
# Coordination Sequence:
#
# PCOD8249009 Si02
#       8
#     8   8   8   8   8   8   8   8
#     4  10  21  39  54  82 118 154 196 244 289 338
#     4  11  21  37  57  85 119 158 201 244 291 346
#     4  11  21  34  57  86 113 149 198 251 294 342
#     4  10  20  38  56  78 120 160 195 238 295 348
#     4  10  21  39  63  91 121 151 197 256 305 361
#     4  12  21  35  59  82 115 162 194 243 298 346
#     4  10  21  41  63  91 118 160 200 232 317 376
#     4  10  22  39  66  85 125 158 194 257 290 363
#
# _framework density 19.859362000000001
#
# number of rings (size 3 to 8) (size 9 to 14) (size 15 to 20)
#    0.000    1.500    3.750    3.000    0.000    1.000 
#    0.000    2.500    2.750    0.000    0.000    0.000 
#    0.000    0.000    0.000    0.000    0.000    0.000 
#
# Total GULP energy -792996.905786 kJ/mol
# GULP energy per Si atom -12390.576653 kJ/mol
# Density = 1.981416 g / cm^3
# Si number density = 19.859362 Si / 1000 Ang^3
#
#
#
# Elastic Constant Matrix: (Units=GPa)
#
#
# Indices 1 2 3 4 5 6 
#
# 1 98.2003 28.8198 35.8921 0.0000 0.0000 0.0000
# 2 28.8198 71.7495 21.9552 0.0000 0.0000 0.0000
# 3 35.8921 21.9552 105.7414 0.0000 0.0000 0.0000
# 4 0.0000 0.0000 0.0000 27.4974 0.0000 0.0000
# 5 0.0000 0.0000 0.0000 0.0000 26.6758 0.0000
# 6 0.0000 0.0000 0.0000 0.0000 0.0000 30.8670
#
#
#
# Elastic Compliance Matrix: (Units=1/GPa)
#
#
# Indices 1 2 3 4 5 6 
#
# 1 0.012623 -0.004014 -0.003451 0.000000 0.000000 0.000000
# 2 -0.004014 0.016160 -0.001993 0.000000 0.000000 0.000000
# 3 -0.003451 -0.001993 0.011042 0.000000 0.000000 0.000000
# 4 0.000000 0.000000 0.000000 0.036367 0.000000 0.000000
# 5 0.000000 0.000000 0.000000 0.000000 0.037487 0.000000
# 6 0.000000 0.000000 0.000000 0.000000 0.000000 0.032397
#
#
# Mechanical properties :
#
#
# Convention : Reuss Voigt Hill
#
# Bulk Modulus (GPa) = 47.82737 49.89172 48.85955
# Shear Modulus (GPa) = 29.07631 29.60962 29.34297
#
# Velocity S-wave (km/s) = 3.83052 3.86549 3.84805
# Velocity P-wave (km/s) = 6.61054 6.71564 6.66329
#
# Compressibility (1/GPa) = 0.02090853
#
# Stress axis : x y z
#
# Youngs Moduli (GPa) = 79.22219 61.88306 90.56175
#
# Poissons Ratio (x) = 0.24841 0.31254
# Poissons Ratio (y) = 0.31801 0.18046
# Poissons Ratio (z) = 0.27340 0.12331
#
# Static dielectric constant tensor:
#      x y z
#    x 3.974520 0.000000 0.000000 
#    y 0.000000 3.730870 0.000000 
#    z 0.000000 0.000000 3.627850 
# 
# 
# High freq. dielectric constant tensor:
#      x y z
#    x 1.767200 0.000000 0.000000 
#    y 0.000000 1.777790 0.000000 
#    z 0.000000 0.000000 1.782500 
# 
# From -- ./inp_files/4624.got.cif
#   From: 2010.03.12/outbox.cif.g09.slc.cpg/sg61_3_cif.got.tgz:4624.got - 2010.04.10 19:05:03.
