data_PCOD8249153
_publ_section_title
;
Structure prediction by ZEFSAII (Michael W. Deem and Ramdas Pophale) SiO2 
 PCOD8249153
Probable space group: P B C A
;
_chemical_formula_sum "Si O2"
_cell_formula_units_Z 64
_cell_length_a 20.240222
_cell_length_b 17.224457
_cell_length_c 9.055876
_cell_angle_alpha 90.000000
_cell_angle_beta 90.000000
_cell_angle_gamma 90.000000
_cell_volume 3157.121375
_symmetry_space_group_name_H-M "P B C A"
_symmetry_group_IT_number 61
_symmetry_cell_setting 'orthorhombic'
loop_
_space_group_symop_operation_xyz
x,y,z
1/2-x,-y,1/2+z
1/2+x,1/2-y,-z
-x,1/2+y,1/2-z
-x,-y,-z
1/2+x,y,1/2-z
1/2-x,1/2+y,z
x,1/2-y,1/2+z
loop_
_atom_site_type_symbol
_atom_site_label
_atom_site_fract_x
_atom_site_fract_y
_atom_site_fract_z
Si Si1 0.988739 0.605652 0.357991
Si Si2 0.873259 0.814313 0.688032
Si Si3 0.618518 0.698161 0.126734
Si Si4 0.743712 0.442948 0.362782
Si Si5 0.885335 0.845031 0.349564
Si Si6 0.504753 0.068612 0.689316
Si Si7 0.260725 0.098368 0.304561
Si Si8 0.631203 0.649077 0.797211
O O1 0.923533 0.629881 0.272105
O O2 0.014554 0.523448 0.297399
O O3 0.045687 0.668857 0.330121
O O4 0.970517 0.598825 0.530373
O O5 0.889547 0.814396 0.515400
O O6 0.878968 0.726565 0.739669
O O7 0.799748 0.843428 0.720650
O O8 0.672324 0.647217 0.213973
O O9 0.624844 0.788097 0.168161
O O10 0.631150 0.693725 0.952571
O O11 0.675503 0.402021 0.321759
O O12 0.757824 0.442137 0.536424
O O13 0.740409 0.532583 0.319176
O O14 0.801747 0.399045 0.274697
O O15 0.952433 0.891128 0.316102
O O16 0.428080 0.087849 0.712998
#
# Coordination Sequence:
#
# PCOD8249153 Si02
#       8
#     8   8   8   8   8   8   8   8
#     4  10  21  38  60  84 113 150 188 231 283 335
#     4  11  23  38  58  85 116 150 189 233 281 335
#     4  10  21  37  57  82 111 145 186 228 274 328
#     4  10  22  39  59  84 112 145 186 230 278 332
#     4  11  23  38  58  85 116 150 189 233 281 335
#     4  10  21  38  60  84 113 150 188 231 283 335
#     4  10  22  39  59  84 112 145 186 230 278 332
#     4  10  21  37  57  82 111 145 186 228 274 328
#
# _framework density 20.271630999999999
#
# number of rings (size 3 to 8) (size 9 to 14) (size 15 to 20)
#    0.000    1.750    0.000    3.750    0.000    8.500 
#    0.000    0.000    0.000    0.000    0.000    0.000 
#    0.000    0.000    0.000    0.000    0.000    0.000 
#
# Total GULP energy -794075.162701 kJ/mol
# GULP energy per Si atom -12407.424417 kJ/mol
# Density = 2.022549 g / cm^3
# Si number density = 20.271631 Si / 1000 Ang^3
#
#
#
# Elastic Constant Matrix: (Units=GPa)
#
#
# Indices 1 2 3 4 5 6 
#
# 1 58.3592 -12.1032 13.9465 0.0000 0.0000 0.0000
# 2 -12.1032 50.0997 6.5251 0.0000 0.0000 0.0000
# 3 13.9465 6.5251 35.0299 0.0000 0.0000 0.0000
# 4 0.0000 0.0000 0.0000 30.7441 0.0000 0.0000
# 5 0.0000 0.0000 0.0000 0.0000 30.2284 0.0000
# 6 0.0000 0.0000 0.0000 0.0000 0.0000 28.9868
#
#
#
# Elastic Compliance Matrix: (Units=1/GPa)
#
#
# Indices 1 2 3 4 5 6 
#
# 1 0.020667 0.006215 -0.009386 0.000000 0.000000 0.000000
# 2 0.006215 0.022326 -0.006633 0.000000 0.000000 0.000000
# 3 -0.009386 -0.006633 0.033519 0.000000 0.000000 0.000000
# 4 0.000000 0.000000 0.000000 0.032527 0.000000 0.000000
# 5 0.000000 0.000000 0.000000 0.000000 0.033082 0.000000
# 6 0.000000 0.000000 0.000000 0.000000 0.000000 0.034499
#
#
# Mechanical properties :
#
#
# Convention : Reuss Voigt Hill
#
# Bulk Modulus (GPa) = 17.57324 17.80284 17.68804
# Shear Modulus (GPa) = 23.23474 26.99987 25.11731
#
# Velocity S-wave (km/s) = 3.38919 3.65349 3.52381
# Velocity P-wave (km/s) = 4.89930 5.15737 5.02999
#
# Compressibility (1/GPa) = 0.05690469
#
# Stress axis : x y z
#
# Youngs Moduli (GPa) = 48.38563 44.79153 29.83340
#
# Poissons Ratio (x) = -0.27839 0.28002
# Poissons Ratio (y) = -0.30073 0.19789
# Poissons Ratio (z) = 0.45415 0.29711
#
# Static dielectric constant tensor:
#      x y z
#    x 4.103960 0.000000 0.000000 
#    y 0.000000 3.612340 0.000000 
#    z 0.000000 0.000000 3.599700 
# 
# 
# High freq. dielectric constant tensor:
#      x y z
#    x 1.806640 0.000000 0.000000 
#    y 0.000000 1.800100 0.000000 
#    z 0.000000 0.000000 1.784370 
# 
# From -- ./inp_files/4052.got.cif
#   From: 2010.03.12/outbox.cif.g09.slc.cpg/sg61_3_cif.got.tgz:4052.got - 2010.04.10 19:05:03.
