data_PCOD8249055
_publ_section_title
;
Structure prediction by ZEFSAII (Michael W. Deem and Ramdas Pophale) SiO2 
 PCOD8249055
Probable space group: P B C A
;
_chemical_formula_sum "Si O2"
_cell_formula_units_Z 48
_cell_length_a 13.600035
_cell_length_b 13.727097
_cell_length_c 13.245514
_cell_angle_alpha 90.000000
_cell_angle_beta 90.000000
_cell_angle_gamma 90.000000
_cell_volume 2472.791758
_symmetry_space_group_name_H-M "P B C A"
_symmetry_group_IT_number 61
_symmetry_cell_setting 'orthorhombic'
loop_
_space_group_symop_operation_xyz
x,y,z
1/2-x,-y,1/2+z
1/2+x,1/2-y,-z
-x,1/2+y,1/2-z
-x,-y,-z
1/2+x,y,1/2-z
1/2-x,1/2+y,z
x,1/2-y,1/2+z
loop_
_atom_site_type_symbol
_atom_site_label
_atom_site_fract_x
_atom_site_fract_y
_atom_site_fract_z
Si Si1 0.276142 0.685469 0.564914
Si Si2 0.076079 0.136642 0.730500
Si Si3 0.544125 0.564384 0.359106
Si Si4 0.152177 0.494336 0.949384
Si Si5 0.765650 0.675563 0.615572
Si Si6 0.621152 0.764772 0.275270
O O1 0.371455 0.691585 0.637025
O O2 0.278108 0.587161 0.499143
O O3 0.279206 0.780878 0.495283
O O4 0.175821 0.686141 0.629402
O O5 0.127054 0.164944 0.835378
O O6 0.962457 0.163689 0.734857
O O7 0.083257 0.021417 0.712247
O O8 0.426372 0.558735 0.375856
O O9 0.595663 0.559456 0.467956
O O10 0.571981 0.663086 0.303283
O O11 0.219276 0.567709 0.885929
O O12 0.698536 0.747402 0.683766
#
# Coordination Sequence:
#
# PCOD8249055 Si02
#       6
#     8   8   8   8   8   8
#     4  10  23  40  61  91 118 160 204 254 303 371
#     4  10  23  40  59  93 123 158 208 253 307 368
#     4  10  20  39  64  85 122 164 200 255 305 366
#     4  10  20  39  65  86 119 163 203 248 313 361
#     4  11  22  39  64  89 125 162 204 254 308 363
#     4  11  22  41  60  91 125 158 208 252 304 365
#
# _framework density 19.411258
#
# number of rings (size 3 to 8) (size 9 to 14) (size 15 to 20)
#    0.000    1.667    3.333    1.000    2.333    1.333 
#    3.000    0.833    0.000    0.000    0.000    0.000 
#    0.000    0.000    0.000    0.000    0.000    0.000 
#
# Total GULP energy -595370.859727 kJ/mol
# GULP energy per Si atom -12403.559578 kJ/mol
# Density = 1.936708 g / cm^3
# Si number density = 19.411258 Si / 1000 Ang^3
#
#
#
# Elastic Constant Matrix: (Units=GPa)
#
#
# Indices 1 2 3 4 5 6 
#
# 1 84.8953 33.4842 38.5106 0.0000 0.0000 0.0000
# 2 33.4842 84.7478 35.0685 0.0000 0.0000 0.0000
# 3 38.5106 35.0685 85.4317 0.0000 0.0000 0.0000
# 4 0.0000 0.0000 0.0000 33.5142 0.0000 0.0000
# 5 0.0000 0.0000 0.0000 0.0000 26.8963 0.0000
# 6 0.0000 0.0000 0.0000 0.0000 0.0000 29.6237
#
#
#
# Elastic Compliance Matrix: (Units=1/GPa)
#
#
# Indices 1 2 3 4 5 6 
#
# 1 0.015849 -0.003982 -0.005510 0.000000 0.000000 0.000000
# 2 -0.003982 0.015215 -0.004450 0.000000 0.000000 0.000000
# 3 -0.005510 -0.004450 0.016016 0.000000 0.000000 0.000000
# 4 0.000000 0.000000 0.000000 0.029838 0.000000 0.000000
# 5 0.000000 0.000000 0.000000 0.000000 0.037180 0.000000
# 6 0.000000 0.000000 0.000000 0.000000 0.000000 0.033757
#
#
# Mechanical properties :
#
#
# Convention : Reuss Voigt Hill
#
# Bulk Modulus (GPa) = 52.09693 52.13347 52.11520
# Shear Modulus (GPa) = 27.45183 27.87428 27.66306
#
# Velocity S-wave (km/s) = 3.76469 3.79355 3.77915
# Velocity P-wave (km/s) = 6.76713 6.78997 6.77856
#
# Compressibility (1/GPa) = 0.01919499
#
# Stress axis : x y z
#
# Youngs Moduli (GPa) = 63.09452 65.72635 62.43855
#
# Poissons Ratio (x) = 0.26173 0.34403
# Poissons Ratio (y) = 0.25125 0.27787
# Poissons Ratio (z) = 0.34764 0.29250
#
# Static dielectric constant tensor:
#      x y z
#    x 3.587070 0.000000 0.000000 
#    y 0.000000 3.364500 0.000000 
#    z 0.000000 0.000000 3.530140 
# 
# 
# High freq. dielectric constant tensor:
#      x y z
#    x 1.758100 0.000000 0.000000 
#    y 0.000000 1.750130 0.000000 
#    z 0.000000 0.000000 1.756510 
# 
# From -- ./inp_files/5727.got.cif
#   From: 2010.03.12/outbox.cif.g09.slc.cpg/sg61_3_cif.got.tgz:5727.got - 2010.04.10 19:05:03.
