data_PCOD8249473
_publ_section_title
;
Structure prediction by ZEFSAII (Michael W. Deem and Ramdas Pophale) SiO2 
 PCOD8249473
Probable space group: P B C A
;
_chemical_formula_sum "Si O2"
_cell_formula_units_Z 40
_cell_length_a 8.444199
_cell_length_b 9.675138
_cell_length_c 22.268942
_cell_angle_alpha 90.000000
_cell_angle_beta 90.000000
_cell_angle_gamma 90.000000
_cell_volume 1819.345630
_symmetry_space_group_name_H-M "P B C A"
_symmetry_group_IT_number 61
_symmetry_cell_setting 'orthorhombic'
loop_
_space_group_symop_operation_xyz
x,y,z
1/2-x,-y,1/2+z
1/2+x,1/2-y,-z
-x,1/2+y,1/2-z
-x,-y,-z
1/2+x,y,1/2-z
1/2-x,1/2+y,z
x,1/2-y,1/2+z
loop_
_atom_site_type_symbol
_atom_site_label
_atom_site_fract_x
_atom_site_fract_y
_atom_site_fract_z
Si Si1 0.118058 0.155940 0.551214
Si Si2 0.252423 0.258486 0.795833
Si Si3 0.128643 0.495371 0.359904
Si Si4 0.592207 0.278864 0.826576
Si Si5 0.733026 0.902797 0.019503
O O1 0.169434 0.191807 0.619070
O O2 0.172994 0.272555 0.505220
O O3 0.927881 0.149690 0.550316
O O4 0.195879 0.010213 0.533712
O O5 0.235752 0.402103 0.832989
O O6 0.433409 0.203478 0.801441
O O7 0.219801 0.288950 0.726083
O O8 0.131399 0.148760 0.824155
O O9 0.157245 0.474226 0.430484
O O10 0.956609 0.567318 0.350479
#
# Coordination Sequence:
#
# PCOD8249473 Si02
#       5
#     8   8   8   8   8
#     4  11  24  44  67 101 130 180 219 279 334 404
#     4  10  23  41  67  92 131 173 214 275 319 398
#     4  10  22  43  68  91 134 172 213 269 334 390
#     4  10  24  41  64  98 130 168 225 260 338 382
#     4  11  23  45  70  95 140 169 225 273 342 399
#
# _framework density 21.985927
#
# number of rings (size 3 to 8) (size 9 to 14) (size 15 to 20)
#    1.200    0.400    2.000    2.400    2.800    4.800 
#   10.800    0.000    0.000    0.000    0.000    0.000 
#    0.000    0.000    0.000    0.000    0.000    0.000 
#
# Total GULP energy -495948.367577 kJ/mol
# GULP energy per Si atom -12398.709189 kJ/mol
# Density = 2.193589 g / cm^3
# Si number density = 21.985927 Si / 1000 Ang^3
#
#
#
# Elastic Constant Matrix: (Units=GPa)
#
#
# Indices 1 2 3 4 5 6 
#
# 1 15.7146 6.8873 17.5052 0.0000 0.0000 0.0000
# 2 6.8873 87.7042 11.5431 0.0000 0.0000 0.0000
# 3 17.5052 11.5431 90.7353 0.0000 0.0000 0.0000
# 4 0.0000 0.0000 0.0000 29.9385 0.0000 0.0000
# 5 0.0000 0.0000 0.0000 0.0000 34.7395 0.0000
# 6 0.0000 0.0000 0.0000 0.0000 0.0000 28.9944
#
#
#
# Elastic Compliance Matrix: (Units=1/GPa)
#
#
# Indices 1 2 3 4 5 6 
#
# 1 0.082744 -0.004472 -0.015395 0.000000 0.000000 0.000000
# 2 -0.004472 0.011838 -0.000643 0.000000 0.000000 0.000000
# 3 -0.015395 -0.000643 0.014073 0.000000 0.000000 0.000000
# 4 0.000000 0.000000 0.000000 0.033402 0.000000 0.000000
# 5 0.000000 0.000000 0.000000 0.000000 0.028786 0.000000
# 6 0.000000 0.000000 0.000000 0.000000 0.000000 0.034489
#
#
# Mechanical properties :
#
#
# Convention : Reuss Voigt Hill
#
# Bulk Modulus (GPa) = 14.78514 29.55837 22.17176
# Shear Modulus (GPa) = 18.59459 29.28238 23.93848
#
# Velocity S-wave (km/s) = 2.91133 3.65344 3.30329
# Velocity P-wave (km/s) = 4.24742 5.59198 4.96542
#
# Compressibility (1/GPa) = 0.06763548
#
# Stress axis : x y z
#
# Youngs Moduli (GPa) = 12.08550 84.47526 71.05845
#
# Poissons Ratio (x) = 0.37774 1.09391
# Poissons Ratio (y) = 0.05404 0.04571
# Poissons Ratio (z) = 0.18605 0.05434
#
# Static dielectric constant tensor:
#      x y z
#    x 3.593140 0.000000 0.000000 
#    y 0.000000 3.908120 0.000000 
#    z 0.000000 0.000000 3.881720 
# 
# 
# High freq. dielectric constant tensor:
#      x y z
#    x 1.836430 0.000000 0.000000 
#    y 0.000000 1.866700 0.000000 
#    z 0.000000 0.000000 1.874100 
# 
# From -- ./inp_files/10804.got.cif
#   From: 2010.03.12/outbox.cif.g09.slc.cpg/sg61_6_cif.got.tgz:10804.got - 2010.04.10 19:05:03.
