data_PCOD8249770
_publ_section_title
;
Structure prediction by ZEFSAII (Michael W. Deem and Ramdas Pophale) SiO2 
 PCOD8249770
Probable space group: P B C A
;
_chemical_formula_sum "Si O2"
_cell_formula_units_Z 48
_cell_length_a 14.278363
_cell_length_b 17.643653
_cell_length_c 8.880829
_cell_angle_alpha 90.000000
_cell_angle_beta 90.000000
_cell_angle_gamma 90.000000
_cell_volume 2237.280485
_symmetry_space_group_name_H-M "P B C A"
_symmetry_group_IT_number 61
_symmetry_cell_setting 'orthorhombic'
loop_
_space_group_symop_operation_xyz
x,y,z
1/2-x,-y,1/2+z
1/2+x,1/2-y,-z
-x,1/2+y,1/2-z
-x,-y,-z
1/2+x,y,1/2-z
1/2-x,1/2+y,z
x,1/2-y,1/2+z
loop_
_atom_site_type_symbol
_atom_site_label
_atom_site_fract_x
_atom_site_fract_y
_atom_site_fract_z
Si Si1 0.696963 0.328401 0.419304
Si Si2 0.813072 0.327297 0.909233
Si Si3 0.478208 0.711878 0.379142
Si Si4 0.020277 0.354684 0.556966
Si Si5 0.313809 0.909281 0.382196
Si Si6 0.822781 0.081146 0.119420
O O1 0.760031 0.252841 0.420278
O O2 0.606859 0.321305 0.524713
O O3 0.661920 0.351794 0.253581
O O4 0.761688 0.398132 0.473735
O O5 0.787137 0.362266 0.748324
O O6 0.924546 0.326239 0.927531
O O7 0.783186 0.381678 0.045440
O O8 0.456944 0.697851 0.202610
O O9 0.494106 0.800460 0.412846
O O10 0.108836 0.406466 0.515512
O O11 0.932441 0.408533 0.584672
O O12 0.304798 0.995469 0.327381
#
# Coordination Sequence:
#
# PCOD8249770 Si02
#       6
#     8   8   8   8   8   8
#     4  12  24  42  71  98 130 177 221 273 326 390
#     4  11  24  44  67  97 131 175 224 275 319 395
#     4  11  24  41  70  99 128 168 229 275 317 392
#     4  11  23  42  67  95 133 169 220 273 327 386
#     4  12  25  42  68  98 138 174 217 272 336 389
#     4  11  25  45  65  99 135 177 219 271 332 391
#
# _framework density 21.454616999999999
#
# number of rings (size 3 to 8) (size 9 to 14) (size 15 to 20)
#    0.000    0.667    3.333    4.500    2.333    1.333 
#    0.000    9.167    0.000    0.000    0.000    0.000 
#    0.000    0.000    0.000    0.000    0.000    0.000 
#
# Total GULP energy -595306.977157 kJ/mol
# GULP energy per Si atom -12402.228691 kJ/mol
# Density = 2.140579 g / cm^3
# Si number density = 21.454617 Si / 1000 Ang^3
#
#
#
# Elastic Constant Matrix: (Units=GPa)
#
#
# Indices 1 2 3 4 5 6 
#
# 1 106.9832 38.5608 47.7449 0.0000 0.0000 0.0000
# 2 38.5608 105.3841 26.1481 0.0000 0.0000 0.0000
# 3 47.7449 26.1481 91.0456 0.0000 0.0000 0.0000
# 4 0.0000 0.0000 0.0000 29.5923 0.0000 0.0000
# 5 0.0000 0.0000 0.0000 0.0000 36.3755 0.0000
# 6 0.0000 0.0000 0.0000 0.0000 0.0000 21.3768
#
#
#
# Elastic Compliance Matrix: (Units=1/GPa)
#
#
# Indices 1 2 3 4 5 6 
#
# 1 0.013221 -0.003357 -0.005969 0.000000 0.000000 0.000000
# 2 -0.003357 0.011069 -0.001419 0.000000 0.000000 0.000000
# 3 -0.005969 -0.001419 0.014521 0.000000 0.000000 0.000000
# 4 0.000000 0.000000 0.000000 0.033793 0.000000 0.000000
# 5 0.000000 0.000000 0.000000 0.000000 0.027491 0.000000
# 6 0.000000 0.000000 0.000000 0.000000 0.000000 0.046780
#
#
# Mechanical properties :
#
#
# Convention : Reuss Voigt Hill
#
# Bulk Modulus (GPa) = 57.72884 58.70228 58.21556
# Shear Modulus (GPa) = 28.71277 30.19952 29.45614
#
# Velocity S-wave (km/s) = 3.66225 3.75587 3.70936
# Velocity P-wave (km/s) = 6.69691 6.79921 6.74825
#
# Compressibility (1/GPa) = 0.01732237
#
# Stress axis : x y z
#
# Youngs Moduli (GPa) = 75.63675 90.33955 68.86429
#
# Poissons Ratio (x) = 0.30323 0.41107
# Poissons Ratio (y) = 0.25388 0.09771
# Poissons Ratio (z) = 0.45149 0.12818
#
# Static dielectric constant tensor:
#      x y z
#    x 4.016970 0.000000 0.000000 
#    y 0.000000 3.670730 0.000000 
#    z 0.000000 0.000000 3.985390 
# 
# 
# High freq. dielectric constant tensor:
#      x y z
#    x 1.857240 0.000000 0.000000 
#    y 0.000000 1.831860 0.000000 
#    z 0.000000 0.000000 1.849470 
# 
# From -- ./inp_files/2835.got.cif
#   From: 2010.03.12/outbox.cif.g09.slc.cpg/sg61_2_cif.got.tgz:2835.got - 2010.04.10 19:05:03.
