data_PCOD8249675
_publ_section_title
;
Structure prediction by ZEFSAII (Michael W. Deem and Ramdas Pophale) SiO2 
 PCOD8249675
Probable space group: P B C A
;
_chemical_formula_sum "Si O2"
_cell_formula_units_Z 56
_cell_length_a 16.336554
_cell_length_b 7.202607
_cell_length_c 18.010537
_cell_angle_alpha 90.000000
_cell_angle_beta 90.000000
_cell_angle_gamma 90.000000
_cell_volume 2119.223852
_symmetry_space_group_name_H-M "P B C A"
_symmetry_group_IT_number 61
_symmetry_cell_setting 'orthorhombic'
loop_
_space_group_symop_operation_xyz
x,y,z
1/2-x,-y,1/2+z
1/2+x,1/2-y,-z
-x,1/2+y,1/2-z
-x,-y,-z
1/2+x,y,1/2-z
1/2-x,1/2+y,z
x,1/2-y,1/2+z
loop_
_atom_site_type_symbol
_atom_site_label
_atom_site_fract_x
_atom_site_fract_y
_atom_site_fract_z
Si Si1 0.000552 0.952313 0.724704
Si Si2 0.795284 0.759997 0.094753
Si Si3 0.078632 0.776384 0.021268
Si Si4 0.629157 0.630312 0.628759
Si Si5 0.042998 0.093512 0.866287
Si Si6 0.699989 0.408669 0.936992
Si Si7 0.134918 0.457332 0.117552
O O1 0.089074 0.023638 0.695764
O O2 0.925848 0.092369 0.701094
O O3 0.010470 0.924171 0.814586
O O4 0.980683 0.755326 0.691003
O O5 0.841726 0.564147 0.091691
O O6 0.714249 0.761124 0.147238
O O7 0.859674 0.916547 0.121564
O O8 0.764145 0.817481 0.012660
O O9 0.997397 0.881017 0.052529
O O10 0.081596 0.570103 0.056369
O O11 0.155447 0.897555 0.047496
O O12 0.076006 0.753441 0.931408
O O13 0.637885 0.261184 0.901055
O O14 0.773836 0.455885 0.880685
#
# Coordination Sequence:
#
# PCOD8249675 Si02
#       7
#     8   8   8   8   8   8   8
#     4  10  26  46  67  93 142 187 235 283 346 423
#     4  11  22  41  69 101 139 173 231 285 356 415
#     4  11  23  41  68 101 132 177 225 289 353 402
#     4  11  22  43  70  99 137 182 223 298 351 409
#     4  10  26  46  66  96 137 186 232 286 347 420
#     4  12  21  38  67 101 136 169 225 286 345 412
#     4  11  22  41  65  99 141 172 222 292 337 414
#
# _framework density 26.424769000000001
#
# number of rings (size 3 to 8) (size 9 to 14) (size 15 to 20)
#    0.000    1.143    4.286    0.857    4.000    4.571 
#    2.571    0.000    0.000    0.000    0.000    0.000 
#    0.000    0.000    0.000    0.000    0.000    0.000 
#
# Total GULP energy -694188.143778 kJ/mol
# GULP energy per Si atom -12396.216853 kJ/mol
# Density = 2.636463 g / cm^3
# Si number density = 26.424769 Si / 1000 Ang^3
#
#
#
# Elastic Constant Matrix: (Units=GPa)
#
#
# Indices 1 2 3 4 5 6 
#
# 1 82.8289 8.0410 35.6460 0.0000 0.0000 0.0000
# 2 8.0410 67.8655 3.1959 0.0000 0.0000 0.0000
# 3 35.6460 3.1959 96.1498 0.0000 0.0000 0.0000
# 4 0.0000 0.0000 0.0000 28.9910 0.0000 0.0000
# 5 0.0000 0.0000 0.0000 0.0000 27.6118 0.0000
# 6 0.0000 0.0000 0.0000 0.0000 0.0000 20.1325
#
#
#
# Elastic Compliance Matrix: (Units=1/GPa)
#
#
# Indices 1 2 3 4 5 6 
#
# 1 0.014510 -0.001468 -0.005330 0.000000 0.000000 0.000000
# 2 -0.001468 0.014907 0.000049 0.000000 0.000000 0.000000
# 3 -0.005330 0.000049 0.012375 0.000000 0.000000 0.000000
# 4 0.000000 0.000000 0.000000 0.034493 0.000000 0.000000
# 5 0.000000 0.000000 0.000000 0.000000 0.036216 0.000000
# 6 0.000000 0.000000 0.000000 0.000000 0.000000 0.049671
#
#
# Mechanical properties :
#
#
# Convention : Reuss Voigt Hill
#
# Bulk Modulus (GPa) = 35.34597 37.84557 36.59577
# Shear Modulus (GPa) = 27.01212 28.67781 27.84496
#
# Velocity S-wave (km/s) = 3.20070 3.29791 3.24967
# Velocity P-wave (km/s) = 5.20235 5.37166 5.28768
#
# Compressibility (1/GPa) = 0.02829177
#
# Stress axis : x y z
#
# Youngs Moduli (GPa) = 68.91999 67.08405 80.80828
#
# Poissons Ratio (x) = 0.09849 0.43074
# Poissons Ratio (y) = 0.10118 -0.00394
# Poissons Ratio (z) = 0.36737 -0.00327
#
# Static dielectric constant tensor:
#      x y z
#    x 4.929920 0.000000 0.000000 
#    y 0.000000 5.241280 0.000000 
#    z 0.000000 0.000000 4.773590 
# 
# 
# High freq. dielectric constant tensor:
#      x y z
#    x 2.066370 0.000000 0.000000 
#    y 0.000000 2.093390 0.000000 
#    z 0.000000 0.000000 2.020900 
# 
# From -- ./inp_files/10446.got.cif
#   From: 2010.03.12/outbox.cif.g09.slc.cpg/sg61_6_cif.got.tgz:10446.got - 2010.04.10 19:05:03.
