data_PCOD8249257
_publ_section_title
;
Structure prediction by ZEFSAII (Michael W. Deem and Ramdas Pophale) SiO2 
 PCOD8249257
Probable space group: P B C A
;
_chemical_formula_sum "Si O2"
_cell_formula_units_Z 56
_cell_length_a 5.144584
_cell_length_b 14.428831
_cell_length_c 28.622521
_cell_angle_alpha 90.000000
_cell_angle_beta 90.000000
_cell_angle_gamma 90.000000
_cell_volume 2124.659268
_symmetry_space_group_name_H-M "P B C A"
_symmetry_group_IT_number 61
_symmetry_cell_setting 'orthorhombic'
loop_
_space_group_symop_operation_xyz
x,y,z
1/2-x,-y,1/2+z
1/2+x,1/2-y,-z
-x,1/2+y,1/2-z
-x,-y,-z
1/2+x,y,1/2-z
1/2-x,1/2+y,z
x,1/2-y,1/2+z
loop_
_atom_site_type_symbol
_atom_site_label
_atom_site_fract_x
_atom_site_fract_y
_atom_site_fract_z
Si Si1 0.486078 0.499140 0.726442
Si Si2 0.271016 0.872219 0.536588
Si Si3 0.415823 0.708190 0.381260
Si Si4 0.036763 0.779424 0.723005
Si Si5 0.264280 0.509222 0.368361
Si Si6 0.458692 0.199422 0.946310
Si Si7 0.228815 0.951201 0.085135
O O1 0.194543 0.537184 0.735087
O O2 0.467098 0.389105 0.728737
O O3 0.601654 0.531808 0.677591
O O4 0.515947 0.802339 0.531803
O O5 0.124445 0.832818 0.582458
O O6 0.124747 0.870262 0.487402
O O7 0.369358 0.977425 0.544830
O O8 0.540259 0.745640 0.332646
O O9 0.226892 0.620955 0.367628
O O10 0.247969 0.792558 0.403857
O O11 0.789546 0.737148 0.750945
O O12 0.468371 0.479317 0.407939
O O13 0.978530 0.462750 0.373244
O O14 0.740710 0.157322 0.929036
#
# Coordination Sequence:
#
# PCOD8249257 Si02
#       7
#     8   8   8   8   8   8   8
#     4   9  16  29  56  88 120 160 210 269 327 386
#     4  11  24  44  65 100 133 175 227 272 330 399
#     4  10  22  39  65  92 132 175 215 278 330 391
#     4   9  19  33  57  92 124 162 216 267 325 391
#     4  10  21  40  60  94 130 167 222 270 327 396
#     4  12  24  42  67  96 134 181 220 274 333 398
#     4  11  25  41  66  94 133 175 218 272 325 392
#
# _framework density 26.357168000000001
#
# number of rings (size 3 to 8) (size 9 to 14) (size 15 to 20)
#    0.000    1.714    2.857    1.286    4.000    3.429 
#    0.000    2.857    0.000    5.143    0.000    0.000 
#    0.000    0.000    0.000    0.000    0.000    0.000 
#
# Total GULP energy -693930.477022 kJ/mol
# GULP energy per Si atom -12391.615661 kJ/mol
# Density = 2.629718 g / cm^3
# Si number density = 26.357168 Si / 1000 Ang^3
#
#
#
# Elastic Constant Matrix: (Units=GPa)
#
#
# Indices 1 2 3 4 5 6 
#
# 1 76.3748 -23.6871 -2.2248 0.0000 0.0000 0.0000
# 2 -23.6871 32.2828 -22.7015 0.0000 0.0000 0.0000
# 3 -2.2248 -22.7015 123.6551 0.0000 0.0000 0.0000
# 4 0.0000 0.0000 0.0000 16.6035 0.0000 0.0000
# 5 0.0000 0.0000 0.0000 0.0000 36.6544 0.0000
# 6 0.0000 0.0000 0.0000 0.0000 0.0000 16.9813
#
#
#
# Elastic Compliance Matrix: (Units=1/GPa)
#
#
# Indices 1 2 3 4 5 6 
#
# 1 0.017958 0.015391 0.003149 0.000000 0.000000 0.000000
# 2 0.015391 0.048759 0.009228 0.000000 0.000000 0.000000
# 3 0.003149 0.009228 0.009838 0.000000 0.000000 0.000000
# 4 0.000000 0.000000 0.000000 0.060228 0.000000 0.000000
# 5 0.000000 0.000000 0.000000 0.000000 0.027282 0.000000
# 6 0.000000 0.000000 0.000000 0.000000 0.000000 0.058888
#
#
# Mechanical properties :
#
#
# Convention : Reuss Voigt Hill
#
# Bulk Modulus (GPa) = 7.57053 15.00954 11.29004
# Shear Modulus (GPa) = 23.64651 32.77625 28.21138
#
# Velocity S-wave (km/s) = 2.99851 3.53021 3.27517
# Velocity P-wave (km/s) = 3.85572 4.72478 4.31220
#
# Compressibility (1/GPa) = 0.13209115
#
# Stress axis : x y z
#
# Youngs Moduli (GPa) = 55.68405 20.50918 101.64800
#
# Poissons Ratio (x) = -0.31566 -0.32006
# Poissons Ratio (y) = -0.85703 -0.93805
# Poissons Ratio (z) = -0.17533 -0.18927
#
# Static dielectric constant tensor:
#      x y z
#    x 4.835890 0.000000 0.000000 
#    y 0.000000 4.804280 0.000000 
#    z 0.000000 0.000000 4.699280 
# 
# 
# High freq. dielectric constant tensor:
#      x y z
#    x 2.052090 0.000000 0.000000 
#    y 0.000000 2.046630 0.000000 
#    z 0.000000 0.000000 2.050980 
# 
# From -- ./inp_files/589.got.cif
#   From: 2010.03.12/outbox.cif.g09.slc.cpg/sg61_1_cif.got.tgz:589.got - 2010.04.10 19:05:03.
