data_PCOD8249715
_publ_section_title
;
Structure prediction by ZEFSAII (Michael W. Deem and Ramdas Pophale) SiO2 
 PCOD8249715
Probable space group: P B C A
;
_chemical_formula_sum "Si O2"
_cell_formula_units_Z 48
_cell_length_a 9.633797
_cell_length_b 18.453320
_cell_length_c 12.620684
_cell_angle_alpha 90.000000
_cell_angle_beta 90.000000
_cell_angle_gamma 90.000000
_cell_volume 2243.648899
_symmetry_space_group_name_H-M "P B C A"
_symmetry_group_IT_number 61
_symmetry_cell_setting 'orthorhombic'
loop_
_space_group_symop_operation_xyz
x,y,z
1/2-x,-y,1/2+z
1/2+x,1/2-y,-z
-x,1/2+y,1/2-z
-x,-y,-z
1/2+x,y,1/2-z
1/2-x,1/2+y,z
x,1/2-y,1/2+z
loop_
_atom_site_type_symbol
_atom_site_label
_atom_site_fract_x
_atom_site_fract_y
_atom_site_fract_z
Si Si1 0.350511 0.812464 0.198422
Si Si2 0.178029 0.900866 0.032472
Si Si3 0.997231 0.717600 0.449139
Si Si4 0.276525 0.017324 0.879632
Si Si5 0.261631 0.181345 0.917642
Si Si6 0.998006 0.550963 0.721299
O O1 0.274170 0.845403 0.096071
O O2 0.421668 0.736514 0.162689
O O3 0.239179 0.800015 0.291727
O O4 0.469894 0.867418 0.238167
O O5 0.082410 0.946727 0.111766
O O6 0.082290 0.857649 0.947449
O O7 0.276290 0.955642 0.968408
O O8 0.105662 0.782679 0.473923
O O9 0.882490 0.714019 0.540363
O O10 0.268251 0.095351 0.937021
O O11 0.416010 0.008410 0.810851
O O12 0.146009 0.009298 0.799394
#
# Coordination Sequence:
#
# PCOD8249715 Si02
#       6
#     8   8   8   8   8   8
#     4  11  22  43  70  92 128 178 219 261 333 403
#     4  12  23  42  68  97 131 169 223 273 322 388
#     4  12  23  41  68  99 128 171 226 275 325 395
#     4  11  24  42  70  95 130 179 219 264 329 398
#     4  11  24  42  68  96 133 178 217 267 344 394
#     4  11  21  44  68  92 130 176 211 260 338 391
#
# _framework density 21.393720999999999
#
# number of rings (size 3 to 8) (size 9 to 14) (size 15 to 20)
#    0.000    0.667   10.000    0.500    0.000    0.667 
#    3.000    1.667    0.000    0.000    0.000    0.000 
#    0.000    0.000    0.000    0.000    0.000    0.000 
#
# Total GULP energy -595126.313435 kJ/mol
# GULP energy per Si atom -12398.464863 kJ/mol
# Density = 2.134503 g / cm^3
# Si number density = 21.393721 Si / 1000 Ang^3
#
#
#
# Elastic Constant Matrix: (Units=GPa)
#
#
# Indices 1 2 3 4 5 6 
#
# 1 90.1973 17.1523 14.4207 0.0000 0.0000 0.0000
# 2 17.1523 64.9081 38.5117 0.0000 0.0000 0.0000
# 3 14.4207 38.5117 72.4616 0.0000 0.0000 0.0000
# 4 0.0000 0.0000 0.0000 39.6404 0.0000 0.0000
# 5 0.0000 0.0000 0.0000 0.0000 40.6040 0.0000
# 6 0.0000 0.0000 0.0000 0.0000 0.0000 32.2439
#
#
#
# Elastic Compliance Matrix: (Units=1/GPa)
#
#
# Indices 1 2 3 4 5 6 
#
# 1 0.011723 -0.002503 -0.001003 0.000000 0.000000 0.000000
# 2 -0.002503 0.023037 -0.011745 0.000000 0.000000 0.000000
# 3 -0.001003 -0.011745 0.020242 0.000000 0.000000 0.000000
# 4 0.000000 0.000000 0.000000 0.025227 0.000000 0.000000
# 5 0.000000 0.000000 0.000000 0.000000 0.024628 0.000000
# 6 0.000000 0.000000 0.000000 0.000000 0.000000 0.031014
#
#
# Mechanical properties :
#
#
# Convention : Reuss Voigt Hill
#
# Bulk Modulus (GPa) = 40.81631 40.85959 40.83795
# Shear Modulus (GPa) = 28.64681 32.99647 30.82164
#
# Velocity S-wave (km/s) = 3.66324 3.93153 3.79976
# Velocity P-wave (km/s) = 6.08379 6.30473 6.19524
#
# Compressibility (1/GPa) = 0.02450001
#
# Stress axis : x y z
#
# Youngs Moduli (GPa) = 85.30171 43.40907 49.40129
#
# Poissons Ratio (x) = 0.10865 0.04954
# Poissons Ratio (y) = 0.21350 0.58024
# Poissons Ratio (z) = 0.08554 0.50986
#
# Static dielectric constant tensor:
#      x y z
#    x 4.127040 0.000000 0.000000 
#    y 0.000000 3.637440 0.000000 
#    z 0.000000 0.000000 3.872940 
# 
# 
# High freq. dielectric constant tensor:
#      x y z
#    x 1.860950 0.000000 0.000000 
#    y 0.000000 1.809500 0.000000 
#    z 0.000000 0.000000 1.824930 
# 
# From -- ./inp_files/5264.got.cif
#   From: 2010.03.12/outbox.cif.g09.slc.cpg/sg61_3_cif.got.tgz:5264.got - 2010.04.10 19:05:03.
