data_PCOD8249577
_publ_section_title
;
Structure prediction by ZEFSAII (Michael W. Deem and Ramdas Pophale) SiO2 
 PCOD8249577
Probable space group: P B C A
;
_chemical_formula_sum "Si O2"
_cell_formula_units_Z 56
_cell_length_a 8.873735
_cell_length_b 22.351377
_cell_length_c 13.474266
_cell_angle_alpha 90.000000
_cell_angle_beta 90.000000
_cell_angle_gamma 90.000000
_cell_volume 2672.488565
_symmetry_space_group_name_H-M "P B C A"
_symmetry_group_IT_number 61
_symmetry_cell_setting 'orthorhombic'
loop_
_space_group_symop_operation_xyz
x,y,z
1/2-x,-y,1/2+z
1/2+x,1/2-y,-z
-x,1/2+y,1/2-z
-x,-y,-z
1/2+x,y,1/2-z
1/2-x,1/2+y,z
x,1/2-y,1/2+z
loop_
_atom_site_type_symbol
_atom_site_label
_atom_site_fract_x
_atom_site_fract_y
_atom_site_fract_z
Si Si1 0.125235 0.371015 0.431606
Si Si2 0.582035 0.454485 0.373947
Si Si3 0.848707 0.290015 0.190356
Si Si4 0.608133 0.590912 0.791445
Si Si5 0.931021 0.738556 0.472372
Si Si6 0.889848 0.082483 0.451398
Si Si7 0.128736 0.788182 0.625995
O O1 0.201734 0.319463 0.360697
O O2 0.038288 0.333265 0.517757
O O3 0.250042 0.415340 0.473819
O O4 0.009264 0.416697 0.381051
O O5 0.721805 0.420294 0.324762
O O6 0.438865 0.451575 0.299845
O O7 0.539868 0.422894 0.479170
O O8 0.625002 0.523658 0.384917
O O9 0.918006 0.340399 0.260972
O O10 0.828963 0.231825 0.261814
O O11 0.970669 0.272189 0.108666
O O12 0.753569 0.742765 0.446196
O O13 0.967991 0.767066 0.580944
O O14 0.881236 0.139685 0.378877
#
# Coordination Sequence:
#
# PCOD8249577 Si02
#       7
#     8   8   8   8   8   8   8
#     4  11  22  41  64  99 131 171 221 268 329 407
#     4  11  23  43  70  91 128 179 223 277 326 383
#     4  12  22  39  66  99 131 172 216 269 329 398
#     4  12  22  39  71  97 123 167 234 270 321 396
#     4  11  22  39  61  95 137 164 208 268 326 393
#     4  10  23  45  63  91 137 174 215 276 331 391
#     4  11  24  38  66  98 135 172 214 268 336 402
#
# _framework density 20.954253000000001
#
# number of rings (size 3 to 8) (size 9 to 14) (size 15 to 20)
#    0.000    0.857    7.143    0.857    2.000    0.571 
#    5.143    0.000    0.000    0.000    0.000    0.000 
#    0.000    0.000    0.000    0.000    0.000    0.000 
#
# Total GULP energy -693786.060520 kJ/mol
# GULP energy per Si atom -12389.036795 kJ/mol
# Density = 2.090656 g / cm^3
# Si number density = 20.954253 Si / 1000 Ang^3
#
#
#
# Elastic Constant Matrix: (Units=GPa)
#
#
# Indices 1 2 3 4 5 6 
#
# 1 64.7440 33.3029 18.2661 0.0000 0.0000 0.0000
# 2 33.3029 86.0295 36.9933 0.0000 0.0000 0.0000
# 3 18.2661 36.9933 62.7123 0.0000 0.0000 0.0000
# 4 0.0000 0.0000 0.0000 39.8297 0.0000 0.0000
# 5 0.0000 0.0000 0.0000 0.0000 18.9854 0.0000
# 6 0.0000 0.0000 0.0000 0.0000 0.0000 23.1117
#
#
#
# Elastic Compliance Matrix: (Units=1/GPa)
#
#
# Indices 1 2 3 4 5 6 
#
# 1 0.019410 -0.006810 -0.001636 0.000000 0.000000 0.000000
# 2 -0.006810 0.017964 -0.008613 0.000000 0.000000 0.000000
# 3 -0.001636 -0.008613 0.021503 0.000000 0.000000 0.000000
# 4 0.000000 0.000000 0.000000 0.025107 0.000000 0.000000
# 5 0.000000 0.000000 0.000000 0.000000 0.052672 0.000000
# 6 0.000000 0.000000 0.000000 0.000000 0.000000 0.043268
#
#
# Mechanical properties :
#
#
# Convention : Reuss Voigt Hill
#
# Bulk Modulus (GPa) = 40.39097 43.40117 41.89607
# Shear Modulus (GPa) = 22.49249 24.71359 23.60304
#
# Velocity S-wave (km/s) = 3.27985 3.43798 3.35984
# Velocity P-wave (km/s) = 5.80180 6.04292 5.92358
#
# Compressibility (1/GPa) = 0.02475801
#
# Stress axis : x y z
#
# Youngs Moduli (GPa) = 51.51950 55.66707 46.50471
#
# Poissons Ratio (x) = 0.37911 0.07609
# Poissons Ratio (y) = 0.35086 0.40055
# Poissons Ratio (z) = 0.08430 0.47947
#
# Static dielectric constant tensor:
#      x y z
#    x 3.767740 0.000000 0.000000 
#    y 0.000000 3.682190 0.000000 
#    z 0.000000 0.000000 3.972300 
# 
# 
# High freq. dielectric constant tensor:
#      x y z
#    x 1.822640 0.000000 0.000000 
#    y 0.000000 1.804290 0.000000 
#    z 0.000000 0.000000 1.819580 
# 
# From -- ./inp_files/7162.got.cif
#   From: 2010.03.12/outbox.cif.g09.slc.cpg/sg61_4_cif.got.tgz:7162.got - 2010.04.10 19:05:03.
