data_PCOD8249851
_publ_section_title
;
Structure prediction by ZEFSAII (Michael W. Deem and Ramdas Pophale) SiO2 
 PCOD8249851
Probable space group: P B C A
;
_chemical_formula_sum "Si O2"
_cell_formula_units_Z 40
_cell_length_a 18.510104
_cell_length_b 8.439302
_cell_length_c 10.343800
_cell_angle_alpha 90.000000
_cell_angle_beta 90.000000
_cell_angle_gamma 90.000000
_cell_volume 1615.829386
_symmetry_space_group_name_H-M "P B C A"
_symmetry_group_IT_number 61
_symmetry_cell_setting 'orthorhombic'
loop_
_space_group_symop_operation_xyz
x,y,z
1/2-x,-y,1/2+z
1/2+x,1/2-y,-z
-x,1/2+y,1/2-z
-x,-y,-z
1/2+x,y,1/2-z
1/2-x,1/2+y,z
x,1/2-y,1/2+z
loop_
_atom_site_type_symbol
_atom_site_label
_atom_site_fract_x
_atom_site_fract_y
_atom_site_fract_z
Si Si1 0.924387 0.674329 0.487087
Si Si2 0.688211 0.958293 0.364109
Si Si3 0.388592 0.520359 0.376610
Si Si4 0.034294 0.400456 0.234592
Si Si5 0.341006 0.098806 0.119719
O O1 0.869809 0.528619 0.465227
O O2 0.879501 0.823005 0.537899
O O3 0.961604 0.736901 0.352033
O O4 0.977115 0.630055 0.609845
O O5 0.676457 0.773746 0.332671
O O6 0.674680 0.040476 0.226498
O O7 0.769406 0.994214 0.404057
O O8 0.465974 0.500942 0.310039
O O9 0.377446 0.378238 0.478565
O O10 0.105670 0.508582 0.218459
#
# Coordination Sequence:
#
# PCOD8249851 Si02
#       5
#     8   8   8   8   8
#     4  11  24  49  74 107 149 196 240 305 364 433
#     4  12  28  45  77 105 145 202 246 310 374 442
#     4  11  27  47  75 110 149 192 255 301 373 438
#     4  11  26  48  79 110 158 188 253 302 370 446
#     4  11  27  47  71 108 149 193 250 309 374 442
#
# _framework density 24.755088000000001
#
# number of rings (size 3 to 8) (size 9 to 14) (size 15 to 20)
#    0.000    0.800    2.000    4.800   11.200    0.800 
#    0.000    0.000    0.000    0.000    0.000    0.000 
#    0.000    0.000    0.000    0.000    0.000    0.000 
#
# Total GULP energy -495715.062991 kJ/mol
# GULP energy per Si atom -12392.876575 kJ/mol
# Density = 2.469874 g / cm^3
# Si number density = 24.755088 Si / 1000 Ang^3
#
#
#
# Elastic Constant Matrix: (Units=GPa)
#
#
# Indices 1 2 3 4 5 6 
#
# 1 72.7319 32.5338 7.6645 0.0000 0.0000 0.0000
# 2 32.5338 91.0222 8.1462 0.0000 0.0000 0.0000
# 3 7.6645 8.1462 116.0363 0.0000 0.0000 0.0000
# 4 0.0000 0.0000 0.0000 17.5749 0.0000 0.0000
# 5 0.0000 0.0000 0.0000 0.0000 30.1824 0.0000
# 6 0.0000 0.0000 0.0000 0.0000 0.0000 15.5431
#
#
#
# Elastic Compliance Matrix: (Units=1/GPa)
#
#
# Indices 1 2 3 4 5 6 
#
# 1 0.016418 -0.005808 -0.000677 0.000000 0.000000 0.000000
# 2 -0.005808 0.013110 -0.000537 0.000000 0.000000 0.000000
# 3 -0.000677 -0.000537 0.008700 0.000000 0.000000 0.000000
# 4 0.000000 0.000000 0.000000 0.056899 0.000000 0.000000
# 5 0.000000 0.000000 0.000000 0.000000 0.033132 0.000000
# 6 0.000000 0.000000 0.000000 0.000000 0.000000 0.064337
#
#
# Mechanical properties :
#
#
# Convention : Reuss Voigt Hill
#
# Bulk Modulus (GPa) = 41.34566 41.83104 41.58835
# Shear Modulus (GPa) = 23.28810 28.08982 25.68896
#
# Velocity S-wave (km/s) = 3.07048 3.37220 3.22487
# Velocity P-wave (km/s) = 5.41374 5.66542 5.54101
#
# Compressibility (1/GPa) = 0.02418634
#
# Stress axis : x y z
#
# Youngs Moduli (GPa) = 60.90750 76.27631 114.93761
#
# Poissons Ratio (x) = 0.44300 0.07778
# Poissons Ratio (y) = 0.35374 0.06169
# Poissons Ratio (z) = 0.04122 0.04094
#
# Static dielectric constant tensor:
#      x y z
#    x 4.207140 0.000000 0.000000 
#    y 0.000000 4.585800 0.000000 
#    z 0.000000 0.000000 5.038670 
# 
# 
# High freq. dielectric constant tensor:
#      x y z
#    x 1.970920 0.000000 0.000000 
#    y 0.000000 1.994060 0.000000 
#    z 0.000000 0.000000 2.003520 
# 
# From -- ./inp_files/6082.got.cif
#   From: 2010.03.12/outbox.cif.g09.slc.cpg/sg61_4_cif.got.tgz:6082.got - 2010.04.10 19:05:03.
