data_PCOD8249191
_publ_section_title
;
Structure prediction by ZEFSAII (Michael W. Deem and Ramdas Pophale) SiO2 
 PCOD8249191
Probable space group: P B C A
;
_chemical_formula_sum "Si O2"
_cell_formula_units_Z 40
_cell_length_a 7.390113
_cell_length_b 14.873214
_cell_length_c 17.718341
_cell_angle_alpha 90.000000
_cell_angle_beta 90.000000
_cell_angle_gamma 90.000000
_cell_volume 1947.506705
_symmetry_space_group_name_H-M "P B C A"
_symmetry_group_IT_number 61
_symmetry_cell_setting 'orthorhombic'
loop_
_space_group_symop_operation_xyz
x,y,z
1/2-x,-y,1/2+z
1/2+x,1/2-y,-z
-x,1/2+y,1/2-z
-x,-y,-z
1/2+x,y,1/2-z
1/2-x,1/2+y,z
x,1/2-y,1/2+z
loop_
_atom_site_type_symbol
_atom_site_label
_atom_site_fract_x
_atom_site_fract_y
_atom_site_fract_z
Si Si1 0.199732 0.933501 0.649785
Si Si2 0.097281 0.568118 0.313383
Si Si3 0.711345 0.331599 0.993319
Si Si4 0.365877 0.025730 0.906487
Si Si5 0.685316 0.859247 0.539025
O O1 0.398303 0.970945 0.668179
O O2 0.206977 0.851965 0.589679
O O3 0.110379 0.897052 0.727584
O O4 0.075196 0.013829 0.617070
O O5 0.238996 0.487371 0.332123
O O6 0.143258 0.651198 0.370498
O O7 0.507697 0.369644 0.002948
O O8 0.837225 0.376849 0.057159
O O9 0.704973 0.225037 0.006834
O O10 0.306804 0.950030 0.970067
#
# Coordination Sequence:
#
# PCOD8249191 Si02
#       5
#     8   8   8   8   8
#     4  11  19  35  64  83 114 163 193 241 309 345
#     4   9  20  36  60  81 119 159 193 244 300 355
#     4  11  21  37  63  91 119 161 200 252 294 360
#     4  10  21  38  62  85 122 152 205 244 296 361
#     4   9  21  36  59  87 122 153 201 247 300 351
#
# _framework density 20.539083000000002
#
# number of rings (size 3 to 8) (size 9 to 14) (size 15 to 20)
#    1.200    0.800    2.000    2.400    0.000    0.000 
#    0.000    0.000   22.000    0.000    0.000    0.000 
#    0.000    0.000    0.000    0.000    0.000    0.000 
#
# Total GULP energy -495564.602016 kJ/mol
# GULP energy per Si atom -12389.115050 kJ/mol
# Density = 2.049234 g / cm^3
# Si number density = 20.539083 Si / 1000 Ang^3
#
#
#
# Elastic Constant Matrix: (Units=GPa)
#
#
# Indices 1 2 3 4 5 6 
#
# 1 88.5144 -8.4362 10.9430 0.0000 0.0000 0.0000
# 2 -8.4362 46.7594 7.3753 0.0000 0.0000 0.0000
# 3 10.9430 7.3753 87.9605 0.0000 0.0000 0.0000
# 4 0.0000 0.0000 0.0000 16.4455 0.0000 0.0000
# 5 0.0000 0.0000 0.0000 0.0000 35.4624 0.0000
# 6 0.0000 0.0000 0.0000 0.0000 0.0000 19.1148
#
#
#
# Elastic Compliance Matrix: (Units=1/GPa)
#
#
# Indices 1 2 3 4 5 6 
#
# 1 0.011729 0.002378 -0.001659 0.000000 0.000000 0.000000
# 2 0.002378 0.022155 -0.002153 0.000000 0.000000 0.000000
# 3 -0.001659 -0.002153 0.011756 0.000000 0.000000 0.000000
# 4 0.000000 0.000000 0.000000 0.060807 0.000000 0.000000
# 5 0.000000 0.000000 0.000000 0.000000 0.028199 0.000000
# 6 0.000000 0.000000 0.000000 0.000000 0.000000 0.052315
#
#
# Mechanical properties :
#
#
# Convention : Reuss Voigt Hill
#
# Bulk Modulus (GPa) = 23.38028 26.99984 25.19006
# Shear Modulus (GPa) = 24.49942 28.42801 26.46372
#
# Velocity S-wave (km/s) = 3.45747 3.72438 3.59340
# Velocity P-wave (km/s) = 5.22942 5.62750 5.43211
#
# Compressibility (1/GPa) = 0.04277109
#
# Stress axis : x y z
#
# Youngs Moduli (GPa) = 85.25685 45.13711 85.06549
#
# Poissons Ratio (x) = -0.10733 0.14109
# Poissons Ratio (y) = -0.20272 0.18318
# Poissons Ratio (z) = 0.14141 0.09720
#
# Static dielectric constant tensor:
#      x y z
#    x 3.945190 0.000000 0.000000 
#    y 0.000000 3.029640 0.000000 
#    z 0.000000 0.000000 3.794820 
# 
# 
# High freq. dielectric constant tensor:
#      x y z
#    x 1.831510 0.000000 0.000000 
#    y 0.000000 1.735610 0.000000 
#    z 0.000000 0.000000 1.800690 
# 
# From -- ./inp_files/8299.got.cif
#   From: 2010.03.12/outbox.cif.g09.slc.cpg/sg61_5_cif.got.tgz:8299.got - 2010.04.10 19:05:03.
