data_PCOD8249084
_publ_section_title
;
Structure prediction by ZEFSAII (Michael W. Deem and Ramdas Pophale) SiO2 
 PCOD8249084
Probable space group: P B C A
;
_chemical_formula_sum "Si O2"
_cell_formula_units_Z 64
_cell_length_a 27.416920
_cell_length_b 9.151625
_cell_length_c 11.938567
_cell_angle_alpha 90.000000
_cell_angle_beta 90.000000
_cell_angle_gamma 90.000000
_cell_volume 2995.498331
_symmetry_space_group_name_H-M "P B C A"
_symmetry_group_IT_number 61
_symmetry_cell_setting 'orthorhombic'
loop_
_space_group_symop_operation_xyz
x,y,z
1/2-x,-y,1/2+z
1/2+x,1/2-y,-z
-x,1/2+y,1/2-z
-x,-y,-z
1/2+x,y,1/2-z
1/2-x,1/2+y,z
x,1/2-y,1/2+z
loop_
_atom_site_type_symbol
_atom_site_label
_atom_site_fract_x
_atom_site_fract_y
_atom_site_fract_z
Si Si1 0.555744 0.427100 0.608059
Si Si2 0.870012 0.896607 0.227956
Si Si3 0.706932 0.369641 0.395747
Si Si4 0.193616 0.475093 0.645153
Si Si5 0.055512 0.323921 0.662941
Si Si6 0.974627 0.272782 0.016257
Si Si7 0.663840 0.376193 0.623930
Si Si8 0.104922 0.529943 0.498447
O O1 0.552156 0.449634 0.742269
O O2 0.549521 0.573413 0.539432
O O3 0.516859 0.299920 0.576159
O O4 0.609662 0.380468 0.572662
O O5 0.836261 0.957084 0.328945
O O6 0.916376 0.813629 0.282202
O O7 0.831304 0.790225 0.165773
O O8 0.888510 0.015016 0.136625
O O9 0.703164 0.193970 0.385452
O O10 0.758064 0.428784 0.352932
O O11 0.702379 0.411405 0.526804
O O12 0.171348 0.484922 0.770788
O O13 0.156875 0.555304 0.558456
O O14 0.083670 0.382317 0.553632
O O15 0.000696 0.282587 0.629296
O O16 0.933080 0.160669 0.976141
#
# Coordination Sequence:
#
# PCOD8249084 Si02
#       8
#     8   8   8   8   8   8   8   8
#     4  10  23  43  60  96 136 172 218 280 341 396
#     4  10  20  40  67  93 127 174 223 273 343 408
#     4  11  23  42  67  97 127 184 224 280 345 415
#     4  11  25  41  67  99 133 175 228 283 345 411
#     4  11  21  40  68  89 127 179 220 273 335 401
#     4  11  26  38  64  98 132 173 224 278 336 411
#     4  10  20  43  68  87 134 174 216 278 342 402
#     4  12  23  43  65 101 133 176 229 280 345 415
#
# _framework density 21.365393999999998
#
# number of rings (size 3 to 8) (size 9 to 14) (size 15 to 20)
#    0.000    1.250    5.000    2.625    5.250    1.000 
#    2.250    0.000    0.000    0.000    0.000    0.000 
#    0.000    0.000    0.000    0.000    0.000    0.000 
#
# Total GULP energy -793152.369121 kJ/mol
# GULP energy per Si atom -12393.005768 kJ/mol
# Density = 2.131677 g / cm^3
# Si number density = 21.365394 Si / 1000 Ang^3
#
#
#
# Elastic Constant Matrix: (Units=GPa)
#
#
# Indices 1 2 3 4 5 6 
#
# 1 129.5515 48.5105 51.5480 0.0000 0.0000 0.0000
# 2 48.5105 55.2923 31.9514 0.0000 0.0000 0.0000
# 3 51.5480 31.9514 105.1177 0.0000 0.0000 0.0000
# 4 0.0000 0.0000 0.0000 15.3274 0.0000 0.0000
# 5 0.0000 0.0000 0.0000 0.0000 39.7426 0.0000
# 6 0.0000 0.0000 0.0000 0.0000 0.0000 37.9225
#
#
#
# Elastic Compliance Matrix: (Units=1/GPa)
#
#
# Indices 1 2 3 4 5 6 
#
# 1 0.012405 -0.008939 -0.003367 0.000000 0.000000 0.000000
# 2 -0.008939 0.028380 -0.004243 0.000000 0.000000 0.000000
# 3 -0.003367 -0.004243 0.012454 0.000000 0.000000 0.000000
# 4 0.000000 0.000000 0.000000 0.065243 0.000000 0.000000
# 5 0.000000 0.000000 0.000000 0.000000 0.025162 0.000000
# 6 0.000000 0.000000 0.000000 0.000000 0.000000 0.026370
#
#
# Mechanical properties :
#
#
# Convention : Reuss Voigt Hill
#
# Bulk Modulus (GPa) = 49.64517 61.55347 55.59932
# Shear Modulus (GPa) = 23.82957 29.12859 26.47908
#
# Velocity S-wave (km/s) = 3.34329 3.69637 3.52425
# Velocity P-wave (km/s) = 6.17981 6.86221 6.52993
#
# Compressibility (1/GPa) = 0.02014295
#
# Stress axis : x y z
#
# Youngs Moduli (GPa) = 80.60952 35.23648 80.29734
#
# Poissons Ratio (x) = 0.31496 0.27032
# Poissons Ratio (y) = 0.72053 0.34070
# Poissons Ratio (z) = 0.27137 0.14951
#
# Static dielectric constant tensor:
#      x y z
#    x 3.921010 0.000000 0.000000 
#    y 0.000000 3.433420 0.000000 
#    z 0.000000 0.000000 4.225200 
# 
# 
# High freq. dielectric constant tensor:
#      x y z
#    x 1.842230 0.000000 0.000000 
#    y 0.000000 1.796790 0.000000 
#    z 0.000000 0.000000 1.854920 
# 
# From -- ./inp_files/6766.got.cif
#   From: 2010.03.12/outbox.cif.g09.slc.cpg/sg61_4_cif.got.tgz:6766.got - 2010.04.10 19:05:03.
