data_PCOD8249911
_publ_section_title
;
Structure prediction by ZEFSAII (Michael W. Deem and Ramdas Pophale) SiO2 
 PCOD8249911
Probable space group: P B C A
;
_chemical_formula_sum "Si O2"
_cell_formula_units_Z 48
_cell_length_a 13.239656
_cell_length_b 17.041210
_cell_length_c 9.340825
_cell_angle_alpha 90.000000
_cell_angle_beta 90.000000
_cell_angle_gamma 90.000000
_cell_volume 2107.474678
_symmetry_space_group_name_H-M "P B C A"
_symmetry_group_IT_number 61
_symmetry_cell_setting 'orthorhombic'
loop_
_space_group_symop_operation_xyz
x,y,z
1/2-x,-y,1/2+z
1/2+x,1/2-y,-z
-x,1/2+y,1/2-z
-x,-y,-z
1/2+x,y,1/2-z
1/2-x,1/2+y,z
x,1/2-y,1/2+z
loop_
_atom_site_type_symbol
_atom_site_label
_atom_site_fract_x
_atom_site_fract_y
_atom_site_fract_z
Si Si1 0.108262 0.262968 0.326790
Si Si2 0.693578 0.917044 0.931232
Si Si3 0.755924 0.741356 0.925452
Si Si4 0.997639 0.387093 0.755178
Si Si5 0.164172 0.513092 0.760091
Si Si6 0.435346 0.363162 0.054648
O O1 0.169869 0.215724 0.447342
O O2 0.192977 0.295247 0.216540
O O3 0.031012 0.203792 0.249933
O O4 0.044865 0.334448 0.392689
O O5 0.755046 0.835929 0.917642
O O6 0.579206 0.901880 0.884347
O O7 0.739078 0.983318 0.827586
O O8 0.699821 0.946724 0.093673
O O9 0.644300 0.708280 0.952266
O O10 0.946644 0.403684 0.600825
O O11 0.092923 0.439935 0.791982
O O12 0.101869 0.573610 0.666088
#
# Coordination Sequence:
#
# PCOD8249911 Si02
#       6
#     8   8   8   8   8   8
#     4  12  25  44  72 108 144 188 244 301 368 433
#     4  12  26  49  72 109 148 195 251 301 377 444
#     4  12  26  45  75 107 146 193 244 306 363 445
#     4  12  26  48  71 105 152 191 246 308 369 448
#     4  12  28  47  75 108 146 201 241 310 375 447
#     4  12  27  47  79 106 149 193 252 307 374 441
#
# _framework density 22.776074999999999
#
# number of rings (size 3 to 8) (size 9 to 14) (size 15 to 20)
#    0.000    0.000    5.000    4.000    7.000    2.667 
#    0.000    0.000    0.000    0.000    0.000    0.000 
#    0.000    0.000    0.000    0.000    0.000    0.000 
#
# Total GULP energy -595562.207853 kJ/mol
# GULP energy per Si atom -12407.545997 kJ/mol
# Density = 2.272424 g / cm^3
# Si number density = 22.776075 Si / 1000 Ang^3
#
#
#
# Elastic Constant Matrix: (Units=GPa)
#
#
# Indices 1 2 3 4 5 6 
#
# 1 86.7246 6.2415 17.0236 0.0000 0.0000 0.0000
# 2 6.2415 49.3324 13.3607 0.0000 0.0000 0.0000
# 3 17.0236 13.3607 111.2787 0.0000 0.0000 0.0000
# 4 0.0000 0.0000 0.0000 38.2494 0.0000 0.0000
# 5 0.0000 0.0000 0.0000 0.0000 47.3814 0.0000
# 6 0.0000 0.0000 0.0000 0.0000 0.0000 29.9120
#
#
#
# Elastic Compliance Matrix: (Units=1/GPa)
#
#
# Indices 1 2 3 4 5 6 
#
# 1 0.011940 -0.001050 -0.001701 0.000000 0.000000 0.000000
# 2 -0.001050 0.021044 -0.002366 0.000000 0.000000 0.000000
# 3 -0.001701 -0.002366 0.009531 0.000000 0.000000 0.000000
# 4 0.000000 0.000000 0.000000 0.026144 0.000000 0.000000
# 5 0.000000 0.000000 0.000000 0.000000 0.021105 0.000000
# 6 0.000000 0.000000 0.000000 0.000000 0.000000 0.033431
#
#
# Mechanical properties :
#
#
# Convention : Reuss Voigt Hill
#
# Bulk Modulus (GPa) = 30.97726 35.62081 33.29903
# Shear Modulus (GPa) = 34.67647 37.15588 35.91617
#
# Velocity S-wave (km/s) = 3.90615 4.04339 3.97536
# Velocity P-wave (km/s) = 5.82875 6.12145 5.97689
#
# Compressibility (1/GPa) = 0.03228174
#
# Stress axis : x y z
#
# Youngs Moduli (GPa) = 83.75118 47.51882 104.92440
#
# Poissons Ratio (x) = 0.04990 0.17843
# Poissons Ratio (y) = 0.08795 0.24826
# Poissons Ratio (z) = 0.14242 0.11243
#
# Static dielectric constant tensor:
#      x y z
#    x 4.210820 0.000000 0.000000 
#    y 0.000000 3.997530 0.000000 
#    z 0.000000 0.000000 4.187170 
# 
# 
# High freq. dielectric constant tensor:
#      x y z
#    x 1.914180 0.000000 0.000000 
#    y 0.000000 1.892080 0.000000 
#    z 0.000000 0.000000 1.913160 
# 
# From -- ./inp_files/2872.got.cif
#   From: 2010.03.12/outbox.cif.g09.slc.cpg/sg61_2_cif.got.tgz:2872.got - 2010.04.10 19:05:03.
