data_PCOD8249407
_publ_section_title
;
Structure prediction by ZEFSAII (Michael W. Deem and Ramdas Pophale) SiO2 
 PCOD8249407
Probable space group: P B C A
;
_chemical_formula_sum "Si O2"
_cell_formula_units_Z 48
_cell_length_a 12.562293
_cell_length_b 13.815563
_cell_length_c 14.184970
_cell_angle_alpha 90.000000
_cell_angle_beta 90.000000
_cell_angle_gamma 90.000000
_cell_volume 2461.874601
_symmetry_space_group_name_H-M "P B C A"
_symmetry_group_IT_number 61
_symmetry_cell_setting 'orthorhombic'
loop_
_space_group_symop_operation_xyz
x,y,z
1/2-x,-y,1/2+z
1/2+x,1/2-y,-z
-x,1/2+y,1/2-z
-x,-y,-z
1/2+x,y,1/2-z
1/2-x,1/2+y,z
x,1/2-y,1/2+z
loop_
_atom_site_type_symbol
_atom_site_label
_atom_site_fract_x
_atom_site_fract_y
_atom_site_fract_z
Si Si1 0.153512 0.303431 0.718646
Si Si2 0.486964 0.046523 0.355555
Si Si3 0.184949 0.129309 0.590064
Si Si4 0.356851 0.428181 0.676354
Si Si5 0.547564 0.185845 0.084898
Si Si6 0.919732 0.373856 0.451627
O O1 0.144829 0.195664 0.676216
O O2 0.269383 0.347436 0.699345
O O3 0.130851 0.298607 0.830005
O O4 0.064881 0.365877 0.666905
O O5 0.402090 0.030123 0.273548
O O6 0.422358 0.069499 0.450026
O O7 0.553253 0.947649 0.366825
O O8 0.106977 0.135263 0.501292
O O9 0.301558 0.167401 0.561622
O O10 0.193378 0.017475 0.619890
O O11 0.450367 0.382021 0.614677
O O12 0.505125 0.288518 0.049635
#
# Coordination Sequence:
#
# PCOD8249407 Si02
#       6
#     8   8   8   8   8   8
#     4  11  22  41  63  90 126 161 206 257 307 372
#     4  10  22  40  64  89 124 161 207 252 315 366
#     4  12  23  41  63  92 124 162 213 252 310 376
#     4  11  23  42  62  91 124 164 204 260 307 368
#     4  11  24  40  64  94 125 164 205 261 311 368
#     4  11  21  40  66  90 123 168 204 256 313 371
#
# _framework density 19.497337000000002
#
# number of rings (size 3 to 8) (size 9 to 14) (size 15 to 20)
#    0.000    1.000    5.000    2.500    0.000    0.000 
#    0.000    0.000    0.000    0.000    0.000    0.000 
#    0.000    0.000    0.000    0.000    0.000    0.000 
#
# Total GULP energy -595462.639381 kJ/mol
# GULP energy per Si atom -12405.471654 kJ/mol
# Density = 1.945296 g / cm^3
# Si number density = 19.497337 Si / 1000 Ang^3
#
#
#
# Elastic Constant Matrix: (Units=GPa)
#
#
# Indices 1 2 3 4 5 6 
#
# 1 92.7690 17.0167 45.5657 0.0000 0.0000 0.0000
# 2 17.0167 74.9331 31.1871 0.0000 0.0000 0.0000
# 3 45.5657 31.1871 93.0403 0.0000 0.0000 0.0000
# 4 0.0000 0.0000 0.0000 26.7179 0.0000 0.0000
# 5 0.0000 0.0000 0.0000 0.0000 27.9763 0.0000
# 6 0.0000 0.0000 0.0000 0.0000 0.0000 34.4883
#
#
#
# Elastic Compliance Matrix: (Units=1/GPa)
#
#
# Indices 1 2 3 4 5 6 
#
# 1 0.014203 -0.000384 -0.006827 0.000000 0.000000 0.000000
# 2 -0.000384 0.015519 -0.005014 0.000000 0.000000 0.000000
# 3 -0.006827 -0.005014 0.015772 0.000000 0.000000 0.000000
# 4 0.000000 0.000000 0.000000 0.037428 0.000000 0.000000
# 5 0.000000 0.000000 0.000000 0.000000 0.035745 0.000000
# 6 0.000000 0.000000 0.000000 0.000000 0.000000 0.028995
#
#
# Mechanical properties :
#
#
# Convention : Reuss Voigt Hill
#
# Bulk Modulus (GPa) = 47.51851 49.80904 48.66378
# Shear Modulus (GPa) = 27.91300 28.96801 28.44050
#
# Velocity S-wave (km/s) = 3.78780 3.85871 3.82342
# Velocity P-wave (km/s) = 6.59959 6.74203 6.67119
#
# Compressibility (1/GPa) = 0.02104443
#
# Stress axis : x y z
#
# Youngs Moduli (GPa) = 70.40647 64.43601 63.40233
#
# Poissons Ratio (x) = 0.02474 0.43286
# Poissons Ratio (y) = 0.02703 0.31790
# Poissons Ratio (z) = 0.48068 0.32308
#
# Static dielectric constant tensor:
#      x y z
#    x 3.535090 0.000000 0.000000 
#    y 0.000000 3.471690 0.000000 
#    z 0.000000 0.000000 3.587070 
# 
# 
# High freq. dielectric constant tensor:
#      x y z
#    x 1.766280 0.000000 0.000000 
#    y 0.000000 1.764240 0.000000 
#    z 0.000000 0.000000 1.765300 
# 
# From -- ./inp_files/5752.got.cif
#   From: 2010.03.12/outbox.cif.g09.slc.cpg/sg61_3_cif.got.tgz:5752.got - 2010.04.10 19:05:03.
