data_PCOD8249264
_publ_section_title
;
Structure prediction by ZEFSAII (Michael W. Deem and Ramdas Pophale) SiO2 
 PCOD8249264
Probable space group: P B C A
;
_chemical_formula_sum "Si O2"
_cell_formula_units_Z 64
_cell_length_a 15.917981
_cell_length_b 22.253304
_cell_length_c 8.567209
_cell_angle_alpha 90.000000
_cell_angle_beta 90.000000
_cell_angle_gamma 90.000000
_cell_volume 3034.742485
_symmetry_space_group_name_H-M "P B C A"
_symmetry_group_IT_number 61
_symmetry_cell_setting 'orthorhombic'
loop_
_space_group_symop_operation_xyz
x,y,z
1/2-x,-y,1/2+z
1/2+x,1/2-y,-z
-x,1/2+y,1/2-z
-x,-y,-z
1/2+x,y,1/2-z
1/2-x,1/2+y,z
x,1/2-y,1/2+z
loop_
_atom_site_type_symbol
_atom_site_label
_atom_site_fract_x
_atom_site_fract_y
_atom_site_fract_z
Si Si1 0.576096 0.481427 0.339607
Si Si2 0.154518 0.121789 0.185536
Si Si3 0.966005 0.393798 0.689637
Si Si4 0.194432 0.809464 0.820559
Si Si5 0.654861 0.495987 0.653896
Si Si6 0.189896 0.819855 0.184335
Si Si7 0.557300 0.584090 0.836676
Si Si8 0.706606 0.083043 0.642150
O O1 0.543361 0.546301 0.288941
O O2 0.581828 0.483196 0.527161
O O3 0.518102 0.425738 0.284854
O O4 0.664355 0.464049 0.261161
O O5 0.221172 0.174023 0.223566
O O6 0.056987 0.136794 0.230841
O O7 0.191847 0.067126 0.289067
O O8 0.151832 0.106758 0.001612
O O9 0.887746 0.349357 0.722406
O O10 0.971899 0.416847 0.513380
O O11 0.174431 0.741995 0.772519
O O12 0.214166 0.811961 0.003598
O O13 0.620200 0.527964 0.810674
O O14 0.718977 0.541883 0.570777
O O15 0.100901 0.853011 0.203337
O O16 0.263277 0.858292 0.264090
#
# Coordination Sequence:
#
# PCOD8249264 Si02
#       8
#     8   8   8   8   8   8   8   8
#     4  12  21  38  61  97 137 163 214 269 316 391
#     4  12  23  41  63  94 133 168 215 261 320 384
#     4  11  23  41  66  96 128 174 215 262 327 386
#     4  11  24  46  67  91 124 168 216 271 319 384
#     4  11  22  35  59  97 131 170 210 258 324 382
#     4  10  24  46  67  89 122 165 218 265 325 379
#     4  10  21  40  63  90 128 165 208 265 321 385
#     4  11  22  38  65  91 127 177 208 263 320 379
#
# _framework density 21.089103999999999
#
# number of rings (size 3 to 8) (size 9 to 14) (size 15 to 20)
#    0.000    1.000    2.500    5.250    0.000    3.000 
#    2.250    1.250    0.000    0.000    0.000    0.000 
#    0.000    0.000    0.000    0.000    0.000    0.000 
#
# Total GULP energy -793417.292393 kJ/mol
# GULP energy per Si atom -12397.145194 kJ/mol
# Density = 2.104110 g / cm^3
# Si number density = 21.089104 Si / 1000 Ang^3
#
#
#
# Elastic Constant Matrix: (Units=GPa)
#
#
# Indices 1 2 3 4 5 6 
#
# 1 103.6206 32.0350 26.0572 0.0000 0.0000 0.0000
# 2 32.0350 88.5745 39.6728 0.0000 0.0000 0.0000
# 3 26.0572 39.6728 85.3714 0.0000 0.0000 0.0000
# 4 0.0000 0.0000 0.0000 30.5604 0.0000 0.0000
# 5 0.0000 0.0000 0.0000 0.0000 34.7344 0.0000
# 6 0.0000 0.0000 0.0000 0.0000 0.0000 21.6509
#
#
#
# Elastic Compliance Matrix: (Units=1/GPa)
#
#
# Indices 1 2 3 4 5 6 
#
# 1 0.011110 -0.003156 -0.001924 0.000000 0.000000 0.000000
# 2 -0.003156 0.015154 -0.006079 0.000000 0.000000 0.000000
# 3 -0.001924 -0.006079 0.015126 0.000000 0.000000 0.000000
# 4 0.000000 0.000000 0.000000 0.032722 0.000000 0.000000
# 5 0.000000 0.000000 0.000000 0.000000 0.028790 0.000000
# 6 0.000000 0.000000 0.000000 0.000000 0.000000 0.046187
#
#
# Mechanical properties :
#
#
# Convention : Reuss Voigt Hill
#
# Bulk Modulus (GPa) = 52.43525 52.56627 52.50076
# Shear Modulus (GPa) = 28.12685 29.37591 28.75138
#
# Velocity S-wave (km/s) = 3.65597 3.73626 3.69633
# Velocity P-wave (km/s) = 6.53752 6.60248 6.57008
#
# Compressibility (1/GPa) = 0.01907114
#
# Stress axis : x y z
#
# Youngs Moduli (GPa) = 90.00653 65.98800 66.11230
#
# Poissons Ratio (x) = 0.20828 0.12722
# Poissons Ratio (y) = 0.28410 0.40189
# Poissons Ratio (z) = 0.17320 0.40114
#
# Static dielectric constant tensor:
#      x y z
#    x 4.079130 0.000000 0.000000 
#    y 0.000000 3.656180 0.000000 
#    z 0.000000 0.000000 3.835020 
# 
# 
# High freq. dielectric constant tensor:
#      x y z
#    x 1.838400 0.000000 0.000000 
#    y 0.000000 1.809390 0.000000 
#    z 0.000000 0.000000 1.834770 
# 
# From -- ./inp_files/3720.got.cif
#   From: 2010.03.12/outbox.cif.g09.slc.cpg/sg61_2_cif.got.tgz:3720.got - 2010.04.10 19:05:03.
