data_PCOD8249250
_publ_section_title
;
Structure prediction by ZEFSAII (Michael W. Deem and Ramdas Pophale) SiO2 
 PCOD8249250
Probable space group: P B C A
;
_chemical_formula_sum "Si O2"
_cell_formula_units_Z 56
_cell_length_a 10.028221
_cell_length_b 10.225541
_cell_length_c 26.723634
_cell_angle_alpha 90.000000
_cell_angle_beta 90.000000
_cell_angle_gamma 90.000000
_cell_volume 2740.347924
_symmetry_space_group_name_H-M "P B C A"
_symmetry_group_IT_number 61
_symmetry_cell_setting 'orthorhombic'
loop_
_space_group_symop_operation_xyz
x,y,z
1/2-x,-y,1/2+z
1/2+x,1/2-y,-z
-x,1/2+y,1/2-z
-x,-y,-z
1/2+x,y,1/2-z
1/2-x,1/2+y,z
x,1/2-y,1/2+z
loop_
_atom_site_type_symbol
_atom_site_label
_atom_site_fract_x
_atom_site_fract_y
_atom_site_fract_z
Si Si1 0.556809 0.096997 0.777023
Si Si2 0.630509 0.488336 0.384714
Si Si3 0.069011 0.010178 0.097674
Si Si4 0.864093 0.033731 0.183259
Si Si5 0.874552 0.741462 0.962446
Si Si6 0.070635 0.765078 0.550565
Si Si7 0.726203 0.704834 0.714856
O O1 0.562759 0.033319 0.831453
O O2 0.426699 0.184519 0.770564
O O3 0.683567 0.192493 0.765275
O O4 0.553342 0.981879 0.735363
O O5 0.787974 0.502951 0.375771
O O6 0.599668 0.363708 0.419139
O O7 0.571637 0.620413 0.408389
O O8 0.962344 0.059446 0.137682
O O9 0.026571 0.870006 0.076241
O O10 0.072198 0.116161 0.053388
O O11 0.761102 0.153889 0.189080
O O12 0.775479 0.903366 0.174356
O O13 0.958496 0.696113 0.010374
O O14 0.716623 0.749342 0.975063
#
# Coordination Sequence:
#
# PCOD8249250 Si02
#       7
#     8   8   8   8   8   8   8
#     4  10  23  39  62  92 128 163 211 251 313 364
#     4  10  21  39  68  91 125 168 218 253 317 383
#     4  10  21  41  65  89 129 173 202 259 323 385
#     4  10  24  41  64  92 131 161 214 250 311 373
#     4  10  21  41  63  91 124 165 214 263 325 373
#     4  10  22  40  64  93 121 167 211 267 318 378
#     4  10  24  39  64  88 132 162 207 257 305 364
#
# _framework density 20.435359999999999
#
# number of rings (size 3 to 8) (size 9 to 14) (size 15 to 20)
#    0.857    1.143    0.000    2.571    2.000    5.714 
#    7.714    0.000    0.000    0.000    0.000    0.000 
#    0.000    0.000    0.000    0.000    0.000    0.000 
#
# Total GULP energy -694309.451769 kJ/mol
# GULP energy per Si atom -12398.383067 kJ/mol
# Density = 2.038885 g / cm^3
# Si number density = 20.435360 Si / 1000 Ang^3
#
#
#
# Elastic Constant Matrix: (Units=GPa)
#
#
# Indices 1 2 3 4 5 6 
#
# 1 84.1747 17.6906 51.2655 0.0000 0.0000 0.0000
# 2 17.6906 117.8531 22.8039 0.0000 0.0000 0.0000
# 3 51.2655 22.8039 90.3295 0.0000 0.0000 0.0000
# 4 0.0000 0.0000 0.0000 20.6121 0.0000 0.0000
# 5 0.0000 0.0000 0.0000 0.0000 36.5406 0.0000
# 6 0.0000 0.0000 0.0000 0.0000 0.0000 26.3719
#
#
#
# Elastic Compliance Matrix: (Units=1/GPa)
#
#
# Indices 1 2 3 4 5 6 
#
# 1 0.018222 -0.000772 -0.010147 0.000000 0.000000 0.000000
# 2 -0.000772 0.008954 -0.001822 0.000000 0.000000 0.000000
# 3 -0.010147 -0.001822 0.017289 0.000000 0.000000 0.000000
# 4 0.000000 0.000000 0.000000 0.048515 0.000000 0.000000
# 5 0.000000 0.000000 0.000000 0.000000 0.027367 0.000000
# 6 0.000000 0.000000 0.000000 0.000000 0.000000 0.037919
#
#
# Mechanical properties :
#
#
# Convention : Reuss Voigt Hill
#
# Bulk Modulus (GPa) = 52.67882 52.87524 52.77703
# Shear Modulus (GPa) = 26.30525 30.07807 28.19166
#
# Velocity S-wave (km/s) = 3.59171 3.84065 3.71826
# Velocity P-wave (km/s) = 6.56009 6.75263 6.65705
#
# Compressibility (1/GPa) = 0.01898296
#
# Stress axis : x y z
#
# Youngs Moduli (GPa) = 54.87832 111.68677 57.83892
#
# Poissons Ratio (x) = 0.08621 0.58689
# Poissons Ratio (y) = 0.04236 0.10540
# Poissons Ratio (z) = 0.55685 0.20352
#
# Static dielectric constant tensor:
#      x y z
#    x 3.645400 0.000000 0.000000 
#    y 0.000000 3.773180 0.000000 
#    z 0.000000 0.000000 3.362740 
# 
# 
# High freq. dielectric constant tensor:
#      x y z
#    x 1.796270 0.000000 0.000000 
#    y 0.000000 1.812610 0.000000 
#    z 0.000000 0.000000 1.777150 
# 
# From -- ./inp_files/10285.got.cif
#   From: 2010.03.12/outbox.cif.g09.slc.cpg/sg61_6_cif.got.tgz:10285.got - 2010.04.10 19:05:03.
