data_PCOD8249514
_publ_section_title
;
Structure prediction by ZEFSAII (Michael W. Deem and Ramdas Pophale) SiO2 
 PCOD8249514
Probable space group: P B C A
;
_chemical_formula_sum "Si O2"
_cell_formula_units_Z 56
_cell_length_a 14.933963
_cell_length_b 8.910382
_cell_length_c 20.559084
_cell_angle_alpha 90.000000
_cell_angle_beta 90.000000
_cell_angle_gamma 90.000000
_cell_volume 2735.742109
_symmetry_space_group_name_H-M "P B C A"
_symmetry_group_IT_number 61
_symmetry_cell_setting 'orthorhombic'
loop_
_space_group_symop_operation_xyz
x,y,z
1/2-x,-y,1/2+z
1/2+x,1/2-y,-z
-x,1/2+y,1/2-z
-x,-y,-z
1/2+x,y,1/2-z
1/2-x,1/2+y,z
x,1/2-y,1/2+z
loop_
_atom_site_type_symbol
_atom_site_label
_atom_site_fract_x
_atom_site_fract_y
_atom_site_fract_z
Si Si1 0.763985 0.970664 0.675846
Si Si2 0.035167 0.147801 0.646060
Si Si3 0.350155 0.652814 0.525250
Si Si4 0.373502 0.791566 0.280815
Si Si5 0.655938 0.697181 0.471245
Si Si6 0.519319 0.316929 0.599942
Si Si7 0.358880 0.266191 0.386688
O O1 0.824769 0.870950 0.725040
O O2 0.713749 0.857452 0.628509
O O3 0.699244 0.076945 0.715621
O O4 0.823008 0.066482 0.626722
O O5 0.097827 0.210620 0.589043
O O6 0.078338 0.159718 0.715920
O O7 0.949714 0.258413 0.653638
O O8 0.998135 0.982824 0.627908
O O9 0.254183 0.731930 0.530838
O O10 0.331016 0.479020 0.534289
O O11 0.409174 0.684727 0.460153
O O12 0.439775 0.788473 0.343205
O O13 0.579016 0.749769 0.419748
O O14 0.611962 0.742960 0.539016
#
# Coordination Sequence:
#
# PCOD8249514 Si02
#       7
#     8   8   8   8   8   8   8
#     4  10  23  39  64  94 128 170 220 260 324 390
#     4  11  23  40  65  93 129 171 208 268 328 384
#     4  11  22  43  65  94 128 168 215 270 326 383
#     4  11  24  42  65  95 130 170 217 268 321 390
#     4  11  21  39  68  92 127 167 215 267 322 382
#     4  11  22  44  67  94 128 173 216 264 329 388
#     4  11  19  40  65  94 124 171 211 266 319 388
#
# _framework density 20.469767000000001
#
# number of rings (size 3 to 8) (size 9 to 14) (size 15 to 20)
#    0.000    1.143    4.286    3.429    2.000    2.286 
#    5.143    1.429    0.000    0.000    0.000    0.000 
#    0.000    0.000    0.000    0.000    0.000    0.000 
#
# Total GULP energy -693814.147930 kJ/mol
# GULP energy per Si atom -12389.538356 kJ/mol
# Density = 2.042318 g / cm^3
# Si number density = 20.469767 Si / 1000 Ang^3
#
#
#
# Elastic Constant Matrix: (Units=GPa)
#
#
# Indices 1 2 3 4 5 6 
#
# 1 158.0047 39.6214 75.8144 0.0000 0.0000 0.0000
# 2 39.6214 58.4403 21.8959 0.0000 0.0000 0.0000
# 3 75.8144 21.8959 136.1442 0.0000 0.0000 0.0000
# 4 0.0000 0.0000 0.0000 19.0578 0.0000 0.0000
# 5 0.0000 0.0000 0.0000 0.0000 76.8819 0.0000
# 6 0.0000 0.0000 0.0000 0.0000 0.0000 -42.1656
#
#
#
# Elastic Compliance Matrix: (Units=1/GPa)
#
#
# Indices 1 2 3 4 5 6 
#
# 1 0.009796 -0.004892 -0.004668 0.000000 0.000000 0.000000
# 2 -0.004892 0.020652 -0.000597 0.000000 0.000000 0.000000
# 3 -0.004668 -0.000597 0.010041 0.000000 0.000000 0.000000
# 4 0.000000 0.000000 0.000000 0.052472 0.000000 0.000000
# 5 0.000000 0.000000 0.000000 0.000000 0.013007 0.000000
# 6 0.000000 0.000000 0.000000 0.000000 0.000000 -0.023716
#
#
# Mechanical properties :
#
#
# Convention : Reuss Voigt Hill
#
# Bulk Modulus (GPa) = 49.56992 69.69472 59.63232
# Shear Modulus (GPa) = 45.74968 25.10531 35.42750
#
# Velocity S-wave (km/s) = 4.73269 3.50588 4.16471
# Velocity P-wave (km/s) = 7.35753 7.10703 7.23336
#
# Compressibility (1/GPa) = 0.02017352
#
# Stress axis : x y z
#
# Youngs Moduli (GPa) = 102.08758 48.42142 99.59513
#
# Poissons Ratio (x) = 0.23689 0.46491
# Poissons Ratio (y) = 0.49943 0.05947
# Poissons Ratio (z) = 0.47655 0.02891
#
# Static dielectric constant tensor:
#      x y z
#    x 4.370340 0.000000 0.000000 
#    y 0.000000 3.695800 0.000000 
#    z 0.000000 0.000000 3.642740 
# 
# 
# High freq. dielectric constant tensor:
#      x y z
#    x 1.829650 0.000000 0.000000 
#    y 0.000000 1.784810 0.000000 
#    z 0.000000 0.000000 1.791520 
# 
# From -- ./inp_files/7172.got.cif
#   From: 2010.03.12/outbox.cif.g09.slc.cpg/sg61_4_cif.got.tgz:7172.got - 2010.04.10 19:05:03.
