data_PCOD8249917
_publ_section_title
;
Structure prediction by ZEFSAII (Michael W. Deem and Ramdas Pophale) SiO2 
 PCOD8249917
Probable space group: P B C A
;
_chemical_formula_sum "Si O2"
_cell_formula_units_Z 32
_cell_length_a 17.958964
_cell_length_b 8.405825
_cell_length_c 9.256581
_cell_angle_alpha 90.000000
_cell_angle_beta 90.000000
_cell_angle_gamma 90.000000
_cell_volume 1397.372621
_symmetry_space_group_name_H-M "P B C A"
_symmetry_group_IT_number 61
_symmetry_cell_setting 'orthorhombic'
loop_
_space_group_symop_operation_xyz
x,y,z
1/2-x,-y,1/2+z
1/2+x,1/2-y,-z
-x,1/2+y,1/2-z
-x,-y,-z
1/2+x,y,1/2-z
1/2-x,1/2+y,z
x,1/2-y,1/2+z
loop_
_atom_site_type_symbol
_atom_site_label
_atom_site_fract_x
_atom_site_fract_y
_atom_site_fract_z
Si Si1 0.822710 0.087799 0.690378
Si Si2 0.796690 0.405032 0.520568
Si Si3 0.559779 0.064322 0.609368
Si Si4 0.024823 0.069751 0.350669
O O1 0.825455 0.244265 0.592710
O O2 0.785127 0.117473 0.847779
O O3 0.779756 0.954386 0.597540
O O4 0.906477 0.028751 0.716040
O O5 0.856905 0.543915 0.549471
O O6 0.546788 0.247772 0.642358
O O7 0.500000 0.000000 0.500000
O O8 0.547881 0.957428 0.751880
O O9 0.000000 0.000000 0.500000
#
# Coordination Sequence:
#
# PCOD8249917 Si02
#       4
#     8   8   8   8
#     4  12  27  48  73 108 143 196 242 303 366 441
#     4  12  27  47  75 103 150 189 248 298 371 437
#     4  12  25  48  70 107 144 190 242 299 360 434
#     4  12  27  44  76 105 147 191 244 298 363 432
#
# _framework density 22.900120000000001
#
# number of rings (size 3 to 8) (size 9 to 14) (size 15 to 20)
#    0.000    0.000    2.500    7.500    7.000    0.000 
#    0.000    0.000    0.000    0.000    0.000    0.000 
#    0.000    0.000    0.000    0.000    0.000    0.000 
#
# Total GULP energy -396970.370721 kJ/mol
# GULP energy per Si atom -12405.324085 kJ/mol
# Density = 2.284800 g / cm^3
# Si number density = 22.900120 Si / 1000 Ang^3
#
#
#
# Elastic Constant Matrix: (Units=GPa)
#
#
# Indices 1 2 3 4 5 6 
#
# 1 62.8144 -2.5534 11.1961 0.0000 0.0000 0.0000
# 2 -2.5534 137.8993 22.1799 0.0000 0.0000 0.0000
# 3 11.1961 22.1799 167.7855 0.0000 0.0000 0.0000
# 4 0.0000 0.0000 0.0000 37.1535 0.0000 0.0000
# 5 0.0000 0.0000 0.0000 0.0000 43.0707 0.0000
# 6 0.0000 0.0000 0.0000 0.0000 0.0000 39.9979
#
#
#
# Elastic Compliance Matrix: (Units=1/GPa)
#
#
# Indices 1 2 3 4 5 6 
#
# 1 0.016143 0.000482 -0.001141 0.000000 0.000000 0.000000
# 2 0.000482 0.007424 -0.001014 0.000000 0.000000 0.000000
# 3 -0.001141 -0.001014 0.006170 0.000000 0.000000 0.000000
# 4 0.000000 0.000000 0.000000 0.026915 0.000000 0.000000
# 5 0.000000 0.000000 0.000000 0.000000 0.023218 0.000000
# 6 0.000000 0.000000 0.000000 0.000000 0.000000 0.025001
#
#
# Mechanical properties :
#
#
# Convention : Reuss Voigt Hill
#
# Bulk Modulus (GPa) = 37.88960 47.79381 42.84170
# Shear Modulus (GPa) = 42.73047 46.55621 44.64334
#
# Velocity S-wave (km/s) = 4.32435 4.51378 4.42008
# Velocity P-wave (km/s) = 6.44320 6.93408 6.69314
#
# Compressibility (1/GPa) = 0.02639247
#
# Stress axis : x y z
#
# Youngs Moduli (GPa) = 61.94675 134.70516 162.07177
#
# Poissons Ratio (x) = -0.06498 0.18492
# Poissons Ratio (y) = -0.02988 0.16427
# Poissons Ratio (z) = 0.07068 0.13653
#
# Static dielectric constant tensor:
#      x y z
#    x 3.272240 0.000000 0.000000 
#    y 0.000000 4.207970 0.000000 
#    z 0.000000 0.000000 -5.891630 
# 
# 
# High freq. dielectric constant tensor:
#      x y z
#    x 1.907070 0.000000 0.000000 
#    y 0.000000 1.915310 0.000000 
#    z 0.000000 0.000000 1.925990 
# 
# From -- ./inp_files/1653.got.cif
#   From: 2010.03.12/outbox.cif.g09.slc.cpg/sg61_1_cif.got.tgz:1653.got - 2010.04.10 19:05:03.
