data_PCOD8249530
_publ_section_title
;
Structure prediction by ZEFSAII (Michael W. Deem and Ramdas Pophale) SiO2 
 PCOD8249530
Probable space group: P B C A
;
_chemical_formula_sum "Si O2"
_cell_formula_units_Z 64
_cell_length_a 9.072202
_cell_length_b 10.751755
_cell_length_c 29.275153
_cell_angle_alpha 90.000000
_cell_angle_beta 90.000000
_cell_angle_gamma 90.000000
_cell_volume 2855.559703
_symmetry_space_group_name_H-M "P B C A"
_symmetry_group_IT_number 61
_symmetry_cell_setting 'orthorhombic'
loop_
_space_group_symop_operation_xyz
x,y,z
1/2-x,-y,1/2+z
1/2+x,1/2-y,-z
-x,1/2+y,1/2-z
-x,-y,-z
1/2+x,y,1/2-z
1/2-x,1/2+y,z
x,1/2-y,1/2+z
loop_
_atom_site_type_symbol
_atom_site_label
_atom_site_fract_x
_atom_site_fract_y
_atom_site_fract_z
Si Si1 0.795362 0.876770 0.326387
Si Si2 0.199080 0.384853 0.724784
Si Si3 0.883946 0.417755 0.691895
Si Si4 0.941898 0.609964 0.062123
Si Si5 0.453758 0.280480 0.382703
Si Si6 0.589507 0.851931 0.410546
Si Si7 0.122716 0.136461 0.539258
Si Si8 0.703446 0.041185 0.609878
O O1 0.776089 0.747551 0.298968
O O2 0.662457 0.884694 0.362084
O O3 0.953796 0.877820 0.351232
O O4 0.794077 0.000349 0.295361
O O5 0.251769 0.365009 0.777028
O O6 0.028870 0.429431 0.723302
O O7 0.925843 0.342034 0.646059
O O8 0.825327 0.539703 0.665347
O O9 0.792270 0.577129 0.089696
O O10 0.036756 0.708656 0.090655
O O11 0.042463 0.490216 0.053918
O O12 0.898853 0.670401 0.013420
O O13 0.553497 0.254840 0.428147
O O14 0.299021 0.336024 0.398531
O O15 0.702788 0.875267 0.451815
O O16 0.449325 0.942080 0.417546
#
# Coordination Sequence:
#
# PCOD8249530 Si02
#       8
#     8   8   8   8   8   8   8   8
#     4  10  24  44  68  97 131 183 234 284 357 417
#     4  11  26  43  66  97 135 175 240 289 346 427
#     4  11  25  41  63  95 131 176 225 288 347 409
#     4  10  23  41  66 102 132 184 224 295 349 432
#     4   9  22  42  63  91 132 176 215 286 346 413
#     4  11  23  40  70  93 135 185 224 288 358 426
#     4   9  22  43  67  96 138 172 235 282 355 428
#     4  11  23  40  63  94 135 169 233 275 355 417
#
# _framework density 22.412419
#
# number of rings (size 3 to 8) (size 9 to 14) (size 15 to 20)
#    0.000    1.750    1.250    0.750    8.750    7.500 
#    0.000    0.000    0.000    0.000    0.000    0.000 
#    0.000    0.000    0.000    0.000    0.000    0.000 
#
# Total GULP energy -793283.081308 kJ/mol
# GULP energy per Si atom -12395.048145 kJ/mol
# Density = 2.236141 g / cm^3
# Si number density = 22.412419 Si / 1000 Ang^3
#
#
#
# Elastic Constant Matrix: (Units=GPa)
#
#
# Indices 1 2 3 4 5 6 
#
# 1 135.4013 9.3968 32.0821 0.0000 0.0000 0.0000
# 2 9.3968 63.5885 12.2503 0.0000 0.0000 0.0000
# 3 32.0821 12.2503 75.5523 0.0000 0.0000 0.0000
# 4 0.0000 0.0000 0.0000 29.2899 0.0000 0.0000
# 5 0.0000 0.0000 0.0000 0.0000 33.3900 0.0000
# 6 0.0000 0.0000 0.0000 0.0000 0.0000 21.8767
#
#
#
# Elastic Compliance Matrix: (Units=1/GPa)
#
#
# Indices 1 2 3 4 5 6 
#
# 1 0.008231 -0.000560 -0.003404 0.000000 0.000000 0.000000
# 2 -0.000560 0.016271 -0.002400 0.000000 0.000000 0.000000
# 3 -0.003404 -0.002400 0.015071 0.000000 0.000000 0.000000
# 4 0.000000 0.000000 0.000000 0.034141 0.000000 0.000000
# 5 0.000000 0.000000 0.000000 0.000000 0.029949 0.000000
# 6 0.000000 0.000000 0.000000 0.000000 0.000000 0.045711
#
#
# Mechanical properties :
#
#
# Convention : Reuss Voigt Hill
#
# Bulk Modulus (GPa) = 37.25387 42.44449 39.84918
# Shear Modulus (GPa) = 29.23088 31.63218 30.43153
#
# Velocity S-wave (km/s) = 3.61533 3.76089 3.68883
# Velocity P-wave (km/s) = 5.83828 6.15127 5.99682
#
# Compressibility (1/GPa) = 0.02684285
#
# Stress axis : x y z
#
# Youngs Moduli (GPa) = 121.49245 61.45769 66.35424
#
# Poissons Ratio (x) = 0.03445 0.22589
# Poissons Ratio (y) = 0.06810 0.15927
# Poissons Ratio (z) = 0.41359 0.14752
#
# Static dielectric constant tensor:
#      x y z
#    x 4.279410 0.000000 0.000000 
#    y 0.000000 3.794780 0.000000 
#    z 0.000000 0.000000 4.128060 
# 
# 
# High freq. dielectric constant tensor:
#      x y z
#    x 1.900820 0.000000 0.000000 
#    y 0.000000 1.866620 0.000000 
#    z 0.000000 0.000000 1.880180 
# 
# From -- ./inp_files/11719.got.cif
#   From: 2010.03.12/outbox.cif.g09.slc.cpg/sg61_6_cif.got.tgz:11719.got - 2010.04.10 19:05:03.
