data_PCOD8249799
_publ_section_title
;
Structure prediction by ZEFSAII (Michael W. Deem and Ramdas Pophale) SiO2 
 PCOD8249799
Probable space group: P B C A
;
_chemical_formula_sum "Si O2"
_cell_formula_units_Z 56
_cell_length_a 11.518524
_cell_length_b 15.133851
_cell_length_c 13.972298
_cell_angle_alpha 90.000000
_cell_angle_beta 90.000000
_cell_angle_gamma 90.000000
_cell_volume 2435.645761
_symmetry_space_group_name_H-M "P B C A"
_symmetry_group_IT_number 61
_symmetry_cell_setting 'orthorhombic'
loop_
_space_group_symop_operation_xyz
x,y,z
1/2-x,-y,1/2+z
1/2+x,1/2-y,-z
-x,1/2+y,1/2-z
-x,-y,-z
1/2+x,y,1/2-z
1/2-x,1/2+y,z
x,1/2-y,1/2+z
loop_
_atom_site_type_symbol
_atom_site_label
_atom_site_fract_x
_atom_site_fract_y
_atom_site_fract_z
Si Si1 0.749442 0.814774 0.483848
Si Si2 0.978469 0.086834 0.936688
Si Si3 0.390291 0.832677 0.594359
Si Si4 0.738770 0.958374 0.793942
Si Si5 0.097167 0.606499 0.762394
Si Si6 0.365688 0.207074 0.318435
Si Si7 0.063726 0.058805 0.574230
O O1 0.654383 0.880089 0.439093
O O2 0.783191 0.736060 0.410262
O O3 0.707081 0.776660 0.584689
O O4 0.865565 0.872787 0.491095
O O5 0.996120 0.079744 0.822157
O O6 0.064066 0.158160 0.984647
O O7 0.000000 0.000000 0.000000
O O8 0.340048 0.923849 0.635660
O O9 0.497357 0.805743 0.662105
O O10 0.688397 0.880283 0.728730
O O11 0.797592 0.035959 0.730633
O O12 0.636635 0.996787 0.856693
O O13 0.148451 0.706415 0.750796
O O14 0.029667 0.610961 0.862372
O O15 0.000000 0.000000 0.500000
#
# Coordination Sequence:
#
# PCOD8249799 Si02
#       7
#     8   8   8   8   8   8   8
#     4  11  24  47  70 108 150 198 255 314 392 453
#     4  11  23  46  74 106 149 195 252 322 383 461
#     4  11  24  46  72 106 150 197 248 316 383 456
#     4  12  26  46  74 111 150 197 258 314 388 460
#     4  12  25  48  77 111 147 203 260 313 387 471
#     4  11  27  46  78 109 151 198 257 319 385 459
#     4  12  27  46  72 108 153 194 257 321 382 460
#
# _framework density 22.991848999999998
#
# number of rings (size 3 to 8) (size 9 to 14) (size 15 to 20)
#    0.000    0.571    4.286    2.571    4.000    3.429 
#    0.000    0.000    0.000    0.000    0.000    0.000 
#    0.000    0.000    0.000    0.000    0.000    0.000 
#
# Total GULP energy -694296.220032 kJ/mol
# GULP energy per Si atom -12398.146786 kJ/mol
# Density = 2.293952 g / cm^3
# Si number density = 22.991849 Si / 1000 Ang^3
#
#
#
# Elastic Constant Matrix: (Units=GPa)
#
#
# Indices 1 2 3 4 5 6 
#
# 1 103.4505 43.4141 27.4375 0.0000 0.0000 0.0000
# 2 43.4141 134.9352 24.0603 0.0000 0.0000 0.0000
# 3 27.4375 24.0603 80.3599 0.0000 0.0000 0.0000
# 4 0.0000 0.0000 0.0000 41.5871 0.0000 0.0000
# 5 0.0000 0.0000 0.0000 0.0000 40.1776 0.0000
# 6 0.0000 0.0000 0.0000 0.0000 0.0000 46.8369
#
#
#
# Elastic Compliance Matrix: (Units=1/GPa)
#
#
# Indices 1 2 3 4 5 6 
#
# 1 0.011851 -0.003266 -0.003068 0.000000 0.000000 0.000000
# 2 -0.003266 0.008729 -0.001498 0.000000 0.000000 0.000000
# 3 -0.003068 -0.001498 0.013940 0.000000 0.000000 0.000000
# 4 0.000000 0.000000 0.000000 0.024046 0.000000 0.000000
# 5 0.000000 0.000000 0.000000 0.000000 0.024889 0.000000
# 6 0.000000 0.000000 0.000000 0.000000 0.000000 0.021351
#
#
# Mechanical properties :
#
#
# Convention : Reuss Voigt Hill
#
# Bulk Modulus (GPa) = 53.03719 56.50770 54.77245
# Shear Modulus (GPa) = 39.44579 40.64259 40.04419
#
# Velocity S-wave (km/s) = 4.14652 4.20896 4.17786
# Velocity P-wave (km/s) = 6.78548 6.94630 6.86636
#
# Compressibility (1/GPa) = 0.01885470
#
# Stress axis : x y z
#
# Youngs Moduli (GPa) = 84.38263 114.56234 71.73424
#
# Poissons Ratio (x) = 0.37413 0.22011
# Poissons Ratio (y) = 0.27557 0.10749
# Poissons Ratio (z) = 0.25892 0.17167
#
# Static dielectric constant tensor:
#      x y z
#    x 4.072470 0.000000 0.000000 
#    y 0.000000 3.981650 0.000000 
#    z 0.000000 0.000000 4.468120 
# 
# 
# High freq. dielectric constant tensor:
#      x y z
#    x 1.912690 0.000000 0.000000 
#    y 0.000000 1.926710 0.000000 
#    z 0.000000 0.000000 1.903950 
# 
# From -- ./inp_files/7511.got.cif
#   From: 2010.03.12/outbox.cif.g09.slc.cpg/sg61_4_cif.got.tgz:7511.got - 2010.04.10 19:05:03.
