data_PCOD8249232
_publ_section_title
;
Structure prediction by ZEFSAII (Michael W. Deem and Ramdas Pophale) SiO2 
 PCOD8249232
Probable space group: P B C A
;
_chemical_formula_sum "Si O2"
_cell_formula_units_Z 40
_cell_length_a 8.013027
_cell_length_b 11.122590
_cell_length_c 20.001216
_cell_angle_alpha 90.000000
_cell_angle_beta 90.000000
_cell_angle_gamma 90.000000
_cell_volume 1782.620656
_symmetry_space_group_name_H-M "P B C A"
_symmetry_group_IT_number 61
_symmetry_cell_setting 'orthorhombic'
loop_
_space_group_symop_operation_xyz
x,y,z
1/2-x,-y,1/2+z
1/2+x,1/2-y,-z
-x,1/2+y,1/2-z
-x,-y,-z
1/2+x,y,1/2-z
1/2-x,1/2+y,z
x,1/2-y,1/2+z
loop_
_atom_site_type_symbol
_atom_site_label
_atom_site_fract_x
_atom_site_fract_y
_atom_site_fract_z
Si Si1 0.780437 0.143967 0.562960
Si Si2 0.418589 0.464099 0.859739
Si Si3 0.303364 0.783128 0.804763
Si Si4 0.615906 0.245860 0.431233
Si Si5 0.136387 0.686642 0.680184
O O1 0.755563 0.226469 0.626602
O O2 0.686466 0.198490 0.500279
O O3 0.981122 0.148399 0.551960
O O4 0.699495 0.014595 0.580077
O O5 0.293912 0.410433 0.802579
O O6 0.541565 0.364834 0.889569
O O7 0.530855 0.563394 0.822492
O O8 0.262063 0.695120 0.742449
O O9 0.503964 0.796078 0.808439
O O10 0.766124 0.303444 0.389312
#
# Coordination Sequence:
#
# PCOD8249232 Si02
#       5
#     8   8   8   8   8
#     4  10  21  39  63  93 129 165 209 261 312 375
#     4  10  23  42  67  93 128 170 211 260 325 379
#     4  10  22  40  63  94 127 165 212 262 313 377
#     4  11  23  42  65  96 131 168 214 264 313 379
#     4  11  24  43  65  94 129 168 214 267 316 378
#
# _framework density 22.438873999999998
#
# number of rings (size 3 to 8) (size 9 to 14) (size 15 to 20)
#    0.000    1.600    0.000    5.400    0.000    9.600 
#    0.000    6.000    0.000    0.000    0.000    0.000 
#    0.000    0.000    0.000    0.000    0.000    0.000 
#
# Total GULP energy -495713.037864 kJ/mol
# GULP energy per Si atom -12392.825947 kJ/mol
# Density = 2.238780 g / cm^3
# Si number density = 22.438874 Si / 1000 Ang^3
#
#
#
# Elastic Constant Matrix: (Units=GPa)
#
#
# Indices 1 2 3 4 5 6 
#
# 1 142.5602 26.7987 14.8000 0.0000 0.0000 0.0000
# 2 26.7987 67.6822 -1.3939 0.0000 0.0000 0.0000
# 3 14.8000 -1.3939 74.4584 0.0000 0.0000 0.0000
# 4 0.0000 0.0000 0.0000 29.5125 0.0000 0.0000
# 5 0.0000 0.0000 0.0000 0.0000 47.3426 0.0000
# 6 0.0000 0.0000 0.0000 0.0000 0.0000 72.9150
#
#
#
# Elastic Compliance Matrix: (Units=1/GPa)
#
#
# Indices 1 2 3 4 5 6 
#
# 1 0.007765 -0.003108 -0.001602 0.000000 0.000000 0.000000
# 2 -0.003108 0.016024 0.000918 0.000000 0.000000 0.000000
# 3 -0.001602 0.000918 0.013766 0.000000 0.000000 0.000000
# 4 0.000000 0.000000 0.000000 0.033884 0.000000 0.000000
# 5 0.000000 0.000000 0.000000 0.000000 0.021123 0.000000
# 6 0.000000 0.000000 0.000000 0.000000 0.000000 0.013715
#
#
# Mechanical properties :
#
#
# Convention : Reuss Voigt Hill
#
# Bulk Modulus (GPa) = 33.36430 40.56781 36.96605
# Shear Modulus (GPa) = 40.37143 46.25376 43.31260
#
# Velocity S-wave (km/s) = 4.24627 4.54510 4.39823
# Velocity P-wave (km/s) = 6.24038 6.75740 6.50403
#
# Compressibility (1/GPa) = 0.02997216
#
# Stress axis : x y z
#
# Youngs Moduli (GPa) = 128.78283 62.40538 72.64351
#
# Poissons Ratio (x) = 0.19393 0.11635
# Poissons Ratio (y) = 0.40020 -0.06666
# Poissons Ratio (z) = 0.20626 -0.05727
#
# Static dielectric constant tensor:
#      x y z
#    x 4.716930 0.000000 0.000000 
#    y 0.000000 4.265640 0.000000 
#    z 0.000000 0.000000 3.790300 
# 
# 
# High freq. dielectric constant tensor:
#      x y z
#    x 1.907360 0.000000 0.000000 
#    y 0.000000 1.863670 0.000000 
#    z 0.000000 0.000000 1.890550 
# 
# From -- ./inp_files/6071.got.cif
#   From: 2010.03.12/outbox.cif.g09.slc.cpg/sg61_4_cif.got.tgz:6071.got - 2010.04.10 19:05:03.
