data_PCOD8249842
_publ_section_title
;
Structure prediction by ZEFSAII (Michael W. Deem and Ramdas Pophale) SiO2 
 PCOD8249842
Probable space group: P B C A
;
_chemical_formula_sum "Si O2"
_cell_formula_units_Z 56
_cell_length_a 8.500165
_cell_length_b 13.374120
_cell_length_c 22.099660
_cell_angle_alpha 90.000000
_cell_angle_beta 90.000000
_cell_angle_gamma 90.000000
_cell_volume 2512.338559
_symmetry_space_group_name_H-M "P B C A"
_symmetry_group_IT_number 61
_symmetry_cell_setting 'orthorhombic'
loop_
_space_group_symop_operation_xyz
x,y,z
1/2-x,-y,1/2+z
1/2+x,1/2-y,-z
-x,1/2+y,1/2-z
-x,-y,-z
1/2+x,y,1/2-z
1/2-x,1/2+y,z
x,1/2-y,1/2+z
loop_
_atom_site_type_symbol
_atom_site_label
_atom_site_fract_x
_atom_site_fract_y
_atom_site_fract_z
Si Si1 0.145715 0.170384 0.187787
Si Si2 0.344430 0.058976 0.683221
Si Si3 0.843451 0.170784 0.427424
Si Si4 0.170521 0.217795 0.475513
Si Si5 0.350284 0.558637 0.567278
Si Si6 0.154695 0.162463 0.778081
Si Si7 0.605554 0.800414 0.122432
O O1 0.297370 0.183524 0.143313
O O2 0.172895 0.223884 0.252583
O O3 0.995425 0.221589 0.158956
O O4 0.105728 0.054364 0.197795
O O5 0.295611 0.073404 0.613375
O O6 0.192841 0.085883 0.723709
O O7 0.480453 0.137504 0.699177
O O8 0.693924 0.206232 0.467614
O O9 0.999632 0.234135 0.444459
O O10 0.885358 0.057001 0.442894
O O11 0.194041 0.106450 0.502617
O O12 0.305465 0.235762 0.427404
O O13 0.506995 0.611989 0.591506
O O14 0.273093 0.145140 0.833072
#
# Coordination Sequence:
#
# PCOD8249842 Si02
#       7
#     8   8   8   8   8   8   8
#     4  11  25  48  68 102 140 180 231 295 340 420
#     4  11  25  44  72  97 136 181 234 280 361 406
#     4  11  24  46  76  99 142 184 231 290 349 407
#     4  12  24  43  71 104 136 187 224 286 342 414
#     4  11  24  49  68 100 141 183 229 294 339 415
#     4  12  25  46  67 101 137 184 223 298 337 428
#     4  12  26  42  70 100 143 180 234 276 357 402
#
# _framework density 22.28999
#
# number of rings (size 3 to 8) (size 9 to 14) (size 15 to 20)
#    0.000    0.571    5.714    0.429    6.000    1.143 
#    2.571    2.143    0.000    0.000    0.000    0.000 
#    0.000    0.000    0.000    0.000    0.000    0.000 
#
# Total GULP energy -694567.729406 kJ/mol
# GULP energy per Si atom -12402.995168 kJ/mol
# Density = 2.223926 g / cm^3
# Si number density = 22.289990 Si / 1000 Ang^3
#
#
#
# Elastic Constant Matrix: (Units=GPa)
#
#
# Indices 1 2 3 4 5 6 
#
# 1 102.2987 49.6018 23.8433 0.0000 0.0000 0.0000
# 2 49.6018 97.5754 32.3945 0.0000 0.0000 0.0000
# 3 23.8433 32.3945 52.5423 0.0000 0.0000 0.0000
# 4 0.0000 0.0000 0.0000 32.4340 0.0000 0.0000
# 5 0.0000 0.0000 0.0000 0.0000 38.6225 0.0000
# 6 0.0000 0.0000 0.0000 0.0000 0.0000 23.8358
#
#
#
# Elastic Compliance Matrix: (Units=1/GPa)
#
#
# Indices 1 2 3 4 5 6 
#
# 1 0.013196 -0.005935 -0.002329 0.000000 0.000000 0.000000
# 2 -0.005935 0.015555 -0.006897 0.000000 0.000000 0.000000
# 3 -0.002329 -0.006897 0.024342 0.000000 0.000000 0.000000
# 4 0.000000 0.000000 0.000000 0.030832 0.000000 0.000000
# 5 0.000000 0.000000 0.000000 0.000000 0.025892 0.000000
# 6 0.000000 0.000000 0.000000 0.000000 0.000000 0.041954
#
#
# Mechanical properties :
#
#
# Convention : Reuss Voigt Hill
#
# Bulk Modulus (GPa) = 43.91676 51.56619 47.74147
# Shear Modulus (GPa) = 26.35988 28.75025 27.55506
#
# Velocity S-wave (km/s) = 3.44261 3.59531 3.51979
# Velocity P-wave (km/s) = 5.96216 6.35763 6.16307
#
# Compressibility (1/GPa) = 0.02277035
#
# Stress axis : x y z
#
# Youngs Moduli (GPa) = 75.78206 64.28709 41.08180
#
# Poissons Ratio (x) = 0.38153 0.09569
# Poissons Ratio (y) = 0.44974 0.28335
# Poissons Ratio (z) = 0.17651 0.44341
#
# Static dielectric constant tensor:
#      x y z
#    x 3.980140 0.000000 0.000000 
#    y 0.000000 4.048040 0.000000 
#    z 0.000000 0.000000 4.355330 
# 
# 
# High freq. dielectric constant tensor:
#      x y z
#    x 1.879300 0.000000 0.000000 
#    y 0.000000 1.873770 0.000000 
#    z 0.000000 0.000000 1.890880 
# 
# From -- ./inp_files/10111.got.cif
#   From: 2010.03.12/outbox.cif.g09.slc.cpg/sg61_6_cif.got.tgz:10111.got - 2010.04.10 19:05:03.
