data_PCOD8249805
_publ_section_title
;
Structure prediction by ZEFSAII (Michael W. Deem and Ramdas Pophale) SiO2 
 PCOD8249805
Probable space group: P B C A
;
_chemical_formula_sum "Si O2"
_cell_formula_units_Z 64
_cell_length_a 14.120099
_cell_length_b 18.182829
_cell_length_c 11.190056
_cell_angle_alpha 90.000000
_cell_angle_beta 90.000000
_cell_angle_gamma 90.000000
_cell_volume 2872.972415
_symmetry_space_group_name_H-M "P B C A"
_symmetry_group_IT_number 61
_symmetry_cell_setting 'orthorhombic'
loop_
_space_group_symop_operation_xyz
x,y,z
1/2-x,-y,1/2+z
1/2+x,1/2-y,-z
-x,1/2+y,1/2-z
-x,-y,-z
1/2+x,y,1/2-z
1/2-x,1/2+y,z
x,1/2-y,1/2+z
loop_
_atom_site_type_symbol
_atom_site_label
_atom_site_fract_x
_atom_site_fract_y
_atom_site_fract_z
Si Si1 0.736750 0.458848 0.603064
Si Si2 0.186620 0.173970 0.565102
Si Si3 0.809710 0.820837 0.046850
Si Si4 0.068274 0.039798 0.905660
Si Si5 0.009970 0.366482 0.204072
Si Si6 0.583323 0.557111 0.504978
Si Si7 0.667625 0.717861 0.752195
Si Si8 0.203948 0.625619 0.183322
O O1 0.703172 0.402997 0.500525
O O2 0.845345 0.483513 0.596205
O O3 0.671235 0.529607 0.586286
O O4 0.727532 0.424242 0.734581
O O5 0.151993 0.237265 0.472249
O O6 0.114146 0.165864 0.676979
O O7 0.286260 0.198022 0.620761
O O8 0.897580 0.875604 0.070800
O O9 0.726992 0.821265 0.146359
O O10 0.768020 0.847972 0.923306
O O11 0.016186 0.055487 0.777990
O O12 0.000000 0.000000 0.000000
O O13 0.961261 0.374708 0.074420
O O14 0.940973 0.307925 0.267110
O O15 0.500000 0.500000 0.500000
O O16 0.616033 0.579378 0.371513
O O17 0.666209 0.806466 0.736475
#
# Coordination Sequence:
#
# PCOD8249805 Si02
#       8
#     8   8   8   8   8   8   8   8
#     4  12  25  45  73 100 142 186 242 295 365 441
#     4  11  25  45  74 101 140 192 242 297 368 432
#     4  11  23  49  69 101 143 186 238 302 363 433
#     4  12  27  44  70 108 144 188 244 301 369 436
#     4  12  25  44  71 107 144 191 241 307 368 439
#     4  12  25  44  69 104 146 183 240 296 370 439
#     4  11  23  47  74 100 144 186 244 303 363 436
#     4  11  25  45  74 102 137 197 238 297 371 431
#
# _framework density 22.276581
#
# number of rings (size 3 to 8) (size 9 to 14) (size 15 to 20)
#    0.000    0.500    6.250    1.500    1.750    2.000 
#    4.500    0.000    0.000    0.000    0.000    0.000 
#    0.000    0.000    0.000    0.000    0.000    0.000 
#
# Total GULP energy -793258.797104 kJ/mol
# GULP energy per Si atom -12394.668705 kJ/mol
# Density = 2.222588 g / cm^3
# Si number density = 22.276581 Si / 1000 Ang^3
#
#
#
# Elastic Constant Matrix: (Units=GPa)
#
#
# Indices 1 2 3 4 5 6 
#
# 1 106.2676 33.5554 34.2783 0.0000 0.0000 0.0000
# 2 33.5554 100.8393 26.9678 0.0000 0.0000 0.0000
# 3 34.2783 26.9678 80.6851 0.0000 0.0000 0.0000
# 4 0.0000 0.0000 0.0000 49.8652 0.0000 0.0000
# 5 0.0000 0.0000 0.0000 0.0000 38.3450 0.0000
# 6 0.0000 0.0000 0.0000 0.0000 0.0000 40.0791
#
#
#
# Elastic Compliance Matrix: (Units=1/GPa)
#
#
# Indices 1 2 3 4 5 6 
#
# 1 0.011576 -0.002786 -0.003987 0.000000 0.000000 0.000000
# 2 -0.002786 0.011561 -0.002680 0.000000 0.000000 0.000000
# 3 -0.003987 -0.002680 0.014984 0.000000 0.000000 0.000000
# 4 0.000000 0.000000 0.000000 0.020054 0.000000 0.000000
# 5 0.000000 0.000000 0.000000 0.000000 0.026079 0.000000
# 6 0.000000 0.000000 0.000000 0.000000 0.000000 0.024951
#
#
# Mechanical properties :
#
#
# Convention : Reuss Voigt Hill
#
# Bulk Modulus (GPa) = 52.04559 53.04392 52.54475
# Shear Modulus (GPa) = 37.17072 38.52388 37.84730
#
# Velocity S-wave (km/s) = 4.08928 4.16305 4.12633
# Velocity P-wave (km/s) = 6.76095 6.85355 6.80741
#
# Compressibility (1/GPa) = 0.01921392
#
# Stress axis : x y z
#
# Youngs Moduli (GPa) = 86.38670 86.50061 66.74000
#
# Poissons Ratio (x) = 0.24097 0.26608
# Poissons Ratio (y) = 0.24066 0.17889
# Poissons Ratio (z) = 0.34441 0.23186
#
# Static dielectric constant tensor:
#      x y z
#    x 4.065590 0.000000 0.000000 
#    y 0.000000 3.678280 0.000000 
#    z 0.000000 0.000000 2.597560 
# 
# 
# High freq. dielectric constant tensor:
#      x y z
#    x 1.873160 0.000000 0.000000 
#    y 0.000000 1.885210 0.000000 
#    z 0.000000 0.000000 1.881120 
# 
# From -- ./inp_files/5997.got.cif
#   From: 2010.03.12/outbox.cif.g09.slc.cpg/sg61_3_cif.got.tgz:5997.got - 2010.04.10 19:05:03.
