data_PCOD8249332
_publ_section_title
;
Structure prediction by ZEFSAII (Michael W. Deem and Ramdas Pophale) SiO2 
 PCOD8249332
Probable space group: P B C A
;
_chemical_formula_sum "Si O2"
_cell_formula_units_Z 64
_cell_length_a 16.462003
_cell_length_b 19.104341
_cell_length_c 9.563398
_cell_angle_alpha 90.000000
_cell_angle_beta 90.000000
_cell_angle_gamma 90.000000
_cell_volume 3007.647729
_symmetry_space_group_name_H-M "P B C A"
_symmetry_group_IT_number 61
_symmetry_cell_setting 'orthorhombic'
loop_
_space_group_symop_operation_xyz
x,y,z
1/2-x,-y,1/2+z
1/2+x,1/2-y,-z
-x,1/2+y,1/2-z
-x,-y,-z
1/2+x,y,1/2-z
1/2-x,1/2+y,z
x,1/2-y,1/2+z
loop_
_atom_site_type_symbol
_atom_site_label
_atom_site_fract_x
_atom_site_fract_y
_atom_site_fract_z
Si Si1 0.077216 0.585771 0.095199
Si Si2 0.933825 0.567232 0.895004
Si Si3 0.730991 0.066391 0.049979
Si Si4 0.845535 0.800275 0.947027
Si Si5 0.258701 0.564516 0.122970
Si Si6 0.426956 0.702493 0.768834
Si Si7 0.089527 0.730111 0.206578
Si Si8 0.805326 0.216063 0.033547
O O1 0.064471 0.510778 0.173472
O O2 0.173238 0.595507 0.063973
O O3 0.050081 0.652755 0.185494
O O4 0.022838 0.584854 0.955174
O O5 0.909337 0.623128 0.777899
O O6 0.865637 0.568302 0.017467
O O7 0.745719 0.049257 0.211990
O O8 0.771693 0.138951 0.004697
O O9 0.776614 0.007553 0.957889
O O10 0.915209 0.792757 0.064355
O O11 0.763355 0.773169 0.014709
O O12 0.831357 0.880898 0.905001
O O13 0.867106 0.755919 0.809845
O O14 0.518873 0.722213 0.729277
O O15 0.166536 0.723201 0.306865
O O16 0.118411 0.766777 0.064455
#
# Coordination Sequence:
#
# PCOD8249332 Si02
#       8
#     8   8   8   8   8   8   8   8
#     4  10  21  43  64  92 127 178 215 268 327 402
#     4  10  23  42  68  94 129 177 224 268 333 405
#     4  11  24  44  68 100 133 175 221 276 336 403
#     4  12  25  42  67 100 133 173 219 280 332 395
#     4  11  25  43  71  99 133 175 222 276 338 400
#     4  12  26  43  68  97 137 178 226 274 341 404
#     4  12  25  42  67  95 135 176 220 271 337 400
#     4  12  23  43  65  98 132 167 218 276 328 391
#
# _framework density 21.279088000000002
#
# number of rings (size 3 to 8) (size 9 to 14) (size 15 to 20)
#    0.000    0.750    3.750    3.750    5.250    0.000 
#    4.500    0.000    0.000    3.750    0.000    0.000 
#    0.000    0.000    0.000    0.000    0.000    0.000 
#
# Total GULP energy -793733.106825 kJ/mol
# GULP energy per Si atom -12402.079794 kJ/mol
# Density = 2.123066 g / cm^3
# Si number density = 21.279088 Si / 1000 Ang^3
#
#
#
# Elastic Constant Matrix: (Units=GPa)
#
#
# Indices 1 2 3 4 5 6 
#
# 1 69.3168 23.4420 15.5193 0.0000 0.0000 0.0000
# 2 23.4420 141.7159 47.4899 0.0000 0.0000 0.0000
# 3 15.5193 47.4899 91.4321 0.0000 0.0000 0.0000
# 4 0.0000 0.0000 0.0000 30.8001 0.0000 0.0000
# 5 0.0000 0.0000 0.0000 0.0000 31.6234 0.0000
# 6 0.0000 0.0000 0.0000 0.0000 0.0000 32.5022
#
#
#
# Elastic Compliance Matrix: (Units=1/GPa)
#
#
# Indices 1 2 3 4 5 6 
#
# 1 0.015465 -0.002032 -0.001569 0.000000 0.000000 0.000000
# 2 -0.002032 0.008810 -0.004231 0.000000 0.000000 0.000000
# 3 -0.001569 -0.004231 0.013401 0.000000 0.000000 0.000000
# 4 0.000000 0.000000 0.000000 0.032467 0.000000 0.000000
# 5 0.000000 0.000000 0.000000 0.000000 0.031622 0.000000
# 6 0.000000 0.000000 0.000000 0.000000 0.000000 0.030767
#
#
# Mechanical properties :
#
#
# Convention : Reuss Voigt Hill
#
# Bulk Modulus (GPa) = 45.43186 52.81858 49.12522
# Shear Modulus (GPa) = 32.14683 33.38604 32.76644
#
# Velocity S-wave (km/s) = 3.89102 3.96531 3.92834
# Velocity P-wave (km/s) = 6.44853 6.77057 6.61151
#
# Compressibility (1/GPa) = 0.02201099
#
# Stress axis : x y z
#
# Youngs Moduli (GPa) = 64.66142 113.50174 74.62045
#
# Poissons Ratio (x) = 0.23066 0.11711
# Poissons Ratio (y) = 0.13141 0.31573
# Poissons Ratio (z) = 0.10148 0.48025
#
# Static dielectric constant tensor:
#      x y z
#    x 3.780630 0.000000 0.000000 
#    y 0.000000 4.125290 0.000000 
#    z 0.000000 0.000000 3.672890 
# 
# 
# High freq. dielectric constant tensor:
#      x y z
#    x 1.834730 0.000000 0.000000 
#    y 0.000000 1.854460 0.000000 
#    z 0.000000 0.000000 1.816220 
# 
# From -- ./inp_files/3699.got.cif
#   From: 2010.03.12/outbox.cif.g09.slc.cpg/sg61_2_cif.got.tgz:3699.got - 2010.04.10 19:05:03.
