data_PCOD8249640
_publ_section_title
;
Structure prediction by ZEFSAII (Michael W. Deem and Ramdas Pophale) SiO2 
 PCOD8249640
Probable space group: P B C A
;
_chemical_formula_sum "Si O2"
_cell_formula_units_Z 48
_cell_length_a 15.817605
_cell_length_b 11.719712
_cell_length_c 11.389275
_cell_angle_alpha 90.000000
_cell_angle_beta 90.000000
_cell_angle_gamma 90.000000
_cell_volume 2111.318460
_symmetry_space_group_name_H-M "P B C A"
_symmetry_group_IT_number 61
_symmetry_cell_setting 'orthorhombic'
loop_
_space_group_symop_operation_xyz
x,y,z
1/2-x,-y,1/2+z
1/2+x,1/2-y,-z
-x,1/2+y,1/2-z
-x,-y,-z
1/2+x,y,1/2-z
1/2-x,1/2+y,z
x,1/2-y,1/2+z
loop_
_atom_site_type_symbol
_atom_site_label
_atom_site_fract_x
_atom_site_fract_y
_atom_site_fract_z
Si Si1 0.159600 0.642878 0.758200
Si Si2 0.091608 0.976801 0.052432
Si Si3 0.158535 0.088184 0.670475
Si Si4 0.572886 0.174385 0.290704
Si Si5 0.412154 0.972999 0.936059
Si Si6 0.615438 0.619995 0.181112
O O1 0.091107 0.621167 0.653634
O O2 0.245830 0.584816 0.714781
O O3 0.126682 0.587216 0.878788
O O4 0.176975 0.777446 0.778417
O O5 0.123961 0.093222 0.116390
O O6 0.148288 0.934308 0.942488
O O7 0.000000 0.000000 0.000000
O O8 0.111208 0.200855 0.712867
O O9 0.154659 0.076134 0.530253
O O10 0.109819 0.979428 0.723448
O O11 0.475930 0.179464 0.332970
O O12 0.576989 0.124751 0.160268
O O13 0.500000 0.000000 0.000000
#
# Coordination Sequence:
#
# PCOD8249640 Si02
#       6
#     8   8   8   8   8   8
#     4  11  28  45  72 110 151 188 249 310 381 437
#     4   9  23  46  73 101 142 194 246 301 363 439
#     4  12  28  44  75 109 148 191 243 311 377 435
#     4  10  24  46  74 106 141 191 255 294 366 445
#     4  11  24  51  75 105 144 199 250 305 364 455
#     4  11  25  45  73 103 145 192 246 300 369 444
#
# _framework density 22.734608999999999
#
# number of rings (size 3 to 8) (size 9 to 14) (size 15 to 20)
#    0.000    1.333    1.667    1.000   16.333    1.333 
#    0.000    0.000    0.000    0.000    0.000    0.000 
#    0.000    0.000    0.000    0.000    0.000    0.000 
#
# Total GULP energy -595164.449797 kJ/mol
# GULP energy per Si atom -12399.259371 kJ/mol
# Density = 2.268286 g / cm^3
# Si number density = 22.734609 Si / 1000 Ang^3
#
#
#
# Elastic Constant Matrix: (Units=GPa)
#
#
# Indices 1 2 3 4 5 6 
#
# 1 88.3402 37.5351 43.0705 0.0000 0.0000 0.0000
# 2 37.5351 160.4700 66.8864 0.0000 0.0000 0.0000
# 3 43.0705 66.8864 162.7019 0.0000 0.0000 0.0000
# 4 0.0000 0.0000 0.0000 36.9415 0.0000 0.0000
# 5 0.0000 0.0000 0.0000 0.0000 34.7112 0.0000
# 6 0.0000 0.0000 0.0000 0.0000 0.0000 30.7230
#
#
#
# Elastic Compliance Matrix: (Units=1/GPa)
#
#
# Indices 1 2 3 4 5 6 
#
# 1 0.013517 -0.002016 -0.002750 0.000000 0.000000 0.000000
# 2 -0.002016 0.007821 -0.002682 0.000000 0.000000 0.000000
# 3 -0.002750 -0.002682 0.007976 0.000000 0.000000 0.000000
# 4 0.000000 0.000000 0.000000 0.027070 0.000000 0.000000
# 5 0.000000 0.000000 0.000000 0.000000 0.028809 0.000000
# 6 0.000000 0.000000 0.000000 0.000000 0.000000 0.032549
#
#
# Mechanical properties :
#
#
# Convention : Reuss Voigt Hill
#
# Bulk Modulus (GPa) = 69.34490 78.49957 73.92223
# Shear Modulus (GPa) = 36.37885 38.07649 37.22767
#
# Velocity S-wave (km/s) = 4.00453 4.09690 4.05098
# Velocity P-wave (km/s) = 7.20762 7.54872 7.38014
#
# Compressibility (1/GPa) = 0.01442067
#
# Stress axis : x y z
#
# Youngs Moduli (GPa) = 73.98171 127.86278 125.36880
#
# Poissons Ratio (x) = 0.25772 0.34471
# Poissons Ratio (y) = 0.14912 0.33619
# Poissons Ratio (z) = 0.20342 0.34287
#
# Static dielectric constant tensor:
#      x y z
#    x 3.828240 0.000000 0.000000 
#    y 0.000000 4.159620 0.000000 
#    z 0.000000 0.000000 4.767890 
# 
# 
# High freq. dielectric constant tensor:
#      x y z
#    x 1.877300 0.000000 0.000000 
#    y 0.000000 1.901710 0.000000 
#    z 0.000000 0.000000 1.915090 
# 
# From -- ./inp_files/6164.got.cif
#   From: 2010.03.12/outbox.cif.g09.slc.cpg/sg61_4_cif.got.tgz:6164.got - 2010.04.10 19:05:03.
