data_PCOD8249534
_publ_section_title
;
Structure prediction by ZEFSAII (Michael W. Deem and Ramdas Pophale) SiO2 
 PCOD8249534
Probable space group: P B C A
;
_chemical_formula_sum "Si O2"
_cell_formula_units_Z 48
_cell_length_a 5.215926
_cell_length_b 28.014139
_cell_length_c 14.708976
_cell_angle_alpha 90.000000
_cell_angle_beta 90.000000
_cell_angle_gamma 90.000000
_cell_volume 2149.270807
_symmetry_space_group_name_H-M "P B C A"
_symmetry_group_IT_number 61
_symmetry_cell_setting 'orthorhombic'
loop_
_space_group_symop_operation_xyz
x,y,z
1/2-x,-y,1/2+z
1/2+x,1/2-y,-z
-x,1/2+y,1/2-z
-x,-y,-z
1/2+x,y,1/2-z
1/2-x,1/2+y,z
x,1/2-y,1/2+z
loop_
_atom_site_type_symbol
_atom_site_label
_atom_site_fract_x
_atom_site_fract_y
_atom_site_fract_z
Si Si1 0.479697 0.194606 0.694765
Si Si2 0.071843 0.992807 0.147990
Si Si3 0.030276 0.893291 0.069809
Si Si4 0.461238 0.120301 0.042558
Si Si5 0.071112 0.033552 0.352052
Si Si6 0.980838 0.232009 0.449594
O O1 0.185343 0.188891 0.725052
O O2 0.543028 0.154963 0.620694
O O3 0.526272 0.246227 0.650083
O O4 0.024540 0.936108 0.143886
O O5 0.108375 0.014935 0.249098
O O6 0.339591 0.005101 0.098495
O O7 0.837232 0.019715 0.097372
O O8 0.809553 0.899411 0.994484
O O9 0.312951 0.889911 0.028451
O O10 0.521788 0.090391 0.135362
O O11 0.441958 0.175962 0.064797
O O12 0.226739 0.242872 0.511314
#
# Coordination Sequence:
#
# PCOD8249534 Si02
#       6
#     8   8   8   8   8   8
#     4  12  26  43  69 106 135 175 228 277 345 407
#     4  10  23  42  62  94 133 179 213 277 330 395
#     4  12  25  41  73 100 131 179 223 277 336 395
#     4  12  24  44  71  99 131 179 226 275 332 406
#     4  10  23  42  63  93 133 175 217 270 335 390
#     4  12  23  48  70 100 140 177 220 285 343 394
#
# _framework density 22.333154
#
# number of rings (size 3 to 8) (size 9 to 14) (size 15 to 20)
#    0.000    0.667    3.333    4.000    4.667    4.000 
#    6.000    0.000    0.000    0.000    0.000    0.000 
#    0.000    0.000    0.000    0.000    0.000    0.000 
#
# Total GULP energy -595009.413084 kJ/mol
# GULP energy per Si atom -12396.029439 kJ/mol
# Density = 2.228232 g / cm^3
# Si number density = 22.333154 Si / 1000 Ang^3
#
#
#
# Elastic Constant Matrix: (Units=GPa)
#
#
# Indices 1 2 3 4 5 6 
#
# 1 159.2708 21.9983 -2.7832 0.0000 0.0000 0.0000
# 2 21.9983 137.5191 27.0830 0.0000 0.0000 0.0000
# 3 -2.7832 27.0830 40.3015 0.0000 0.0000 0.0000
# 4 0.0000 0.0000 0.0000 43.3362 0.0000 0.0000
# 5 0.0000 0.0000 0.0000 0.0000 12.0561 0.0000
# 6 0.0000 0.0000 0.0000 0.0000 0.0000 32.9672
#
#
#
# Elastic Compliance Matrix: (Units=1/GPa)
#
#
# Indices 1 2 3 4 5 6 
#
# 1 0.006481 -0.001296 0.001319 0.000000 0.000000 0.000000
# 2 -0.001296 0.008640 -0.005896 0.000000 0.000000 0.000000
# 3 0.001319 -0.005896 0.028866 0.000000 0.000000 0.000000
# 4 0.000000 0.000000 0.000000 0.023075 0.000000 0.000000
# 5 0.000000 0.000000 0.000000 0.000000 0.082945 0.000000
# 6 0.000000 0.000000 0.000000 0.000000 0.000000 0.030333
#
#
# Mechanical properties :
#
#
# Convention : Reuss Voigt Hill
#
# Bulk Modulus (GPa) = 31.01733 47.74308 39.38020
# Shear Modulus (GPa) = 24.65063 37.05812 30.85438
#
# Velocity S-wave (km/s) = 3.32591 4.07791 3.72095
# Velocity P-wave (km/s) = 5.35420 6.60277 6.01099
#
# Compressibility (1/GPa) = 0.03224004
#
# Stress axis : x y z
#
# Youngs Moduli (GPa) = 154.30393 115.73771 34.64271
#
# Poissons Ratio (x) = 0.15004 -0.04569
# Poissons Ratio (y) = 0.20004 0.20425
# Poissons Ratio (z) = -0.20349 0.68237
#
# Static dielectric constant tensor:
#      x y z
#    x 5.076680 0.000000 0.000000 
#    y 0.000000 4.186450 0.000000 
#    z 0.000000 0.000000 3.740670 
# 
# 
# High freq. dielectric constant tensor:
#      x y z
#    x 1.918980 0.000000 0.000000 
#    y 0.000000 1.887790 0.000000 
#    z 0.000000 0.000000 1.851440 
# 
# From -- ./inp_files/6859.got.cif
#   From: 2010.03.12/outbox.cif.g09.slc.cpg/sg61_4_cif.got.tgz:6859.got - 2010.04.10 19:05:03.
