data_PCOD8249720
_publ_section_title
;
Structure prediction by ZEFSAII (Michael W. Deem and Ramdas Pophale) SiO2 
 PCOD8249720
Probable space group: P B C A
;
_chemical_formula_sum "Si O2"
_cell_formula_units_Z 64
_cell_length_a 9.287552
_cell_length_b 21.536236
_cell_length_c 16.876719
_cell_angle_alpha 90.000000
_cell_angle_beta 90.000000
_cell_angle_gamma 90.000000
_cell_volume 3375.662968
_symmetry_space_group_name_H-M "P B C A"
_symmetry_group_IT_number 61
_symmetry_cell_setting 'orthorhombic'
loop_
_space_group_symop_operation_xyz
x,y,z
1/2-x,-y,1/2+z
1/2+x,1/2-y,-z
-x,1/2+y,1/2-z
-x,-y,-z
1/2+x,y,1/2-z
1/2-x,1/2+y,z
x,1/2-y,1/2+z
loop_
_atom_site_type_symbol
_atom_site_label
_atom_site_fract_x
_atom_site_fract_y
_atom_site_fract_z
Si Si1 0.472544 0.229077 0.893252
Si Si2 0.205222 0.776545 0.121093
Si Si3 0.631000 0.954064 0.999282
Si Si4 0.523311 0.671369 0.435795
Si Si5 0.376403 0.041825 0.531134
Si Si6 0.196615 0.887404 0.337644
Si Si7 0.795344 0.164048 0.051318
Si Si8 0.535139 0.612645 0.813642
O O1 0.628540 0.229507 0.849351
O O2 0.361269 0.182045 0.852598
O O3 0.406913 0.298889 0.892203
O O4 0.493524 0.207781 0.982644
O O5 0.112422 0.820595 0.177974
O O6 0.124179 0.710171 0.123886
O O7 0.210211 0.801851 0.032497
O O8 0.680352 0.932168 0.086702
O O9 0.597979 0.894853 0.945672
O O10 0.500000 0.000000 0.000000
O O11 0.747700 0.994681 0.954306
O O12 0.359726 0.663329 0.404682
O O13 0.344364 0.093551 0.464182
O O14 0.416467 0.069970 0.614858
O O15 0.500000 0.000000 0.500000
O O16 0.097519 0.916523 0.267798
O O17 0.362746 0.881889 0.311443
#
# Coordination Sequence:
#
# PCOD8249720 Si02
#       8
#     8   8   8   8   8   8   8   8
#     4   9  18  31  52  79 108 139 180 230 285 337
#     4   9  18  31  52  79 108 139 181 230 284 338
#     4  11  22  37  59  87 120 158 203 244 289 349
#     4   9  17  30  51  80 110 141 180 229 282 330
#     4  11  22  37  57  87 120 156 203 247 287 347
#     4  11  23  38  59  84 115 153 194 245 303 357
#     4   9  17  30  51  79 111 141 179 232 281 329
#     4  11  23  38  59  83 116 152 194 246 303 358
#
# _framework density 18.959240000000001
#
# number of rings (size 3 to 8) (size 9 to 14) (size 15 to 20)
#    0.000    2.000    2.500    1.500    5.250    3.000 
#    0.000    0.000    0.000    3.000    0.000    0.000 
#    0.000    0.000    0.000    0.000    0.000    0.000 
#
# Total GULP energy -793246.807636 kJ/mol
# GULP energy per Si atom -12394.481369 kJ/mol
# Density = 1.891609 g / cm^3
# Si number density = 18.959240 Si / 1000 Ang^3
#
#
#
# Elastic Constant Matrix: (Units=GPa)
#
#
# Indices 1 2 3 4 5 6 
#
# 1 172.7567 57.9561 26.4672 0.0000 0.0000 0.0000
# 2 57.9561 123.0284 17.1481 0.0000 0.0000 0.0000
# 3 26.4672 17.1481 46.9447 0.0000 0.0000 0.0000
# 4 0.0000 0.0000 0.0000 11.8147 0.0000 0.0000
# 5 0.0000 0.0000 0.0000 0.0000 27.3294 0.0000
# 6 0.0000 0.0000 0.0000 0.0000 0.0000 37.1655
#
#
#
# Elastic Compliance Matrix: (Units=1/GPa)
#
#
# Indices 1 2 3 4 5 6 
#
# 1 0.007253 -0.003000 -0.002994 0.000000 0.000000 0.000000
# 2 -0.003000 0.009805 -0.001890 0.000000 0.000000 0.000000
# 3 -0.002994 -0.001890 0.023680 0.000000 0.000000 0.000000
# 4 0.000000 0.000000 0.000000 0.084640 0.000000 0.000000
# 5 0.000000 0.000000 0.000000 0.000000 0.036591 0.000000
# 6 0.000000 0.000000 0.000000 0.000000 0.000000 0.026907
#
#
# Mechanical properties :
#
#
# Convention : Reuss Voigt Hill
#
# Bulk Modulus (GPa) = 40.04678 60.65250 50.34964
# Shear Modulus (GPa) = 23.47782 31.33915 27.40848
#
# Velocity S-wave (km/s) = 3.52281 4.07009 3.80630
# Velocity P-wave (km/s) = 6.14128 7.35853 6.77729
#
# Compressibility (1/GPa) = 0.02497080
#
# Stress axis : x y z
#
# Youngs Moduli (GPa) = 137.86507 101.99125 42.22970
#
# Poissons Ratio (x) = 0.30594 0.12642
# Poissons Ratio (y) = 0.41355 0.07983
# Poissons Ratio (z) = 0.41273 0.19279
#
# Static dielectric constant tensor:
#      x y z
#    x 3.804040 0.000000 0.000000 
#    y 0.000000 3.416200 0.000000 
#    z 0.000000 0.000000 3.276490 
# 
# 
# High freq. dielectric constant tensor:
#      x y z
#    x 1.762490 0.000000 0.000000 
#    y 0.000000 1.733870 0.000000 
#    z 0.000000 0.000000 1.693770 
# 
# From -- ./inp_files/9054.got.cif
#   From: 2010.03.12/outbox.cif.g09.slc.cpg/sg61_5_cif.got.tgz:9054.got - 2010.04.10 19:05:03.
