data_PCOD8249248
_publ_section_title
;
Structure prediction by ZEFSAII (Michael W. Deem and Ramdas Pophale) SiO2 
 PCOD8249248
Probable space group: P B C A
;
_chemical_formula_sum "Si O2"
_cell_formula_units_Z 56
_cell_length_a 9.162775
_cell_length_b 16.427028
_cell_length_c 17.829256
_cell_angle_alpha 90.000000
_cell_angle_beta 90.000000
_cell_angle_gamma 90.000000
_cell_volume 2683.609004
_symmetry_space_group_name_H-M "P B C A"
_symmetry_group_IT_number 61
_symmetry_cell_setting 'orthorhombic'
loop_
_space_group_symop_operation_xyz
x,y,z
1/2-x,-y,1/2+z
1/2+x,1/2-y,-z
-x,1/2+y,1/2-z
-x,-y,-z
1/2+x,y,1/2-z
1/2-x,1/2+y,z
x,1/2-y,1/2+z
loop_
_atom_site_type_symbol
_atom_site_label
_atom_site_fract_x
_atom_site_fract_y
_atom_site_fract_z
Si Si1 0.050404 0.985572 0.389732
Si Si2 0.262180 0.872172 0.853224
Si Si3 0.200741 0.746697 0.233882
Si Si4 0.181726 0.585606 0.034766
Si Si5 0.518061 0.337344 0.947588
Si Si6 0.472858 0.690123 0.660149
Si Si7 0.018875 0.732058 0.082661
O O1 0.152185 0.967076 0.461091
O O2 0.980853 0.904143 0.358250
O O3 0.160730 0.040142 0.340039
O O4 0.906199 0.040150 0.399928
O O5 0.231828 0.843555 0.767465
O O6 0.363373 0.807876 0.898250
O O7 0.117266 0.879201 0.904861
O O8 0.348150 0.796423 0.221521
O O9 0.104501 0.745407 0.159767
O O10 0.127570 0.791710 0.303449
O O11 0.351803 0.596023 0.055884
O O12 0.112063 0.675205 0.026377
O O13 0.561920 0.251479 0.908434
O O14 0.494855 0.316685 0.036161
#
# Coordination Sequence:
#
# PCOD8249248 Si02
#       7
#     8   8   8   8   8   8   8
#     4  10  23  43  64  93 143 170 207 275 348 390
#     4  10  24  42  62  95 137 173 214 275 337 394
#     4  11  23  41  66  95 126 176 228 270 326 400
#     4  10  21  39  67 100 128 169 210 270 344 391
#     4  11  22  38  73  97 124 168 231 272 316 397
#     4  11  23  43  65  96 127 172 226 275 323 396
#     4  11  20  38  68  97 124 165 221 276 322 386
#
# _framework density 20.867421
#
# number of rings (size 3 to 8) (size 9 to 14) (size 15 to 20)
#    0.000    1.429    4.286    0.857    2.000    0.571 
#    5.143    1.429    0.000    0.000    0.000    0.000 
#    0.000    0.000    0.000    0.000    0.000    0.000 
#
# Total GULP energy -693995.846892 kJ/mol
# GULP energy per Si atom -12392.782980 kJ/mol
# Density = 2.081993 g / cm^3
# Si number density = 20.867421 Si / 1000 Ang^3
#
#
#
# Elastic Constant Matrix: (Units=GPa)
#
#
# Indices 1 2 3 4 5 6 
#
# 1 124.6788 45.0217 42.4139 0.0000 0.0000 0.0000
# 2 45.0217 100.2000 30.4651 0.0000 0.0000 0.0000
# 3 42.4139 30.4651 79.5799 0.0000 0.0000 0.0000
# 4 0.0000 0.0000 0.0000 20.9161 0.0000 0.0000
# 5 0.0000 0.0000 0.0000 0.0000 32.2945 0.0000
# 6 0.0000 0.0000 0.0000 0.0000 0.0000 27.0733
#
#
#
# Elastic Compliance Matrix: (Units=1/GPa)
#
#
# Indices 1 2 3 4 5 6 
#
# 1 0.010786 -0.003507 -0.004406 0.000000 0.000000 0.000000
# 2 -0.003507 0.012435 -0.002891 0.000000 0.000000 0.000000
# 3 -0.004406 -0.002891 0.016021 0.000000 0.000000 0.000000
# 4 0.000000 0.000000 0.000000 0.047810 0.000000 0.000000
# 5 0.000000 0.000000 0.000000 0.000000 0.030965 0.000000
# 6 0.000000 0.000000 0.000000 0.000000 0.000000 0.036937
#
#
# Mechanical properties :
#
#
# Convention : Reuss Voigt Hill
#
# Bulk Modulus (GPa) = 56.71022 60.02891 58.36957
# Shear Modulus (GPa) = 27.40635 28.49398 27.95016
#
# Velocity S-wave (km/s) = 3.62796 3.69924 3.66377
# Velocity P-wave (km/s) = 6.69215 6.86113 6.77717
#
# Compressibility (1/GPa) = 0.01763351
#
# Stress axis : x y z
#
# Youngs Moduli (GPa) = 92.71516 80.42000 62.41727
#
# Poissons Ratio (x) = 0.28200 0.27502
# Poissons Ratio (y) = 0.32511 0.18047
# Poissons Ratio (z) = 0.40851 0.23253
#
# Static dielectric constant tensor:
#      x y z
#    x 3.940870 0.000000 0.000000 
#    y 0.000000 3.679850 0.000000 
#    z 0.000000 0.000000 3.696310 
# 
# 
# High freq. dielectric constant tensor:
#      x y z
#    x 1.832090 0.000000 0.000000 
#    y 0.000000 1.798370 0.000000 
#    z 0.000000 0.000000 1.807980 
# 
# From -- ./inp_files/10136.got.cif
#   From: 2010.03.12/outbox.cif.g09.slc.cpg/sg61_6_cif.got.tgz:10136.got - 2010.04.10 19:05:03.
