data_PCOD8249272
_publ_section_title
;
Structure prediction by ZEFSAII (Michael W. Deem and Ramdas Pophale) SiO2 
 PCOD8249272
Probable space group: P B C A
;
_chemical_formula_sum "Si O2"
_cell_formula_units_Z 32
_cell_length_a 14.799601
_cell_length_b 5.130789
_cell_length_c 18.713626
_cell_angle_alpha 90.000000
_cell_angle_beta 90.000000
_cell_angle_gamma 90.000000
_cell_volume 1420.993553
_symmetry_space_group_name_H-M "P B C A"
_symmetry_group_IT_number 61
_symmetry_cell_setting 'orthorhombic'
loop_
_space_group_symop_operation_xyz
x,y,z
1/2-x,-y,1/2+z
1/2+x,1/2-y,-z
-x,1/2+y,1/2-z
-x,-y,-z
1/2+x,y,1/2-z
1/2-x,1/2+y,z
x,1/2-y,1/2+z
loop_
_atom_site_type_symbol
_atom_site_label
_atom_site_fract_x
_atom_site_fract_y
_atom_site_fract_z
Si Si1 0.404682 0.787979 0.635909
Si Si2 0.808536 0.915466 0.722307
Si Si3 0.898014 0.295140 0.944062
Si Si4 0.575523 0.531490 0.591810
O O1 0.356294 0.521965 0.607659
O O2 0.513759 0.750869 0.631892
O O3 0.381952 0.857678 0.716925
O O4 0.367524 0.015092 0.584076
O O5 0.771829 0.208509 0.729144
O O6 0.856708 0.890480 0.645887
O O7 0.008358 0.311555 0.941185
O O8 0.868155 0.337466 0.026495
#
# Coordination Sequence:
#
# PCOD8249272 Si02
#       4
#     8   8   8   8
#     4  10  21  40  66  88 121 163 215 254 306 377
#     4  12  28  41  58  95 139 168 204 261 332 383
#     4   9  20  38  72  93 111 152 227 270 296 359
#     4   9  23  39  70  91 122 159 225 258 311 368
#
# _framework density 22.519456999999999
#
# number of rings (size 3 to 8) (size 9 to 14) (size 15 to 20)
#    1.500    0.500    0.000    2.250    7.000    0.000 
#    0.000    7.500    0.000    0.000    0.000    0.000 
#    0.000    0.000    0.000    0.000    0.000    0.000 
#
# Total GULP energy -396616.300230 kJ/mol
# GULP energy per Si atom -12394.259382 kJ/mol
# Density = 2.246820 g / cm^3
# Si number density = 22.519457 Si / 1000 Ang^3
#
#
#
# Elastic Constant Matrix: (Units=GPa)
#
#
# Indices 1 2 3 4 5 6 
#
# 1 28.0917 16.0070 33.0766 0.0000 0.0000 0.0000
# 2 16.0070 114.3467 18.7941 0.0000 0.0000 0.0000
# 3 33.0766 18.7941 130.7062 0.0000 0.0000 0.0000
# 4 0.0000 0.0000 0.0000 32.2486 0.0000 0.0000
# 5 0.0000 0.0000 0.0000 0.0000 15.2439 0.0000
# 6 0.0000 0.0000 0.0000 0.0000 0.0000 26.2889
#
#
#
# Elastic Compliance Matrix: (Units=1/GPa)
#
#
# Indices 1 2 3 4 5 6 
#
# 1 0.053799 -0.005422 -0.012835 0.000000 0.000000 0.000000
# 2 -0.005422 0.009503 0.000006 0.000000 0.000000 0.000000
# 3 -0.012835 0.000006 0.010898 0.000000 0.000000 0.000000
# 4 0.000000 0.000000 0.000000 0.031009 0.000000 0.000000
# 5 0.000000 0.000000 0.000000 0.000000 0.065600 0.000000
# 6 0.000000 0.000000 0.000000 0.000000 0.000000 0.038039
#
#
# Mechanical properties :
#
#
# Convention : Reuss Voigt Hill
#
# Bulk Modulus (GPa) = 26.52611 45.43333 35.97972
# Shear Modulus (GPa) = 19.38608 28.44076 23.91342
#
# Velocity S-wave (km/s) = 2.93722 3.55764 3.26222
# Velocity P-wave (km/s) = 4.82782 6.09054 5.49557
#
# Compressibility (1/GPa) = 0.03769870
#
# Stress axis : x y z
#
# Youngs Moduli (GPa) = 18.58754 105.22577 91.76018
#
# Poissons Ratio (x) = 0.57049 1.17774
# Poissons Ratio (y) = 0.10077 -0.00051
# Poissons Ratio (z) = 0.23857 -0.00058
#
# Static dielectric constant tensor:
#      x y z
#    x 3.550190 0.000000 0.000000 
#    y 0.000000 3.897970 0.000000 
#    z 0.000000 0.000000 4.013820 
# 
# 
# High freq. dielectric constant tensor:
#      x y z
#    x 1.840190 0.000000 0.000000 
#    y 0.000000 1.885440 0.000000 
#    z 0.000000 0.000000 1.897490 
# 
# From -- ./inp_files/10394.got.cif
#   From: 2010.03.12/outbox.cif.g09.slc.cpg/sg61_6_cif.got.tgz:10394.got - 2010.04.10 19:05:03.
