data_PCOD8249880
_publ_section_title
;
Structure prediction by ZEFSAII (Michael W. Deem and Ramdas Pophale) SiO2 
 PCOD8249880
Probable space group: P B C A
;
_chemical_formula_sum "Si O2"
_cell_formula_units_Z 64
_cell_length_a 12.015397
_cell_length_b 13.769886
_cell_length_c 17.523594
_cell_angle_alpha 90.000000
_cell_angle_beta 90.000000
_cell_angle_gamma 90.000000
_cell_volume 2899.289964
_symmetry_space_group_name_H-M "P B C A"
_symmetry_group_IT_number 61
_symmetry_cell_setting 'orthorhombic'
loop_
_space_group_symop_operation_xyz
x,y,z
1/2-x,-y,1/2+z
1/2+x,1/2-y,-z
-x,1/2+y,1/2-z
-x,-y,-z
1/2+x,y,1/2-z
1/2-x,1/2+y,z
x,1/2-y,1/2+z
loop_
_atom_site_type_symbol
_atom_site_label
_atom_site_fract_x
_atom_site_fract_y
_atom_site_fract_z
Si Si1 0.379334 0.918678 0.130971
Si Si2 0.576323 0.947525 0.241303
Si Si3 0.937438 0.841402 0.533781
Si Si4 0.823662 0.122168 0.406878
Si Si5 0.104262 0.130033 0.004745
Si Si6 0.945968 0.471605 0.617432
Si Si7 0.225819 0.726361 0.719686
Si Si8 0.281190 0.610907 0.328676
O O1 0.494470 0.948767 0.169638
O O2 0.319891 0.837243 0.180302
O O3 0.300580 0.014063 0.125990
O O4 0.399141 0.876107 0.048194
O O5 0.630353 0.841363 0.245698
O O6 0.513232 0.968330 0.319917
O O7 0.669335 0.029028 0.226911
O O8 0.942827 0.724925 0.536795
O O9 0.848965 0.883036 0.593374
O O10 0.059186 0.882881 0.549900
O O11 0.728962 0.151142 0.466904
O O12 0.831287 0.199372 0.338966
O O13 0.027608 0.104987 0.077203
O O14 0.106954 0.043471 0.944349
O O15 0.847587 0.412227 0.656615
O O16 0.286530 0.785207 0.786950
#
# Coordination Sequence:
#
# PCOD8249880 Si02
#       8
#     8   8   8   8   8   8   8   8
#     4  12  27  48  71 106 146 201 245 309 371 448
#     4  12  27  47  76 108 151 198 244 311 379 441
#     4  12  28  46  74 110 147 198 254 302 374 456
#     4  12  25  49  75 106 151 192 247 313 375 448
#     4  11  26  46  80 106 150 197 246 312 377 454
#     4  11  26  50  74 111 152 191 251 309 380 448
#     4  12  27  45  76 108 147 191 249 308 377 448
#     4  12  29  47  77 111 150 196 249 312 371 453
#
# _framework density 22.074369999999998
#
# number of rings (size 3 to 8) (size 9 to 14) (size 15 to 20)
#    0.000    0.250    2.500    5.625   10.500    2.000 
#    0.000    0.000    0.000    0.000    0.000    0.000 
#    0.000    0.000    0.000    0.000    0.000    0.000 
#
# Total GULP energy -794256.157281 kJ/mol
# GULP energy per Si atom -12410.252458 kJ/mol
# Density = 2.202413 g / cm^3
# Si number density = 22.074370 Si / 1000 Ang^3
#
#
#
# Elastic Constant Matrix: (Units=GPa)
#
#
# Indices 1 2 3 4 5 6 
#
# 1 93.0757 24.0753 30.5099 0.0000 0.0000 0.0000
# 2 24.0753 113.9012 23.3200 0.0000 0.0000 0.0000
# 3 30.5099 23.3200 94.7365 0.0000 0.0000 0.0000
# 4 0.0000 0.0000 0.0000 37.0698 0.0000 0.0000
# 5 0.0000 0.0000 0.0000 0.0000 30.7053 0.0000
# 6 0.0000 0.0000 0.0000 0.0000 0.0000 30.9268
#
#
#
# Elastic Compliance Matrix: (Units=1/GPa)
#
#
# Indices 1 2 3 4 5 6 
#
# 1 0.012390 -0.001897 -0.003523 0.000000 0.000000 0.000000
# 2 -0.001897 0.009536 -0.001736 0.000000 0.000000 0.000000
# 3 -0.003523 -0.001736 0.012118 0.000000 0.000000 0.000000
# 4 0.000000 0.000000 0.000000 0.026976 0.000000 0.000000
# 5 0.000000 0.000000 0.000000 0.000000 0.032568 0.000000
# 6 0.000000 0.000000 0.000000 0.000000 0.000000 0.032334
#
#
# Mechanical properties :
#
#
# Convention : Reuss Voigt Hill
#
# Bulk Modulus (GPa) = 50.68497 50.83599 50.76048
# Shear Modulus (GPa) = 34.05725 34.66091 34.35908
#
# Velocity S-wave (km/s) = 3.93216 3.96686 3.94955
# Velocity P-wave (km/s) = 6.60505 6.63782 6.62146
#
# Compressibility (1/GPa) = 0.01972972
#
# Stress axis : x y z
#
# Youngs Moduli (GPa) = 80.71303 104.86469 82.52478
#
# Poissons Ratio (x) = 0.19898 0.29073
# Poissons Ratio (y) = 0.15315 0.14329
# Poissons Ratio (z) = 0.28435 0.18208
#
# Static dielectric constant tensor:
#      x y z
#    x 3.949940 0.000000 0.000000 
#    y 0.000000 4.226390 0.000000 
#    z 0.000000 0.000000 4.043490 
# 
# 
# High freq. dielectric constant tensor:
#      x y z
#    x 1.875510 0.000000 0.000000 
#    y 0.000000 1.885650 0.000000 
#    z 0.000000 0.000000 1.883370 
# 
# From -- ./inp_files/9309.got.cif
#   From: 2010.03.12/outbox.cif.g09.slc.cpg/sg61_5_cif.got.tgz:9309.got - 2010.04.10 19:05:03.
