data_PCOD8249307
_publ_section_title
;
Structure prediction by ZEFSAII (Michael W. Deem and Ramdas Pophale) SiO2 
 PCOD8249307
Probable space group: P B C A
;
_chemical_formula_sum "Si O2"
_cell_formula_units_Z 48
_cell_length_a 9.053359
_cell_length_b 8.489987
_cell_length_c 27.818425
_cell_angle_alpha 90.000000
_cell_angle_beta 90.000000
_cell_angle_gamma 90.000000
_cell_volume 2138.204825
_symmetry_space_group_name_H-M "P B C A"
_symmetry_group_IT_number 61
_symmetry_cell_setting 'orthorhombic'
loop_
_space_group_symop_operation_xyz
x,y,z
1/2-x,-y,1/2+z
1/2+x,1/2-y,-z
-x,1/2+y,1/2-z
-x,-y,-z
1/2+x,y,1/2-z
1/2-x,1/2+y,z
x,1/2-y,1/2+z
loop_
_atom_site_type_symbol
_atom_site_label
_atom_site_fract_x
_atom_site_fract_y
_atom_site_fract_z
Si Si1 0.360764 0.609043 0.897747
Si Si2 0.363518 0.193099 0.338703
Si Si3 0.727470 0.037865 0.008107
Si Si4 0.554174 0.728967 0.466338
Si Si5 0.907224 0.605696 0.794885
Si Si6 0.877368 0.268747 0.767451
O O1 0.270568 0.735120 0.867709
O O2 0.413491 0.468055 0.863657
O O3 0.509196 0.701827 0.914286
O O4 0.255948 0.550305 0.941462
O O5 0.502880 0.314306 0.338879
O O6 0.312783 0.162457 0.283374
O O7 0.880941 0.121301 0.994980
O O8 0.674737 0.911908 0.967240
O O9 0.598862 0.169166 0.010205
O O10 0.918411 0.417718 0.800606
O O11 0.738516 0.661196 0.795843
O O12 0.980512 0.660142 0.743898
#
# Coordination Sequence:
#
# PCOD8249307 Si02
#       6
#     8   8   8   8   8   8
#     4  12  21  44  64 101 133 174 217 282 342 390
#     4  10  25  38  68  97 131 172 214 276 340 382
#     4  11  23  41  71  98 129 180 232 272 323 413
#     4  11  23  41  70  97 131 177 231 270 329 408
#     4  10  22  39  68  95 130 170 229 261 330 397
#     4  10  21  41  67  96 123 175 221 269 310 416
#
# _framework density 22.448737999999999
#
# number of rings (size 3 to 8) (size 9 to 14) (size 15 to 20)
#    1.000    0.333    3.333    2.500    2.333    0.000 
#    0.000    1.667    0.000    0.000    0.000    0.000 
#    0.000    0.000    0.000    0.000    0.000    0.000 
#
# Total GULP energy -594851.817955 kJ/mol
# GULP energy per Si atom -12392.746207 kJ/mol
# Density = 2.239764 g / cm^3
# Si number density = 22.448738 Si / 1000 Ang^3
#
#
#
# Elastic Constant Matrix: (Units=GPa)
#
#
# Indices 1 2 3 4 5 6 
#
# 1 45.4019 8.6359 3.2617 0.0000 0.0000 0.0000
# 2 8.6359 61.2988 -0.2533 0.0000 0.0000 0.0000
# 3 3.2617 -0.2533 51.0970 0.0000 0.0000 0.0000
# 4 0.0000 0.0000 0.0000 39.3135 0.0000 0.0000
# 5 0.0000 0.0000 0.0000 0.0000 34.9008 0.0000
# 6 0.0000 0.0000 0.0000 0.0000 0.0000 47.3145
#
#
#
# Elastic Compliance Matrix: (Units=1/GPa)
#
#
# Indices 1 2 3 4 5 6 
#
# 1 0.022742 -0.003210 -0.001468 0.000000 0.000000 0.000000
# 2 -0.003210 0.016767 0.000288 0.000000 0.000000 0.000000
# 3 -0.001468 0.000288 0.019666 0.000000 0.000000 0.000000
# 4 0.000000 0.000000 0.000000 0.025437 0.000000 0.000000
# 5 0.000000 0.000000 0.000000 0.000000 0.028653 0.000000
# 6 0.000000 0.000000 0.000000 0.000000 0.000000 0.021135
#
#
# Mechanical properties :
#
#
# Convention : Reuss Voigt Hill
#
# Bulk Modulus (GPa) = 19.84315 20.12069 19.98192
# Shear Modulus (GPa) = 31.25469 34.04932 32.65201
#
# Velocity S-wave (km/s) = 3.73536 3.89878 3.81795
# Velocity P-wave (km/s) = 5.24046 5.40830 5.32504
#
# Compressibility (1/GPa) = 0.05039521
#
# Stress axis : x y z
#
# Youngs Moduli (GPa) = 43.97243 59.64115 50.84987
#
# Poissons Ratio (x) = 0.19144 0.07463
# Poissons Ratio (y) = 0.14115 -0.01465
# Poissons Ratio (z) = 0.06453 -0.01718
#
# Static dielectric constant tensor:
#      x y z
#    x 3.884490 0.000000 0.000000 
#    y 0.000000 4.199380 0.000000 
#    z 0.000000 0.000000 3.705890 
# 
# 
# High freq. dielectric constant tensor:
#      x y z
#    x 1.878830 0.000000 0.000000 
#    y 0.000000 1.906020 0.000000 
#    z 0.000000 0.000000 1.843340 
# 
# From -- ./inp_files/11675.got.cif
#   From: 2010.03.12/outbox.cif.g09.slc.cpg/sg61_6_cif.got.tgz:11675.got - 2010.04.10 19:05:03.
