data_PCOD8249724
_publ_section_title
;
Structure prediction by ZEFSAII (Michael W. Deem and Ramdas Pophale) SiO2 
 PCOD8249724
Probable space group: P B C A
;
_chemical_formula_sum "Si O2"
_cell_formula_units_Z 64
_cell_length_a 18.711640
_cell_length_b 19.605131
_cell_length_c 8.258955
_cell_angle_alpha 90.000000
_cell_angle_beta 90.000000
_cell_angle_gamma 90.000000
_cell_volume 3029.749355
_symmetry_space_group_name_H-M "P B C A"
_symmetry_group_IT_number 61
_symmetry_cell_setting 'orthorhombic'
loop_
_space_group_symop_operation_xyz
x,y,z
1/2-x,-y,1/2+z
1/2+x,1/2-y,-z
-x,1/2+y,1/2-z
-x,-y,-z
1/2+x,y,1/2-z
1/2-x,1/2+y,z
x,1/2-y,1/2+z
loop_
_atom_site_type_symbol
_atom_site_label
_atom_site_fract_x
_atom_site_fract_y
_atom_site_fract_z
Si Si1 0.798037 0.169821 0.141514
Si Si2 0.241588 0.198329 0.024087
Si Si3 0.225794 0.054514 0.529458
Si Si4 0.948087 0.296427 0.518867
Si Si5 0.550931 0.846265 0.157235
Si Si6 0.693943 0.578536 0.654555
Si Si7 0.902457 0.849462 0.448046
Si Si8 0.596047 0.206304 0.312169
O O1 0.797618 0.189467 0.329251
O O2 0.750243 0.224235 0.039297
O O3 0.761375 0.096332 0.117674
O O4 0.879748 0.162754 0.084955
O O5 0.162229 0.177939 0.082524
O O6 0.261931 0.147220 0.880276
O O7 0.282671 0.049849 0.673103
O O8 0.153950 0.091780 0.587698
O O9 0.207286 0.977951 0.480810
O O10 0.929778 0.216207 0.536844
O O11 0.960829 0.312684 0.332361
O O12 0.020230 0.317439 0.614249
O O13 0.610388 0.904359 0.159899
O O14 0.479887 0.882467 0.088034
O O15 0.897402 0.819219 0.629081
O O16 0.894897 0.788202 0.317727
#
# Coordination Sequence:
#
# PCOD8249724 Si02
#       8
#     8   8   8   8   8   8   8   8
#     4  12  22  40  69 101 129 173 222 279 329 391
#     4  12  23  39  70 101 129 173 226 278 330 393
#     4  12  26  47  66  94 131 177 225 280 333 400
#     4  11  22  38  66 104 140 169 214 271 336 391
#     4  11  23  41  65 101 136 174 215 273 334 402
#     4  12  28  45  68  93 132 178 227 277 339 398
#     4  11  24  40  69  99 140 171 219 272 335 398
#     4  11  22  38  65 105 135 171 213 274 333 391
#
# _framework density 21.123857999999998
#
# number of rings (size 3 to 8) (size 9 to 14) (size 15 to 20)
#    0.000    0.500    5.000    5.250    5.250    0.500 
#    0.000    0.000    0.000    2.250    0.000    0.000 
#    0.000    0.000    0.000    0.000    0.000    0.000 
#
# Total GULP energy -793775.040546 kJ/mol
# GULP energy per Si atom -12402.735009 kJ/mol
# Density = 2.107578 g / cm^3
# Si number density = 21.123858 Si / 1000 Ang^3
#
#
#
# Elastic Constant Matrix: (Units=GPa)
#
#
# Indices 1 2 3 4 5 6 
#
# 1 113.7274 23.7570 -1.7707 0.0000 0.0000 0.0000
# 2 23.7570 53.4395 8.2117 0.0000 0.0000 0.0000
# 3 -1.7707 8.2117 58.0048 0.0000 0.0000 0.0000
# 4 0.0000 0.0000 0.0000 28.7230 0.0000 0.0000
# 5 0.0000 0.0000 0.0000 0.0000 33.7874 0.0000
# 6 0.0000 0.0000 0.0000 0.0000 0.0000 19.9301
#
#
#
# Elastic Compliance Matrix: (Units=1/GPa)
#
#
# Indices 1 2 3 4 5 6 
#
# 1 0.009742 -0.004474 0.000931 0.000000 0.000000 0.000000
# 2 -0.004474 0.021183 -0.003135 0.000000 0.000000 0.000000
# 3 0.000931 -0.003135 0.017712 0.000000 0.000000 0.000000
# 4 0.000000 0.000000 0.000000 0.034815 0.000000 0.000000
# 5 0.000000 0.000000 0.000000 0.000000 0.029597 0.000000
# 6 0.000000 0.000000 0.000000 0.000000 0.000000 0.050175
#
#
# Mechanical properties :
#
#
# Convention : Reuss Voigt Hill
#
# Bulk Modulus (GPa) = 28.34432 31.72973 30.03702
# Shear Modulus (GPa) = 26.54736 29.48637 28.01687
#
# Velocity S-wave (km/s) = 3.54891 3.74020 3.64581
# Velocity P-wave (km/s) = 5.49912 5.80565 5.65446
#
# Compressibility (1/GPa) = 0.03528044
#
# Stress axis : x y z
#
# Youngs Moduli (GPa) = 102.64809 47.20665 56.45813
#
# Poissons Ratio (x) = 0.21120 -0.05255
# Poissons Ratio (y) = 0.45924 0.17702
# Poissons Ratio (z) = -0.09554 0.14802
#
# Static dielectric constant tensor:
#      x y z
#    x 4.195200 0.000000 0.000000 
#    y 0.000000 3.496130 0.000000 
#    z 0.000000 0.000000 3.839230 
# 
# 
# High freq. dielectric constant tensor:
#      x y z
#    x 1.852070 0.000000 0.000000 
#    y 0.000000 1.787210 0.000000 
#    z 0.000000 0.000000 1.838580 
# 
# From -- ./inp_files/4122.got.cif
#   From: 2010.03.12/outbox.cif.g09.slc.cpg/sg61_3_cif.got.tgz:4122.got - 2010.04.10 19:05:03.
