data_PCOD8249624
_publ_section_title
;
Structure prediction by ZEFSAII (Michael W. Deem and Ramdas Pophale) SiO2 
 PCOD8249624
Probable space group: P B C A
;
_chemical_formula_sum "Si O2"
_cell_formula_units_Z 56
_cell_length_a 20.845945
_cell_length_b 8.709655
_cell_length_c 14.260813
_cell_angle_alpha 90.000000
_cell_angle_beta 90.000000
_cell_angle_gamma 90.000000
_cell_volume 2589.207314
_symmetry_space_group_name_H-M "P B C A"
_symmetry_group_IT_number 61
_symmetry_cell_setting 'orthorhombic'
loop_
_space_group_symop_operation_xyz
x,y,z
1/2-x,-y,1/2+z
1/2+x,1/2-y,-z
-x,1/2+y,1/2-z
-x,-y,-z
1/2+x,y,1/2-z
1/2-x,1/2+y,z
x,1/2-y,1/2+z
loop_
_atom_site_type_symbol
_atom_site_label
_atom_site_fract_x
_atom_site_fract_y
_atom_site_fract_z
Si Si1 0.568772 0.373945 0.926247
Si Si2 0.659608 0.728620 0.187688
Si Si3 0.738443 0.499867 0.635478
Si Si4 0.838640 0.722710 0.579834
Si Si5 0.553987 0.866510 0.828777
Si Si6 0.568582 0.201932 0.747285
Si Si7 0.929467 0.299266 0.509477
O O1 0.591516 0.327835 0.822643
O O2 0.580740 0.553273 0.942783
O O3 0.609487 0.275759 0.998888
O O4 0.494475 0.324627 0.932338
O O5 0.714136 0.599569 0.200252
O O6 0.694468 0.891871 0.200210
O O7 0.609427 0.714753 0.270274
O O8 0.627413 0.716789 0.084383
O O9 0.780684 0.602436 0.563343
O O10 0.690281 0.392534 0.577757
O O11 0.872177 0.672745 0.677812
O O12 0.489195 0.771509 0.812687
O O13 0.568855 0.848940 0.940361
O O14 0.547113 0.044091 0.798706
#
# Coordination Sequence:
#
# PCOD8249624 Si02
#       7
#     8   8   8   8   8   8   8
#     4  11  23  41  67  99 133 166 210 273 334 386
#     4  11  23  47  68  95 134 174 225 260 329 390
#     4  10  24  44  72  88 132 190 214 264 312 396
#     4  11  23  47  68  95 134 174 225 260 329 390
#     4  12  25  41  67 102 133 168 217 276 336 391
#     4  12  25  41  67 102 133 168 217 276 336 391
#     4  11  23  41  67  99 133 166 210 273 334 386
#
# _framework density 21.628240999999999
#
# number of rings (size 3 to 8) (size 9 to 14) (size 15 to 20)
#    0.000    0.857    5.714    0.857    6.000    0.571 
#    0.000    8.571    0.000    0.000    0.000    0.000 
#    0.000    0.000    0.000    0.000    0.000    0.000 
#
# Total GULP energy -694490.386836 kJ/mol
# GULP energy per Si atom -12401.614051 kJ/mol
# Density = 2.157901 g / cm^3
# Si number density = 21.628241 Si / 1000 Ang^3
#
#
#
# Elastic Constant Matrix: (Units=GPa)
#
#
# Indices 1 2 3 4 5 6 
#
# 1 86.5151 36.2605 11.0298 0.0000 0.0000 0.0000
# 2 36.2605 92.4165 -4.7178 0.0000 0.0000 0.0000
# 3 11.0298 -4.7178 68.5615 0.0000 0.0000 0.0000
# 4 0.0000 0.0000 0.0000 28.2001 0.0000 0.0000
# 5 0.0000 0.0000 0.0000 0.0000 9.4257 0.0000
# 6 0.0000 0.0000 0.0000 0.0000 0.0000 32.9908
#
#
#
# Elastic Compliance Matrix: (Units=1/GPa)
#
#
# Indices 1 2 3 4 5 6 
#
# 1 0.014314 -0.005754 -0.002699 0.000000 0.000000 0.000000
# 2 -0.005754 0.013172 0.001832 0.000000 0.000000 0.000000
# 3 -0.002699 0.001832 0.015146 0.000000 0.000000 0.000000
# 4 0.000000 0.000000 0.000000 0.035461 0.000000 0.000000
# 5 0.000000 0.000000 0.000000 0.000000 0.106093 0.000000
# 6 0.000000 0.000000 0.000000 0.000000 0.000000 0.030311
#
#
# Mechanical properties :
#
#
# Convention : Reuss Voigt Hill
#
# Bulk Modulus (GPa) = 34.02500 36.95979 35.49240
# Shear Modulus (GPa) = 21.04946 27.78470 24.41708
#
# Velocity S-wave (km/s) = 3.12306 3.58809 3.36362
# Velocity P-wave (km/s) = 5.36382 5.85590 5.61526
#
# Compressibility (1/GPa) = 0.02939015
#
# Stress axis : x y z
#
# Youngs Moduli (GPa) = 69.85945 75.91964 66.02542
#
# Poissons Ratio (x) = 0.43686 0.17819
# Poissons Ratio (y) = 0.40198 -0.12096
# Poissons Ratio (z) = 0.18854 -0.13909
#
# Static dielectric constant tensor:
#      x y z
#    x 4.039280 0.000000 0.000000 
#    y 0.000000 4.053230 0.000000 
#    z 0.000000 0.000000 3.638700 
# 
# 
# High freq. dielectric constant tensor:
#      x y z
#    x 1.860610 0.000000 0.000000 
#    y 0.000000 1.863780 0.000000 
#    z 0.000000 0.000000 1.823730 
# 
# From -- ./inp_files/8369.got.cif
#   From: 2010.03.12/outbox.cif.g09.slc.cpg/sg61_5_cif.got.tgz:8369.got - 2010.04.10 19:05:03.
