data_PCOD8249588
_publ_section_title
;
Structure prediction by ZEFSAII (Michael W. Deem and Ramdas Pophale) SiO2 
 PCOD8249588
Probable space group: P B C A
;
_chemical_formula_sum "Si O2"
_cell_formula_units_Z 64
_cell_length_a 8.881568
_cell_length_b 11.489972
_cell_length_c 27.874610
_cell_angle_alpha 90.000000
_cell_angle_beta 90.000000
_cell_angle_gamma 90.000000
_cell_volume 2844.575174
_symmetry_space_group_name_H-M "P B C A"
_symmetry_group_IT_number 61
_symmetry_cell_setting 'orthorhombic'
loop_
_space_group_symop_operation_xyz
x,y,z
1/2-x,-y,1/2+z
1/2+x,1/2-y,-z
-x,1/2+y,1/2-z
-x,-y,-z
1/2+x,y,1/2-z
1/2-x,1/2+y,z
x,1/2-y,1/2+z
loop_
_atom_site_type_symbol
_atom_site_label
_atom_site_fract_x
_atom_site_fract_y
_atom_site_fract_z
Si Si1 0.303569 0.564741 0.947132
Si Si2 0.188491 0.808924 0.200785
Si Si3 0.402665 0.563958 0.775547
Si Si4 0.765225 0.091076 0.142391
Si Si5 0.341742 0.572223 0.618326
Si Si6 0.889407 0.970635 0.949239
Si Si7 0.475536 0.090949 0.193753
Si Si8 0.066914 0.752588 0.421265
O O1 0.228812 0.475575 0.908196
O O2 0.485987 0.572557 0.938571
O O3 0.217354 0.689825 0.945429
O O4 0.296858 0.512715 0.001247
O O5 0.242185 0.837194 0.147780
O O6 0.174306 0.669013 0.202035
O O7 0.282582 0.866533 0.243312
O O8 0.014572 0.840843 0.204872
O O9 0.331611 0.503248 0.821450
O O10 0.500468 0.470535 0.745049
O O11 0.624738 0.150295 0.170728
O O12 0.880987 0.196285 0.129929
O O13 0.236150 0.478463 0.591761
O O14 0.447345 0.508188 0.655210
O O15 0.446142 0.644761 0.582629
O O16 0.983682 0.849018 0.951322
#
# Coordination Sequence:
#
# PCOD8249588 Si02
#       8
#     8   8   8   8   8   8   8   8
#     4  10  23  46  69 101 139 182 233 285 349 417
#     4  11  25  40  68  95 132 179 225 283 342 411
#     4  11  25  44  64  96 137 178 226 286 341 408
#     4  11  24  44  69  98 137 181 230 285 347 411
#     4  11  24  46  67 101 138 177 230 286 348 409
#     4  10  24  45  69 103 141 180 229 294 344 418
#     4  11  25  42  65 100 130 178 231 281 343 413
#     4  11  24  43  73  99 135 189 231 284 352 423
#
# _framework density 22.498964999999998
#
# number of rings (size 3 to 8) (size 9 to 14) (size 15 to 20)
#    0.000    1.250    2.500    2.250    5.250    6.500 
#    2.250    0.000    0.000    0.000    0.000    0.000 
#    0.000    0.000    0.000    0.000    0.000    0.000 
#
# Total GULP energy -792836.801876 kJ/mol
# GULP energy per Si atom -12388.075029 kJ/mol
# Density = 2.244776 g / cm^3
# Si number density = 22.498965 Si / 1000 Ang^3
#
#
#
# Elastic Constant Matrix: (Units=GPa)
#
#
# Indices 1 2 3 4 5 6 
#
# 1 90.9349 39.5961 36.1642 0.0000 0.0000 0.0000
# 2 39.5961 75.9938 22.6137 0.0000 0.0000 0.0000
# 3 36.1642 22.6137 89.8103 0.0000 0.0000 0.0000
# 4 0.0000 0.0000 0.0000 20.5282 0.0000 0.0000
# 5 0.0000 0.0000 0.0000 0.0000 30.4170 0.0000
# 6 0.0000 0.0000 0.0000 0.0000 0.0000 21.4205
#
#
#
# Elastic Compliance Matrix: (Units=1/GPa)
#
#
# Indices 1 2 3 4 5 6 
#
# 1 0.015836 -0.006868 -0.004647 0.000000 0.000000 0.000000
# 2 -0.006868 0.017204 -0.001566 0.000000 0.000000 0.000000
# 3 -0.004647 -0.001566 0.013400 0.000000 0.000000 0.000000
# 4 0.000000 0.000000 0.000000 0.048713 0.000000 0.000000
# 5 0.000000 0.000000 0.000000 0.000000 0.032876 0.000000
# 6 0.000000 0.000000 0.000000 0.000000 0.000000 0.046684
#
#
# Mechanical properties :
#
#
# Convention : Reuss Voigt Hill
#
# Bulk Modulus (GPa) = 49.31832 50.38743 49.85287
# Shear Modulus (GPa) = 24.08065 25.03081 24.55573
#
# Velocity S-wave (km/s) = 3.27509 3.33908 3.30724
# Velocity P-wave (km/s) = 6.02242 6.10819 6.06546
#
# Compressibility (1/GPa) = 0.02027644
#
# Stress axis : x y z
#
# Youngs Moduli (GPa) = 63.14853 58.12723 74.62550
#
# Poissons Ratio (x) = 0.39923 0.34680
# Poissons Ratio (y) = 0.43372 0.11687
# Poissons Ratio (z) = 0.29347 0.09104
#
# Static dielectric constant tensor:
#      x y z
#    x 4.235470 0.000000 0.000000 
#    y 0.000000 3.946580 0.000000 
#    z 0.000000 0.000000 4.415820 
# 
# 
# High freq. dielectric constant tensor:
#      x y z
#    x 1.890610 0.000000 0.000000 
#    y 0.000000 1.878480 0.000000 
#    z 0.000000 0.000000 1.887220 
# 
# From -- ./inp_files/11744.got.cif
#   From: 2010.03.12/outbox.cif.g09.slc.cpg/sg61_6_cif.got.tgz:11744.got - 2010.04.10 19:05:03.
