data_PCOD8249513
_publ_section_title
;
Structure prediction by ZEFSAII (Michael W. Deem and Ramdas Pophale) SiO2 
 PCOD8249513
Probable space group: P B C A
;
_chemical_formula_sum "Si O2"
_cell_formula_units_Z 48
_cell_length_a 12.806997
_cell_length_b 23.723572
_cell_length_c 7.721751
_cell_angle_alpha 90.000000
_cell_angle_beta 90.000000
_cell_angle_gamma 90.000000
_cell_volume 2346.081965
_symmetry_space_group_name_H-M "P B C A"
_symmetry_group_IT_number 61
_symmetry_cell_setting 'orthorhombic'
loop_
_space_group_symop_operation_xyz
x,y,z
1/2-x,-y,1/2+z
1/2+x,1/2-y,-z
-x,1/2+y,1/2-z
-x,-y,-z
1/2+x,y,1/2-z
1/2-x,1/2+y,z
x,1/2-y,1/2+z
loop_
_atom_site_type_symbol
_atom_site_label
_atom_site_fract_x
_atom_site_fract_y
_atom_site_fract_z
Si Si1 0.528258 0.570595 0.180992
Si Si2 0.748445 0.681011 0.486070
Si Si3 0.320873 0.442315 0.515644
Si Si4 0.118662 0.729836 0.717009
Si Si5 0.145499 0.521446 0.631702
Si Si6 0.515457 0.308281 0.923055
O O1 0.574964 0.556643 0.369112
O O2 0.430736 0.530871 0.151789
O O3 0.489212 0.634725 0.187405
O O4 0.608967 0.562803 0.022046
O O5 0.742447 0.614847 0.442117
O O6 0.688916 0.717431 0.342274
O O7 0.691649 0.690635 0.667835
O O8 0.868575 0.700291 0.497928
O O9 0.256933 0.497253 0.573610
O O10 0.347490 0.444701 0.311822
O O11 0.074203 0.689075 0.569530
O O12 0.014516 0.754284 0.807675
#
# Coordination Sequence:
#
# PCOD8249513 Si02
#       6
#     8   8   8   8   8   8
#     4  11  23  42  63  90 126 164 205 259 310 370
#     4  11  22  40  63  89 123 161 203 257 309 370
#     4  12  22  41  64  92 123 165 211 250 314 374
#     4  10  23  39  62  91 123 159 205 255 311 373
#     4  11  24  40  63  90 127 164 205 259 308 369
#     4  11  21  40  63  90 123 161 206 254 315 370
#
# _framework density 20.459644000000001
#
# number of rings (size 3 to 8) (size 9 to 14) (size 15 to 20)
#    0.000    1.000    5.000    2.500    0.000    0.000 
#    0.000    0.000    0.000    0.000    0.000    0.000 
#    0.000    0.000    0.000    0.000    0.000    0.000 
#
# Total GULP energy -595279.306155 kJ/mol
# GULP energy per Si atom -12401.652212 kJ/mol
# Density = 2.041308 g / cm^3
# Si number density = 20.459644 Si / 1000 Ang^3
#
#
#
# Elastic Constant Matrix: (Units=GPa)
#
#
# Indices 1 2 3 4 5 6 
#
# 1 76.3795 13.6736 8.7028 0.0000 0.0000 0.0000
# 2 13.6736 56.6028 2.7429 0.0000 0.0000 0.0000
# 3 8.7028 2.7429 88.7964 0.0000 0.0000 0.0000
# 4 0.0000 0.0000 0.0000 22.0546 0.0000 0.0000
# 5 0.0000 0.0000 0.0000 0.0000 16.2231 0.0000
# 6 0.0000 0.0000 0.0000 0.0000 0.0000 25.6893
#
#
#
# Elastic Compliance Matrix: (Units=1/GPa)
#
#
# Indices 1 2 3 4 5 6 
#
# 1 0.013822 -0.003278 -0.001253 0.000000 0.000000 0.000000
# 2 -0.003278 0.018471 -0.000249 0.000000 0.000000 0.000000
# 3 -0.001253 -0.000249 0.011392 0.000000 0.000000 0.000000
# 4 0.000000 0.000000 0.000000 0.045342 0.000000 0.000000
# 5 0.000000 0.000000 0.000000 0.000000 0.061640 0.000000
# 6 0.000000 0.000000 0.000000 0.000000 0.000000 0.038927
#
#
# Mechanical properties :
#
#
# Convention : Reuss Voigt Hill
#
# Bulk Modulus (GPa) = 29.30531 30.22412 29.76472
# Shear Modulus (GPa) = 23.74946 25.90403 24.82675
#
# Velocity S-wave (km/s) = 3.41074 3.56210 3.48724
# Velocity P-wave (km/s) = 5.46493 5.63229 5.54924
#
# Compressibility (1/GPa) = 0.03412350
#
# Stress axis : x y z
#
# Youngs Moduli (GPa) = 72.34723 54.13897 87.77886
#
# Poissons Ratio (x) = 0.17748 0.11002
# Poissons Ratio (y) = 0.23718 0.02188
# Poissons Ratio (z) = 0.09068 0.01349
#
# Static dielectric constant tensor:
#      x y z
#    x 3.631040 0.000000 0.000000 
#    y 0.000000 3.536080 0.000000 
#    z 0.000000 0.000000 3.767770 
# 
# 
# High freq. dielectric constant tensor:
#      x y z
#    x 1.801650 0.000000 0.000000 
#    y 0.000000 1.801870 0.000000 
#    z 0.000000 0.000000 1.803040 
# 
# From -- ./inp_files/2243.got.cif
#   From: 2010.03.12/outbox.cif.g09.slc.cpg/sg61_2_cif.got.tgz:2243.got - 2010.04.10 19:05:03.
