data_PCOD8249788
_publ_section_title
;
Structure prediction by ZEFSAII (Michael W. Deem and Ramdas Pophale) SiO2 
 PCOD8249788
Probable space group: P B C A
;
_chemical_formula_sum "Si O2"
_cell_formula_units_Z 64
_cell_length_a 17.469399
_cell_length_b 13.132639
_cell_length_c 13.405170
_cell_angle_alpha 90.000000
_cell_angle_beta 90.000000
_cell_angle_gamma 90.000000
_cell_volume 3075.404860
_symmetry_space_group_name_H-M "P B C A"
_symmetry_group_IT_number 61
_symmetry_cell_setting 'orthorhombic'
loop_
_space_group_symop_operation_xyz
x,y,z
1/2-x,-y,1/2+z
1/2+x,1/2-y,-z
-x,1/2+y,1/2-z
-x,-y,-z
1/2+x,y,1/2-z
1/2-x,1/2+y,z
x,1/2-y,1/2+z
loop_
_atom_site_type_symbol
_atom_site_label
_atom_site_fract_x
_atom_site_fract_y
_atom_site_fract_z
Si Si1 0.841928 0.736002 0.258203
Si Si2 0.087469 0.749207 0.377965
Si Si3 0.253583 0.732201 0.937040
Si Si4 0.007936 0.750623 0.682424
Si Si5 0.938846 0.420650 0.463402
Si Si6 0.476448 0.614782 0.504205
Si Si7 0.306041 0.611828 0.582021
Si Si8 0.801382 0.565597 0.414769
O O1 0.806251 0.724989 0.150040
O O2 0.932330 0.751549 0.249756
O O3 0.809213 0.837450 0.309414
O O4 0.819920 0.634780 0.319448
O O5 0.170485 0.799358 0.396120
O O6 0.082264 0.646606 0.441213
O O7 0.076954 0.725345 0.260060
O O8 0.022569 0.829482 0.408441
O O9 0.244810 0.823664 0.016886
O O10 0.295395 0.635091 0.986675
O O11 0.000172 0.839532 0.602106
O O12 0.025066 0.644729 0.626626
O O13 0.866155 0.481036 0.423412
O O14 0.000000 0.500000 0.500000
O O15 0.500000 0.500000 0.500000
O O16 0.386624 0.623223 0.525351
O O17 0.279004 0.495305 0.596864
#
# Coordination Sequence:
#
# PCOD8249788 Si02
#       8
#     8   8   8   8   8   8   8   8
#     4  11  24  44  70  97 136 178 222 288 338 406
#     4  11  24  43  68 100 133 175 222 284 337 411
#     4  11  24  44  68  94 139 177 224 282 347 402
#     4  11  24  44  68  99 136 176 227 282 344 401
#     4  11  24  43  68  98 136 178 225 276 341 414
#     4  11  24  43  68  93 136 176 221 275 342 407
#     4  11  23  45  66  99 133 178 224 276 343 410
#     4  11  25  44  70  97 137 179 229 278 345 416
#
# _framework density 20.810268000000001
#
# number of rings (size 3 to 8) (size 9 to 14) (size 15 to 20)
#    0.000    1.000    3.750    2.250    5.250    5.000 
#    4.500    0.000    0.000    0.000    0.000    0.000 
#    0.000    0.000    0.000    0.000    0.000    0.000 
#
# Total GULP energy -793776.883986 kJ/mol
# GULP energy per Si atom -12402.763812 kJ/mol
# Density = 2.076290 g / cm^3
# Si number density = 20.810268 Si / 1000 Ang^3
#
#
#
# Elastic Constant Matrix: (Units=GPa)
#
#
# Indices 1 2 3 4 5 6 
#
# 1 100.9791 41.8022 31.8460 0.0000 0.0000 0.0000
# 2 41.8022 142.6197 55.5803 0.0000 0.0000 0.0000
# 3 31.8460 55.5803 113.1909 0.0000 0.0000 0.0000
# 4 0.0000 0.0000 0.0000 20.5651 0.0000 0.0000
# 5 0.0000 0.0000 0.0000 0.0000 35.5035 0.0000
# 6 0.0000 0.0000 0.0000 0.0000 0.0000 43.4870
#
#
#
# Elastic Compliance Matrix: (Units=1/GPa)
#
#
# Indices 1 2 3 4 5 6 
#
# 1 0.011617 -0.002636 -0.001974 0.000000 0.000000 0.000000
# 2 -0.002636 0.009269 -0.003810 0.000000 0.000000 0.000000
# 3 -0.001974 -0.003810 0.011261 0.000000 0.000000 0.000000
# 4 0.000000 0.000000 0.000000 0.048626 0.000000 0.000000
# 5 0.000000 0.000000 0.000000 0.000000 0.028166 0.000000
# 6 0.000000 0.000000 0.000000 0.000000 0.000000 0.022995
#
#
# Mechanical properties :
#
#
# Convention : Reuss Voigt Hill
#
# Bulk Modulus (GPa) = 65.32835 68.36072 66.84454
# Shear Modulus (GPa) = 32.49382 35.08187 33.78785
#
# Velocity S-wave (km/s) = 3.95578 4.11030 4.03378
# Velocity P-wave (km/s) = 7.23359 7.44627 7.34070
#
# Compressibility (1/GPa) = 0.01530729
#
# Stress axis : x y z
#
# Youngs Moduli (GPa) = 86.08319 107.88830 88.80365
#
# Poissons Ratio (x) = 0.28434 0.17532
# Poissons Ratio (y) = 0.22687 0.33832
# Poissons Ratio (z) = 0.16995 0.41103
#
# Static dielectric constant tensor:
#      x y z
#    x 4.107280 0.000000 0.000000 
#    y 0.000000 3.712560 0.000000 
#    z 0.000000 0.000000 3.844050 
# 
# 
# High freq. dielectric constant tensor:
#      x y z
#    x 1.827370 0.000000 0.000000 
#    y 0.000000 1.815300 0.000000 
#    z 0.000000 0.000000 1.822710 
# 
# From -- ./inp_files/8201.got.cif
#   From: 2010.03.12/outbox.cif.g09.slc.cpg/sg61_5_cif.got.tgz:8201.got - 2010.04.10 19:05:03.
