data_PCOD8249029
_publ_section_title
;
Structure prediction by ZEFSAII (Michael W. Deem and Ramdas Pophale) SiO2 
 PCOD8249029
Probable space group: P B C A
;
_chemical_formula_sum "Si O2"
_cell_formula_units_Z 56
_cell_length_a 27.775682
_cell_length_b 5.457244
_cell_length_c 14.513848
_cell_angle_alpha 90.000000
_cell_angle_beta 90.000000
_cell_angle_gamma 90.000000
_cell_volume 2199.989834
_symmetry_space_group_name_H-M "P B C A"
_symmetry_group_IT_number 61
_symmetry_cell_setting 'orthorhombic'
loop_
_space_group_symop_operation_xyz
x,y,z
1/2-x,-y,1/2+z
1/2+x,1/2-y,-z
-x,1/2+y,1/2-z
-x,-y,-z
1/2+x,y,1/2-z
1/2-x,1/2+y,z
x,1/2-y,1/2+z
loop_
_atom_site_type_symbol
_atom_site_label
_atom_site_fract_x
_atom_site_fract_y
_atom_site_fract_z
Si Si1 0.633692 0.647266 0.598574
Si Si2 0.048849 0.931516 0.844088
Si Si3 0.454976 0.159079 0.663265
Si Si4 0.728983 0.884716 0.589217
Si Si5 0.771285 0.149689 0.876924
Si Si6 0.364218 0.077664 0.102318
Si Si7 0.384241 0.705494 0.244643
O O1 0.578081 0.741598 0.590880
O O2 0.671288 0.873025 0.604020
O O3 0.644807 0.497330 0.504005
O O4 0.643701 0.488323 0.690629
O O5 0.026701 0.785407 0.757370
O O6 0.090966 0.111874 0.815289
O O7 0.003732 0.074881 0.891699
O O8 0.420448 0.347286 0.609417
O O9 0.424637 0.917903 0.682201
O O10 0.751808 0.636573 0.635523
O O11 0.745068 0.878595 0.482775
O O12 0.744668 0.389752 0.831076
O O13 0.829282 0.193999 0.870004
O O14 0.350982 0.854892 0.171605
#
# Coordination Sequence:
#
# PCOD8249029 Si02
#       7
#     8   8   8   8   8   8   8
#     4  10  23  39  63  98 128 167 222 273 325 392
#     4  10  20  38  63  87 123 172 215 262 330 395
#     4  10  20  38  63  87 123 172 215 262 330 395
#     4   9  19  37  62  92 131 177 222 273 336 398
#     4   9  19  37  62  92 131 177 222 273 336 398
#     4  10  23  39  63  98 128 167 222 273 325 392
#     4  10  22  40  64  88 130 170 212 264 336 392
#
# _framework density 25.454663
#
# number of rings (size 3 to 8) (size 9 to 14) (size 15 to 20)
#    0.000    2.286    1.429    0.000    4.000    1.714 
#    0.000    2.857    0.000    0.000    0.000    0.000 
#    0.000    0.000    0.000    0.000    0.000    0.000 
#
# Total GULP energy -693788.370921 kJ/mol
# GULP energy per Si atom -12389.078052 kJ/mol
# Density = 2.539673 g / cm^3
# Si number density = 25.454663 Si / 1000 Ang^3
#
#
#
# Elastic Constant Matrix: (Units=GPa)
#
#
# Indices 1 2 3 4 5 6 
#
# 1 113.9179 23.9209 10.0225 0.0000 0.0000 0.0000
# 2 23.9209 110.6993 4.2324 0.0000 0.0000 0.0000
# 3 10.0225 4.2324 49.2511 0.0000 0.0000 0.0000
# 4 0.0000 0.0000 0.0000 7.3983 0.0000 0.0000
# 5 0.0000 0.0000 0.0000 0.0000 -226.3984 0.0000
# 6 0.0000 0.0000 0.0000 0.0000 0.0000 40.4675
#
#
#
# Elastic Compliance Matrix: (Units=1/GPa)
#
#
# Indices 1 2 3 4 5 6 
#
# 1 0.009341 -0.001952 -0.001733 0.000000 0.000000 0.000000
# 2 -0.001952 0.009471 -0.000417 0.000000 0.000000 0.000000
# 3 -0.001733 -0.000417 0.020693 0.000000 0.000000 0.000000
# 4 0.000000 0.000000 0.000000 0.135166 0.000000 0.000000
# 5 0.000000 0.000000 0.000000 0.000000 -0.004417 0.000000
# 6 0.000000 0.000000 0.000000 0.000000 0.000000 0.024711
#
#
# Mechanical properties :
#
#
# Convention : Reuss Voigt Hill
#
# Bulk Modulus (GPa) = 31.94809 38.91332 35.43070
# Shear Modulus (GPa) = 23.40808 -19.99367 1.70720
#
# Velocity S-wave (km/s) = 3.03578 -2.80565 0.81984
# Velocity P-wave (km/s) = 4.98660 2.19657 3.85299
#
# Compressibility (1/GPa) = 0.03130078
#
# Stress axis : x y z
#
# Youngs Moduli (GPa) = 107.05899 105.58270 48.32649
#
# Poissons Ratio (x) = 0.20611 0.08375
# Poissons Ratio (y) = 0.20900 0.02014
# Poissons Ratio (z) = 0.18554 0.04399
#
# Static dielectric constant tensor:
#      x y z
#    x 4.457650 0.000000 0.000000 
#    y 0.000000 4.805800 0.000000 
#    z 0.000000 0.000000 4.089710 
# 
# 
# High freq. dielectric constant tensor:
#      x y z
#    x 2.019120 0.000000 0.000000 
#    y 0.000000 2.017220 0.000000 
#    z 0.000000 0.000000 1.974230 
# 
# From -- ./inp_files/8668.got.cif
#   From: 2010.03.12/outbox.cif.g09.slc.cpg/sg61_5_cif.got.tgz:8668.got - 2010.04.10 19:05:03.
