data_PCOD8249374
_publ_section_title
;
Structure prediction by ZEFSAII (Michael W. Deem and Ramdas Pophale) SiO2 
 PCOD8249374
Probable space group: P B C A
;
_chemical_formula_sum "Si O2"
_cell_formula_units_Z 56
_cell_length_a 19.020419
_cell_length_b 13.964322
_cell_length_c 8.761241
_cell_angle_alpha 90.000000
_cell_angle_beta 90.000000
_cell_angle_gamma 90.000000
_cell_volume 2327.049177
_symmetry_space_group_name_H-M "P B C A"
_symmetry_group_IT_number 61
_symmetry_cell_setting 'orthorhombic'
loop_
_space_group_symop_operation_xyz
x,y,z
1/2-x,-y,1/2+z
1/2+x,1/2-y,-z
-x,1/2+y,1/2-z
-x,-y,-z
1/2+x,y,1/2-z
1/2-x,1/2+y,z
x,1/2-y,1/2+z
loop_
_atom_site_type_symbol
_atom_site_label
_atom_site_fract_x
_atom_site_fract_y
_atom_site_fract_z
Si Si1 0.302431 0.025343 0.257712
Si Si2 0.600669 0.748226 0.330875
Si Si3 0.720397 0.381857 0.004235
Si Si4 0.302237 0.194924 0.423275
Si Si5 0.962011 0.510316 0.733003
Si Si6 0.991397 0.327743 0.074229
Si Si7 0.061953 0.126754 0.065386
O O1 0.271457 0.049239 0.092490
O O2 0.268375 0.090555 0.396969
O O3 0.284317 0.918840 0.319436
O O4 0.386835 0.041476 0.256200
O O5 0.670691 0.706926 0.252749
O O6 0.628669 0.813384 0.470815
O O7 0.548732 0.668943 0.409785
O O8 0.564400 0.816892 0.210293
O O9 0.645725 0.383640 0.918324
O O10 0.747484 0.273501 0.020031
O O11 0.964522 0.588699 0.597257
O O12 0.972811 0.569570 0.891882
O O13 0.022507 0.430841 0.701267
O O14 0.045595 0.239576 0.076302
#
# Coordination Sequence:
#
# PCOD8249374 Si02
#       7
#     8   8   8   8   8   8   8
#     4  11  26  47  70 104 143 190 246 292 371 443
#     4  10  22  38  72 100 130 186 228 283 347 433
#     4  11  27  44  72 103 141 196 238 305 364 430
#     4  11  23  45  69  95 143 187 238 277 360 434
#     4  10  22  44  72  99 146 186 233 301 363 432
#     4  11  21  41  71 105 137 178 237 293 363 415
#     4  10  23  43  67 104 140 190 234 294 367 420
#
# _framework density 24.064812
#
# number of rings (size 3 to 8) (size 9 to 14) (size 15 to 20)
#    0.000    1.429    2.857    1.714    6.000    4.571 
#    2.571    1.429    0.000    0.000    0.000    0.000 
#    0.000    0.000    0.000    0.000    0.000    0.000 
#
# Total GULP energy -694021.091001 kJ/mol
# GULP energy per Si atom -12393.233768 kJ/mol
# Density = 2.401004 g / cm^3
# Si number density = 24.064812 Si / 1000 Ang^3
#
#
#
# Elastic Constant Matrix: (Units=GPa)
#
#
# Indices 1 2 3 4 5 6 
#
# 1 113.6024 50.5230 33.0129 0.0000 0.0000 0.0000
# 2 50.5230 85.4519 22.2839 0.0000 0.0000 0.0000
# 3 33.0129 22.2839 82.5569 0.0000 0.0000 0.0000
# 4 0.0000 0.0000 0.0000 43.0761 0.0000 0.0000
# 5 0.0000 0.0000 0.0000 0.0000 35.5649 0.0000
# 6 0.0000 0.0000 0.0000 0.0000 0.0000 29.7119
#
#
#
# Elastic Compliance Matrix: (Units=1/GPa)
#
#
# Indices 1 2 3 4 5 6 
#
# 1 0.012722 -0.006664 -0.003288 0.000000 0.000000 0.000000
# 2 -0.006664 0.016080 -0.001675 0.000000 0.000000 0.000000
# 3 -0.003288 -0.001675 0.013880 0.000000 0.000000 0.000000
# 4 0.000000 0.000000 0.000000 0.023215 0.000000 0.000000
# 5 0.000000 0.000000 0.000000 0.000000 0.028118 0.000000
# 6 0.000000 0.000000 0.000000 0.000000 0.000000 0.033657
#
#
# Mechanical properties :
#
#
# Convention : Reuss Voigt Hill
#
# Bulk Modulus (GPa) = 51.47854 54.80565 53.14209
# Shear Modulus (GPa) = 31.76576 33.39000 32.57788
#
# Velocity S-wave (km/s) = 3.63713 3.72896 3.68333
# Velocity P-wave (km/s) = 6.25111 6.43147 6.34193
#
# Compressibility (1/GPa) = 0.01942557
#
# Stress axis : x y z
#
# Youngs Moduli (GPa) = 78.60315 62.19048 72.04577
#
# Poissons Ratio (x) = 0.41446 0.23692
# Poissons Ratio (y) = 0.52384 0.12070
# Poissons Ratio (z) = 0.25849 0.10419
#
# Static dielectric constant tensor:
#      x y z
#    x 4.155780 0.000000 0.000000 
#    y 0.000000 4.345540 0.000000 
#    z 0.000000 0.000000 4.393930 
# 
# 
# High freq. dielectric constant tensor:
#      x y z
#    x 1.940860 0.000000 0.000000 
#    y 0.000000 1.958040 0.000000 
#    z 0.000000 0.000000 1.960270 
# 
# From -- ./inp_files/3988.got.cif
#   From: 2010.03.12/outbox.cif.g09.slc.cpg/sg61_2_cif.got.tgz:3988.got - 2010.04.10 19:05:03.
