data_PCOD8249211
_publ_section_title
;
Structure prediction by ZEFSAII (Michael W. Deem and Ramdas Pophale) SiO2 
 PCOD8249211
Probable space group: P B C A
;
_chemical_formula_sum "Si O2"
_cell_formula_units_Z 64
_cell_length_a 9.123247
_cell_length_b 12.272718
_cell_length_c 27.123445
_cell_angle_alpha 90.000000
_cell_angle_beta 90.000000
_cell_angle_gamma 90.000000
_cell_volume 3036.931788
_symmetry_space_group_name_H-M "P B C A"
_symmetry_group_IT_number 61
_symmetry_cell_setting 'orthorhombic'
loop_
_space_group_symop_operation_xyz
x,y,z
1/2-x,-y,1/2+z
1/2+x,1/2-y,-z
-x,1/2+y,1/2-z
-x,-y,-z
1/2+x,y,1/2-z
1/2-x,1/2+y,z
x,1/2-y,1/2+z
loop_
_atom_site_type_symbol
_atom_site_label
_atom_site_fract_x
_atom_site_fract_y
_atom_site_fract_z
Si Si1 0.367445 0.790475 0.865135
Si Si2 0.371280 0.835935 0.610678
Si Si3 0.282439 0.500956 0.547669
Si Si4 0.657207 0.012010 0.302985
Si Si5 0.626533 0.472302 0.560965
Si Si6 0.007973 0.970866 0.701698
Si Si7 0.645453 0.668117 0.876810
Si Si8 0.098238 0.842506 0.369626
O O1 0.315962 0.866440 0.910390
O O2 0.434519 0.864674 0.822112
O O3 0.475492 0.696495 0.885771
O O4 0.225682 0.727651 0.843520
O O5 0.331189 0.902727 0.560536
O O6 0.422113 0.916048 0.654591
O O7 0.220120 0.784844 0.629297
O O8 0.488603 0.740509 0.602459
O O9 0.448914 0.467790 0.561153
O O10 0.285749 0.529722 0.490210
O O11 0.224425 0.604432 0.578301
O O12 0.559081 0.011468 0.255026
O O13 0.820785 0.052085 0.291316
O O14 0.664233 0.890784 0.324514
O O15 0.672299 0.583420 0.588200
O O16 0.984270 0.080586 0.669597
#
# Coordination Sequence:
#
# PCOD8249211 Si02
#       8
#     8   8   8   8   8   8   8   8
#     4  11  24  42  65  90 133 167 209 266 322 372
#     4  11  20  42  65  90 123 176 209 250 318 389
#     4  10  21  38  68  92 125 163 216 262 309 385
#     4  11  25  39  65  96 129 164 216 264 312 382
#     4  10  21  42  60  96 129 159 208 273 319 360
#     4  11  25  43  61  96 129 165 212 267 318 375
#     4  11  20  42  65  90 123 176 209 250 318 389
#     4  11  24  42  65  90 133 167 209 266 322 372
#
# _framework density 21.073899999999998
#
# number of rings (size 3 to 8) (size 9 to 14) (size 15 to 20)
#    0.000    1.250    5.000    1.500    3.500    6.000 
#    0.000    1.250    0.000    0.000    0.000    0.000 
#    0.000    0.000    0.000    0.000    0.000    0.000 
#
# Total GULP energy -793340.445011 kJ/mol
# GULP energy per Si atom -12395.944453 kJ/mol
# Density = 2.102593 g / cm^3
# Si number density = 21.073900 Si / 1000 Ang^3
#
#
#
# Elastic Constant Matrix: (Units=GPa)
#
#
# Indices 1 2 3 4 5 6 
#
# 1 76.4182 27.4342 17.2997 0.0000 0.0000 0.0000
# 2 27.4342 66.8239 27.4087 0.0000 0.0000 0.0000
# 3 17.2997 27.4087 128.9788 0.0000 0.0000 0.0000
# 4 0.0000 0.0000 0.0000 12.4021 0.0000 0.0000
# 5 0.0000 0.0000 0.0000 0.0000 30.1305 0.0000
# 6 0.0000 0.0000 0.0000 0.0000 0.0000 32.5495
#
#
#
# Elastic Compliance Matrix: (Units=1/GPa)
#
#
# Indices 1 2 3 4 5 6 
#
# 1 0.015421 -0.006006 -0.000792 0.000000 0.000000 0.000000
# 2 -0.006006 0.018733 -0.003175 0.000000 0.000000 0.000000
# 3 -0.000792 -0.003175 0.008534 0.000000 0.000000 0.000000
# 4 0.000000 0.000000 0.000000 0.080632 0.000000 0.000000
# 5 0.000000 0.000000 0.000000 0.000000 0.033189 0.000000
# 6 0.000000 0.000000 0.000000 0.000000 0.000000 0.030722
#
#
# Mechanical properties :
#
#
# Convention : Reuss Voigt Hill
#
# Bulk Modulus (GPa) = 43.97278 46.27846 45.12562
# Shear Modulus (GPa) = 23.28185 28.35496 25.81841
#
# Velocity S-wave (km/s) = 3.32742 3.67209 3.50399
# Velocity P-wave (km/s) = 5.97273 6.32351 6.15062
#
# Compressibility (1/GPa) = 0.02274134
#
# Stress axis : x y z
#
# Youngs Moduli (GPa) = 64.84457 53.38186 117.17549
#
# Poissons Ratio (x) = 0.32063 0.09281
# Poissons Ratio (y) = 0.38948 0.37206
# Poissons Ratio (z) = 0.05136 0.16950
#
# Static dielectric constant tensor:
#      x y z
#    x 3.796060 0.000000 0.000000 
#    y 0.000000 3.932540 0.000000 
#    z 0.000000 0.000000 3.627210 
# 
# 
# High freq. dielectric constant tensor:
#      x y z
#    x 1.824460 0.000000 0.000000 
#    y 0.000000 1.841220 0.000000 
#    z 0.000000 0.000000 1.807080 
# 
# From -- ./inp_files/11746.got.cif
#   From: 2010.03.12/outbox.cif.g09.slc.cpg/sg61_6_cif.got.tgz:11746.got - 2010.04.10 19:05:03.
