data_PCOD8249469
_publ_section_title
;
Structure prediction by ZEFSAII (Michael W. Deem and Ramdas Pophale) SiO2 
 PCOD8249469
Probable space group: P B C A
;
_chemical_formula_sum "Si O2"
_cell_formula_units_Z 32
_cell_length_a 17.004790
_cell_length_b 9.355995
_cell_length_c 8.394346
_cell_angle_alpha 90.000000
_cell_angle_beta 90.000000
_cell_angle_gamma 90.000000
_cell_volume 1335.513001
_symmetry_space_group_name_H-M "P B C A"
_symmetry_group_IT_number 61
_symmetry_cell_setting 'orthorhombic'
loop_
_space_group_symop_operation_xyz
x,y,z
1/2-x,-y,1/2+z
1/2+x,1/2-y,-z
-x,1/2+y,1/2-z
-x,-y,-z
1/2+x,y,1/2-z
1/2-x,1/2+y,z
x,1/2-y,1/2+z
loop_
_atom_site_type_symbol
_atom_site_label
_atom_site_fract_x
_atom_site_fract_y
_atom_site_fract_z
Si Si1 0.513411 0.701888 0.943363
Si Si2 0.946504 0.561697 0.262275
Si Si3 0.808956 0.182376 0.046308
Si Si4 0.724278 0.543046 0.722718
O O1 0.514133 0.593859 0.791522
O O2 0.492360 0.858813 0.879861
O O3 0.449618 0.650192 0.072036
O O4 0.598265 0.700470 0.026142
O O5 0.856299 0.545958 0.213669
O O6 0.772672 0.336010 0.086231
O O7 0.794622 0.069202 0.190369
O O8 0.764892 0.121005 0.891592
#
# Coordination Sequence:
#
# PCOD8249469 Si02
#       4
#     8   8   8   8
#     4  10  22  43  67 100 135 175 224 277 332 398
#     4  10  23  41  66  95 131 173 222 274 332 391
#     4  11  24  44  68  98 137 175 224 277 336 398
#     4  11  25  44  67  97 133 178 222 279 336 404
#
# _framework density 23.960829
#
# number of rings (size 3 to 8) (size 9 to 14) (size 15 to 20)
#    0.000    1.500    0.000    4.500    0.000   12.000 
#    0.000    0.000    0.000    0.000    0.000    0.000 
#    0.000    0.000    0.000    0.000    0.000    0.000 
#
# Total GULP energy -396912.898584 kJ/mol
# GULP energy per Si atom -12403.528081 kJ/mol
# Density = 2.390629 g / cm^3
# Si number density = 23.960829 Si / 1000 Ang^3
#
#
#
# Elastic Constant Matrix: (Units=GPa)
#
#
# Indices 1 2 3 4 5 6 
#
# 1 65.2839 44.2202 42.7374 0.0000 0.0000 0.0000
# 2 44.2202 114.1616 24.9914 0.0000 0.0000 0.0000
# 3 42.7374 24.9914 71.4843 0.0000 0.0000 0.0000
# 4 0.0000 0.0000 0.0000 54.1014 0.0000 0.0000
# 5 0.0000 0.0000 0.0000 0.0000 41.2061 0.0000
# 6 0.0000 0.0000 0.0000 0.0000 0.0000 34.1038
#
#
#
# Elastic Compliance Matrix: (Units=1/GPa)
#
#
# Indices 1 2 3 4 5 6 
#
# 1 0.031644 -0.008788 -0.015846 0.000000 0.000000 0.000000
# 2 -0.008788 0.011926 0.001085 0.000000 0.000000 0.000000
# 3 -0.015846 0.001085 0.023084 0.000000 0.000000 0.000000
# 4 0.000000 0.000000 0.000000 0.018484 0.000000 0.000000
# 5 0.000000 0.000000 0.000000 0.000000 0.024268 0.000000
# 6 0.000000 0.000000 0.000000 0.000000 0.000000 0.029322
#
#
# Mechanical properties :
#
#
# Convention : Reuss Voigt Hill
#
# Bulk Modulus (GPa) = 51.13979 52.75866 51.94923
# Shear Modulus (GPa) = 25.99486 35.14764 30.57125
#
# Velocity S-wave (km/s) = 3.29734 3.83414 3.57583
# Velocity P-wave (km/s) = 5.99049 6.45503 6.22709
#
# Compressibility (1/GPa) = 0.01955425
#
# Stress axis : x y z
#
# Youngs Moduli (GPa) = 31.60160 83.84916 43.32075
#
# Poissons Ratio (x) = 0.73689 0.68647
# Poissons Ratio (y) = 0.27772 -0.04699
# Poissons Ratio (z) = 0.50076 -0.09095
#
# Static dielectric constant tensor:
#      x y z
#    x 3.923180 0.000000 0.000000 
#    y 0.000000 4.590920 0.000000 
#    z 0.000000 0.000000 4.340570 
# 
# 
# High freq. dielectric constant tensor:
#      x y z
#    x 1.925800 0.000000 0.000000 
#    y 0.000000 1.968610 0.000000 
#    z 0.000000 0.000000 1.955780 
# 
# From -- ./inp_files/3769.got.cif
#   From: 2010.03.12/outbox.cif.g09.slc.cpg/sg61_2_cif.got.tgz:3769.got - 2010.04.10 19:05:03.
