data_PCOD8249157
_publ_section_title
;
Structure prediction by ZEFSAII (Michael W. Deem and Ramdas Pophale) SiO2 
 PCOD8249157
Probable space group: P B C A
;
_chemical_formula_sum "Si O2"
_cell_formula_units_Z 48
_cell_length_a 8.722747
_cell_length_b 29.591772
_cell_length_c 9.272780
_cell_angle_alpha 90.000000
_cell_angle_beta 90.000000
_cell_angle_gamma 90.000000
_cell_volume 2393.504258
_symmetry_space_group_name_H-M "P B C A"
_symmetry_group_IT_number 61
_symmetry_cell_setting 'orthorhombic'
loop_
_space_group_symop_operation_xyz
x,y,z
1/2-x,-y,1/2+z
1/2+x,1/2-y,-z
-x,1/2+y,1/2-z
-x,-y,-z
1/2+x,y,1/2-z
1/2-x,1/2+y,z
x,1/2-y,1/2+z
loop_
_atom_site_type_symbol
_atom_site_label
_atom_site_fract_x
_atom_site_fract_y
_atom_site_fract_z
Si Si1 0.162582 0.615994 0.125202
Si Si2 0.313454 0.954874 0.430695
Si Si3 0.798150 0.784154 0.562217
Si Si4 0.814728 0.887777 0.572317
Si Si5 0.167154 0.540177 0.626185
Si Si6 0.139447 0.719541 0.148570
O O1 0.213232 0.603006 0.286435
O O2 0.181899 0.669234 0.095824
O O3 0.988488 0.599580 0.111155
O O4 0.266285 0.591898 0.005686
O O5 0.487704 0.950330 0.382285
O O6 0.208785 0.965151 0.293031
O O7 0.285994 0.994750 0.544196
O O8 0.802537 0.836467 0.517461
O O9 0.667660 0.776130 0.681471
O O10 0.753775 0.754591 0.425606
O O11 0.963153 0.768417 0.620750
O O12 0.758705 0.918110 0.441000
#
# Coordination Sequence:
#
# PCOD8249157 Si02
#       6
#     8   8   8   8   8   8
#     4  10  21  38  60  85 114 149 189 233 282 335
#     4  11  24  40  60  86 115 149 188 231 280 334
#     4  10  21  37  58  84 114 150 190 233 282 335
#     4  10  21  38  60  85 114 149 189 233 282 335
#     4  11  24  40  60  86 115 149 188 231 280 334
#     4  10  21  37  58  84 114 150 190 233 282 335
#
# _framework density 20.054276999999999
#
# number of rings (size 3 to 8) (size 9 to 14) (size 15 to 20)
#    0.000    1.667    0.000    4.000    0.000   10.667 
#    0.000    0.000    0.000    0.000    0.000    0.000 
#    0.000    0.000    0.000    0.000    0.000    0.000 
#
# Total GULP energy -595526.778811 kJ/mol
# GULP energy per Si atom -12406.807892 kJ/mol
# Density = 2.000863 g / cm^3
# Si number density = 20.054277 Si / 1000 Ang^3
#
#
#
# Elastic Constant Matrix: (Units=GPa)
#
#
# Indices 1 2 3 4 5 6 
#
# 1 60.8585 31.1223 3.0859 0.0000 0.0000 0.0000
# 2 31.1223 70.3811 30.5036 0.0000 0.0000 0.0000
# 3 3.0859 30.5036 66.7840 0.0000 0.0000 0.0000
# 4 0.0000 0.0000 0.0000 18.0350 0.0000 0.0000
# 5 0.0000 0.0000 0.0000 0.0000 37.8411 0.0000
# 6 0.0000 0.0000 0.0000 0.0000 0.0000 32.5518
#
#
#
# Elastic Compliance Matrix: (Units=1/GPa)
#
#
# Indices 1 2 3 4 5 6 
#
# 1 0.022185 -0.011677 0.004309 0.000000 0.000000 0.000000
# 2 -0.011677 0.023862 -0.010359 0.000000 0.000000 0.000000
# 3 0.004309 -0.010359 0.019506 0.000000 0.000000 0.000000
# 4 0.000000 0.000000 0.000000 0.055448 0.000000 0.000000
# 5 0.000000 0.000000 0.000000 0.000000 0.026426 0.000000
# 6 0.000000 0.000000 0.000000 0.000000 0.000000 0.030720
#
#
# Mechanical properties :
#
#
# Convention : Reuss Voigt Hill
#
# Bulk Modulus (GPa) = 33.22649 36.38304 34.80477
# Shear Modulus (GPa) = 22.35780 26.57304 24.46542
#
# Velocity S-wave (km/s) = 3.34258 3.64408 3.49658
# Velocity P-wave (km/s) = 5.61261 5.99061 5.80469
#
# Compressibility (1/GPa) = 0.03009646
#
# Stress axis : x y z
#
# Youngs Moduli (GPa) = 45.07603 41.90792 51.26577
#
# Poissons Ratio (x) = 0.48937 -0.22088
# Poissons Ratio (y) = 0.52637 0.53108
# Poissons Ratio (z) = -0.19421 0.43414
#
# Static dielectric constant tensor:
#      x y z
#    x 3.747090 0.000000 0.000000 
#    y 0.000000 3.657530 0.000000 
#    z 0.000000 0.000000 3.519200 
# 
# 
# High freq. dielectric constant tensor:
#      x y z
#    x 1.798860 0.000000 0.000000 
#    y 0.000000 1.787000 0.000000 
#    z 0.000000 0.000000 1.780290 
# 
# From -- ./inp_files/1845.got.cif
#   From: 2010.03.12/outbox.cif.g09.slc.cpg/sg61_1_cif.got.tgz:1845.got - 2010.04.10 19:05:03.
