data_PCOD8249774
_publ_section_title
;
Structure prediction by ZEFSAII (Michael W. Deem and Ramdas Pophale) SiO2 
 PCOD8249774
Probable space group: P B C A
;
_chemical_formula_sum "Si O2"
_cell_formula_units_Z 40
_cell_length_a 25.092880
_cell_length_b 5.021843
_cell_length_c 13.425132
_cell_angle_alpha 90.000000
_cell_angle_beta 90.000000
_cell_angle_gamma 90.000000
_cell_volume 1691.734497
_symmetry_space_group_name_H-M "P B C A"
_symmetry_group_IT_number 61
_symmetry_cell_setting 'orthorhombic'
loop_
_space_group_symop_operation_xyz
x,y,z
1/2-x,-y,1/2+z
1/2+x,1/2-y,-z
-x,1/2+y,1/2-z
-x,-y,-z
1/2+x,y,1/2-z
1/2-x,1/2+y,z
x,1/2-y,1/2+z
loop_
_atom_site_type_symbol
_atom_site_label
_atom_site_fract_x
_atom_site_fract_y
_atom_site_fract_z
Si Si1 0.641721 0.550802 0.170405
Si Si2 0.284595 0.427817 0.999796
Si Si3 0.509274 0.759883 0.814096
Si Si4 0.589525 0.049398 0.082660
Si Si5 0.621877 0.814982 0.885690
O O1 0.627845 0.252353 0.139059
O O2 0.649259 0.553341 0.289189
O O3 0.596548 0.761881 0.135353
O O4 0.697607 0.616368 0.115200
O O5 0.261533 0.717122 0.023756
O O6 0.336965 0.396286 0.068531
O O7 0.481819 0.510739 0.759571
O O8 0.471448 0.855078 0.904839
O O9 0.566570 0.667865 0.856383
O O10 0.606478 0.040650 0.966918
#
# Coordination Sequence:
#
# PCOD8249774 Si02
#       5
#     8   8   8   8   8
#     4  11  24  44  70  98 140 183 233 294 356 422
#     4  11  26  47  68 100 132 173 238 299 350 416
#     4  12  23  42  68 105 149 189 232 288 356 431
#     4  11  23  43  66 105 145 185 232 288 342 433
#     4  11  25  44  75 102 141 193 239 286 368 430
#
# _framework density 23.644373999999999
#
# number of rings (size 3 to 8) (size 9 to 14) (size 15 to 20)
#    0.000    0.800    4.000    3.000    0.000   11.200 
#    0.000    7.000    0.000    0.000    0.000    0.000 
#    0.000    0.000    0.000    0.000    0.000    0.000 
#
# Total GULP energy -496101.000817 kJ/mol
# GULP energy per Si atom -12402.525020 kJ/mol
# Density = 2.359056 g / cm^3
# Si number density = 23.644374 Si / 1000 Ang^3
#
#
#
# Elastic Constant Matrix: (Units=GPa)
#
#
# Indices 1 2 3 4 5 6 
#
# 1 91.3742 2.5750 23.7986 0.0000 0.0000 0.0000
# 2 2.5750 78.7857 26.0558 0.0000 0.0000 0.0000
# 3 23.7986 26.0558 156.6389 0.0000 0.0000 0.0000
# 4 0.0000 0.0000 0.0000 24.3618 0.0000 0.0000
# 5 0.0000 0.0000 0.0000 0.0000 38.9374 0.0000
# 6 0.0000 0.0000 0.0000 0.0000 0.0000 34.5572
#
#
#
# Elastic Compliance Matrix: (Units=1/GPa)
#
#
# Indices 1 2 3 4 5 6 
#
# 1 0.011398 0.000212 -0.001767 0.000000 0.000000 0.000000
# 2 0.000212 0.013436 -0.002267 0.000000 0.000000 0.000000
# 3 -0.001767 -0.002267 0.007030 0.000000 0.000000 0.000000
# 4 0.000000 0.000000 0.000000 0.041048 0.000000 0.000000
# 5 0.000000 0.000000 0.000000 0.000000 0.025682 0.000000
# 6 0.000000 0.000000 0.000000 0.000000 0.000000 0.028938
#
#
# Mechanical properties :
#
#
# Convention : Reuss Voigt Hill
#
# Bulk Modulus (GPa) = 41.29000 47.96196 44.62598
# Shear Modulus (GPa) = 34.90436 37.86257 36.38346
#
# Velocity S-wave (km/s) = 3.84633 4.00601 3.92698
# Velocity P-wave (km/s) = 6.10136 6.45959 6.28302
#
# Compressibility (1/GPa) = 0.02421894
#
# Stress axis : x y z
#
# Youngs Moduli (GPa) = 87.73271 74.42968 142.25381
#
# Poissons Ratio (x) = -0.01577 0.25136
# Poissons Ratio (y) = -0.01859 0.32250
# Poissons Ratio (z) = 0.15502 0.16874
#
# Static dielectric constant tensor:
#      x y z
#    x 4.264990 0.000000 0.000000 
#    y 0.000000 4.007670 0.000000 
#    z 0.000000 0.000000 4.503050 
# 
# 
# High freq. dielectric constant tensor:
#      x y z
#    x 1.938370 0.000000 0.000000 
#    y 0.000000 1.930640 0.000000 
#    z 0.000000 0.000000 1.936450 
# 
# From -- ./inp_files/6656.got.cif
#   From: 2010.03.12/outbox.cif.g09.slc.cpg/sg61_4_cif.got.tgz:6656.got - 2010.04.10 19:05:03.
