data_PCOD8249604
_publ_section_title
;
Structure prediction by ZEFSAII (Michael W. Deem and Ramdas Pophale) SiO2 
 PCOD8249604
Probable space group: P B C A
;
_chemical_formula_sum "Si O2"
_cell_formula_units_Z 64
_cell_length_a 11.397394
_cell_length_b 32.623913
_cell_length_c 7.954782
_cell_angle_alpha 90.000000
_cell_angle_beta 90.000000
_cell_angle_gamma 90.000000
_cell_volume 2957.807422
_symmetry_space_group_name_H-M "P B C A"
_symmetry_group_IT_number 61
_symmetry_cell_setting 'orthorhombic'
loop_
_space_group_symop_operation_xyz
x,y,z
1/2-x,-y,1/2+z
1/2+x,1/2-y,-z
-x,1/2+y,1/2-z
-x,-y,-z
1/2+x,y,1/2-z
1/2-x,1/2+y,z
x,1/2-y,1/2+z
loop_
_atom_site_type_symbol
_atom_site_label
_atom_site_fract_x
_atom_site_fract_y
_atom_site_fract_z
Si Si1 0.411535 0.545996 0.844429
Si Si2 0.993433 0.916298 0.499323
Si Si3 0.625667 0.804331 0.545500
Si Si4 0.243667 0.747419 0.720265
Si Si5 0.758543 0.384790 0.530945
Si Si6 0.640586 0.306586 0.030587
Si Si7 0.776597 0.386364 0.147574
Si Si8 0.079178 0.951951 0.842494
O O1 0.471139 0.555581 0.664477
O O2 0.292818 0.571069 0.873401
O O3 0.376106 0.498456 0.844581
O O4 0.495677 0.556820 0.999318
O O5 0.105337 0.887650 0.462731
O O6 0.013999 0.943205 0.666289
O O7 0.882567 0.886501 0.530273
O O8 0.687579 0.790938 0.373733
O O9 0.637974 0.765221 0.666663
O O10 0.695610 0.843484 0.620729
O O11 0.492006 0.816476 0.517020
O O12 0.292143 0.786661 0.624517
O O13 0.351700 0.727597 0.823236
O O14 0.810427 0.382191 0.342620
O O15 0.806426 0.423667 0.634565
O O16 0.698293 0.349224 0.082085
#
# Coordination Sequence:
#
# PCOD8249604 Si02
#       8
#     8   8   8   8   8   8   8   8
#     4  10  24  45  69  98 132 180 226 282 340 403
#     4  11  26  45  67 100 138 185 226 280 343 407
#     4  11  23  43  68  95 136 170 227 279 339 406
#     4  10  24  42  64 102 127 175 226 275 343 411
#     4  11  25  44  68 100 133 181 226 278 342 415
#     4  11  23  43  68  96 131 177 218 283 343 397
#     4  11  24  44  68  95 138 178 223 279 346 401
#     4  11  24  44  69  98 136 175 229 281 338 403
#
# _framework density 21.637649
#
# number of rings (size 3 to 8) (size 9 to 14) (size 15 to 20)
#    0.000    1.250    2.500    1.875    5.250    4.000 
#    9.000    0.000    0.000    0.000    0.000    0.000 
#    0.000    0.000    0.000    0.000    0.000    0.000 
#
# Total GULP energy -793644.769755 kJ/mol
# GULP energy per Si atom -12400.699527 kJ/mol
# Density = 2.158840 g / cm^3
# Si number density = 21.637649 Si / 1000 Ang^3
#
#
#
# Elastic Constant Matrix: (Units=GPa)
#
#
# Indices 1 2 3 4 5 6 
#
# 1 131.1845 58.1122 42.0954 0.0000 0.0000 0.0000
# 2 58.1122 129.3578 34.4445 0.0000 0.0000 0.0000
# 3 42.0954 34.4445 101.7906 0.0000 0.0000 0.0000
# 4 0.0000 0.0000 0.0000 30.1922 0.0000 0.0000
# 5 0.0000 0.0000 0.0000 0.0000 14.0923 0.0000
# 6 0.0000 0.0000 0.0000 0.0000 0.0000 35.9698
#
#
#
# Elastic Compliance Matrix: (Units=1/GPa)
#
#
# Indices 1 2 3 4 5 6 
#
# 1 0.010264 -0.003825 -0.002950 0.000000 0.000000 0.000000
# 2 -0.003825 0.009922 -0.001775 0.000000 0.000000 0.000000
# 3 -0.002950 -0.001775 0.011645 0.000000 0.000000 0.000000
# 4 0.000000 0.000000 0.000000 0.033121 0.000000 0.000000
# 5 0.000000 0.000000 0.000000 0.000000 0.070961 0.000000
# 6 0.000000 0.000000 0.000000 0.000000 0.000000 0.027801
#
#
# Mechanical properties :
#
#
# Convention : Reuss Voigt Hill
#
# Bulk Modulus (GPa) = 67.89472 70.18189 69.03830
# Shear Modulus (GPa) = 26.92149 31.22960 29.07554
#
# Velocity S-wave (km/s) = 3.53114 3.80320 3.66969
# Velocity P-wave (km/s) = 6.93336 7.19661 7.06621
#
# Compressibility (1/GPa) = 0.01472869
#
# Stress axis : x y z
#
# Youngs Moduli (GPa) = 97.42648 100.78857 85.87436
#
# Poissons Ratio (x) = 0.38556 0.25335
# Poissons Ratio (y) = 0.37270 0.15246
# Poissons Ratio (z) = 0.28743 0.17894
#
# Static dielectric constant tensor:
#      x y z
#    x 3.733930 0.000000 0.000000 
#    y 0.000000 3.819790 0.000000 
#    z 0.000000 0.000000 4.122770 
# 
# 
# High freq. dielectric constant tensor:
#      x y z
#    x 1.842690 0.000000 0.000000 
#    y 0.000000 1.859480 0.000000 
#    z 0.000000 0.000000 1.860650 
# 
# From -- ./inp_files/2470.got.cif
#   From: 2010.03.12/outbox.cif.g09.slc.cpg/sg61_2_cif.got.tgz:2470.got - 2010.04.10 19:05:03.
