data_PCOD8249130
_publ_section_title
;
Structure prediction by ZEFSAII (Michael W. Deem and Ramdas Pophale) SiO2 
 PCOD8249130
Probable space group: P B C A
;
_chemical_formula_sum "Si O2"
_cell_formula_units_Z 48
_cell_length_a 15.806799
_cell_length_b 5.154823
_cell_length_c 25.390291
_cell_angle_alpha 90.000000
_cell_angle_beta 90.000000
_cell_angle_gamma 90.000000
_cell_volume 2068.832675
_symmetry_space_group_name_H-M "P B C A"
_symmetry_group_IT_number 61
_symmetry_cell_setting 'orthorhombic'
loop_
_space_group_symop_operation_xyz
x,y,z
1/2-x,-y,1/2+z
1/2+x,1/2-y,-z
-x,1/2+y,1/2-z
-x,-y,-z
1/2+x,y,1/2-z
1/2-x,1/2+y,z
x,1/2-y,1/2+z
loop_
_atom_site_type_symbol
_atom_site_label
_atom_site_fract_x
_atom_site_fract_y
_atom_site_fract_z
Si Si1 0.553082 0.719637 0.742588
Si Si2 0.934679 0.236051 0.060020
Si Si3 0.213385 0.610937 0.590736
Si Si4 0.211822 0.939116 0.208728
Si Si5 0.808223 0.240848 0.151160
Si Si6 0.539313 0.725284 0.440303
O O1 0.480147 0.500607 0.737934
O O2 0.611701 0.606042 0.789291
O O3 0.610443 0.744573 0.690160
O O4 0.847402 0.254241 0.092154
O O5 0.002384 0.451454 0.080182
O O6 0.920135 0.299409 0.998582
O O7 0.967918 0.943344 0.065067
O O8 0.231057 0.336064 0.561616
O O9 0.247367 0.547654 0.649451
O O10 0.116386 0.690540 0.596384
O O11 0.259601 0.701441 0.238707
O O12 0.744650 0.479040 0.159358
#
# Coordination Sequence:
#
# PCOD8249130 Si02
#       6
#     8   8   8   8   8   8
#     4  12  26  41  65  95 121 168 212 263 316 381
#     4  10  23  39  64  91 123 174 204 259 320 367
#     4  10  21  34  58  87 115 156 195 245 301 358
#     4  10  21  39  58  83 120 157 192 245 308 359
#     4  12  26  45  68  97 133 171 219 271 325 391
#     4  10  21  40  61  91 132 162 212 259 308 378
#
# _framework density 23.201488999999999
#
# number of rings (size 3 to 8) (size 9 to 14) (size 15 to 20)
#    0.000    1.333    0.000    5.000    4.667    1.333 
#    0.000    0.000    0.000    0.000    0.000    0.000 
#    0.000    0.000    0.000    0.000    0.000    0.000 
#
# Total GULP energy -594921.650469 kJ/mol
# GULP energy per Si atom -12394.201051 kJ/mol
# Density = 2.314868 g / cm^3
# Si number density = 23.201489 Si / 1000 Ang^3
#
#
#
# Elastic Constant Matrix: (Units=GPa)
#
#
# Indices 1 2 3 4 5 6 
#
# 1 89.5290 25.7226 28.2043 0.0000 0.0000 0.0000
# 2 25.7226 141.8242 30.3585 0.0000 0.0000 0.0000
# 3 28.2043 30.3585 53.2247 0.0000 0.0000 0.0000
# 4 0.0000 0.0000 0.0000 19.6443 0.0000 0.0000
# 5 0.0000 0.0000 0.0000 0.0000 42.2129 0.0000
# 6 0.0000 0.0000 0.0000 0.0000 0.0000 48.3822
#
#
#
# Elastic Compliance Matrix: (Units=1/GPa)
#
#
# Indices 1 2 3 4 5 6 
#
# 1 0.013543 -0.001048 -0.006579 0.000000 0.000000 0.000000
# 2 -0.001048 0.008113 -0.004072 0.000000 0.000000 0.000000
# 3 -0.006579 -0.004072 0.024597 0.000000 0.000000 0.000000
# 4 0.000000 0.000000 0.000000 0.050905 0.000000 0.000000
# 5 0.000000 0.000000 0.000000 0.000000 0.023689 0.000000
# 6 0.000000 0.000000 0.000000 0.000000 0.000000 0.020669
#
#
# Mechanical properties :
#
#
# Convention : Reuss Voigt Hill
#
# Bulk Modulus (GPa) = 43.75382 50.34986 47.05184
# Shear Modulus (GPa) = 28.97999 35.40071 32.19035
#
# Velocity S-wave (km/s) = 3.53803 3.91038 3.72886
# Velocity P-wave (km/s) = 5.96568 6.49125 6.23401
#
# Compressibility (1/GPa) = 0.02285515
#
# Stress axis : x y z
#
# Youngs Moduli (GPa) = 73.83760 123.26341 40.65525
#
# Poissons Ratio (x) = 0.12919 0.26747
# Poissons Ratio (y) = 0.07739 0.16555
# Poissons Ratio (z) = 0.48577 0.50193
#
# Static dielectric constant tensor:
#      x y z
#    x 4.004890 0.000000 0.000000 
#    y 0.000000 4.681990 0.000000 
#    z 0.000000 0.000000 4.055080 
# 
# 
# High freq. dielectric constant tensor:
#      x y z
#    x 1.910010 0.000000 0.000000 
#    y 0.000000 1.948850 0.000000 
#    z 0.000000 0.000000 1.899120 
# 
# From -- ./inp_files/11497.got.cif
#   From: 2010.03.12/outbox.cif.g09.slc.cpg/sg61_6_cif.got.tgz:11497.got - 2010.04.10 19:05:03.
