data_PCOD8249721
_publ_section_title
;
Structure prediction by ZEFSAII (Michael W. Deem and Ramdas Pophale) SiO2 
 PCOD8249721
Probable space group: P B C A
;
_chemical_formula_sum "Si O2"
_cell_formula_units_Z 40
_cell_length_a 17.034429
_cell_length_b 12.341886
_cell_length_c 9.434295
_cell_angle_alpha 90.000000
_cell_angle_beta 90.000000
_cell_angle_gamma 90.000000
_cell_volume 1983.437697
_symmetry_space_group_name_H-M "P B C A"
_symmetry_group_IT_number 61
_symmetry_cell_setting 'orthorhombic'
loop_
_space_group_symop_operation_xyz
x,y,z
1/2-x,-y,1/2+z
1/2+x,1/2-y,-z
-x,1/2+y,1/2-z
-x,-y,-z
1/2+x,y,1/2-z
1/2-x,1/2+y,z
x,1/2-y,1/2+z
loop_
_atom_site_type_symbol
_atom_site_label
_atom_site_fract_x
_atom_site_fract_y
_atom_site_fract_z
Si Si1 0.457670 0.758952 0.431176
Si Si2 0.729583 0.820791 0.200965
Si Si3 0.630558 0.183446 0.311113
Si Si4 0.357039 0.954497 0.436611
Si Si5 0.866548 0.311230 0.480117
O O1 0.431886 0.667509 0.317119
O O2 0.411431 0.733545 0.577371
O O3 0.427982 0.878862 0.375849
O O4 0.550350 0.756547 0.448912
O O5 0.789841 0.728905 0.247623
O O6 0.673456 0.846347 0.332692
O O7 0.776570 0.927668 0.148525
O O8 0.682856 0.777131 0.065029
O O9 0.650855 0.072468 0.394025
O O10 0.376635 0.081350 0.422468
#
# Coordination Sequence:
#
# PCOD8249721 Si02
#       5
#     8   8   8   8   8
#     4   9  19  36  59  81 112 154 187 234 280 342
#     4  11  22  37  59  86 117 151 189 246 283 344
#     4   9  18  39  55  78 115 153 183 220 304 331
#     4   9  22  36  58  80 117 157 183 231 296 347
#     4  12  22  37  61  88 116 144 206 238 286 335
#
# _framework density 20.167006000000001
#
# number of rings (size 3 to 8) (size 9 to 14) (size 15 to 20)
#    1.200    0.800    2.000    1.800    2.800    0.000 
#    0.000    0.000    0.000    2.400    0.000    0.000 
#    0.000    0.000    0.000    0.000    0.000    0.000 
#
# Total GULP energy -495558.280970 kJ/mol
# GULP energy per Si atom -12388.957024 kJ/mol
# Density = 2.012110 g / cm^3
# Si number density = 20.167006 Si / 1000 Ang^3
#
#
#
# Elastic Constant Matrix: (Units=GPa)
#
#
# Indices 1 2 3 4 5 6 
#
# 1 109.5334 -4.4560 30.0762 0.0000 0.0000 0.0000
# 2 -4.4560 24.4004 -9.7514 0.0000 0.0000 0.0000
# 3 30.0762 -9.7514 89.7262 0.0000 0.0000 0.0000
# 4 0.0000 0.0000 0.0000 14.4776 0.0000 0.0000
# 5 0.0000 0.0000 0.0000 0.0000 35.2379 0.0000
# 6 0.0000 0.0000 0.0000 0.0000 0.0000 14.7135
#
#
#
# Elastic Compliance Matrix: (Units=1/GPa)
#
#
# Indices 1 2 3 4 5 6 
#
# 1 0.010061 0.000512 -0.003317 0.000000 0.000000 0.000000
# 2 0.000512 0.042870 0.004488 0.000000 0.000000 0.000000
# 3 -0.003317 0.004488 0.012745 0.000000 0.000000 0.000000
# 4 0.000000 0.000000 0.000000 0.069072 0.000000 0.000000
# 5 0.000000 0.000000 0.000000 0.000000 0.028379 0.000000
# 6 0.000000 0.000000 0.000000 0.000000 0.000000 0.067965
#
#
# Mechanical properties :
#
#
# Convention : Reuss Voigt Hill
#
# Bulk Modulus (GPa) = 14.48426 28.37751 21.43089
# Shear Modulus (GPa) = 19.94099 26.73854 23.33976
#
# Velocity S-wave (km/s) = 3.14792 3.64518 3.40564
# Velocity P-wave (km/s) = 4.51777 5.64077 5.11021
#
# Compressibility (1/GPa) = 0.06904044
#
# Stress axis : x y z
#
# Youngs Moduli (GPa) = 99.39147 23.32644 78.46496
#
# Poissons Ratio (x) = -0.01194 0.26026
# Poissons Ratio (y) = -0.05087 -0.35211
# Poissons Ratio (z) = 0.32967 -0.10468
#
# Static dielectric constant tensor:
#      x y z
#    x 3.638820 0.000000 0.000000 
#    y 0.000000 3.070600 0.000000 
#    z 0.000000 0.000000 3.855210 
# 
# 
# High freq. dielectric constant tensor:
#      x y z
#    x 1.793890 0.000000 0.000000 
#    y 0.000000 1.736520 0.000000 
#    z 0.000000 0.000000 1.793850 
# 
# From -- ./inp_files/2637.got.cif
#   From: 2010.03.12/outbox.cif.g09.slc.cpg/sg61_2_cif.got.tgz:2637.got - 2010.04.10 19:05:03.
