data_PCOD8249548
_publ_section_title
;
Structure prediction by ZEFSAII (Michael W. Deem and Ramdas Pophale) SiO2 
 PCOD8249548
Probable space group: P B C A
;
_chemical_formula_sum "Si O2"
_cell_formula_units_Z 48
_cell_length_a 26.637964
_cell_length_b 4.993081
_cell_length_c 17.101769
_cell_angle_alpha 90.000000
_cell_angle_beta 90.000000
_cell_angle_gamma 90.000000
_cell_volume 2274.629541
_symmetry_space_group_name_H-M "P B C A"
_symmetry_group_IT_number 61
_symmetry_cell_setting 'orthorhombic'
loop_
_space_group_symop_operation_xyz
x,y,z
1/2-x,-y,1/2+z
1/2+x,1/2-y,-z
-x,1/2+y,1/2-z
-x,-y,-z
1/2+x,y,1/2-z
1/2-x,1/2+y,z
x,1/2-y,1/2+z
loop_
_atom_site_type_symbol
_atom_site_label
_atom_site_fract_x
_atom_site_fract_y
_atom_site_fract_z
Si Si1 0.280843 0.458345 0.172492
Si Si2 0.782455 0.035450 0.009436
Si Si3 0.374750 0.856562 0.387642
Si Si4 0.515364 0.253411 0.050531
Si Si5 0.523767 0.631836 0.784109
Si Si6 0.371103 0.365717 0.282869
O O1 0.234226 0.262020 0.192874
O O2 0.295479 0.452830 0.081777
O O3 0.326587 0.343817 0.221492
O O4 0.760483 0.323096 0.033581
O O5 0.834145 0.968915 0.052063
O O6 0.425524 0.773217 0.432088
O O7 0.355517 0.586354 0.346743
O O8 0.383293 0.081736 0.322254
O O9 0.483260 0.245529 0.129985
O O10 0.500000 0.500000 0.000000
O O11 0.500000 0.000000 0.000000
O O12 0.491357 0.361515 0.777643
O O13 0.580442 0.543579 0.766230
#
# Coordination Sequence:
#
# PCOD8249548 Si02
#       6
#     8   8   8   8   8   8
#     4  10  23  43  64  94 129 165 216 265 322 391
#     4  10  23  44  65  93 132 173 212 271 331 386
#     4  12  25  43  66  99 132 168 224 265 328 390
#     4  12  26  44  66  99 133 174 221 276 325 403
#     4  12  23  46  67  93 137 173 214 270 339 391
#     4  12  24  42  68  97 127 174 215 270 327 391
#
# _framework density 21.102336000000001
#
# number of rings (size 3 to 8) (size 9 to 14) (size 15 to 20)
#    0.000    0.667    3.333    4.000    2.333    4.000 
#    6.000    0.000    0.000    0.000    0.000    0.000 
#    0.000    0.000    0.000    0.000    0.000    0.000 
#
# Total GULP energy -595326.160353 kJ/mol
# GULP energy per Si atom -12402.628341 kJ/mol
# Density = 2.105431 g / cm^3
# Si number density = 21.102336 Si / 1000 Ang^3
#
#
#
# Elastic Constant Matrix: (Units=GPa)
#
#
# Indices 1 2 3 4 5 6 
#
# 1 121.7164 23.9799 63.9227 0.0000 0.0000 0.0000
# 2 23.9799 100.6528 25.2586 0.0000 0.0000 0.0000
# 3 63.9227 25.2586 87.6783 0.0000 0.0000 0.0000
# 4 0.0000 0.0000 0.0000 40.2426 0.0000 0.0000
# 5 0.0000 0.0000 0.0000 0.0000 38.6871 0.0000
# 6 0.0000 0.0000 0.0000 0.0000 0.0000 32.6706
#
#
#
# Elastic Compliance Matrix: (Units=1/GPa)
#
#
# Indices 1 2 3 4 5 6 
#
# 1 0.013372 -0.000797 -0.009520 0.000000 0.000000 0.000000
# 2 -0.000797 0.010757 -0.002518 0.000000 0.000000 0.000000
# 3 -0.009520 -0.002518 0.019071 0.000000 0.000000 0.000000
# 4 0.000000 0.000000 0.000000 0.024849 0.000000 0.000000
# 5 0.000000 0.000000 0.000000 0.000000 0.025848 0.000000
# 6 0.000000 0.000000 0.000000 0.000000 0.000000 0.030609
#
#
# Mechanical properties :
#
#
# Convention : Reuss Voigt Hill
#
# Bulk Modulus (GPa) = 57.04054 59.59667 58.31860
# Shear Modulus (GPa) = 32.04734 35.44580 33.74657
#
# Velocity S-wave (km/s) = 3.90123 4.10287 4.00332
# Velocity P-wave (km/s) = 6.88345 7.12375 7.00463
#
# Compressibility (1/GPa) = 0.01753139
#
# Stress axis : x y z
#
# Youngs Moduli (GPa) = 74.78122 92.96397 52.43544
#
# Poissons Ratio (x) = 0.07409 0.49917
# Poissons Ratio (y) = 0.05960 0.13202
# Poissons Ratio (z) = 0.71189 0.23407
#
# Static dielectric constant tensor:
#      x y z
#    x 3.698310 0.000000 0.000000 
#    y 0.000000 3.999070 0.000000 
#    z 0.000000 0.000000 3.885310 
# 
# 
# High freq. dielectric constant tensor:
#      x y z
#    x 1.829040 0.000000 0.000000 
#    y 0.000000 1.848480 0.000000 
#    z 0.000000 0.000000 1.831020 
# 
# From -- ./inp_files/8581.got.cif
#   From: 2010.03.12/outbox.cif.g09.slc.cpg/sg61_5_cif.got.tgz:8581.got - 2010.04.10 19:05:03.
