data_PCOD8249019
_publ_section_title
;
Structure prediction by ZEFSAII (Michael W. Deem and Ramdas Pophale) SiO2 
 PCOD8249019
Probable space group: P B C A
;
_chemical_formula_sum "Si O2"
_cell_formula_units_Z 48
_cell_length_a 8.772431
_cell_length_b 11.552599
_cell_length_c 23.381736
_cell_angle_alpha 90.000000
_cell_angle_beta 90.000000
_cell_angle_gamma 90.000000
_cell_volume 2369.607482
_symmetry_space_group_name_H-M "P B C A"
_symmetry_group_IT_number 61
_symmetry_cell_setting 'orthorhombic'
loop_
_space_group_symop_operation_xyz
x,y,z
1/2-x,-y,1/2+z
1/2+x,1/2-y,-z
-x,1/2+y,1/2-z
-x,-y,-z
1/2+x,y,1/2-z
1/2-x,1/2+y,z
x,1/2-y,1/2+z
loop_
_atom_site_type_symbol
_atom_site_label
_atom_site_fract_x
_atom_site_fract_y
_atom_site_fract_z
Si Si1 0.587812 0.127637 0.141863
Si Si2 0.676552 0.157300 0.710971
Si Si3 0.391450 0.498888 0.885995
Si Si4 0.362327 0.716084 0.955267
Si Si5 0.981894 0.898629 0.323302
Si Si6 0.488822 0.264629 0.925550
O O1 0.641132 0.210374 0.193598
O O2 0.535072 0.203709 0.087211
O O3 0.720548 0.045132 0.119378
O O4 0.461423 0.036877 0.164832
O O5 0.572519 0.070898 0.672094
O O6 0.644155 0.138445 0.777440
O O7 0.854008 0.134741 0.701539
O O8 0.399932 0.582886 0.941119
O O9 0.505099 0.391346 0.896101
O O10 0.185283 0.741646 0.943048
O O11 0.401400 0.744029 0.020151
O O12 0.949352 0.830273 0.381672
#
# Coordination Sequence:
#
# PCOD8249019 Si02
#       6
#     8   8   8   8   8   8
#     4   9  18  38  61  79 116 156 184 234 295 338
#     4  10  21  37  62  82 117 152 192 239 287 340
#     4   9  17  39  60  80 111 160 188 230 293 340
#     4  10  20  38  61  82 116 153 189 238 290 341
#     4  11  22  38  58  86 114 154 191 236 292 340
#     4  11  21  38  59  86 115 151 195 237 290 344
#
# _framework density 20.256518
#
# number of rings (size 3 to 8) (size 9 to 14) (size 15 to 20)
#    0.000    2.000    6.667    0.500    2.333    0.667 
#    6.000    1.667    0.000    0.000    0.000    0.000 
#    0.000    0.000    0.000    0.000    0.000    0.000 
#
# Total GULP energy -595003.794612 kJ/mol
# GULP energy per Si atom -12395.912388 kJ/mol
# Density = 2.021041 g / cm^3
# Si number density = 20.256518 Si / 1000 Ang^3
#
#
#
# Elastic Constant Matrix: (Units=GPa)
#
#
# Indices 1 2 3 4 5 6 
#
# 1 9.3373 9.9371 21.1591 0.0000 0.0000 0.0000
# 2 9.9371 124.6254 25.1585 0.0000 0.0000 0.0000
# 3 21.1591 25.1585 107.7529 0.0000 0.0000 0.0000
# 4 0.0000 0.0000 0.0000 25.7873 0.0000 0.0000
# 5 0.0000 0.0000 0.0000 0.0000 37.5583 0.0000
# 6 0.0000 0.0000 0.0000 0.0000 0.0000 16.2565
#
#
#
# Elastic Compliance Matrix: (Units=1/GPa)
#
#
# Indices 1 2 3 4 5 6 
#
# 1 0.201122 -0.008463 -0.037518 0.000000 0.000000 0.000000
# 2 -0.008463 0.008777 -0.000387 0.000000 0.000000 0.000000
# 3 -0.037518 -0.000387 0.016738 0.000000 0.000000 0.000000
# 4 0.000000 0.000000 0.000000 0.038779 0.000000 0.000000
# 5 0.000000 0.000000 0.000000 0.000000 0.026625 0.000000
# 6 0.000000 0.000000 0.000000 0.000000 0.000000 0.061514
#
#
# Mechanical properties :
#
#
# Convention : Reuss Voigt Hill
#
# Bulk Modulus (GPa) = 7.46819 39.35836 23.41328
# Shear Modulus (GPa) = 10.18485 28.28449 19.23467
#
# Velocity S-wave (km/s) = 2.24474 3.74078 3.08483
# Velocity P-wave (km/s) = 3.22696 6.17496 4.92663
#
# Compressibility (1/GPa) = 0.13390121
#
# Stress axis : x y z
#
# Youngs Moduli (GPa) = 4.97210 113.93339 59.74353
#
# Poissons Ratio (x) = 0.96420 2.24145
# Poissons Ratio (y) = 0.04208 0.02315
# Poissons Ratio (z) = 0.18654 0.04415
#
# Static dielectric constant tensor:
#      x y z
#    x 3.124980 0.000000 0.000000 
#    y 0.000000 4.257210 0.000000 
#    z 0.000000 0.000000 3.870760 
# 
# 
# High freq. dielectric constant tensor:
#      x y z
#    x 1.737180 0.000000 0.000000 
#    y 0.000000 1.815470 0.000000 
#    z 0.000000 0.000000 1.793680 
# 
# From -- ./inp_files/2272.got.cif
#   From: 2010.03.12/outbox.cif.g09.slc.cpg/sg61_2_cif.got.tgz:2272.got - 2010.04.10 19:05:03.
