data_PCOD8249744
_publ_section_title
;
Structure prediction by ZEFSAII (Michael W. Deem and Ramdas Pophale) SiO2 
 PCOD8249744
Probable space group: P B C A
;
_chemical_formula_sum "Si O2"
_cell_formula_units_Z 48
_cell_length_a 8.399112
_cell_length_b 16.006365
_cell_length_c 14.641023
_cell_angle_alpha 90.000000
_cell_angle_beta 90.000000
_cell_angle_gamma 90.000000
_cell_volume 1968.328186
_symmetry_space_group_name_H-M "P B C A"
_symmetry_group_IT_number 61
_symmetry_cell_setting 'orthorhombic'
loop_
_space_group_symop_operation_xyz
x,y,z
1/2-x,-y,1/2+z
1/2+x,1/2-y,-z
-x,1/2+y,1/2-z
-x,-y,-z
1/2+x,y,1/2-z
1/2-x,1/2+y,z
x,1/2-y,1/2+z
loop_
_atom_site_type_symbol
_atom_site_label
_atom_site_fract_x
_atom_site_fract_y
_atom_site_fract_z
Si Si1 0.784852 0.916988 0.298809
Si Si2 0.367466 0.663685 0.193839
Si Si3 0.196975 0.199037 0.002866
Si Si4 0.165634 0.573590 0.322548
Si Si5 0.343705 0.129195 0.519414
Si Si6 0.586515 0.824495 0.167971
O O1 0.681549 0.928772 0.391456
O O2 0.718311 0.833524 0.247987
O O3 0.968790 0.903883 0.324758
O O4 0.765334 0.993342 0.228858
O O5 0.256300 0.657549 0.283431
O O6 0.479779 0.582040 0.199739
O O7 0.485447 0.741637 0.183950
O O8 0.260572 0.658226 0.101507
O O9 0.326503 0.170882 0.929326
O O10 0.017703 0.172204 0.975495
O O11 0.207267 0.299403 0.016038
O O12 0.183665 0.569410 0.431984
#
# Coordination Sequence:
#
# PCOD8249744 Si02
#       6
#     8   8   8   8   8   8
#     4  12  26  45  72 109 150 197 244 301 373 443
#     4  11  24  45  73 105 145 193 240 302 363 435
#     4  11  22  43  74 114 139 183 252 304 361 433
#     4  11  26  46  70 106 153 194 239 302 376 440
#     4  11  24  44  75 108 150 190 246 307 372 438
#     4  12  24  45  74 108 144 195 246 306 357 442
#
# _framework density 24.386178000000001
#
# number of rings (size 3 to 8) (size 9 to 14) (size 15 to 20)
#    0.000    0.667    5.000    3.000    2.333    2.667 
#    0.000    6.667    0.000    0.000    0.000    0.000 
#    0.000    0.000    0.000    0.000    0.000    0.000 
#
# Total GULP energy -595009.688638 kJ/mol
# GULP energy per Si atom -12396.035180 kJ/mol
# Density = 2.433067 g / cm^3
# Si number density = 24.386178 Si / 1000 Ang^3
#
#
#
# Elastic Constant Matrix: (Units=GPa)
#
#
# Indices 1 2 3 4 5 6 
#
# 1 94.3172 40.0338 54.3984 0.0000 0.0000 0.0000
# 2 40.0338 79.4863 53.4375 0.0000 0.0000 0.0000
# 3 54.3984 53.4375 156.3480 0.0000 0.0000 0.0000
# 4 0.0000 0.0000 0.0000 35.6806 0.0000 0.0000
# 5 0.0000 0.0000 0.0000 0.0000 51.2263 0.0000
# 6 0.0000 0.0000 0.0000 0.0000 0.0000 28.9882
#
#
#
# Elastic Compliance Matrix: (Units=1/GPa)
#
#
# Indices 1 2 3 4 5 6 
#
# 1 0.014732 -0.005159 -0.003362 0.000000 0.000000 0.000000
# 2 -0.005159 0.018141 -0.004405 0.000000 0.000000 0.000000
# 3 -0.003362 -0.004405 0.009071 0.000000 0.000000 0.000000
# 4 0.000000 0.000000 0.000000 0.028026 0.000000 0.000000
# 5 0.000000 0.000000 0.000000 0.000000 0.019521 0.000000
# 6 0.000000 0.000000 0.000000 0.000000 0.000000 0.034497
#
#
# Mechanical properties :
#
#
# Convention : Reuss Voigt Hill
#
# Bulk Modulus (GPa) = 62.14857 69.54343 65.84600
# Shear Modulus (GPa) = 32.21539 35.33115 33.77327
#
# Velocity S-wave (km/s) = 3.63857 3.81046 3.72551
# Velocity P-wave (km/s) = 6.57212 6.92380 6.75025
#
# Compressibility (1/GPa) = 0.01609047
#
# Stress axis : x y z
#
# Youngs Moduli (GPa) = 67.88115 55.12413 110.23609
#
# Poissons Ratio (x) = 0.28440 0.37064
# Poissons Ratio (y) = 0.35022 0.48561
# Poissons Ratio (z) = 0.22823 0.24283
#
# Static dielectric constant tensor:
#      x y z
#    x 4.638840 0.000000 0.000000 
#    y 0.000000 4.073320 0.000000 
#    z 0.000000 0.000000 4.640800 
# 
# 
# High freq. dielectric constant tensor:
#      x y z
#    x 1.981780 0.000000 0.000000 
#    y 0.000000 1.950780 0.000000 
#    z 0.000000 0.000000 1.981420 
# 
# From -- ./inp_files/7042.got.cif
#   From: 2010.03.12/outbox.cif.g09.slc.cpg/sg61_4_cif.got.tgz:7042.got - 2010.04.10 19:05:03.
