data_PCOD8249016
_publ_section_title
;
Structure prediction by ZEFSAII (Michael W. Deem and Ramdas Pophale) SiO2 
 PCOD8249016
Probable space group: P B C A
;
_chemical_formula_sum "Si O2"
_cell_formula_units_Z 64
_cell_length_a 21.102259
_cell_length_b 10.349909
_cell_length_c 13.655484
_cell_angle_alpha 90.000000
_cell_angle_beta 90.000000
_cell_angle_gamma 90.000000
_cell_volume 2982.445925
_symmetry_space_group_name_H-M "P B C A"
_symmetry_group_IT_number 61
_symmetry_cell_setting 'orthorhombic'
loop_
_space_group_symop_operation_xyz
x,y,z
1/2-x,-y,1/2+z
1/2+x,1/2-y,-z
-x,1/2+y,1/2-z
-x,-y,-z
1/2+x,y,1/2-z
1/2-x,1/2+y,z
x,1/2-y,1/2+z
loop_
_atom_site_type_symbol
_atom_site_label
_atom_site_fract_x
_atom_site_fract_y
_atom_site_fract_z
Si Si1 0.991384 0.714524 0.478416
Si Si2 0.188111 0.911028 0.580350
Si Si3 0.043364 0.528671 0.636974
Si Si4 0.628982 0.131284 0.032010
Si Si5 0.063961 0.909724 0.347553
Si Si6 0.169504 0.752496 0.753400
Si Si7 0.767294 0.299007 0.558463
Si Si8 0.308698 0.464777 0.117984
O O1 0.993339 0.597937 0.400225
O O2 0.920153 0.757517 0.502878
O O3 0.025770 0.658430 0.575674
O O4 0.024078 0.844283 0.435511
O O5 0.145713 0.840014 0.662271
O O6 0.198477 0.832465 0.479176
O O7 0.151261 0.043687 0.559817
O O8 0.258301 0.919895 0.630734
O O9 0.023739 0.548936 0.750872
O O10 0.118095 0.497028 0.626652
O O11 0.691173 0.209117 0.065905
O O12 0.599626 0.037811 0.114764
O O13 0.109346 0.797311 0.311355
O O14 0.212322 0.828639 0.830678
O O15 0.208964 0.636618 0.703093
O O16 0.792090 0.413900 0.490614
#
# Coordination Sequence:
#
# PCOD8249016 Si02
#       8
#     8   8   8   8   8   8   8   8
#     4  11  25  45  65  92 129 174 220 272 322 371
#     4  10  21  38  61  95 127 161 207 259 333 379
#     4  10  24  43  67  93 127 173 217 267 322 380
#     4  11  24  41  65  94 128 169 214 271 317 384
#     4  11  24  41  67  92 128 170 220 269 314 390
#     4  10  21  35  61  89 123 165 203 256 321 390
#     4  10  20  38  60  89 127 159 201 257 324 393
#     4   9  20  37  60  88 123 161 199 259 315 384
#
# _framework density 21.458897
#
# number of rings (size 3 to 8) (size 9 to 14) (size 15 to 20)
#    0.000    1.750    1.250    1.875    8.750    1.000 
#    0.000    2.500    0.000    0.000    0.000    0.000 
#    0.000    0.000    0.000    0.000    0.000    0.000 
#
# Total GULP energy -793133.883861 kJ/mol
# GULP energy per Si atom -12392.716935 kJ/mol
# Density = 2.141006 g / cm^3
# Si number density = 21.458897 Si / 1000 Ang^3
#
#
#
# Elastic Constant Matrix: (Units=GPa)
#
#
# Indices 1 2 3 4 5 6 
#
# 1 51.6241 10.6257 21.8152 0.0000 0.0000 0.0000
# 2 10.6257 55.9548 15.6566 0.0000 0.0000 0.0000
# 3 21.8152 15.6566 102.4453 0.0000 0.0000 0.0000
# 4 0.0000 0.0000 0.0000 21.2642 0.0000 0.0000
# 5 0.0000 0.0000 0.0000 0.0000 26.4543 0.0000
# 6 0.0000 0.0000 0.0000 0.0000 0.0000 34.4345
#
#
#
# Elastic Compliance Matrix: (Units=1/GPa)
#
#
# Indices 1 2 3 4 5 6 
#
# 1 0.021746 -0.002960 -0.004178 0.000000 0.000000 0.000000
# 2 -0.002960 0.019073 -0.002285 0.000000 0.000000 0.000000
# 3 -0.004178 -0.002285 0.011000 0.000000 0.000000 0.000000
# 4 0.000000 0.000000 0.000000 0.047027 0.000000 0.000000
# 5 0.000000 0.000000 0.000000 0.000000 0.037801 0.000000
# 6 0.000000 0.000000 0.000000 0.000000 0.000000 0.029041
#
#
# Mechanical properties :
#
#
# Convention : Reuss Voigt Hill
#
# Bulk Modulus (GPa) = 30.32811 34.02435 32.17623
# Shear Modulus (GPa) = 25.57219 27.22572 26.39895
#
# Velocity S-wave (km/s) = 3.45582 3.56580 3.51124
# Velocity P-wave (km/s) = 5.48520 5.73090 5.60940
#
# Compressibility (1/GPa) = 0.03297271
#
# Stress axis : x y z
#
# Youngs Moduli (GPa) = 45.98604 52.43020 90.90767
#
# Poissons Ratio (x) = 0.15521 0.37983
# Poissons Ratio (y) = 0.13614 0.20768
# Poissons Ratio (z) = 0.19214 0.11978
#
# Static dielectric constant tensor:
#      x y z
#    x 3.816640 0.000000 0.000000 
#    y 0.000000 3.809390 0.000000 
#    z 0.000000 0.000000 4.055500 
# 
# 
# High freq. dielectric constant tensor:
#      x y z
#    x 1.832620 0.000000 0.000000 
#    y 0.000000 1.835520 0.000000 
#    z 0.000000 0.000000 1.848240 
# 
# From -- ./inp_files/6629.got.cif
#   From: 2010.03.12/outbox.cif.g09.slc.cpg/sg61_4_cif.got.tgz:6629.got - 2010.04.10 19:05:03.
