data_PCOD8249837
_publ_section_title
;
Structure prediction by ZEFSAII (Michael W. Deem and Ramdas Pophale) SiO2 
 PCOD8249837
Probable space group: P B C A
;
_chemical_formula_sum "Si O2"
_cell_formula_units_Z 64
_cell_length_a 27.120413
_cell_length_b 8.910324
_cell_length_c 11.707365
_cell_angle_alpha 90.000000
_cell_angle_beta 90.000000
_cell_angle_gamma 90.000000
_cell_volume 2829.104267
_symmetry_space_group_name_H-M "P B C A"
_symmetry_group_IT_number 61
_symmetry_cell_setting 'orthorhombic'
loop_
_space_group_symop_operation_xyz
x,y,z
1/2-x,-y,1/2+z
1/2+x,1/2-y,-z
-x,1/2+y,1/2-z
-x,-y,-z
1/2+x,y,1/2-z
1/2-x,1/2+y,z
x,1/2-y,1/2+z
loop_
_atom_site_type_symbol
_atom_site_label
_atom_site_fract_x
_atom_site_fract_y
_atom_site_fract_z
Si Si1 0.417676 0.040751 0.535664
Si Si2 0.760339 0.126973 0.665598
Si Si3 0.803584 0.638398 0.048297
Si Si4 0.669920 0.051315 0.811663
Si Si5 0.603608 0.286816 0.147216
Si Si6 0.150257 0.721769 0.687836
Si Si7 0.973424 0.945273 0.738942
Si Si8 0.555506 0.756776 0.663856
O O1 0.367109 0.106314 0.589643
O O2 0.442645 0.176019 0.463935
O O3 0.406620 0.897889 0.457549
O O4 0.453750 0.988056 0.635548
O O5 0.742568 0.266902 0.591844
O O6 0.713140 0.040495 0.717719
O O7 0.796867 0.168716 0.767924
O O8 0.789753 0.031618 0.573330
O O9 0.852736 0.673897 0.117507
O O10 0.812660 0.660504 0.913631
O O11 0.619980 0.117064 0.756927
O O12 0.656915 0.888517 0.862246
O O13 0.556837 0.186478 0.177553
O O14 0.110397 0.727727 0.790090
O O15 0.028226 0.878713 0.754741
O O16 0.973852 0.097119 0.662310
#
# Coordination Sequence:
#
# PCOD8249837 Si02
#       8
#     8   8   8   8   8   8   8   8
#     4  11  24  45  74  99 144 184 238 288 358 419
#     4  11  25  45  64 100 136 178 228 286 345 416
#     4  11  25  40  68  96 132 178 229 281 350 408
#     4  11  25  42  69  98 133 182 228 287 345 418
#     4  11  24  47  69 100 140 182 236 289 347 418
#     4  11  25  44  70 101 138 182 231 289 348 418
#     4  11  25  46  71 105 141 187 232 298 351 429
#     4  11  24  45  71 103 142 186 235 295 354 423
#
# _framework density 22.622001000000001
#
# number of rings (size 3 to 8) (size 9 to 14) (size 15 to 20)
#    0.000    1.000    2.500    3.375    5.250    4.000 
#    0.000    3.125    0.000    0.000    0.000    0.000 
#    0.000    0.000    0.000    0.000    0.000    0.000 
#
# Total GULP energy -793731.799143 kJ/mol
# GULP energy per Si atom -12402.059362 kJ/mol
# Density = 2.257051 g / cm^3
# Si number density = 22.622001 Si / 1000 Ang^3
#
#
#
# Elastic Constant Matrix: (Units=GPa)
#
#
# Indices 1 2 3 4 5 6 
#
# 1 62.0595 19.0662 7.2275 0.0000 0.0000 0.0000
# 2 19.0662 96.4112 38.5661 0.0000 0.0000 0.0000
# 3 7.2275 38.5661 96.9563 0.0000 0.0000 0.0000
# 4 0.0000 0.0000 0.0000 42.1791 0.0000 0.0000
# 5 0.0000 0.0000 0.0000 0.0000 29.6129 0.0000
# 6 0.0000 0.0000 0.0000 0.0000 0.0000 36.3664
#
#
#
# Elastic Compliance Matrix: (Units=1/GPa)
#
#
# Indices 1 2 3 4 5 6 
#
# 1 0.017156 -0.003426 0.000084 0.000000 0.000000 0.000000
# 2 -0.003426 0.013019 -0.004923 0.000000 0.000000 0.000000
# 3 0.000084 -0.004923 0.012266 0.000000 0.000000 0.000000
# 4 0.000000 0.000000 0.000000 0.023708 0.000000 0.000000
# 5 0.000000 0.000000 0.000000 0.000000 0.033769 0.000000
# 6 0.000000 0.000000 0.000000 0.000000 0.000000 0.027498
#
#
# Mechanical properties :
#
#
# Convention : Reuss Voigt Hill
#
# Bulk Modulus (GPa) = 38.59461 42.79407 40.69434
# Shear Modulus (GPa) = 32.76861 34.33617 33.55239
#
# Velocity S-wave (km/s) = 3.81008 3.90015 3.85538
# Velocity P-wave (km/s) = 6.03766 6.26416 6.15195
#
# Compressibility (1/GPa) = 0.02591036
#
# Stress axis : x y z
#
# Youngs Moduli (GPa) = 58.28703 76.80951 81.52649
#
# Poissons Ratio (x) = 0.26318 -0.00685
# Poissons Ratio (y) = 0.19972 0.40137
# Poissons Ratio (z) = -0.00490 0.37815
#
# Static dielectric constant tensor:
#      x y z
#    x 4.048850 0.000000 0.000000 
#    y 0.000000 4.275170 0.000000 
#    z 0.000000 0.000000 3.931580 
# 
# 
# High freq. dielectric constant tensor:
#      x y z
#    x 1.896670 0.000000 0.000000 
#    y 0.000000 1.905660 0.000000 
#    z 0.000000 0.000000 1.883120 
# 
# From -- ./inp_files/6778.got.cif
#   From: 2010.03.12/outbox.cif.g09.slc.cpg/sg61_4_cif.got.tgz:6778.got - 2010.04.10 19:05:03.
