data_PCOD8249871
_publ_section_title
;
Structure prediction by ZEFSAII (Michael W. Deem and Ramdas Pophale) SiO2 
 PCOD8249871
Probable space group: P B C A
;
_chemical_formula_sum "Si O2"
_cell_formula_units_Z 40
_cell_length_a 22.186142
_cell_length_b 8.774148
_cell_length_c 8.558556
_cell_angle_alpha 90.000000
_cell_angle_beta 90.000000
_cell_angle_gamma 90.000000
_cell_volume 1666.046968
_symmetry_space_group_name_H-M "P B C A"
_symmetry_group_IT_number 61
_symmetry_cell_setting 'orthorhombic'
loop_
_space_group_symop_operation_xyz
x,y,z
1/2-x,-y,1/2+z
1/2+x,1/2-y,-z
-x,1/2+y,1/2-z
-x,-y,-z
1/2+x,y,1/2-z
1/2-x,1/2+y,z
x,1/2-y,1/2+z
loop_
_atom_site_type_symbol
_atom_site_label
_atom_site_fract_x
_atom_site_fract_y
_atom_site_fract_z
Si Si1 0.543917 0.949129 0.276441
Si Si2 0.492533 0.766099 0.536966
Si Si3 0.251401 0.711508 0.842910
Si Si4 0.873816 0.617842 0.075276
Si Si5 0.202525 0.952949 0.644090
O O1 0.542616 0.817209 0.407917
O O2 0.511474 0.890195 0.119060
O O3 0.509187 0.098087 0.337469
O O4 0.610075 0.002691 0.219012
O O5 0.427632 0.738475 0.455031
O O6 0.314772 0.794925 0.869499
O O7 0.199383 0.831832 0.787410
O O8 0.257490 0.595146 0.699394
O O9 0.235263 0.624058 0.998467
O O10 0.861560 0.518464 0.917122
#
# Coordination Sequence:
#
# PCOD8249871 Si02
#       5
#     8   8   8   8   8
#     4  11  25  46  74 107 141 188 244 296 357 439
#     4  11  25  48  74 105 145 187 244 298 357 440
#     4  12  25  48  72 108 145 190 244 302 356 444
#     4  12  25  46  79 102 147 194 237 299 383 402
#     4  12  25  46  75 104 146 188 246 298 360 436
#
# _framework density 24.008927
#
# number of rings (size 3 to 8) (size 9 to 14) (size 15 to 20)
#    0.000    0.400    6.000    1.800    0.000    1.600 
#    0.000    0.000    0.000    0.000    0.000    0.000 
#    0.000    0.000    0.000    0.000    0.000    0.000 
#
# Total GULP energy -495715.505403 kJ/mol
# GULP energy per Si atom -12392.887635 kJ/mol
# Density = 2.395428 g / cm^3
# Si number density = 24.008927 Si / 1000 Ang^3
#
#
#
# Elastic Constant Matrix: (Units=GPa)
#
#
# Indices 1 2 3 4 5 6 
#
# 1 40.1822 42.6244 30.2790 0.0000 0.0000 0.0000
# 2 42.6244 119.3809 66.5499 0.0000 0.0000 0.0000
# 3 30.2790 66.5499 111.4092 0.0000 0.0000 0.0000
# 4 0.0000 0.0000 0.0000 64.3914 0.0000 0.0000
# 5 0.0000 0.0000 0.0000 0.0000 39.3071 0.0000
# 6 0.0000 0.0000 0.0000 0.0000 0.0000 40.6578
#
#
#
# Elastic Compliance Matrix: (Units=1/GPa)
#
#
# Indices 1 2 3 4 5 6 
#
# 1 0.040998 -0.012633 -0.003596 0.000000 0.000000 0.000000
# 2 -0.012633 0.016451 -0.006394 0.000000 0.000000 0.000000
# 3 -0.003596 -0.006394 0.013772 0.000000 0.000000 0.000000
# 4 0.000000 0.000000 0.000000 0.015530 0.000000 0.000000
# 5 0.000000 0.000000 0.000000 0.000000 0.025441 0.000000
# 6 0.000000 0.000000 0.000000 0.000000 0.000000 0.024596
#
#
# Mechanical properties :
#
#
# Convention : Reuss Voigt Hill
#
# Bulk Modulus (GPa) = 38.49782 61.09768 49.79775
# Shear Modulus (GPa) = 26.22027 37.63920 31.92973
#
# Velocity S-wave (km/s) = 3.30829 3.96374 3.65075
# Velocity P-wave (km/s) = 5.53738 6.81553 6.20943
#
# Compressibility (1/GPa) = 0.02597550
#
# Stress axis : x y z
#
# Youngs Moduli (GPa) = 24.39171 60.78476 72.60868
#
# Poissons Ratio (x) = 0.76792 0.26109
# Poissons Ratio (y) = 0.30815 0.46424
# Poissons Ratio (z) = 0.08771 0.38864
#
# Static dielectric constant tensor:
#      x y z
#    x 4.038720 0.000000 0.000000 
#    y 0.000000 4.849150 0.000000 
#    z 0.000000 0.000000 4.687800 
# 
# 
# High freq. dielectric constant tensor:
#      x y z
#    x 1.912130 0.000000 0.000000 
#    y 0.000000 1.978410 0.000000 
#    z 0.000000 0.000000 1.972650 
# 
# From -- ./inp_files/1744.got.cif
#   From: 2010.03.12/outbox.cif.g09.slc.cpg/sg61_1_cif.got.tgz:1744.got - 2010.04.10 19:05:03.
