data_PCOD8249325
_publ_section_title
;
Structure prediction by ZEFSAII (Michael W. Deem and Ramdas Pophale) SiO2 
 PCOD8249325
Probable space group: P B C A
;
_chemical_formula_sum "Si O2"
_cell_formula_units_Z 64
_cell_length_a 22.768495
_cell_length_b 8.976631
_cell_length_c 14.741173
_cell_angle_alpha 90.000000
_cell_angle_beta 90.000000
_cell_angle_gamma 90.000000
_cell_volume 3012.865475
_symmetry_space_group_name_H-M "P B C A"
_symmetry_group_IT_number 61
_symmetry_cell_setting 'orthorhombic'
loop_
_space_group_symop_operation_xyz
x,y,z
1/2-x,-y,1/2+z
1/2+x,1/2-y,-z
-x,1/2+y,1/2-z
-x,-y,-z
1/2+x,y,1/2-z
1/2-x,1/2+y,z
x,1/2-y,1/2+z
loop_
_atom_site_type_symbol
_atom_site_label
_atom_site_fract_x
_atom_site_fract_y
_atom_site_fract_z
Si Si1 0.308489 0.152183 0.189094
Si Si2 0.056601 0.326804 0.428429
Si Si3 0.007468 0.855647 0.888912
Si Si4 0.581803 0.141582 0.230385
Si Si5 0.198238 0.621001 0.979459
Si Si6 0.810312 0.806311 0.301165
Si Si7 0.817640 0.727798 0.009346
Si Si8 0.386590 0.318539 0.324331
O O1 0.250574 0.231178 0.228658
O O2 0.364352 0.222829 0.238976
O O3 0.302431 0.980438 0.212195
O O4 0.317100 0.174954 0.081327
O O5 0.046717 0.496920 0.399221
O O6 0.039087 0.212880 0.346960
O O7 0.124776 0.297192 0.446756
O O8 0.016525 0.293356 0.515635
O O9 0.047221 0.727287 0.846952
O O10 0.953155 0.886760 0.822760
O O11 0.635358 0.256747 0.240234
O O12 0.612208 0.990218 0.200984
O O13 0.263944 0.672120 0.954534
O O14 0.192578 0.444337 0.965564
O O15 0.153900 0.705948 0.912569
O O16 0.824728 0.755671 0.402403
#
# Coordination Sequence:
#
# PCOD8249325 Si02
#       8
#     8   8   8   8   8   8   8   8
#     4  10  23  41  66 100 137 178 213 278 343 398
#     4  11  24  46  70  96 135 186 225 284 339 399
#     4  11  27  46  67  99 133 185 233 277 338 403
#     4  12  24  44  69  97 137 176 231 285 333 404
#     4  10  24  41  66 104 136 171 221 275 341 403
#     4  10  21  42  67  97 138 171 221 273 337 404
#     4  10  21  44  69  99 135 176 214 280 337 402
#     4  12  26  42  67 103 131 179 228 277 342 406
#
# _framework density 21.242235000000001
#
# number of rings (size 3 to 8) (size 9 to 14) (size 15 to 20)
#    0.000    1.250    2.500    2.250    3.500    5.500 
#    0.000    0.000    0.000    0.000    0.000    0.000 
#    0.000    0.000    0.000    0.000    0.000    0.000 
#
# Total GULP energy -793912.078566 kJ/mol
# GULP energy per Si atom -12404.876228 kJ/mol
# Density = 2.119389 g / cm^3
# Si number density = 21.242235 Si / 1000 Ang^3
#
#
#
# Elastic Constant Matrix: (Units=GPa)
#
#
# Indices 1 2 3 4 5 6 
#
# 1 84.9561 35.7336 30.5413 0.0000 0.0000 0.0000
# 2 35.7336 91.2042 39.5853 0.0000 0.0000 0.0000
# 3 30.5413 39.5853 87.1220 0.0000 0.0000 0.0000
# 4 0.0000 0.0000 0.0000 33.0453 0.0000 0.0000
# 5 0.0000 0.0000 0.0000 0.0000 33.0744 0.0000
# 6 0.0000 0.0000 0.0000 0.0000 0.0000 37.4333
#
#
#
# Elastic Compliance Matrix: (Units=1/GPa)
#
#
# Indices 1 2 3 4 5 6 
#
# 1 0.014766 -0.004408 -0.003173 0.000000 0.000000 0.000000
# 2 -0.004408 0.014974 -0.005258 0.000000 0.000000 0.000000
# 3 -0.003173 -0.005258 0.014980 0.000000 0.000000 0.000000
# 4 0.000000 0.000000 0.000000 0.030261 0.000000 0.000000
# 5 0.000000 0.000000 0.000000 0.000000 0.030235 0.000000
# 6 0.000000 0.000000 0.000000 0.000000 0.000000 0.026714
#
#
# Mechanical properties :
#
#
# Convention : Reuss Voigt Hill
#
# Bulk Modulus (GPa) = 52.52113 52.77810 52.64961
# Shear Modulus (GPa) = 30.49611 31.20540 30.85076
#
# Velocity S-wave (km/s) = 3.79309 3.83695 3.81508
# Velocity P-wave (km/s) = 6.63038 6.67303 6.65174
#
# Compressibility (1/GPa) = 0.01903996
#
# Stress axis : x y z
#
# Youngs Moduli (GPa) = 67.72503 66.78408 66.75631
#
# Poissons Ratio (x) = 0.29437 0.21185
# Poissons Ratio (y) = 0.29851 0.35103
# Poissons Ratio (z) = 0.21492 0.35117
#
# Static dielectric constant tensor:
#      x y z
#    x 3.769140 0.000000 0.000000 
#    y 0.000000 3.741790 0.000000 
#    z 0.000000 0.000000 4.100360 
# 
# 
# High freq. dielectric constant tensor:
#      x y z
#    x 1.832900 0.000000 0.000000 
#    y 0.000000 1.835600 0.000000 
#    z 0.000000 0.000000 1.850800 
# 
# From -- ./inp_files/8518.got.cif
#   From: 2010.03.12/outbox.cif.g09.slc.cpg/sg61_5_cif.got.tgz:8518.got - 2010.04.10 19:05:03.
