data_PCOD8249467
_publ_section_title
;
Structure prediction by ZEFSAII (Michael W. Deem and Ramdas Pophale) SiO2 
 PCOD8249467
Probable space group: P B C A
;
_chemical_formula_sum "Si O2"
_cell_formula_units_Z 40
_cell_length_a 17.579780
_cell_length_b 7.183341
_cell_length_c 13.648020
_cell_angle_alpha 90.000000
_cell_angle_beta 90.000000
_cell_angle_gamma 90.000000
_cell_volume 1723.493181
_symmetry_space_group_name_H-M "P B C A"
_symmetry_group_IT_number 61
_symmetry_cell_setting 'orthorhombic'
loop_
_space_group_symop_operation_xyz
x,y,z
1/2-x,-y,1/2+z
1/2+x,1/2-y,-z
-x,1/2+y,1/2-z
-x,-y,-z
1/2+x,y,1/2-z
1/2-x,1/2+y,z
x,1/2-y,1/2+z
loop_
_atom_site_type_symbol
_atom_site_label
_atom_site_fract_x
_atom_site_fract_y
_atom_site_fract_z
Si Si1 0.380866 0.134517 0.745728
Si Si2 0.567259 0.277243 0.498076
Si Si3 0.342520 0.060663 0.536498
Si Si4 0.976353 0.049967 0.338321
Si Si5 0.686992 0.934462 0.055086
O O1 0.334147 0.052151 0.653901
O O2 0.411682 0.345305 0.725227
O O3 0.318594 0.135647 0.832548
O O4 0.452216 0.000759 0.770050
O O5 0.498294 0.308546 0.573319
O O6 0.551668 0.358756 0.389193
O O7 0.642291 0.375100 0.541311
O O8 0.582769 0.056986 0.492836
O O9 0.354339 0.274690 0.508004
O O10 0.272100 0.966247 0.480890
#
# Coordination Sequence:
#
# PCOD8249467 Si02
#       5
#     8   8   8   8   8
#     4  11  25  42  70 105 134 189 230 285 353 415
#     4  10  22  44  69  96 140 176 226 297 339 411
#     4  12  24  46  71  94 141 187 223 291 348 398
#     4  10  22  43  65 106 139 174 239 282 344 421
#     4  11  25  45  65 103 138 178 239 280 345 415
#
# _framework density 23.208680000000001
#
# number of rings (size 3 to 8) (size 9 to 14) (size 15 to 20)
#    0.000    1.200    4.000    1.200    2.800    2.400 
#    0.000    0.000    0.000    0.000    0.000    0.000 
#    0.000    0.000    0.000    0.000    0.000    0.000 
#
# Total GULP energy -495977.212567 kJ/mol
# GULP energy per Si atom -12399.430314 kJ/mol
# Density = 2.315586 g / cm^3
# Si number density = 23.208680 Si / 1000 Ang^3
#
#
#
# Elastic Constant Matrix: (Units=GPa)
#
#
# Indices 1 2 3 4 5 6 
#
# 1 64.3603 -5.8563 33.6681 0.0000 0.0000 0.0000
# 2 -5.8563 45.7668 -0.8462 0.0000 0.0000 0.0000
# 3 33.6681 -0.8462 142.6655 0.0000 0.0000 0.0000
# 4 0.0000 0.0000 0.0000 31.7385 0.0000 0.0000
# 5 0.0000 0.0000 0.0000 0.0000 44.2916 0.0000
# 6 0.0000 0.0000 0.0000 0.0000 0.0000 30.2273
#
#
#
# Elastic Compliance Matrix: (Units=1/GPa)
#
#
# Indices 1 2 3 4 5 6 
#
# 1 0.017948 0.002219 -0.004223 0.000000 0.000000 0.000000
# 2 0.002219 0.022127 -0.000392 0.000000 0.000000 0.000000
# 3 -0.004223 -0.000392 0.008004 0.000000 0.000000 0.000000
# 4 0.000000 0.000000 0.000000 0.031508 0.000000 0.000000
# 5 0.000000 0.000000 0.000000 0.000000 0.022578 0.000000
# 6 0.000000 0.000000 0.000000 0.000000 0.000000 0.033083
#
#
# Mechanical properties :
#
#
# Convention : Reuss Voigt Hill
#
# Bulk Modulus (GPa) = 23.10221 34.08041 28.59131
# Shear Modulus (GPa) = 32.36928 36.30659 34.33793
#
# Velocity S-wave (km/s) = 3.73863 3.95948 3.85064
# Velocity P-wave (km/s) = 5.34904 5.96821 5.66709
#
# Compressibility (1/GPa) = 0.04328590
#
# Stress axis : x y z
#
# Youngs Moduli (GPa) = 55.71560 45.19457 124.94432
#
# Poissons Ratio (x) = -0.10027 0.52758
# Poissons Ratio (y) = -0.12361 0.04902
# Poissons Ratio (z) = 0.23526 0.01773
#
# Static dielectric constant tensor:
#      x y z
#    x 3.882420 0.000000 0.000000 
#    y 0.000000 4.133040 0.000000 
#    z 0.000000 0.000000 4.302100 
# 
# 
# High freq. dielectric constant tensor:
#      x y z
#    x 1.905780 0.000000 0.000000 
#    y 0.000000 1.919260 0.000000 
#    z 0.000000 0.000000 1.922260 
# 
# From -- ./inp_files/6094.got.cif
#   From: 2010.03.12/outbox.cif.g09.slc.cpg/sg61_4_cif.got.tgz:6094.got - 2010.04.10 19:05:03.
