data_PCOD8249161
_publ_section_title
;
Structure prediction by ZEFSAII (Michael W. Deem and Ramdas Pophale) SiO2 
 PCOD8249161
Probable space group: P B C A
;
_chemical_formula_sum "Si O2"
_cell_formula_units_Z 64
_cell_length_a 16.347920
_cell_length_b 31.866336
_cell_length_c 5.366923
_cell_angle_alpha 90.000000
_cell_angle_beta 90.000000
_cell_angle_gamma 90.000000
_cell_volume 2795.889475
_symmetry_space_group_name_H-M "P B C A"
_symmetry_group_IT_number 61
_symmetry_cell_setting 'orthorhombic'
loop_
_space_group_symop_operation_xyz
x,y,z
1/2-x,-y,1/2+z
1/2+x,1/2-y,-z
-x,1/2+y,1/2-z
-x,-y,-z
1/2+x,y,1/2-z
1/2-x,1/2+y,z
x,1/2-y,1/2+z
loop_
_atom_site_type_symbol
_atom_site_label
_atom_site_fract_x
_atom_site_fract_y
_atom_site_fract_z
Si Si1 0.880426 0.771739 0.012343
Si Si2 0.128771 0.134838 0.077887
Si Si3 0.690760 0.634032 0.632267
Si Si4 0.355879 0.438547 0.687837
Si Si5 0.980460 0.942960 0.928775
Si Si6 0.814037 0.228290 0.545636
Si Si7 0.219120 0.094043 0.481996
Si Si8 0.901907 0.971783 0.408625
O O1 0.914987 0.744735 0.777750
O O2 0.909381 0.819251 0.964505
O O3 0.782953 0.768844 0.026626
O O4 0.212027 0.129590 0.924075
O O5 0.060580 0.101428 0.998795
O O6 0.155131 0.127505 0.365961
O O7 0.631181 0.601486 0.494399
O O8 0.656825 0.680436 0.585685
O O9 0.700893 0.619795 0.918630
O O10 0.422486 0.435957 0.909673
O O11 0.364669 0.482353 0.541530
O O12 0.261911 0.436316 0.778688
O O13 0.949862 0.959117 0.658476
O O14 0.960539 0.974147 0.161886
O O15 0.849111 0.254418 0.782482
O O16 0.169275 0.061846 0.657405
#
# Coordination Sequence:
#
# PCOD8249161 Si02
#       8
#     8   8   8   8   8   8   8   8
#     4   9  18  28  52  85 113 144 193 247 299 354
#     4   9  20  37  57  84 121 158 196 250 308 360
#     4  10  21  37  58  89 122 156 203 253 304 367
#     4  11  26  38  64  91 125 163 211 256 309 368
#     4  11  24  44  62  89 121 168 209 256 305 368
#     4   9  19  32  54  82 116 153 191 245 304 356
#     4  10  23  37  61  89 125 160 207 255 310 363
#     4  11  25  43  64  88 125 166 210 256 308 361
#
# _framework density 22.890747999999999
#
# number of rings (size 3 to 8) (size 9 to 14) (size 15 to 20)
#    0.000    2.000    1.250    0.750   15.750    0.000 
#    0.000    0.000    0.000    1.500    0.000    0.000 
#    0.000    0.000    0.000    0.000    0.000    0.000 
#
# Total GULP energy -793014.913676 kJ/mol
# GULP energy per Si atom -12390.858026 kJ/mol
# Density = 2.283865 g / cm^3
# Si number density = 22.890748 Si / 1000 Ang^3
#
#
#
# Elastic Constant Matrix: (Units=GPa)
#
#
# Indices 1 2 3 4 5 6 
#
# 1 26.0268 9.0923 5.2384 0.0000 0.0000 0.0000
# 2 9.0923 135.9089 47.4613 0.0000 0.0000 0.0000
# 3 5.2384 47.4613 114.7634 0.0000 0.0000 0.0000
# 4 0.0000 0.0000 0.0000 34.8187 0.0000 0.0000
# 5 0.0000 0.0000 0.0000 0.0000 21.7104 0.0000
# 6 0.0000 0.0000 0.0000 0.0000 0.0000 11.6372
#
#
#
# Elastic Compliance Matrix: (Units=1/GPa)
#
#
# Indices 1 2 3 4 5 6 
#
# 1 0.039409 -0.002347 -0.000828 0.000000 0.000000 0.000000
# 2 -0.002347 0.008740 -0.003507 0.000000 0.000000 0.000000
# 3 -0.000828 -0.003507 0.010202 0.000000 0.000000 0.000000
# 4 0.000000 0.000000 0.000000 0.028720 0.000000 0.000000
# 5 0.000000 0.000000 0.000000 0.000000 0.046061 0.000000
# 6 0.000000 0.000000 0.000000 0.000000 0.000000 0.085931
#
#
# Mechanical properties :
#
#
# Convention : Reuss Voigt Hill
#
# Bulk Modulus (GPa) = 22.22966 44.47591 33.35278
# Shear Modulus (GPa) = 20.20837 27.96041 24.08439
#
# Velocity S-wave (km/s) = 2.97445 3.49875 3.24720
# Velocity P-wave (km/s) = 4.63991 5.98277 5.35361
#
# Compressibility (1/GPa) = 0.04498495
#
# Stress axis : x y z
#
# Youngs Moduli (GPa) = 25.37518 114.42072 98.02175
#
# Poissons Ratio (x) = 0.26858 0.08117
# Poissons Ratio (y) = 0.05956 0.34378
# Poissons Ratio (z) = 0.02101 0.40130
#
# Static dielectric constant tensor:
#      x y z
#    x 3.655950 0.000000 0.000000 
#    y 0.000000 4.217050 0.000000 
#    z 0.000000 0.000000 4.271570 
# 
# 
# High freq. dielectric constant tensor:
#      x y z
#    x 1.858320 0.000000 0.000000 
#    y 0.000000 1.914190 0.000000 
#    z 0.000000 0.000000 1.909470 
# 
# From -- ./inp_files/848.got.cif
#   From: 2010.03.12/outbox.cif.g09.slc.cpg/sg61_1_cif.got.tgz:848.got - 2010.04.10 19:05:03.
