data_PCOD8249927
_publ_section_title
;
Structure prediction by ZEFSAII (Michael W. Deem and Ramdas Pophale) SiO2 
 PCOD8249927
Probable space group: P B C A
;
_chemical_formula_sum "Si O2"
_cell_formula_units_Z 32
_cell_length_a 9.136417
_cell_length_b 13.458632
_cell_length_c 10.951146
_cell_angle_alpha 90.000000
_cell_angle_beta 90.000000
_cell_angle_gamma 90.000000
_cell_volume 1346.593149
_symmetry_space_group_name_H-M "P B C A"
_symmetry_group_IT_number 61
_symmetry_cell_setting 'orthorhombic'
loop_
_space_group_symop_operation_xyz
x,y,z
1/2-x,-y,1/2+z
1/2+x,1/2-y,-z
-x,1/2+y,1/2-z
-x,-y,-z
1/2+x,y,1/2-z
1/2-x,1/2+y,z
x,1/2-y,1/2+z
loop_
_atom_site_type_symbol
_atom_site_label
_atom_site_fract_x
_atom_site_fract_y
_atom_site_fract_z
Si Si1 0.415079 0.850017 0.964180
Si Si2 0.773569 0.432712 0.319053
Si Si3 0.844012 0.235242 0.634287
Si Si4 0.527849 0.938946 0.725289
O O1 0.321757 0.759021 0.906906
O O2 0.461981 0.928428 0.861544
O O3 0.308997 0.904531 0.058356
O O4 0.565079 0.812952 0.024535
O O5 0.837736 0.335800 0.251704
O O6 0.905800 0.506163 0.356948
O O7 0.668881 0.491043 0.226191
O O8 0.933281 0.332925 0.670955
#
# Coordination Sequence:
#
# PCOD8249927 Si02
#       4
#     8   8   8   8
#     4  12  27  47  75 107 147 196 236 301 370 421
#     4  12  27  48  75 106 149 190 246 299 356 436
#     4  12  28  48  74 110 148 187 247 302 358 436
#     4  12  27  49  73 107 149 191 244 299 357 436
#
# _framework density 23.763672
#
# number of rings (size 3 to 8) (size 9 to 14) (size 15 to 20)
#    0.000    0.000    5.000    3.750    7.000    1.000 
#    0.000    0.000    0.000    0.000    0.000    0.000 
#    0.000    0.000    0.000    0.000    0.000    0.000 
#
# Total GULP energy -397021.739783 kJ/mol
# GULP energy per Si atom -12406.929368 kJ/mol
# Density = 2.370958 g / cm^3
# Si number density = 23.763672 Si / 1000 Ang^3
#
#
#
# Elastic Constant Matrix: (Units=GPa)
#
#
# Indices 1 2 3 4 5 6 
#
# 1 93.8404 18.5110 -7.1213 0.0000 0.0000 0.0000
# 2 18.5110 100.5856 2.7883 0.0000 0.0000 0.0000
# 3 -7.1213 2.7883 39.4220 0.0000 0.0000 0.0000
# 4 0.0000 0.0000 0.0000 21.3680 0.0000 0.0000
# 5 0.0000 0.0000 0.0000 0.0000 43.0695 0.0000
# 6 0.0000 0.0000 0.0000 0.0000 0.0000 46.9053
#
#
#
# Elastic Compliance Matrix: (Units=1/GPa)
#
#
# Indices 1 2 3 4 5 6 
#
# 1 0.011242 -0.002129 0.002181 0.000000 0.000000 0.000000
# 2 -0.002129 0.010365 -0.001118 0.000000 0.000000 0.000000
# 3 0.002181 -0.001118 0.025840 0.000000 0.000000 0.000000
# 4 0.000000 0.000000 0.000000 0.046799 0.000000 0.000000
# 5 0.000000 0.000000 0.000000 0.000000 0.023218 0.000000
# 6 0.000000 0.000000 0.000000 0.000000 0.000000 0.021320
#
#
# Mechanical properties :
#
#
# Convention : Reuss Voigt Hill
#
# Bulk Modulus (GPa) = 22.06781 29.13379 25.60080
# Shear Modulus (GPa) = 32.04731 36.91324 34.48027
#
# Velocity S-wave (km/s) = 3.67629 3.94553 3.81329
# Velocity P-wave (km/s) = 5.22749 5.74828 5.49406
#
# Compressibility (1/GPa) = 0.04531487
#
# Stress axis : x y z
#
# Youngs Moduli (GPa) = 88.95240 96.48194 38.70015
#
# Poissons Ratio (x) = 0.20544 -0.08442
# Poissons Ratio (y) = 0.18941 0.04326
# Poissons Ratio (z) = -0.19404 0.10784
#
# Static dielectric constant tensor:
#      x y z
#    x 4.688960 0.000000 0.000000 
#    y 0.000000 4.492030 0.000000 
#    z 0.000000 0.000000 4.162610 
# 
# 
# High freq. dielectric constant tensor:
#      x y z
#    x 1.965510 0.000000 0.000000 
#    y 0.000000 1.953750 0.000000 
#    z 0.000000 0.000000 1.933000 
# 
# From -- ./inp_files/2504.got.cif
#   From: 2010.03.12/outbox.cif.g09.slc.cpg/sg61_2_cif.got.tgz:2504.got - 2010.04.10 19:05:03.
