data_PCOD8249313
_publ_section_title
;
Structure prediction by ZEFSAII (Michael W. Deem and Ramdas Pophale) SiO2 
 PCOD8249313
Probable space group: P B C A
;
_chemical_formula_sum "Si O2"
_cell_formula_units_Z 64
_cell_length_a 17.854339
_cell_length_b 18.672105
_cell_length_c 8.950821
_cell_angle_alpha 90.000000
_cell_angle_beta 90.000000
_cell_angle_gamma 90.000000
_cell_volume 2984.007631
_symmetry_space_group_name_H-M "P B C A"
_symmetry_group_IT_number 61
_symmetry_cell_setting 'orthorhombic'
loop_
_space_group_symop_operation_xyz
x,y,z
1/2-x,-y,1/2+z
1/2+x,1/2-y,-z
-x,1/2+y,1/2-z
-x,-y,-z
1/2+x,y,1/2-z
1/2-x,1/2+y,z
x,1/2-y,1/2+z
loop_
_atom_site_type_symbol
_atom_site_label
_atom_site_fract_x
_atom_site_fract_y
_atom_site_fract_z
Si Si1 0.696895 0.164826 0.844104
Si Si2 0.975164 0.670210 0.782939
Si Si3 0.777968 0.696572 0.185581
Si Si4 0.692095 0.919584 0.845970
Si Si5 0.530957 0.919917 0.977233
Si Si6 0.210386 0.457952 0.373868
Si Si7 0.046753 0.072067 0.989153
Si Si8 0.552600 0.330150 0.741736
O O1 0.607136 0.164603 0.856948
O O2 0.730092 0.219444 0.720035
O O3 0.723133 0.089989 0.774372
O O4 0.731333 0.179238 0.009300
O O5 0.979300 0.632476 0.624447
O O6 0.992134 0.755044 0.766160
O O7 0.040014 0.623720 0.867620
O O8 0.718235 0.658865 0.295529
O O9 0.859046 0.677978 0.249285
O O10 0.603377 0.921690 0.872701
O O11 0.714990 0.963811 0.698254
O O12 0.726091 0.947409 0.001938
O O13 0.468560 0.866434 0.912767
O O14 0.500000 0.000000 0.000000
O O15 0.132765 0.445781 0.458379
O O16 0.029628 0.109660 0.143082
O O17 0.000000 0.000000 0.000000
#
# Coordination Sequence:
#
# PCOD8249313 Si02
#       8
#     8   8   8   8   8   8   8   8
#     4  10  21  41  71  98 127 176 227 275 340 414
#     4  10  22  39  68  98 131 173 229 276 333 410
#     4  11  22  41  70  99 130 174 225 286 338 407
#     4  12  26  42  66  99 139 178 229 286 351 408
#     4  12  25  44  67  99 135 183 227 282 345 414
#     4  11  24  42  63  98 133 176 228 283 342 415
#     4  11  22  40  65  99 131 172 225 279 340 410
#     4  11  22  41  69  95 131 175 226 282 340 406
#
# _framework density 21.447665000000001
#
# number of rings (size 3 to 8) (size 9 to 14) (size 15 to 20)
#    0.000    1.000    2.500    5.250    8.750    1.000 
#    4.500    1.250    0.000    0.000    0.000    0.000 
#    0.000    0.000    0.000    0.000    0.000    0.000 
#
# Total GULP energy -793045.114827 kJ/mol
# GULP energy per Si atom -12391.329919 kJ/mol
# Density = 2.139885 g / cm^3
# Si number density = 21.447665 Si / 1000 Ang^3
#
#
#
# Elastic Constant Matrix: (Units=GPa)
#
#
# Indices 1 2 3 4 5 6 
#
# 1 53.7678 27.8652 17.0836 0.0000 0.0000 0.0000
# 2 27.8652 127.3762 11.8047 0.0000 0.0000 0.0000
# 3 17.0836 11.8047 59.1595 0.0000 0.0000 0.0000
# 4 0.0000 0.0000 0.0000 48.3096 0.0000 0.0000
# 5 0.0000 0.0000 0.0000 0.0000 22.8798 0.0000
# 6 0.0000 0.0000 0.0000 0.0000 0.0000 28.3257
#
#
#
# Elastic Compliance Matrix: (Units=1/GPa)
#
#
# Indices 1 2 3 4 5 6 
#
# 1 0.022701 -0.004441 -0.005669 0.000000 0.000000 0.000000
# 2 -0.004441 0.008867 -0.000487 0.000000 0.000000 0.000000
# 3 -0.005669 -0.000487 0.018638 0.000000 0.000000 0.000000
# 4 0.000000 0.000000 0.000000 0.020700 0.000000 0.000000
# 5 0.000000 0.000000 0.000000 0.000000 0.043707 0.000000
# 6 0.000000 0.000000 0.000000 0.000000 0.000000 0.035304
#
#
# Mechanical properties :
#
#
# Convention : Reuss Voigt Hill
#
# Bulk Modulus (GPa) = 34.46842 39.31227 36.89035
# Shear Modulus (GPa) = 27.65770 32.13970 29.89870
#
# Velocity S-wave (km/s) = 3.59492 3.87527 3.73772
# Velocity P-wave (km/s) = 5.77383 6.19619 5.98873
#
# Compressibility (1/GPa) = 0.02901206
#
# Stress axis : x y z
#
# Youngs Moduli (GPa) = 44.05044 112.77292 53.65444
#
# Poissons Ratio (x) = 0.50080 0.30419
# Poissons Ratio (y) = 0.19562 0.02613
# Poissons Ratio (z) = 0.24974 0.05492
#
# Static dielectric constant tensor:
#      x y z
#    x 3.539940 0.000000 0.000000 
#    y 0.000000 3.959510 0.000000 
#    z 0.000000 0.000000 3.868960 
# 
# 
# High freq. dielectric constant tensor:
#      x y z
#    x 1.808220 0.000000 0.000000 
#    y 0.000000 1.860020 0.000000 
#    z 0.000000 0.000000 1.862160 
# 
# From -- ./inp_files/4062.got.cif
#   From: 2010.03.12/outbox.cif.g09.slc.cpg/sg61_3_cif.got.tgz:4062.got - 2010.04.10 19:05:03.
