data_PCOD8249194
_publ_section_title
;
Structure prediction by ZEFSAII (Michael W. Deem and Ramdas Pophale) SiO2 
 PCOD8249194
Probable space group: P B C A
;
_chemical_formula_sum "Si O2"
_cell_formula_units_Z 40
_cell_length_a 7.464846
_cell_length_b 18.881856
_cell_length_c 13.382670
_cell_angle_alpha 90.000000
_cell_angle_beta 90.000000
_cell_angle_gamma 90.000000
_cell_volume 1886.289307
_symmetry_space_group_name_H-M "P B C A"
_symmetry_group_IT_number 61
_symmetry_cell_setting 'orthorhombic'
loop_
_space_group_symop_operation_xyz
x,y,z
1/2-x,-y,1/2+z
1/2+x,1/2-y,-z
-x,1/2+y,1/2-z
-x,-y,-z
1/2+x,y,1/2-z
1/2-x,1/2+y,z
x,1/2-y,1/2+z
loop_
_atom_site_type_symbol
_atom_site_label
_atom_site_fract_x
_atom_site_fract_y
_atom_site_fract_z
Si Si1 0.285057 0.949111 0.832542
Si Si2 0.829148 0.418443 0.880431
Si Si3 0.159075 0.084888 0.919418
Si Si4 0.826057 0.153573 0.998238
Si Si5 0.566310 0.810185 0.025977
O O1 0.287151 0.918859 0.720039
O O2 0.489435 0.963710 0.865886
O O3 0.188015 0.892007 0.901647
O O4 0.179631 0.023953 0.836672
O O5 0.710852 0.450435 0.971867
O O6 0.886843 0.338055 0.912938
O O7 0.296366 0.150429 0.897831
O O8 0.955994 0.113832 0.919776
O O9 0.918907 0.226372 0.032555
O O10 0.636173 0.167467 0.945317
#
# Coordination Sequence:
#
# PCOD8249194 Si02
#       5
#     8   8   8   8   8
#     4  11  21  37  63  88 123 161 201 250 300 358
#     4   9  21  36  59  86 122 155 201 240 302 357
#     4  10  21  38  62  90 117 162 203 243 301 355
#     4  11  19  35  64  86 118 155 202 244 302 355
#     4   9  20  36  60  87 116 159 198 244 298 365
#
# _framework density 21.205656000000001
#
# number of rings (size 3 to 8) (size 9 to 14) (size 15 to 20)
#    1.200    0.800    2.000    2.400    0.000    0.000 
#    0.000    0.000    8.800    0.000    0.000    0.000 
#    0.000    0.000    0.000    0.000    0.000    0.000 
#
# Total GULP energy -495747.307579 kJ/mol
# GULP energy per Si atom -12393.682689 kJ/mol
# Density = 2.115739 g / cm^3
# Si number density = 21.205656 Si / 1000 Ang^3
#
#
#
# Elastic Constant Matrix: (Units=GPa)
#
#
# Indices 1 2 3 4 5 6 
#
# 1 113.6281 11.5473 17.9112 0.0000 0.0000 0.0000
# 2 11.5473 84.0291 14.2326 0.0000 0.0000 0.0000
# 3 17.9112 14.2326 24.5262 0.0000 0.0000 0.0000
# 4 0.0000 0.0000 0.0000 8.8607 0.0000 0.0000
# 5 0.0000 0.0000 0.0000 0.0000 19.2708 0.0000
# 6 0.0000 0.0000 0.0000 0.0000 0.0000 35.8934
#
#
#
# Elastic Compliance Matrix: (Units=1/GPa)
#
#
# Indices 1 2 3 4 5 6 
#
# 1 0.009947 -0.000151 -0.007176 0.000000 0.000000 0.000000
# 2 -0.000151 0.013200 -0.007549 0.000000 0.000000 0.000000
# 3 -0.007176 -0.007549 0.050395 0.000000 0.000000 0.000000
# 4 0.000000 0.000000 0.000000 0.112858 0.000000 0.000000
# 5 0.000000 0.000000 0.000000 0.000000 0.051892 0.000000
# 6 0.000000 0.000000 0.000000 0.000000 0.000000 0.027860
#
#
# Mechanical properties :
#
#
# Convention : Reuss Voigt Hill
#
# Bulk Modulus (GPa) = 22.83769 34.39616 28.61692
# Shear Modulus (GPa) = 16.10290 24.70447 20.40368
#
# Velocity S-wave (km/s) = 2.75865 3.41690 3.10527
# Velocity P-wave (km/s) = 4.57601 5.64114 5.13626
#
# Compressibility (1/GPa) = 0.04378727
#
# Stress axis : x y z
#
# Youngs Moduli (GPa) = 100.53019 75.75674 19.84338
#
# Poissons Ratio (x) = 0.01147 0.14241
# Poissons Ratio (y) = 0.01522 0.14981
# Poissons Ratio (z) = 0.72145 0.57192
#
# Static dielectric constant tensor:
#      x y z
#    x 4.018930 0.000000 0.000000 
#    y 0.000000 3.664280 0.000000 
#    z 0.000000 0.000000 3.288190 
# 
# 
# High freq. dielectric constant tensor:
#      x y z
#    x 1.855190 0.000000 0.000000 
#    y 0.000000 1.823250 0.000000 
#    z 0.000000 0.000000 1.774510 
# 
# From -- ./inp_files/6991.got.cif
#   From: 2010.03.12/outbox.cif.g09.slc.cpg/sg61_4_cif.got.tgz:6991.got - 2010.04.10 19:05:03.
