data_PCOD8249388
_publ_section_title
;
Structure prediction by ZEFSAII (Michael W. Deem and Ramdas Pophale) SiO2 
 PCOD8249388
Probable space group: P B C A
;
_chemical_formula_sum "Si O2"
_cell_formula_units_Z 48
_cell_length_a 11.163314
_cell_length_b 17.837049
_cell_length_c 11.569634
_cell_angle_alpha 90.000000
_cell_angle_beta 90.000000
_cell_angle_gamma 90.000000
_cell_volume 2303.752219
_symmetry_space_group_name_H-M "P B C A"
_symmetry_group_IT_number 61
_symmetry_cell_setting 'orthorhombic'
loop_
_space_group_symop_operation_xyz
x,y,z
1/2-x,-y,1/2+z
1/2+x,1/2-y,-z
-x,1/2+y,1/2-z
-x,-y,-z
1/2+x,y,1/2-z
1/2-x,1/2+y,z
x,1/2-y,1/2+z
loop_
_atom_site_type_symbol
_atom_site_label
_atom_site_fract_x
_atom_site_fract_y
_atom_site_fract_z
Si Si1 0.463532 0.815508 0.174249
Si Si2 0.513219 0.422144 0.648840
Si Si3 0.135239 0.565907 0.928841
Si Si4 0.808897 0.811886 0.537538
Si Si5 0.450118 0.151792 0.376986
Si Si6 0.370651 0.853639 0.419428
O O1 0.571409 0.862001 0.122249
O O2 0.509183 0.730423 0.177806
O O3 0.439226 0.848813 0.299232
O O4 0.342428 0.824805 0.097377
O O5 0.403384 0.441741 0.563091
O O6 0.604594 0.491878 0.644640
O O7 0.584631 0.347067 0.613840
O O8 0.458858 0.410605 0.776383
O O9 0.277238 0.577987 0.920482
O O10 0.683317 0.848351 0.571489
O O11 0.800594 0.723643 0.559499
O O12 0.535032 0.128266 0.481197
#
# Coordination Sequence:
#
# PCOD8249388 Si02
#       6
#     8   8   8   8   8   8
#     4  10  22  40  63  95 128 164 211 266 318 371
#     4  10  23  44  64  92 128 171 206 259 328 379
#     4  10  23  44  65  89 132 169 206 261 330 379
#     4  10  22  39  63  95 125 163 210 263 312 379
#     4  11  23  38  69  97 124 164 222 262 314 383
#     4  11  23  39  66  96 123 166 210 265 319 370
#
# _framework density 20.835574000000001
#
# number of rings (size 3 to 8) (size 9 to 14) (size 15 to 20)
#    0.000    1.667    3.333    0.000    4.667    1.333 
#    6.000    1.667    0.000    0.000    0.000    0.000 
#    0.000    0.000    0.000    0.000    0.000    0.000 
#
# Total GULP energy -595295.646924 kJ/mol
# GULP energy per Si atom -12401.992644 kJ/mol
# Density = 2.078815 g / cm^3
# Si number density = 20.835574 Si / 1000 Ang^3
#
#
#
# Elastic Constant Matrix: (Units=GPa)
#
#
# Indices 1 2 3 4 5 6 
#
# 1 75.6810 -0.4343 27.5842 0.0000 0.0000 0.0000
# 2 -0.4343 38.7396 19.8411 0.0000 0.0000 0.0000
# 3 27.5842 19.8411 94.4467 0.0000 0.0000 0.0000
# 4 0.0000 0.0000 0.0000 29.2341 0.0000 0.0000
# 5 0.0000 0.0000 0.0000 0.0000 20.8449 0.0000
# 6 0.0000 0.0000 0.0000 0.0000 0.0000 24.9569
#
#
#
# Elastic Compliance Matrix: (Units=1/GPa)
#
#
# Indices 1 2 3 4 5 6 
#
# 1 0.015037 0.002709 -0.004961 0.000000 0.000000 0.000000
# 2 0.002709 0.029414 -0.006970 0.000000 0.000000 0.000000
# 3 -0.004961 -0.006970 0.013501 0.000000 0.000000 0.000000
# 4 0.000000 0.000000 0.000000 0.034207 0.000000 0.000000
# 5 0.000000 0.000000 0.000000 0.000000 0.047973 0.000000
# 6 0.000000 0.000000 0.000000 0.000000 0.000000 0.040069
#
#
# Mechanical properties :
#
#
# Convention : Reuss Voigt Hill
#
# Bulk Modulus (GPa) = 25.31127 33.64991 29.48059
# Shear Modulus (GPa) = 23.60557 25.79895 24.70226
#
# Velocity S-wave (km/s) = 3.36958 3.52265 3.44696
# Velocity P-wave (km/s) = 5.22620 5.72107 5.47923
#
# Compressibility (1/GPa) = 0.03950809
#
# Stress axis : x y z
#
# Youngs Moduli (GPa) = 66.50236 33.99762 74.06737
#
# Poissons Ratio (x) = -0.09211 0.36744
# Poissons Ratio (y) = -0.18018 0.51629
# Poissons Ratio (z) = 0.32991 0.23698
#
# Static dielectric constant tensor:
#      x y z
#    x 3.621980 0.000000 0.000000 
#    y 0.000000 3.706790 0.000000 
#    z 0.000000 0.000000 3.808300 
# 
# 
# High freq. dielectric constant tensor:
#      x y z
#    x 1.810640 0.000000 0.000000 
#    y 0.000000 1.811700 0.000000 
#    z 0.000000 0.000000 1.818550 
# 
# From -- ./inp_files/5231.got.cif
#   From: 2010.03.12/outbox.cif.g09.slc.cpg/sg61_3_cif.got.tgz:5231.got - 2010.04.10 19:05:03.
