data_PCOD8249321
_publ_section_title
;
Structure prediction by ZEFSAII (Michael W. Deem and Ramdas Pophale) SiO2 
 PCOD8249321
Probable space group: P B C A
;
_chemical_formula_sum "Si O2"
_cell_formula_units_Z 32
_cell_length_a 17.950110
_cell_length_b 9.042713
_cell_length_c 7.700322
_cell_angle_alpha 90.000000
_cell_angle_beta 90.000000
_cell_angle_gamma 90.000000
_cell_volume 1249.898503
_symmetry_space_group_name_H-M "P B C A"
_symmetry_group_IT_number 61
_symmetry_cell_setting 'orthorhombic'
loop_
_space_group_symop_operation_xyz
x,y,z
1/2-x,-y,1/2+z
1/2+x,1/2-y,-z
-x,1/2+y,1/2-z
-x,-y,-z
1/2+x,y,1/2-z
1/2-x,1/2+y,z
x,1/2-y,1/2+z
loop_
_atom_site_type_symbol
_atom_site_label
_atom_site_fract_x
_atom_site_fract_y
_atom_site_fract_z
Si Si1 0.439961 0.551382 0.795603
Si Si2 0.671980 0.643447 0.638675
Si Si3 0.298510 0.452958 0.975740
Si Si4 0.015481 0.744713 0.425667
O O1 0.468034 0.381661 0.775923
O O2 0.446010 0.644690 0.615723
O O3 0.358114 0.559952 0.879565
O O4 0.500535 0.647054 0.905295
O O5 0.710697 0.804109 0.636546
O O6 0.670801 0.581949 0.833496
O O7 0.719011 0.533504 0.515131
O O8 0.589857 0.654659 0.555104
#
# Coordination Sequence:
#
# PCOD8249321 Si02
#       4
#     8   8   8   8
#     4  10  23  41  65  95 130 170 219 271 331 392
#     4  11  23  42  68  96 133 173 221 274 332 397
#     4  11  25  44  67  98 134 177 223 276 336 401
#     4  10  21  42  66  94 129 170 217 271 327 396
#
# _framework density 25.602077999999999
#
# number of rings (size 3 to 8) (size 9 to 14) (size 15 to 20)
#    0.000    1.500    0.000    6.000    0.000    9.000 
#    0.000    5.000    0.000    0.000    0.000    0.000 
#    0.000    0.000    0.000    0.000    0.000    0.000 
#
# Total GULP energy -396735.418165 kJ/mol
# GULP energy per Si atom -12397.981818 kJ/mol
# Density = 2.554381 g / cm^3
# Si number density = 25.602078 Si / 1000 Ang^3
#
#
#
# Elastic Constant Matrix: (Units=GPa)
#
#
# Indices 1 2 3 4 5 6 
#
# 1 101.0245 50.3215 34.2627 0.0000 0.0000 0.0000
# 2 50.3215 91.8158 10.8053 0.0000 0.0000 0.0000
# 3 34.2627 10.8053 19.3206 0.0000 0.0000 0.0000
# 4 0.0000 0.0000 0.0000 45.5543 0.0000 0.0000
# 5 0.0000 0.0000 0.0000 0.0000 37.2765 0.0000
# 6 0.0000 0.0000 0.0000 0.0000 0.0000 66.9009
#
#
#
# Elastic Compliance Matrix: (Units=1/GPa)
#
#
# Indices 1 2 3 4 5 6 
#
# 1 0.034549 -0.012551 -0.054249 0.000000 0.000000 0.000000
# 2 -0.012551 0.016218 0.013188 0.000000 0.000000 0.000000
# 3 -0.054249 0.013188 0.140587 0.000000 0.000000 0.000000
# 4 0.000000 0.000000 0.000000 0.021952 0.000000 0.000000
# 5 0.000000 0.000000 0.000000 0.000000 0.026827 0.000000
# 6 0.000000 0.000000 0.000000 0.000000 0.000000 0.014947
#
#
# Mechanical properties :
#
#
# Convention : Reuss Voigt Hill
#
# Bulk Modulus (GPa) = 11.88654 44.77112 28.32883
# Shear Modulus (GPa) = 12.80904 37.73108 25.27006
#
# Velocity S-wave (km/s) = 2.23919 3.84311 3.14511
# Velocity P-wave (km/s) = 3.36722 6.10065 4.92728
#
# Compressibility (1/GPa) = 0.08412880
#
# Stress axis : x y z
#
# Youngs Moduli (GPa) = 28.94420 61.65876 7.11303
#
# Poissons Ratio (x) = 0.77389 0.38588
# Poissons Ratio (y) = 0.36328 -0.09380
# Poissons Ratio (z) = 1.57020 -0.81313
#
# Static dielectric constant tensor:
#      x y z
#    x 4.382290 0.000000 0.000000 
#    y 0.000000 5.191130 0.000000 
#    z 0.000000 0.000000 4.363530 
# 
# 
# High freq. dielectric constant tensor:
#      x y z
#    x 2.008330 0.000000 0.000000 
#    y 0.000000 2.037720 0.000000 
#    z 0.000000 0.000000 2.017480 
# 
# From -- ./inp_files/3771.got.cif
#   From: 2010.03.12/outbox.cif.g09.slc.cpg/sg61_2_cif.got.tgz:3771.got - 2010.04.10 19:05:03.
