data_PCOD8249466
_publ_section_title
;
Structure prediction by ZEFSAII (Michael W. Deem and Ramdas Pophale) SiO2 
 PCOD8249466
Probable space group: P B C A
;
_chemical_formula_sum "Si O2"
_cell_formula_units_Z 64
_cell_length_a 12.965793
_cell_length_b 10.976522
_cell_length_c 20.462058
_cell_angle_alpha 90.000000
_cell_angle_beta 90.000000
_cell_angle_gamma 90.000000
_cell_volume 2912.146019
_symmetry_space_group_name_H-M "P B C A"
_symmetry_group_IT_number 61
_symmetry_cell_setting 'orthorhombic'
loop_
_space_group_symop_operation_xyz
x,y,z
1/2-x,-y,1/2+z
1/2+x,1/2-y,-z
-x,1/2+y,1/2-z
-x,-y,-z
1/2+x,y,1/2-z
1/2-x,1/2+y,z
x,1/2-y,1/2+z
loop_
_atom_site_type_symbol
_atom_site_label
_atom_site_fract_x
_atom_site_fract_y
_atom_site_fract_z
Si Si1 0.927373 0.696296 0.161400
Si Si2 0.310166 0.711184 0.720591
Si Si3 0.595075 0.622211 0.821216
Si Si4 0.295005 0.146459 0.998121
Si Si5 0.484836 0.954828 0.192659
Si Si6 0.488764 0.674957 0.557165
Si Si7 0.637617 0.379040 0.892066
Si Si8 0.183702 0.113307 0.463492
O O1 0.830381 0.740936 0.205719
O O2 0.005209 0.600000 0.194561
O O3 0.885518 0.625175 0.099768
O O4 0.002281 0.807137 0.142862
O O5 0.194236 0.703152 0.695822
O O6 0.367040 0.580885 0.710400
O O7 0.365911 0.810060 0.676142
O O8 0.561706 0.585888 0.749178
O O9 0.620234 0.519689 0.875036
O O10 0.418972 0.159792 0.995406
O O11 0.257331 0.269079 0.962195
O O12 0.259355 0.019307 0.962245
O O13 0.247459 0.139530 0.070939
O O14 0.519546 0.890494 0.124843
O O15 0.456553 0.818234 0.566115
O O16 0.387933 0.608366 0.527969
#
# Coordination Sequence:
#
# PCOD8249466 Si02
#       8
#     8   8   8   8   8   8   8   8
#     4  11  24  42  67 100 132 175 229 271 343 410
#     4  10  24  41  65  98 132 174 218 283 343 404
#     4  11  25  41  69  98 134 178 221 290 342 401
#     4  11  25  43  68  97 135 182 220 285 342 408
#     4  10  22  43  64  94 132 171 223 275 338 408
#     4  10  23  44  68  93 136 178 222 281 338 412
#     4  10  24  43  66 104 133 170 238 275 345 411
#     4  11  26  43  67 102 131 179 234 271 347 414
#
# _framework density 21.976918999999999
#
# number of rings (size 3 to 8) (size 9 to 14) (size 15 to 20)
#    0.000    1.500    2.500    0.375   10.500    1.000 
#    0.000    3.750    0.000    0.000    0.000    0.000 
#    0.000    0.000    0.000    0.000    0.000    0.000 
#
# Total GULP energy -793009.364572 kJ/mol
# GULP energy per Si atom -12390.771321 kJ/mol
# Density = 2.192690 g / cm^3
# Si number density = 21.976919 Si / 1000 Ang^3
#
#
#
# Elastic Constant Matrix: (Units=GPa)
#
#
# Indices 1 2 3 4 5 6 
#
# 1 71.2811 31.7501 21.4343 0.0000 0.0000 0.0000
# 2 31.7501 113.3424 16.7858 0.0000 0.0000 0.0000
# 3 21.4343 16.7858 76.4572 0.0000 0.0000 0.0000
# 4 0.0000 0.0000 0.0000 30.9424 0.0000 0.0000
# 5 0.0000 0.0000 0.0000 0.0000 31.1204 0.0000
# 6 0.0000 0.0000 0.0000 0.0000 0.0000 28.1793
#
#
#
# Elastic Compliance Matrix: (Units=1/GPa)
#
#
# Indices 1 2 3 4 5 6 
#
# 1 0.017064 -0.004208 -0.003860 0.000000 0.000000 0.000000
# 2 -0.004208 0.010157 -0.001050 0.000000 0.000000 0.000000
# 3 -0.003860 -0.001050 0.014392 0.000000 0.000000 0.000000
# 4 0.000000 0.000000 0.000000 0.032318 0.000000 0.000000
# 5 0.000000 0.000000 0.000000 0.000000 0.032133 0.000000
# 6 0.000000 0.000000 0.000000 0.000000 0.000000 0.035487
#
#
# Mechanical properties :
#
#
# Convention : Reuss Voigt Hill
#
# Bulk Modulus (GPa) = 42.77844 44.55791 43.66817
# Shear Modulus (GPa) = 29.83633 30.78911 30.31272
#
# Velocity S-wave (km/s) = 3.68859 3.74702 3.71792
# Velocity P-wave (km/s) = 6.13582 6.24813 6.19223
#
# Compressibility (1/GPa) = 0.02337626
#
# Stress axis : x y z
#
# Youngs Moduli (GPa) = 58.60225 98.45185 69.48373
#
# Poissons Ratio (x) = 0.41433 0.26820
# Poissons Ratio (y) = 0.24663 0.07297
# Poissons Ratio (z) = 0.22620 0.10339
#
# Static dielectric constant tensor:
#      x y z
#    x 3.804330 0.000000 0.000000 
#    y 0.000000 4.343880 0.000000 
#    z 0.000000 0.000000 3.852220 
# 
# 
# High freq. dielectric constant tensor:
#      x y z
#    x 1.849810 0.000000 0.000000 
#    y 0.000000 1.876820 0.000000 
#    z 0.000000 0.000000 1.861380 
# 
# From -- ./inp_files/11023.got.cif
#   From: 2010.03.12/outbox.cif.g09.slc.cpg/sg61_6_cif.got.tgz:11023.got - 2010.04.10 19:05:03.
