data_PCOD8249698
_publ_section_title
;
Structure prediction by ZEFSAII (Michael W. Deem and Ramdas Pophale) SiO2 
 PCOD8249698
Probable space group: P B C A
;
_chemical_formula_sum "Si O2"
_cell_formula_units_Z 40
_cell_length_a 18.808545
_cell_length_b 4.930538
_cell_length_c 17.770347
_cell_angle_alpha 90.000000
_cell_angle_beta 90.000000
_cell_angle_gamma 90.000000
_cell_volume 1647.955268
_symmetry_space_group_name_H-M "P B C A"
_symmetry_group_IT_number 61
_symmetry_cell_setting 'orthorhombic'
loop_
_space_group_symop_operation_xyz
x,y,z
1/2-x,-y,1/2+z
1/2+x,1/2-y,-z
-x,1/2+y,1/2-z
-x,-y,-z
1/2+x,y,1/2-z
1/2-x,1/2+y,z
x,1/2-y,1/2+z
loop_
_atom_site_type_symbol
_atom_site_label
_atom_site_fract_x
_atom_site_fract_y
_atom_site_fract_z
Si Si1 0.453211 0.509096 0.154484
Si Si2 0.878636 0.485995 0.909158
Si Si3 0.593280 0.710081 0.689784
Si Si4 0.706678 0.485061 0.272315
Si Si5 0.302077 0.437099 0.435204
O O1 0.443639 0.219436 0.112247
O O2 0.436584 0.485634 0.244017
O O3 0.531046 0.637203 0.143914
O O4 0.399115 0.707928 0.112295
O O5 0.809174 0.429772 0.858472
O O6 0.854886 0.460830 0.994441
O O7 0.636781 0.958963 0.724587
O O8 0.644327 0.538041 0.635090
O O9 0.726606 0.177306 0.251972
O O10 0.239402 0.654457 0.433727
#
# Coordination Sequence:
#
# PCOD8249698 Si02
#       5
#     8   8   8   8   8
#     4  11  25  44  70  98 134 183 227 276 332 407
#     4  11  24  44  68  96 134 181 228 273 336 408
#     4  11  25  44  69 101 137 173 229 283 337 394
#     4  11  21  36  61  90 125 171 216 266 329 397
#     4  12  27  46  70 103 140 176 222 286 342 399
#
# _framework density 24.272504000000001
#
# number of rings (size 3 to 8) (size 9 to 14) (size 15 to 20)
#    0.000    0.800    0.000    8.400    0.000    9.600 
#    0.000    0.000    0.000    0.000    0.000    0.000 
#    0.000    0.000    0.000    0.000    0.000    0.000 
#
# Total GULP energy -495991.603502 kJ/mol
# GULP energy per Si atom -12399.790088 kJ/mol
# Density = 2.421726 g / cm^3
# Si number density = 24.272504 Si / 1000 Ang^3
#
#
#
# Elastic Constant Matrix: (Units=GPa)
#
#
# Indices 1 2 3 4 5 6 
#
# 1 77.0799 -0.2125 30.6142 0.0000 0.0000 0.0000
# 2 -0.2125 76.4794 15.8346 0.0000 0.0000 0.0000
# 3 30.6142 15.8346 116.7355 0.0000 0.0000 0.0000
# 4 0.0000 0.0000 0.0000 26.1645 0.0000 0.0000
# 5 0.0000 0.0000 0.0000 0.0000 35.6086 0.0000
# 6 0.0000 0.0000 0.0000 0.0000 0.0000 24.7962
#
#
#
# Elastic Compliance Matrix: (Units=1/GPa)
#
#
# Indices 1 2 3 4 5 6 
#
# 1 0.014536 0.000854 -0.003928 0.000000 0.000000 0.000000
# 2 0.000854 0.013503 -0.002056 0.000000 0.000000 0.000000
# 3 -0.003928 -0.002056 0.009875 0.000000 0.000000 0.000000
# 4 0.000000 0.000000 0.000000 0.038220 0.000000 0.000000
# 5 0.000000 0.000000 0.000000 0.000000 0.028083 0.000000
# 6 0.000000 0.000000 0.000000 0.000000 0.000000 0.040329
#
#
# Mechanical properties :
#
#
# Convention : Reuss Voigt Hill
#
# Bulk Modulus (GPa) = 36.15975 40.30748 38.23362
# Shear Modulus (GPa) = 30.48331 32.25108 31.36720
#
# Velocity S-wave (km/s) = 3.54768 3.64910 3.59875
# Velocity P-wave (km/s) = 5.63127 5.86488 5.74926
#
# Compressibility (1/GPa) = 0.02765506
#
# Stress axis : x y z
#
# Youngs Moduli (GPa) = 68.79492 74.05558 101.26276
#
# Poissons Ratio (x) = -0.06322 0.39775
# Poissons Ratio (y) = -0.05873 0.20815
# Poissons Ratio (z) = 0.27022 0.15222
#
# Static dielectric constant tensor:
#      x y z
#    x 4.433400 0.000000 0.000000 
#    y 0.000000 4.280450 0.000000 
#    z 0.000000 0.000000 4.462330 
# 
# 
# High freq. dielectric constant tensor:
#      x y z
#    x 1.973590 0.000000 0.000000 
#    y 0.000000 1.972700 0.000000 
#    z 0.000000 0.000000 1.954870 
# 
# From -- ./inp_files/9737.got.cif
#   From: 2010.03.12/outbox.cif.g09.slc.cpg/sg61_5_cif.got.tgz:9737.got - 2010.04.10 19:05:03.
