data_PCOD8249895
_publ_section_title
;
Structure prediction by ZEFSAII (Michael W. Deem and Ramdas Pophale) SiO2 
 PCOD8249895
Probable space group: P B C A
;
_chemical_formula_sum "Si O2"
_cell_formula_units_Z 48
_cell_length_a 8.662883
_cell_length_b 12.835616
_cell_length_c 19.435205
_cell_angle_alpha 90.000000
_cell_angle_beta 90.000000
_cell_angle_gamma 90.000000
_cell_volume 2161.067294
_symmetry_space_group_name_H-M "P B C A"
_symmetry_group_IT_number 61
_symmetry_cell_setting 'orthorhombic'
loop_
_space_group_symop_operation_xyz
x,y,z
1/2-x,-y,1/2+z
1/2+x,1/2-y,-z
-x,1/2+y,1/2-z
-x,-y,-z
1/2+x,y,1/2-z
1/2-x,1/2+y,z
x,1/2-y,1/2+z
loop_
_atom_site_type_symbol
_atom_site_label
_atom_site_fract_x
_atom_site_fract_y
_atom_site_fract_z
Si Si1 0.112458 0.497384 0.802613
Si Si2 0.431960 0.969029 0.072441
Si Si3 0.766287 0.781342 0.728693
Si Si4 0.581848 0.026891 0.429179
Si Si5 0.449694 0.746974 0.144576
Si Si6 0.573622 0.398300 0.183415
O O1 0.194034 0.402038 0.765276
O O2 0.247942 0.572452 0.825457
O O3 0.018224 0.461968 0.869955
O O4 0.994705 0.559157 0.754475
O O5 0.260769 0.009198 0.065610
O O6 0.453863 0.846736 0.093607
O O7 0.500000 0.000000 0.000000
O O8 0.792893 0.742550 0.808521
O O9 0.596501 0.761108 0.697317
O O10 0.904906 0.726842 0.684620
O O11 0.525825 0.936827 0.378868
O O12 0.500000 0.000000 0.500000
O O13 0.544601 0.143346 0.402709
#
# Coordination Sequence:
#
# PCOD8249895 Si02
#       6
#     8   8   8   8   8   8
#     4  12  23  43  73 111 146 193 250 315 373 444
#     4  12  29  50  74 107 155 199 257 310 383 457
#     4  12  24  43  79 110 152 188 254 304 388 439
#     4  12  29  50  74 107 155 199 257 310 383 457
#     4  12  28  47  81 112 150 202 254 312 392 451
#     4  12  23  43  73 111 146 193 250 315 373 444
#
# _framework density 22.211247
#
# number of rings (size 3 to 8) (size 9 to 14) (size 15 to 20)
#    0.000    0.000    6.667    2.000    4.667    2.667 
#    0.000    0.000    0.000    0.000    0.000    0.000 
#    0.000    0.000    0.000    0.000    0.000    0.000 
#
# Total GULP energy -594705.499620 kJ/mol
# GULP energy per Si atom -12389.697909 kJ/mol
# Density = 2.216069 g / cm^3
# Si number density = 22.211247 Si / 1000 Ang^3
#
#
#
# Elastic Constant Matrix: (Units=GPa)
#
#
# Indices 1 2 3 4 5 6 
#
# 1 134.1466 12.3396 54.9491 0.0000 0.0000 0.0000
# 2 12.3396 103.5492 14.7219 0.0000 0.0000 0.0000
# 3 54.9491 14.7219 133.1055 0.0000 0.0000 0.0000
# 4 0.0000 0.0000 0.0000 40.0819 0.0000 0.0000
# 5 0.0000 0.0000 0.0000 0.0000 47.9267 0.0000
# 6 0.0000 0.0000 0.0000 0.0000 0.0000 28.5188
#
#
#
# Elastic Compliance Matrix: (Units=1/GPa)
#
#
# Indices 1 2 3 4 5 6 
#
# 1 0.009003 -0.000553 -0.003655 0.000000 0.000000 0.000000
# 2 -0.000553 0.009846 -0.000861 0.000000 0.000000 0.000000
# 3 -0.003655 -0.000861 0.009117 0.000000 0.000000 0.000000
# 4 0.000000 0.000000 0.000000 0.024949 0.000000 0.000000
# 5 0.000000 0.000000 0.000000 0.000000 0.020865 0.000000
# 6 0.000000 0.000000 0.000000 0.000000 0.000000 0.035065
#
#
# Mechanical properties :
#
#
# Convention : Reuss Voigt Hill
#
# Bulk Modulus (GPa) = 56.09438 59.42472 57.75955
# Shear Modulus (GPa) = 40.02417 42.55820 41.29118
#
# Velocity S-wave (km/s) = 4.24958 4.38204 4.31631
# Velocity P-wave (km/s) = 7.02768 7.23985 7.13455
#
# Compressibility (1/GPa) = 0.01782710
#
# Stress axis : x y z
#
# Youngs Moduli (GPa) = 111.07754 101.56908 109.68468
#
# Poissons Ratio (x) = 0.05618 0.40094
# Poissons Ratio (y) = 0.06144 0.09439
# Poissons Ratio (z) = 0.40603 0.08741
#
# Static dielectric constant tensor:
#      x y z
#    x 4.173580 0.000000 0.000000 
#    y 0.000000 4.635190 0.000000 
#    z 0.000000 0.000000 4.689610 
# 
# 
# High freq. dielectric constant tensor:
#      x y z
#    x 1.896090 0.000000 0.000000 
#    y 0.000000 1.891140 0.000000 
#    z 0.000000 0.000000 1.864820 
# 
# From -- ./inp_files/8892.got.cif
#   From: 2010.03.12/outbox.cif.g09.slc.cpg/sg61_5_cif.got.tgz:8892.got - 2010.04.10 19:05:03.
