data_PCOD8249287
_publ_section_title
;
Structure prediction by ZEFSAII (Michael W. Deem and Ramdas Pophale) SiO2 
 PCOD8249287
Probable space group: P B C A
;
_chemical_formula_sum "Si O2"
_cell_formula_units_Z 48
_cell_length_a 16.929097
_cell_length_b 11.383649
_cell_length_c 11.550816
_cell_angle_alpha 90.000000
_cell_angle_beta 90.000000
_cell_angle_gamma 90.000000
_cell_volume 2226.014329
_symmetry_space_group_name_H-M "P B C A"
_symmetry_group_IT_number 61
_symmetry_cell_setting 'orthorhombic'
loop_
_space_group_symop_operation_xyz
x,y,z
1/2-x,-y,1/2+z
1/2+x,1/2-y,-z
-x,1/2+y,1/2-z
-x,-y,-z
1/2+x,y,1/2-z
1/2-x,1/2+y,z
x,1/2-y,1/2+z
loop_
_atom_site_type_symbol
_atom_site_label
_atom_site_fract_x
_atom_site_fract_y
_atom_site_fract_z
Si Si1 0.966108 0.580585 0.281130
Si Si2 0.946304 0.772541 0.449252
Si Si3 0.331693 0.548013 0.652113
Si Si4 0.082629 0.832366 0.593409
Si Si5 0.595593 0.052693 0.594635
Si Si6 0.651001 0.919802 0.372281
O O1 0.945582 0.710109 0.325213
O O2 0.885889 0.503368 0.270765
O O3 0.016168 0.595704 0.166375
O O4 0.012434 0.512284 0.383867
O O5 0.884591 0.876984 0.436527
O O6 0.919202 0.686384 0.553321
O O7 0.036548 0.817762 0.471693
O O8 0.340356 0.415992 0.598248
O O9 0.356538 0.554441 0.785876
O O10 0.243265 0.594623 0.649096
O O11 0.109504 0.706547 0.640289
O O12 0.642363 0.977798 0.498959
#
# Coordination Sequence:
#
# PCOD8249287 Si02
#       6
#     8   8   8   8   8   8
#     4  10  21  40  70  89 125 179 224 258 328 405
#     4  11  20  42  68  92 131 171 223 267 318 401
#     4  11  27  40  65 106 133 166 227 274 334 400
#     4  11  23  42  68  98 128 172 229 273 318 406
#     4  10  21  46  66  90 131 182 214 266 341 389
#     4  11  23  45  65  94 140 175 213 280 347 379
#
# _framework density 21.563203000000001
#
# number of rings (size 3 to 8) (size 9 to 14) (size 15 to 20)
#    0.000    1.333    3.333    2.500    7.000    1.333 
#    9.000    0.000    0.000    0.000    0.000    0.000 
#    0.000    0.000    0.000    0.000    0.000    0.000 
#
# Total GULP energy -594952.461753 kJ/mol
# GULP energy per Si atom -12394.842953 kJ/mol
# Density = 2.151412 g / cm^3
# Si number density = 21.563203 Si / 1000 Ang^3
#
#
#
# Elastic Constant Matrix: (Units=GPa)
#
#
# Indices 1 2 3 4 5 6 
#
# 1 105.3483 29.2883 9.7305 0.0000 0.0000 0.0000
# 2 29.2883 110.0228 28.1148 0.0000 0.0000 0.0000
# 3 9.7305 28.1148 35.4964 0.0000 0.0000 0.0000
# 4 0.0000 0.0000 0.0000 23.6422 0.0000 0.0000
# 5 0.0000 0.0000 0.0000 0.0000 23.4945 0.0000
# 6 0.0000 0.0000 0.0000 0.0000 0.0000 33.1145
#
#
#
# Elastic Compliance Matrix: (Units=1/GPa)
#
#
# Indices 1 2 3 4 5 6 
#
# 1 0.010270 -0.002526 -0.000815 0.000000 0.000000 0.000000
# 2 -0.002526 0.012017 -0.008825 0.000000 0.000000 0.000000
# 3 -0.000815 -0.008825 0.035385 0.000000 0.000000 0.000000
# 4 0.000000 0.000000 0.000000 0.042297 0.000000 0.000000
# 5 0.000000 0.000000 0.000000 0.000000 0.042563 0.000000
# 6 0.000000 0.000000 0.000000 0.000000 0.000000 0.030198
#
#
# Mechanical properties :
#
#
# Convention : Reuss Voigt Hill
#
# Bulk Modulus (GPa) = 29.99394 42.79277 36.39336
# Shear Modulus (GPa) = 24.01823 28.29915 26.15869
#
# Velocity S-wave (km/s) = 3.34106 3.62661 3.48676
# Velocity P-wave (km/s) = 5.36876 6.11758 5.75536
#
# Compressibility (1/GPa) = 0.03334006
#
# Stress axis : x y z
#
# Youngs Moduli (GPa) = 97.37347 83.21864 28.26035
#
# Poissons Ratio (x) = 0.21018 0.02303
# Poissons Ratio (y) = 0.24593 0.24941
# Poissons Ratio (z) = 0.07934 0.73443
#
# Static dielectric constant tensor:
#      x y z
#    x 3.834860 0.000000 0.000000 
#    y 0.000000 4.171940 0.000000 
#    z 0.000000 0.000000 3.646580 
# 
# 
# High freq. dielectric constant tensor:
#      x y z
#    x 1.834590 0.000000 0.000000 
#    y 0.000000 1.866330 0.000000 
#    z 0.000000 0.000000 1.832630 
# 
# From -- ./inp_files/5225.got.cif
#   From: 2010.03.12/outbox.cif.g09.slc.cpg/sg61_3_cif.got.tgz:5225.got - 2010.04.10 19:05:03.
