data_PCOD8249565
_publ_section_title
;
Structure prediction by ZEFSAII (Michael W. Deem and Ramdas Pophale) SiO2 
 PCOD8249565
Probable space group: P B C A
;
_chemical_formula_sum "Si O2"
_cell_formula_units_Z 40
_cell_length_a 9.228666
_cell_length_b 8.572280
_cell_length_c 18.657639
_cell_angle_alpha 90.000000
_cell_angle_beta 90.000000
_cell_angle_gamma 90.000000
_cell_volume 1476.019049
_symmetry_space_group_name_H-M "P B C A"
_symmetry_group_IT_number 61
_symmetry_cell_setting 'orthorhombic'
loop_
_space_group_symop_operation_xyz
x,y,z
1/2-x,-y,1/2+z
1/2+x,1/2-y,-z
-x,1/2+y,1/2-z
-x,-y,-z
1/2+x,y,1/2-z
1/2-x,1/2+y,z
x,1/2-y,1/2+z
loop_
_atom_site_type_symbol
_atom_site_label
_atom_site_fract_x
_atom_site_fract_y
_atom_site_fract_z
Si Si1 0.320635 0.012269 0.074972
Si Si2 0.187757 0.394042 0.281364
Si Si3 0.224870 0.830237 0.436456
Si Si4 0.410148 0.300846 0.706206
Si Si5 0.562460 0.191852 0.447439
O O1 0.397199 0.137965 0.125718
O O2 0.143323 0.036797 0.083725
O O3 0.373824 0.840822 0.096547
O O4 0.358842 0.052107 0.991475
O O5 0.265409 0.406490 0.358758
O O6 0.121509 0.561736 0.263353
O O7 0.305721 0.346649 0.221612
O O8 0.073445 0.253952 0.282470
O O9 0.381834 0.785486 0.469602
O O10 0.111541 0.680115 0.437170
#
# Coordination Sequence:
#
# PCOD8249565 Si02
#       5
#     8   8   8   8   8
#     4  10  24  44  75 102 152 194 251 319 372 448
#     4  12  29  49  80 110 161 200 266 308 397 465
#     4  10  25  45  77 111 144 200 259 318 375 459
#     4  12  28  50  74 116 154 213 246 327 385 469
#     4  10  23  43  73 106 148 190 256 316 383 437
#
# _framework density 27.099920999999998
#
# number of rings (size 3 to 8) (size 9 to 14) (size 15 to 20)
#    1.200    0.000    0.000    4.200   11.200    0.800 
#    0.000    0.000    0.000    0.000    0.000    0.000 
#    0.000    0.000    0.000    0.000    0.000    0.000 
#
# Total GULP energy -495672.308837 kJ/mol
# GULP energy per Si atom -12391.807721 kJ/mol
# Density = 2.703824 g / cm^3
# Si number density = 27.099921 Si / 1000 Ang^3
#
#
#
# Elastic Constant Matrix: (Units=GPa)
#
#
# Indices 1 2 3 4 5 6 
#
# 1 78.4403 18.2556 40.3060 0.0000 0.0000 0.0000
# 2 18.2556 55.0138 11.8654 0.0000 0.0000 0.0000
# 3 40.3060 11.8654 113.2817 0.0000 0.0000 0.0000
# 4 0.0000 0.0000 0.0000 31.9848 0.0000 0.0000
# 5 0.0000 0.0000 0.0000 0.0000 30.3601 0.0000
# 6 0.0000 0.0000 0.0000 0.0000 0.0000 36.6929
#
#
#
# Elastic Compliance Matrix: (Units=1/GPa)
#
#
# Indices 1 2 3 4 5 6 
#
# 1 0.016546 -0.004318 -0.005435 0.000000 0.000000 0.000000
# 2 -0.004318 0.019724 -0.000529 0.000000 0.000000 0.000000
# 3 -0.005435 -0.000529 0.010817 0.000000 0.000000 0.000000
# 4 0.000000 0.000000 0.000000 0.031265 0.000000 0.000000
# 5 0.000000 0.000000 0.000000 0.000000 0.032938 0.000000
# 6 0.000000 0.000000 0.000000 0.000000 0.000000 0.027253
#
#
# Mechanical properties :
#
#
# Convention : Reuss Voigt Hill
#
# Bulk Modulus (GPa) = 37.70475 43.06553 40.38514
# Shear Modulus (GPa) = 29.77079 31.56147 30.66613
#
# Velocity S-wave (km/s) = 3.31804 3.41637 3.36757
# Velocity P-wave (km/s) = 5.35001 5.61142 5.48228
#
# Compressibility (1/GPa) = 0.02652186
#
# Stress axis : x y z
#
# Youngs Moduli (GPa) = 60.43657 50.69846 92.44911
#
# Poissons Ratio (x) = 0.21894 0.50245
# Poissons Ratio (y) = 0.26099 0.04895
# Poissons Ratio (z) = 0.32847 0.02684
#
# Static dielectric constant tensor:
#      x y z
#    x 4.845910 0.000000 0.000000 
#    y 0.000000 4.542650 0.000000 
#    z 0.000000 0.000000 4.750470 
# 
# 
# High freq. dielectric constant tensor:
#      x y z
#    x 2.088000 0.000000 0.000000 
#    y 0.000000 2.077010 0.000000 
#    z 0.000000 0.000000 2.086600 
# 
# From -- ./inp_files/10808.got.cif
#   From: 2010.03.12/outbox.cif.g09.slc.cpg/sg61_6_cif.got.tgz:10808.got - 2010.04.10 19:05:03.
