data_PCOD8249110
_publ_section_title
;
Structure prediction by ZEFSAII (Michael W. Deem and Ramdas Pophale) SiO2 
 PCOD8249110
Probable space group: P B C A
;
_chemical_formula_sum "Si O2"
_cell_formula_units_Z 56
_cell_length_a 20.057024
_cell_length_b 14.613477
_cell_length_c 9.237196
_cell_angle_alpha 90.000000
_cell_angle_beta 90.000000
_cell_angle_gamma 90.000000
_cell_volume 2707.448556
_symmetry_space_group_name_H-M "P B C A"
_symmetry_group_IT_number 61
_symmetry_cell_setting 'orthorhombic'
loop_
_space_group_symop_operation_xyz
x,y,z
1/2-x,-y,1/2+z
1/2+x,1/2-y,-z
-x,1/2+y,1/2-z
-x,-y,-z
1/2+x,y,1/2-z
1/2-x,1/2+y,z
x,1/2-y,1/2+z
loop_
_atom_site_type_symbol
_atom_site_label
_atom_site_fract_x
_atom_site_fract_y
_atom_site_fract_z
Si Si1 0.924015 0.901154 0.800861
Si Si2 0.260578 0.643305 0.609932
Si Si3 0.625308 0.569091 0.967578
Si Si4 0.543068 0.867299 0.883058
Si Si5 0.467034 0.283781 0.904239
Si Si6 0.779353 0.829518 0.724847
Si Si7 0.333080 0.469194 0.714146
O O1 0.853661 0.862448 0.753373
O O2 0.973729 0.917014 0.663082
O O3 0.958377 0.827341 0.910096
O O4 0.918796 0.997602 0.879680
O O5 0.188239 0.597636 0.629935
O O6 0.268158 0.675993 0.445775
O O7 0.267616 0.728639 0.715546
O O8 0.315369 0.568598 0.653513
O O9 0.581957 0.658464 0.994917
O O10 0.647228 0.521876 0.118071
O O11 0.558976 0.788296 0.761860
O O12 0.604905 0.936814 0.885164
O O13 0.533409 0.820366 0.039414
O O14 0.728494 0.899002 0.803074
#
# Coordination Sequence:
#
# PCOD8249110 Si02
#       7
#     8   8   8   8   8   8   8
#     4  10  22  39  64  91 126 162 214 265 315 394
#     4  11  25  41  68  93 132 171 216 274 322 383
#     4  10  20  42  66  93 121 174 213 263 328 381
#     4   9  21  39  64  95 128 165 214 255 328 381
#     4   9  20  37  65  90 127 165 210 260 318 385
#     4  11  25  41  64  97 126 170 218 263 327 380
#     4  10  22  43  65  93 130 167 216 267 320 388
#
# _framework density 20.683679999999999
#
# number of rings (size 3 to 8) (size 9 to 14) (size 15 to 20)
#    0.857    1.143    1.429    1.286    4.000    0.000 
#    2.571    0.714    0.000    0.000    0.000    0.000 
#    0.000    0.000    0.000    0.000    0.000    0.000 
#
# Total GULP energy -694250.841137 kJ/mol
# GULP energy per Si atom -12397.336449 kJ/mol
# Density = 2.063660 g / cm^3
# Si number density = 20.683680 Si / 1000 Ang^3
#
#
#
# Elastic Constant Matrix: (Units=GPa)
#
#
# Indices 1 2 3 4 5 6 
#
# 1 105.4537 36.4334 15.1311 0.0000 0.0000 0.0000
# 2 36.4334 61.9657 20.3710 0.0000 0.0000 0.0000
# 3 15.1311 20.3710 40.0335 0.0000 0.0000 0.0000
# 4 0.0000 0.0000 0.0000 13.9803 0.0000 0.0000
# 5 0.0000 0.0000 0.0000 0.0000 27.9553 0.0000
# 6 0.0000 0.0000 0.0000 0.0000 0.0000 24.2098
#
#
#
# Elastic Compliance Matrix: (Units=1/GPa)
#
#
# Indices 1 2 3 4 5 6 
#
# 1 0.011943 -0.006650 -0.001130 0.000000 0.000000 0.000000
# 2 -0.006650 0.023083 -0.009232 0.000000 0.000000 0.000000
# 3 -0.001130 -0.009232 0.030104 0.000000 0.000000 0.000000
# 4 0.000000 0.000000 0.000000 0.071529 0.000000 0.000000
# 5 0.000000 0.000000 0.000000 0.000000 0.035771 0.000000
# 6 0.000000 0.000000 0.000000 0.000000 0.000000 0.041306
#
#
# Mechanical properties :
#
#
# Convention : Reuss Voigt Hill
#
# Bulk Modulus (GPa) = 32.14935 39.03600 35.59268
# Shear Modulus (GPa) = 19.37016 22.26357 20.81686
#
# Velocity S-wave (km/s) = 3.06354 3.28439 3.17588
# Velocity P-wave (km/s) = 5.30007 5.77033 5.54020
#
# Compressibility (1/GPa) = 0.03110483
#
# Stress axis : x y z
#
# Youngs Moduli (GPa) = 83.73393 43.32159 33.21826
#
# Poissons Ratio (x) = 0.28810 0.03753
# Poissons Ratio (y) = 0.55686 0.30668
# Poissons Ratio (z) = 0.09460 0.39996
#
# Static dielectric constant tensor:
#      x y z
#    x 3.895140 0.000000 0.000000 
#    y 0.000000 3.501470 0.000000 
#    z 0.000000 0.000000 3.565700 
# 
# 
# High freq. dielectric constant tensor:
#      x y z
#    x 1.824190 0.000000 0.000000 
#    y 0.000000 1.799400 0.000000 
#    z 0.000000 0.000000 1.796000 
# 
# From -- ./inp_files/3976.got.cif
#   From: 2010.03.12/outbox.cif.g09.slc.cpg/sg61_2_cif.got.tgz:3976.got - 2010.04.10 19:05:03.
