data_PCOD8249416
_publ_section_title
;
Structure prediction by ZEFSAII (Michael W. Deem and Ramdas Pophale) SiO2 
 PCOD8249416
Probable space group: P B C A
;
_chemical_formula_sum "Si O2"
_cell_formula_units_Z 64
_cell_length_a 8.322125
_cell_length_b 29.427034
_cell_length_c 11.651631
_cell_angle_alpha 90.000000
_cell_angle_beta 90.000000
_cell_angle_gamma 90.000000
_cell_volume 2853.431479
_symmetry_space_group_name_H-M "P B C A"
_symmetry_group_IT_number 61
_symmetry_cell_setting 'orthorhombic'
loop_
_space_group_symop_operation_xyz
x,y,z
1/2-x,-y,1/2+z
1/2+x,1/2-y,-z
-x,1/2+y,1/2-z
-x,-y,-z
1/2+x,y,1/2-z
1/2-x,1/2+y,z
x,1/2-y,1/2+z
loop_
_atom_site_type_symbol
_atom_site_label
_atom_site_fract_x
_atom_site_fract_y
_atom_site_fract_z
Si Si1 0.183965 0.620813 0.091382
Si Si2 0.231655 0.595464 0.732894
Si Si3 0.662684 0.558619 0.999285
Si Si4 0.477332 0.198668 0.948490
Si Si5 0.045432 0.868265 0.832399
Si Si6 0.482901 0.661945 0.786752
Si Si7 0.795565 0.540328 0.554258
Si Si8 0.150615 0.796242 0.994034
O O1 0.359307 0.632917 0.136748
O O2 0.060301 0.622959 0.197054
O O3 0.122210 0.656175 0.996714
O O4 0.192341 0.570879 0.034516
O O5 0.272205 0.580563 0.601898
O O6 0.298059 0.645807 0.773862
O O7 0.045345 0.610068 0.732803
O O8 0.252283 0.553013 0.815851
O O9 0.484584 0.547605 0.957036
O O10 0.651202 0.593290 0.104643
O O11 0.750788 0.512272 0.037491
O O12 0.471695 0.198665 0.810009
O O13 0.662256 0.196951 0.984332
O O14 0.389687 0.243383 0.993499
O O15 0.113298 0.819108 0.871093
O O16 0.536224 0.679726 0.911119
#
# Coordination Sequence:
#
# PCOD8249416 Si02
#       8
#     8   8   8   8   8   8   8   8
#     4  11  24  43  67  94 139 179 222 275 342 402
#     4  12  21  43  71  98 131 182 227 286 342 407
#     4  10  22  41  66  98 137 176 228 281 345 406
#     4  12  27  44  70 101 134 175 227 281 343 414
#     4  11  23  44  65  94 136 183 220 278 339 402
#     4  12  24  44  72  97 133 175 228 282 340 406
#     4  10  22  40  67  99 134 180 225 284 341 406
#     4  12  27  45  70 101 134 175 227 283 343 416
#
# _framework density 22.429137000000001
#
# number of rings (size 3 to 8) (size 9 to 14) (size 15 to 20)
#    0.000    0.750    5.000    2.250    5.250    0.000 
#    0.000    0.625    0.000    0.000    0.000    0.000 
#    0.000    0.000    0.000    0.000    0.000    0.000 
#
# Total GULP energy -793365.601556 kJ/mol
# GULP energy per Si atom -12396.337524 kJ/mol
# Density = 2.237809 g / cm^3
# Si number density = 22.429137 Si / 1000 Ang^3
#
#
#
# Elastic Constant Matrix: (Units=GPa)
#
#
# Indices 1 2 3 4 5 6 
#
# 1 50.9474 24.1616 16.9045 0.0000 0.0000 0.0000
# 2 24.1616 89.2680 13.2300 0.0000 0.0000 0.0000
# 3 16.9045 13.2300 97.5080 0.0000 0.0000 0.0000
# 4 0.0000 0.0000 0.0000 38.5923 0.0000 0.0000
# 5 0.0000 0.0000 0.0000 0.0000 30.5012 0.0000
# 6 0.0000 0.0000 0.0000 0.0000 0.0000 32.7575
#
#
#
# Elastic Compliance Matrix: (Units=1/GPa)
#
#
# Indices 1 2 3 4 5 6 
#
# 1 0.023502 -0.005875 -0.003277 0.000000 0.000000 0.000000
# 2 -0.005875 0.012901 -0.000732 0.000000 0.000000 0.000000
# 3 -0.003277 -0.000732 0.010923 0.000000 0.000000 0.000000
# 4 0.000000 0.000000 0.000000 0.025912 0.000000 0.000000
# 5 0.000000 0.000000 0.000000 0.000000 0.032786 0.000000
# 6 0.000000 0.000000 0.000000 0.000000 0.000000 0.030527
#
#
# Mechanical properties :
#
#
# Convention : Reuss Voigt Hill
#
# Bulk Modulus (GPa) = 36.28850 38.47949 37.38399
# Shear Modulus (GPa) = 30.21053 32.59869 31.40461
#
# Velocity S-wave (km/s) = 3.67404 3.81649 3.74594
# Velocity P-wave (km/s) = 5.84914 6.05096 5.95090
#
# Compressibility (1/GPa) = 0.02755694
#
# Stress axis : x y z
#
# Youngs Moduli (GPa) = 42.54981 77.51371 91.54976
#
# Poissons Ratio (x) = 0.45542 0.30003
# Poissons Ratio (y) = 0.25000 0.06700
# Poissons Ratio (z) = 0.13945 0.05673
#
# Static dielectric constant tensor:
#      x y z
#    x 4.033660 0.000000 0.000000 
#    y 0.000000 4.148200 0.000000 
#    z 0.000000 0.000000 4.149700 
# 
# 
# High freq. dielectric constant tensor:
#      x y z
#    x 1.891920 0.000000 0.000000 
#    y 0.000000 1.880800 0.000000 
#    z 0.000000 0.000000 1.887270 
# 
# From -- ./inp_files/4967.got.cif
#   From: 2010.03.12/outbox.cif.g09.slc.cpg/sg61_3_cif.got.tgz:4967.got - 2010.04.10 19:05:03.
