data_PCOD8249392
_publ_section_title
;
Structure prediction by ZEFSAII (Michael W. Deem and Ramdas Pophale) SiO2 
 PCOD8249392
Probable space group: P B C A
;
_chemical_formula_sum "Si O2"
_cell_formula_units_Z 64
_cell_length_a 17.573485
_cell_length_b 11.422120
_cell_length_c 15.275713
_cell_angle_alpha 90.000000
_cell_angle_beta 90.000000
_cell_angle_gamma 90.000000
_cell_volume 3066.239710
_symmetry_space_group_name_H-M "P B C A"
_symmetry_group_IT_number 61
_symmetry_cell_setting 'orthorhombic'
loop_
_space_group_symop_operation_xyz
x,y,z
1/2-x,-y,1/2+z
1/2+x,1/2-y,-z
-x,1/2+y,1/2-z
-x,-y,-z
1/2+x,y,1/2-z
1/2-x,1/2+y,z
x,1/2-y,1/2+z
loop_
_atom_site_type_symbol
_atom_site_label
_atom_site_fract_x
_atom_site_fract_y
_atom_site_fract_z
Si Si1 0.563801 0.910843 0.668835
Si Si2 0.313445 0.615056 0.839670
Si Si3 0.795210 0.781282 0.823014
Si Si4 0.378367 0.245340 0.177266
Si Si5 0.400466 0.988564 0.715469
Si Si6 0.117806 0.750257 0.980365
Si Si7 0.293939 0.706124 0.487283
Si Si8 0.154270 0.982863 0.392177
O O1 0.571669 0.826251 0.753053
O O2 0.481312 0.968685 0.670801
O O3 0.567861 0.837245 0.578913
O O4 0.625213 0.013413 0.669499
O O5 0.321933 0.702498 0.757956
O O6 0.327760 0.688803 0.928440
O O7 0.230119 0.558576 0.841385
O O8 0.705805 0.809901 0.819979
O O9 0.837303 0.905046 0.826093
O O10 0.818528 0.718539 0.912651
O O11 0.372700 0.379643 0.203336
O O12 0.413718 0.240803 0.079462
O O13 0.403710 0.965884 0.819900
O O14 0.203280 0.798799 0.977547
O O15 0.112419 0.621109 0.941682
O O16 0.327103 0.581690 0.461582
#
# Coordination Sequence:
#
# PCOD8249392 Si02
#       8
#     8   8   8   8   8   8   8   8
#     4  12  26  44  63  95 139 177 219 261 339 396
#     4  11  22  40  69  90 132 176 213 273 331 381
#     4  11  24  41  70 102 127 168 232 275 324 387
#     4  11  25  45  69  98 132 174 224 277 327 392
#     4  12  26  43  69  93 138 178 219 270 333 403
#     4  10  23  41  68  95 130 173 217 275 333 386
#     4  10  22  39  68 103 128 167 230 275 324 386
#     4  11  20  43  66  94 128 170 222 279 321 385
#
# _framework density 20.872471999999998
#
# number of rings (size 3 to 8) (size 9 to 14) (size 15 to 20)
#    0.000    1.000    5.000    1.500    5.250    2.500 
#    2.250    0.625    0.000    0.000    0.000    0.000 
#    0.000    0.000    0.000    0.000    0.000    0.000 
#
# Total GULP energy -793784.429020 kJ/mol
# GULP energy per Si atom -12402.881703 kJ/mol
# Density = 2.082497 g / cm^3
# Si number density = 20.872472 Si / 1000 Ang^3
#
#
#
# Elastic Constant Matrix: (Units=GPa)
#
#
# Indices 1 2 3 4 5 6 
#
# 1 49.3369 29.9186 21.3017 0.0000 0.0000 0.0000
# 2 29.9186 51.4637 -13.8232 0.0000 0.0000 0.0000
# 3 21.3017 -13.8232 100.4327 0.0000 0.0000 0.0000
# 4 0.0000 0.0000 0.0000 28.6498 0.0000 0.0000
# 5 0.0000 0.0000 0.0000 0.0000 11.1751 0.0000
# 6 0.0000 0.0000 0.0000 0.0000 0.0000 11.1788
#
#
#
# Elastic Compliance Matrix: (Units=1/GPa)
#
#
# Indices 1 2 3 4 5 6 
#
# 1 0.043394 -0.028763 -0.013163 0.000000 0.000000 0.000000
# 2 -0.028763 0.039242 0.011502 0.000000 0.000000 0.000000
# 3 -0.013163 0.011502 0.014332 0.000000 0.000000 0.000000
# 4 0.000000 0.000000 0.000000 0.034904 0.000000 0.000000
# 5 0.000000 0.000000 0.000000 0.000000 0.089485 0.000000
# 6 0.000000 0.000000 0.000000 0.000000 0.000000 0.089455
#
#
# Mechanical properties :
#
#
# Convention : Reuss Voigt Hill
#
# Bulk Modulus (GPa) = 27.68537 30.66973 29.17755
# Shear Modulus (GPa) = 13.03102 21.12314 17.07708
#
# Velocity S-wave (km/s) = 2.50134 3.18466 2.86346
# Velocity P-wave (km/s) = 4.65136 5.31493 4.99418
#
# Compressibility (1/GPa) = 0.03612016
#
# Stress axis : x y z
#
# Youngs Moduli (GPa) = 23.04462 25.48298 69.77508
#
# Poissons Ratio (x) = 0.73296 0.91843
# Poissons Ratio (y) = 0.66283 -0.80253
# Poissons Ratio (z) = 0.30333 -0.29310
#
# Static dielectric constant tensor:
#      x y z
#    x 3.456040 0.000000 0.000000 
#    y 0.000000 3.826150 0.000000 
#    z 0.000000 0.000000 4.099800 
# 
# 
# High freq. dielectric constant tensor:
#      x y z
#    x 1.786410 0.000000 0.000000 
#    y 0.000000 1.831280 0.000000 
#    z 0.000000 0.000000 1.835570 
# 
# From -- ./inp_files/8196.got.cif
#   From: 2010.03.12/outbox.cif.g09.slc.cpg/sg61_5_cif.got.tgz:8196.got - 2010.04.10 19:05:03.
