data_PCOD8249621
_publ_section_title
;
Structure prediction by ZEFSAII (Michael W. Deem and Ramdas Pophale) SiO2 
 PCOD8249621
Probable space group: P B C A
;
_chemical_formula_sum "Si O2"
_cell_formula_units_Z 64
_cell_length_a 30.098658
_cell_length_b 10.204253
_cell_length_c 9.234292
_cell_angle_alpha 90.000000
_cell_angle_beta 90.000000
_cell_angle_gamma 90.000000
_cell_volume 2836.168005
_symmetry_space_group_name_H-M "P B C A"
_symmetry_group_IT_number 61
_symmetry_cell_setting 'orthorhombic'
loop_
_space_group_symop_operation_xyz
x,y,z
1/2-x,-y,1/2+z
1/2+x,1/2-y,-z
-x,1/2+y,1/2-z
-x,-y,-z
1/2+x,y,1/2-z
1/2-x,1/2+y,z
x,1/2-y,1/2+z
loop_
_atom_site_type_symbol
_atom_site_label
_atom_site_fract_x
_atom_site_fract_y
_atom_site_fract_z
Si Si1 0.092074 0.083498 0.955090
Si Si2 0.513649 0.283547 0.899465
Si Si3 0.276105 0.364526 0.222804
Si Si4 0.047532 0.763593 0.641868
Si Si5 0.571962 0.041715 0.861060
Si Si6 0.363130 0.853062 0.929386
Si Si7 0.740122 0.378922 0.600979
Si Si8 0.876133 0.071819 0.797213
O O1 0.071016 0.021605 0.811849
O O2 0.119369 0.208137 0.898481
O O3 0.053639 0.116519 0.071238
O O4 0.124046 0.980350 0.036600
O O5 0.494603 0.303634 0.740082
O O6 0.532015 0.134738 0.915370
O O7 0.473329 0.315934 0.008635
O O8 0.258750 0.229137 0.288693
O O9 0.254977 0.482500 0.316700
O O10 0.329303 0.360707 0.237280
O O11 0.264929 0.379588 0.052936
O O12 0.084621 0.677749 0.724398
O O13 0.067685 0.896192 0.574388
O O14 0.619246 0.098430 0.914701
O O15 0.310627 0.848268 0.932912
O O16 0.383358 0.947524 0.806784
#
# Coordination Sequence:
#
# PCOD8249621 Si02
#       8
#     8   8   8   8   8   8   8   8
#     4  11  24  43  69  98 133 181 231 294 339 419
#     4  11  24  42  63  98 132 180 238 281 344 416
#     4  11  27  48  74 113 150 193 243 306 370 450
#     4  12  25  41  67  95 139 185 224 293 350 412
#     4  11  24  41  65  99 136 181 233 289 352 416
#     4  10  24  44  71 100 134 180 236 287 349 428
#     4  11  26  46  78 108 148 192 243 301 370 451
#     4  11  27  45  67 103 144 175 235 294 359 420
#
# _framework density 22.565660000000001
#
# number of rings (size 3 to 8) (size 9 to 14) (size 15 to 20)
#    0.000    1.000    1.250    4.125   10.500    6.000 
#    0.000    0.000    0.000    0.000    0.000    0.000 
#    0.000    0.000    0.000    0.000    0.000    0.000 
#
# Total GULP energy -793775.498583 kJ/mol
# GULP energy per Si atom -12402.742165 kJ/mol
# Density = 2.251430 g / cm^3
# Si number density = 22.565660 Si / 1000 Ang^3
#
#
#
# Elastic Constant Matrix: (Units=GPa)
#
#
# Indices 1 2 3 4 5 6 
#
# 1 94.4429 34.5066 20.7062 0.0000 0.0000 0.0000
# 2 34.5066 74.2608 7.0527 0.0000 0.0000 0.0000
# 3 20.7062 7.0527 103.5392 0.0000 0.0000 0.0000
# 4 0.0000 0.0000 0.0000 38.7792 0.0000 0.0000
# 5 0.0000 0.0000 0.0000 0.0000 40.2306 0.0000
# 6 0.0000 0.0000 0.0000 0.0000 0.0000 18.7851
#
#
#
# Elastic Compliance Matrix: (Units=1/GPa)
#
#
# Indices 1 2 3 4 5 6 
#
# 1 0.013253 -0.005945 -0.002245 0.000000 0.000000 0.000000
# 2 -0.005945 0.016220 0.000084 0.000000 0.000000 0.000000
# 3 -0.002245 0.000084 0.010102 0.000000 0.000000 0.000000
# 4 0.000000 0.000000 0.000000 0.025787 0.000000 0.000000
# 5 0.000000 0.000000 0.000000 0.000000 0.024857 0.000000
# 6 0.000000 0.000000 0.000000 0.000000 0.000000 0.053234
#
#
# Mechanical properties :
#
#
# Convention : Reuss Voigt Hill
#
# Bulk Modulus (GPa) = 42.80423 44.08601 43.44512
# Shear Modulus (GPa) = 29.85929 33.55749 31.70839
#
# Velocity S-wave (km/s) = 3.64155 3.86048 3.75261
# Velocity P-wave (km/s) = 6.05732 6.28095 6.17015
#
# Compressibility (1/GPa) = 0.02336218
#
# Stress axis : x y z
#
# Youngs Moduli (GPa) = 75.45581 61.65043 98.99520
#
# Poissons Ratio (x) = 0.36651 0.22228
# Poissons Ratio (y) = 0.44858 -0.00832
# Poissons Ratio (z) = 0.16943 -0.00518
#
# Static dielectric constant tensor:
#      x y z
#    x 4.006820 0.000000 0.000000 
#    y 0.000000 4.074850 0.000000 
#    z 0.000000 0.000000 4.044860 
# 
# 
# High freq. dielectric constant tensor:
#      x y z
#    x 1.889280 0.000000 0.000000 
#    y 0.000000 1.895230 0.000000 
#    z 0.000000 0.000000 1.897810 
# 
# From -- ./inp_files/4640.got.cif
#   From: 2010.03.12/outbox.cif.g09.slc.cpg/sg61_3_cif.got.tgz:4640.got - 2010.04.10 19:05:03.
