data_PCOD8249439
_publ_section_title
;
Structure prediction by ZEFSAII (Michael W. Deem and Ramdas Pophale) SiO2 
 PCOD8249439
Probable space group: P B C A
;
_chemical_formula_sum "Si O2"
_cell_formula_units_Z 48
_cell_length_a 20.703177
_cell_length_b 11.411730
_cell_length_c 9.620823
_cell_angle_alpha 90.000000
_cell_angle_beta 90.000000
_cell_angle_gamma 90.000000
_cell_volume 2273.006657
_symmetry_space_group_name_H-M "P B C A"
_symmetry_group_IT_number 61
_symmetry_cell_setting 'orthorhombic'
loop_
_space_group_symop_operation_xyz
x,y,z
1/2-x,-y,1/2+z
1/2+x,1/2-y,-z
-x,1/2+y,1/2-z
-x,-y,-z
1/2+x,y,1/2-z
1/2-x,1/2+y,z
x,1/2-y,1/2+z
loop_
_atom_site_type_symbol
_atom_site_label
_atom_site_fract_x
_atom_site_fract_y
_atom_site_fract_z
Si Si1 0.791421 0.807813 0.948263
Si Si2 0.111292 0.920109 0.848330
Si Si3 0.088705 0.182359 0.888273
Si Si4 0.289972 0.271275 0.292494
Si Si5 0.636435 0.533960 0.854324
Si Si6 0.530524 0.358200 0.826897
O O1 0.852866 0.751190 0.029723
O O2 0.730734 0.798967 0.050773
O O3 0.772120 0.735069 0.810079
O O4 0.809519 0.939679 0.902934
O O5 0.170262 0.850542 0.776262
O O6 0.043478 0.876136 0.784353
O O7 0.116717 0.060064 0.826820
O O8 0.114416 0.891014 0.012217
O O9 0.059733 0.250802 0.759254
O O10 0.034308 0.160921 0.006251
O O11 0.335549 0.380434 0.259912
O O12 0.573709 0.471237 0.787634
#
# Coordination Sequence:
#
# PCOD8249439 Si02
#       6
#     8   8   8   8   8   8
#     4  10  23  39  65  91 128 162 211 259 316 381
#     4  10  23  40  65  92 129 169 209 263 321 379
#     4  10  22  44  63  94 124 174 209 266 320 377
#     4  12  23  41  65  96 127 166 213 264 314 386
#     4  10  23  41  62  94 124 172 204 265 328 364
#     4  10  22  41  68  87 129 166 214 259 318 380
#
# _framework density 21.117405000000002
#
# number of rings (size 3 to 8) (size 9 to 14) (size 15 to 20)
#    0.000    2.000    1.667    4.000    9.333    1.333 
#    3.000    0.833    0.000    0.000    0.000    0.000 
#    0.000    0.000    0.000    0.000    0.000    0.000 
#
# Total GULP energy -594969.681064 kJ/mol
# GULP energy per Si atom -12395.201689 kJ/mol
# Density = 2.106934 g / cm^3
# Si number density = 21.117405 Si / 1000 Ang^3
#
#
#
# Elastic Constant Matrix: (Units=GPa)
#
#
# Indices 1 2 3 4 5 6 
#
# 1 98.6681 19.9697 7.6190 0.0000 0.0000 0.0000
# 2 19.9697 48.2083 19.4155 0.0000 0.0000 0.0000
# 3 7.6190 19.4155 56.1744 0.0000 0.0000 0.0000
# 4 0.0000 0.0000 0.0000 30.0973 0.0000 0.0000
# 5 0.0000 0.0000 0.0000 0.0000 23.2022 0.0000
# 6 0.0000 0.0000 0.0000 0.0000 0.0000 27.8650
#
#
#
# Elastic Compliance Matrix: (Units=1/GPa)
#
#
# Indices 1 2 3 4 5 6 
#
# 1 0.011063 -0.004622 0.000097 0.000000 0.000000 0.000000
# 2 -0.004622 0.026028 -0.008369 0.000000 0.000000 0.000000
# 3 0.000097 -0.008369 0.020681 0.000000 0.000000 0.000000
# 4 0.000000 0.000000 0.000000 0.033226 0.000000 0.000000
# 5 0.000000 0.000000 0.000000 0.000000 0.043099 0.000000
# 6 0.000000 0.000000 0.000000 0.000000 0.000000 0.035887
#
#
# Mechanical properties :
#
#
# Convention : Reuss Voigt Hill
#
# Bulk Modulus (GPa) = 31.26529 33.00660 32.13594
# Shear Modulus (GPa) = 24.22075 26.63602 25.42839
#
# Velocity S-wave (km/s) = 3.39035 3.55537 3.47384
# Velocity P-wave (km/s) = 5.49214 5.70247 5.59829
#
# Compressibility (1/GPa) = 0.03198435
#
# Stress axis : x y z
#
# Youngs Moduli (GPa) = 90.39222 38.41946 48.35294
#
# Poissons Ratio (x) = 0.17756 -0.00469
# Poissons Ratio (y) = 0.41777 0.40468
# Poissons Ratio (z) = -0.00876 0.32155
#
# Static dielectric constant tensor:
#      x y z
#    x 3.929380 0.000000 0.000000 
#    y 0.000000 3.601960 0.000000 
#    z 0.000000 0.000000 3.711780 
# 
# 
# High freq. dielectric constant tensor:
#      x y z
#    x 1.835660 0.000000 0.000000 
#    y 0.000000 1.808640 0.000000 
#    z 0.000000 0.000000 1.817490 
# 
# From -- ./inp_files/6418.got.cif
#   From: 2010.03.12/outbox.cif.g09.slc.cpg/sg61_4_cif.got.tgz:6418.got - 2010.04.10 19:05:03.
