data_PCOD8249756
_publ_section_title
;
Structure prediction by ZEFSAII (Michael W. Deem and Ramdas Pophale) SiO2 
 PCOD8249756
Probable space group: P B C A
;
_chemical_formula_sum "Si O2"
_cell_formula_units_Z 64
_cell_length_a 14.769024
_cell_length_b 24.052036
_cell_length_c 8.551765
_cell_angle_alpha 90.000000
_cell_angle_beta 90.000000
_cell_angle_gamma 90.000000
_cell_volume 3037.801551
_symmetry_space_group_name_H-M "P B C A"
_symmetry_group_IT_number 61
_symmetry_cell_setting 'orthorhombic'
loop_
_space_group_symop_operation_xyz
x,y,z
1/2-x,-y,1/2+z
1/2+x,1/2-y,-z
-x,1/2+y,1/2-z
-x,-y,-z
1/2+x,y,1/2-z
1/2-x,1/2+y,z
x,1/2-y,1/2+z
loop_
_atom_site_type_symbol
_atom_site_label
_atom_site_fract_x
_atom_site_fract_y
_atom_site_fract_z
Si Si1 0.663780 0.855388 0.602472
Si Si2 0.514291 0.562252 0.183667
Si Si3 0.483911 0.939471 0.316291
Si Si4 0.643322 0.134683 0.234544
Si Si5 0.355518 0.131870 0.765788
Si Si6 0.930889 0.753724 0.593108
Si Si7 0.065140 0.755441 0.335899
Si Si8 0.836474 0.642923 0.603978
O O1 0.594640 0.893582 0.700222
O O2 0.759954 0.878241 0.660163
O O3 0.659386 0.858456 0.416933
O O4 0.641474 0.791410 0.640774
O O5 0.540221 0.500967 0.249031
O O6 0.427846 0.583944 0.283991
O O7 0.496172 0.556917 0.000902
O O8 0.572953 0.918664 0.221703
O O9 0.403831 0.895282 0.293496
O O10 0.608573 0.187117 0.137250
O O11 0.651515 0.142699 0.418982
O O12 0.390922 0.184676 0.864131
O O13 0.260763 0.118930 0.848218
O O14 0.858498 0.706956 0.648089
O O15 0.963744 0.747729 0.412890
O O16 0.033715 0.745713 0.656333
#
# Coordination Sequence:
#
# PCOD8249756 Si02
#       8
#     8   8   8   8   8   8   8   8
#     4  11  23  39  59  91 122 159 205 249 308 365
#     4   9  19  40  63  83 116 161 205 254 306 359
#     4   9  19  40  63  83 116 161 205 254 306 359
#     4  11  24  38  61  92 123 159 203 251 305 368
#     4  11  24  38  61  92 123 159 203 251 305 368
#     4  12  22  39  63  87 123 162 198 244 301 362
#     4  12  22  39  63  87 123 162 198 244 301 362
#     4  11  23  39  59  91 122 159 205 249 308 365
#
# _framework density 21.067868000000001
#
# number of rings (size 3 to 8) (size 9 to 14) (size 15 to 20)
#    0.000    1.250    5.000    1.500    3.500    3.000 
#    0.000    0.000    0.000    5.250    0.000    0.000 
#    0.000    0.000    0.000    0.000    0.000    0.000 
#
# Total GULP energy -792955.874490 kJ/mol
# GULP energy per Si atom -12389.935539 kJ/mol
# Density = 2.101992 g / cm^3
# Si number density = 21.067868 Si / 1000 Ang^3
#
#
#
# Elastic Constant Matrix: (Units=GPa)
#
#
# Indices 1 2 3 4 5 6 
#
# 1 129.2380 50.4306 19.9698 0.0000 0.0000 0.0000
# 2 50.4306 147.5794 20.1637 0.0000 0.0000 0.0000
# 3 19.9698 20.1637 21.9283 0.0000 0.0000 0.0000
# 4 0.0000 0.0000 0.0000 15.0817 0.0000 0.0000
# 5 0.0000 0.0000 0.0000 0.0000 41.8991 0.0000
# 6 0.0000 0.0000 0.0000 0.0000 0.0000 19.1061
#
#
#
# Elastic Compliance Matrix: (Units=1/GPa)
#
#
# Indices 1 2 3 4 5 6 
#
# 1 0.009701 -0.002411 -0.006618 0.000000 0.000000 0.000000
# 2 -0.002411 0.008349 -0.005481 0.000000 0.000000 0.000000
# 3 -0.006618 -0.005481 0.056670 0.000000 0.000000 0.000000
# 4 0.000000 0.000000 0.000000 0.066306 0.000000 0.000000
# 5 0.000000 0.000000 0.000000 0.000000 0.023867 0.000000
# 6 0.000000 0.000000 0.000000 0.000000 0.000000 0.052339
#
#
# Mechanical properties :
#
#
# Convention : Reuss Voigt Hill
#
# Bulk Modulus (GPa) = 21.88188 53.31934 37.60061
# Shear Modulus (GPa) = 19.12159 29.09616 24.10887
#
# Velocity S-wave (km/s) = 3.01594 3.72030 3.38648
# Velocity P-wave (km/s) = 4.74729 6.61948 5.75996
#
# Compressibility (1/GPa) = 0.04569992
#
# Stress axis : x y z
#
# Youngs Moduli (GPa) = 103.08256 119.77829 17.64600
#
# Poissons Ratio (x) = 0.28876 0.11678
# Poissons Ratio (y) = 0.24851 0.09673
# Poissons Ratio (z) = 0.68217 0.65655
#
# Static dielectric constant tensor:
#      x y z
#    x 4.009960 0.000000 0.000000 
#    y 0.000000 3.989600 0.000000 
#    z 0.000000 0.000000 3.629170 
# 
# 
# High freq. dielectric constant tensor:
#      x y z
#    x 1.827920 0.000000 0.000000 
#    y 0.000000 1.820450 0.000000 
#    z 0.000000 0.000000 1.813970 
# 
# From -- ./inp_files/3182.got.cif
#   From: 2010.03.12/outbox.cif.g09.slc.cpg/sg61_2_cif.got.tgz:3182.got - 2010.04.10 19:05:03.
