data_PCOD8249379
_publ_section_title
;
Structure prediction by ZEFSAII (Michael W. Deem and Ramdas Pophale) SiO2 
 PCOD8249379
Probable space group: P B C A
;
_chemical_formula_sum "Si O2"
_cell_formula_units_Z 48
_cell_length_a 11.615430
_cell_length_b 34.619461
_cell_length_c 4.983740
_cell_angle_alpha 90.000000
_cell_angle_beta 90.000000
_cell_angle_gamma 90.000000
_cell_volume 2004.061159
_symmetry_space_group_name_H-M "P B C A"
_symmetry_group_IT_number 61
_symmetry_cell_setting 'orthorhombic'
loop_
_space_group_symop_operation_xyz
x,y,z
1/2-x,-y,1/2+z
1/2+x,1/2-y,-z
-x,1/2+y,1/2-z
-x,-y,-z
1/2+x,y,1/2-z
1/2-x,1/2+y,z
x,1/2-y,1/2+z
loop_
_atom_site_type_symbol
_atom_site_label
_atom_site_fract_x
_atom_site_fract_y
_atom_site_fract_z
Si Si1 0.671313 0.044142 0.711523
Si Si2 0.176834 0.545222 0.288532
Si Si3 0.494165 0.775612 0.048809
Si Si4 0.173184 0.659961 0.967771
Si Si5 0.000612 0.404910 0.999651
Si Si6 0.678221 0.342611 0.532280
O O1 0.719987 0.054830 0.419723
O O2 0.553201 0.067148 0.770234
O O3 0.773718 0.055190 0.918973
O O4 0.639539 0.999229 0.736605
O O5 0.211552 0.656473 0.275976
O O6 0.062463 0.570065 0.230555
O O7 0.486339 0.738900 0.853705
O O8 0.615059 0.798130 0.047460
O O9 0.392913 0.803298 0.946481
O O10 0.087654 0.625887 0.874624
O O11 0.282901 0.655512 0.776579
O O12 0.104238 0.379719 0.876820
#
# Coordination Sequence:
#
# PCOD8249379 Si02
#       6
#     8   8   8   8   8   8
#     4  10  22  39  60  88 120 157 203 253 302 350
#     4  10  22  39  60  88 120 157 203 253 302 350
#     4  11  24  42  67  94 119 156 201 242 295 358
#     4  11  25  42  62  91 125 159 197 245 298 353
#     4  11  23  40  63  88 122 162 204 244 297 360
#     4  11  25  42  62  91 125 159 197 245 298 353
#
# _framework density 23.951363000000001
#
# number of rings (size 3 to 8) (size 9 to 14) (size 15 to 20)
#    0.000    1.333    0.000    4.500    0.000   12.000 
#    0.000    5.000    0.000    0.000    0.000    0.000 
#    0.000    0.000    0.000    0.000    0.000    0.000 
#
# Total GULP energy -595353.861998 kJ/mol
# GULP energy per Si atom -12403.205458 kJ/mol
# Density = 2.389685 g / cm^3
# Si number density = 23.951363 Si / 1000 Ang^3
#
#
#
# Elastic Constant Matrix: (Units=GPa)
#
#
# Indices 1 2 3 4 5 6 
#
# 1 84.1060 38.6022 4.6159 0.0000 0.0000 0.0000
# 2 38.6022 110.0484 12.3169 0.0000 0.0000 0.0000
# 3 4.6159 12.3169 74.0794 0.0000 0.0000 0.0000
# 4 0.0000 0.0000 0.0000 20.5320 0.0000 0.0000
# 5 0.0000 0.0000 0.0000 0.0000 12.7242 0.0000
# 6 0.0000 0.0000 0.0000 0.0000 0.0000 45.1075
#
#
#
# Elastic Compliance Matrix: (Units=1/GPa)
#
#
# Indices 1 2 3 4 5 6 
#
# 1 0.014172 -0.004965 -0.000058 0.000000 0.000000 0.000000
# 2 -0.004965 0.010998 -0.001519 0.000000 0.000000 0.000000
# 3 -0.000058 -0.001519 0.013755 0.000000 0.000000 0.000000
# 4 0.000000 0.000000 0.000000 0.048704 0.000000 0.000000
# 5 0.000000 0.000000 0.000000 0.000000 0.078590 0.000000
# 6 0.000000 0.000000 0.000000 0.000000 0.000000 0.022169
#
#
# Mechanical properties :
#
#
# Convention : Reuss Voigt Hill
#
# Bulk Modulus (GPa) = 38.69639 42.14485 40.42062
# Shear Modulus (GPa) = 23.79975 29.85267 26.82621
#
# Velocity S-wave (km/s) = 3.15567 3.53425 3.35031
# Velocity P-wave (km/s) = 5.42854 5.85566 5.64614
#
# Compressibility (1/GPa) = 0.02584220
#
# Stress axis : x y z
#
# Youngs Moduli (GPa) = 70.56413 90.92231 72.69966
#
# Poissons Ratio (x) = 0.45139 0.00419
# Poissons Ratio (y) = 0.35032 0.11045
# Poissons Ratio (z) = 0.00406 0.13814
#
# Static dielectric constant tensor:
#      x y z
#    x 4.282620 0.000000 0.000000 
#    y 0.000000 4.497220 0.000000 
#    z 0.000000 0.000000 4.009760 
# 
# 
# High freq. dielectric constant tensor:
#      x y z
#    x 1.951720 0.000000 0.000000 
#    y 0.000000 1.968710 0.000000 
#    z 0.000000 0.000000 1.941640 
# 
# From -- ./inp_files/542.got.cif
#   From: 2010.03.12/outbox.cif.g09.slc.cpg/sg61_1_cif.got.tgz:542.got - 2010.04.10 19:05:03.
