data_PCOD8249693
_publ_section_title
;
Structure prediction by ZEFSAII (Michael W. Deem and Ramdas Pophale) SiO2 
 PCOD8249693
Probable space group: P B C A
;
_chemical_formula_sum "Si O2"
_cell_formula_units_Z 48
_cell_length_a 14.010107
_cell_length_b 9.195906
_cell_length_c 17.970990
_cell_angle_alpha 90.000000
_cell_angle_beta 90.000000
_cell_angle_gamma 90.000000
_cell_volume 2315.303765
_symmetry_space_group_name_H-M "P B C A"
_symmetry_group_IT_number 61
_symmetry_cell_setting 'orthorhombic'
loop_
_space_group_symop_operation_xyz
x,y,z
1/2-x,-y,1/2+z
1/2+x,1/2-y,-z
-x,1/2+y,1/2-z
-x,-y,-z
1/2+x,y,1/2-z
1/2-x,1/2+y,z
x,1/2-y,1/2+z
loop_
_atom_site_type_symbol
_atom_site_label
_atom_site_fract_x
_atom_site_fract_y
_atom_site_fract_z
Si Si1 0.300055 0.813106 0.359722
Si Si2 0.431075 0.128513 0.983680
Si Si3 0.090570 0.767091 0.318358
Si Si4 0.930564 0.088491 0.947251
Si Si5 0.522302 0.052833 0.703497
Si Si6 0.247355 0.448127 0.961654
O O1 0.205081 0.789800 0.310141
O O2 0.396054 0.822225 0.310027
O O3 0.304177 0.694117 0.426667
O O4 0.303959 0.975297 0.394507
O O5 0.439157 0.212740 0.904694
O O6 0.325854 0.065283 0.993364
O O7 0.457601 0.242300 0.047512
O O8 0.500000 0.000000 0.000000
O O9 0.064347 0.609279 0.284813
O O10 0.036100 0.896085 0.275509
O O11 0.945133 0.040774 0.862827
O O12 0.819734 0.083201 0.971400
O O13 0.000000 0.000000 0.000000
#
# Coordination Sequence:
#
# PCOD8249693 Si02
#       6
#     8   8   8   8   8   8
#     4  11  20  44  68  90 130 183 217 263 340 403
#     4  11  24  41  68 100 130 171 230 272 332 402
#     4  11  26  44  64 103 130 180 225 268 340 408
#     4  12  21  43  67  98 128 171 221 281 333 389
#     4  12  26  43  71  95 142 175 225 282 337 407
#     4  11  21  39  69  95 128 172 224 271 329 403
#
# _framework density 20.731621000000001
#
# number of rings (size 3 to 8) (size 9 to 14) (size 15 to 20)
#    0.000    0.667    8.333    1.000    7.000    0.000 
#    3.000    0.000    0.000    0.000    0.000    0.000 
#    0.000    0.000    0.000    0.000    0.000    0.000 
#
# Total GULP energy -594920.715875 kJ/mol
# GULP energy per Si atom -12394.181581 kJ/mol
# Density = 2.068444 g / cm^3
# Si number density = 20.731621 Si / 1000 Ang^3
#
#
#
# Elastic Constant Matrix: (Units=GPa)
#
#
# Indices 1 2 3 4 5 6 
#
# 1 83.8563 28.7330 28.9974 0.0000 0.0000 0.0000
# 2 28.7330 111.2854 10.8242 0.0000 0.0000 0.0000
# 3 28.9974 10.8242 46.5834 0.0000 0.0000 0.0000
# 4 0.0000 0.0000 0.0000 36.4897 0.0000 0.0000
# 5 0.0000 0.0000 0.0000 0.0000 33.2154 0.0000
# 6 0.0000 0.0000 0.0000 0.0000 0.0000 36.4597
#
#
#
# Elastic Compliance Matrix: (Units=1/GPa)
#
#
# Indices 1 2 3 4 5 6 
#
# 1 0.016298 -0.003296 -0.009379 0.000000 0.000000 0.000000
# 2 -0.003296 0.009860 -0.000240 0.000000 0.000000 0.000000
# 3 -0.009379 -0.000240 0.027361 0.000000 0.000000 0.000000
# 4 0.000000 0.000000 0.000000 0.027405 0.000000 0.000000
# 5 0.000000 0.000000 0.000000 0.000000 0.030107 0.000000
# 6 0.000000 0.000000 0.000000 0.000000 0.000000 0.027428
#
#
# Mechanical properties :
#
#
# Convention : Reuss Voigt Hill
#
# Bulk Modulus (GPa) = 36.11449 42.09271 39.10360
# Shear Modulus (GPa) = 28.81561 32.77766 30.79663
#
# Velocity S-wave (km/s) = 3.73223 3.98055 3.85839
# Velocity P-wave (km/s) = 6.00254 6.44004 6.22513
#
# Compressibility (1/GPa) = 0.02768972
#
# Stress axis : x y z
#
# Youngs Moduli (GPa) = 61.35806 101.41849 36.54836
#
# Poissons Ratio (x) = 0.33424 0.34280
# Poissons Ratio (y) = 0.20222 0.00876
# Poissons Ratio (z) = 0.57550 0.02430
#
# Static dielectric constant tensor:
#      x y z
#    x 3.763070 0.000000 0.000000 
#    y 0.000000 3.851210 0.000000 
#    z 0.000000 0.000000 2.653170 
# 
# 
# High freq. dielectric constant tensor:
#      x y z
#    x 1.819450 0.000000 0.000000 
#    y 0.000000 1.836920 0.000000 
#    z 0.000000 0.000000 1.773510 
# 
# From -- ./inp_files/3419.got.cif
#   From: 2010.03.12/outbox.cif.g09.slc.cpg/sg61_2_cif.got.tgz:3419.got - 2010.04.10 19:05:03.
