data_PCOD8249170
_publ_section_title
;
Structure prediction by ZEFSAII (Michael W. Deem and Ramdas Pophale) SiO2 
 PCOD8249170
Probable space group: P B C A
;
_chemical_formula_sum "Si O2"
_cell_formula_units_Z 56
_cell_length_a 15.360152
_cell_length_b 19.799034
_cell_length_c 9.233446
_cell_angle_alpha 90.000000
_cell_angle_beta 90.000000
_cell_angle_gamma 90.000000
_cell_volume 2808.040249
_symmetry_space_group_name_H-M "P B C A"
_symmetry_group_IT_number 61
_symmetry_cell_setting 'orthorhombic'
loop_
_space_group_symop_operation_xyz
x,y,z
1/2-x,-y,1/2+z
1/2+x,1/2-y,-z
-x,1/2+y,1/2-z
-x,-y,-z
1/2+x,y,1/2-z
1/2-x,1/2+y,z
x,1/2-y,1/2+z
loop_
_atom_site_type_symbol
_atom_site_label
_atom_site_fract_x
_atom_site_fract_y
_atom_site_fract_z
Si Si1 0.945225 0.638370 0.681479
Si Si2 0.722090 0.275428 0.218432
Si Si3 0.607949 0.449825 0.439455
Si Si4 0.256384 0.658987 0.484967
Si Si5 0.436755 0.355771 0.927863
Si Si6 0.912856 0.201452 0.617658
Si Si7 0.056991 0.590578 0.110124
O O1 0.861272 0.685604 0.653745
O O2 0.920382 0.574414 0.779317
O O3 0.985449 0.615062 0.528178
O O4 0.024259 0.677163 0.756849
O O5 0.721571 0.284320 0.392569
O O6 0.812703 0.305981 0.162626
O O7 0.720061 0.196517 0.167541
O O8 0.691818 0.409878 0.493158
O O9 0.536644 0.436057 0.561707
O O10 0.625831 0.530216 0.426358
O O11 0.158426 0.632168 0.494536
O O12 0.447051 0.275799 0.913943
O O13 0.445217 0.395092 0.778826
O O14 0.919267 0.159190 0.470571
#
# Coordination Sequence:
#
# PCOD8249170 Si02
#       7
#     8   8   8   8   8   8   8
#     4  10  21  37  62  89 123 157 199 256 305 359
#     4  10  22  36  59  90 126 155 200 259 302 357
#     4   9  22  44  59  85 124 168 201 244 305 373
#     4  10  22  39  58  90 126 152 206 252 307 362
#     4  11  22  36  62  95 117 155 205 255 305 362
#     4  10  21  39  60  88 125 157 200 254 308 357
#     4  10  22  41  64  84 123 166 203 243 308 369
#
# _framework density 19.942733
#
# number of rings (size 3 to 8) (size 9 to 14) (size 15 to 20)
#    0.000    2.000    1.429    0.857   14.000    0.571 
#    5.143    0.000    0.000    0.000    0.000    0.000 
#    0.000    0.000    0.000    0.000    0.000    0.000 
#
# Total GULP energy -694179.404342 kJ/mol
# GULP energy per Si atom -12396.060792 kJ/mol
# Density = 1.989734 g / cm^3
# Si number density = 19.942733 Si / 1000 Ang^3
#
#
#
# Elastic Constant Matrix: (Units=GPa)
#
#
# Indices 1 2 3 4 5 6 
#
# 1 76.7780 7.3027 16.0396 0.0000 0.0000 0.0000
# 2 7.3027 75.5691 14.1973 0.0000 0.0000 0.0000
# 3 16.0396 14.1973 76.7527 0.0000 0.0000 0.0000
# 4 0.0000 0.0000 0.0000 11.7496 0.0000 0.0000
# 5 0.0000 0.0000 0.0000 0.0000 18.9933 0.0000
# 6 0.0000 0.0000 0.0000 0.0000 0.0000 7.7809
#
#
#
# Elastic Compliance Matrix: (Units=1/GPa)
#
#
# Indices 1 2 3 4 5 6 
#
# 1 0.013667 -0.000812 -0.002706 0.000000 0.000000 0.000000
# 2 -0.000812 0.013758 -0.002375 0.000000 0.000000 0.000000
# 3 -0.002706 -0.002375 0.014034 0.000000 0.000000 0.000000
# 4 0.000000 0.000000 0.000000 0.085109 0.000000 0.000000
# 5 0.000000 0.000000 0.000000 0.000000 0.052650 0.000000
# 6 0.000000 0.000000 0.000000 0.000000 0.000000 0.128519
#
#
# Mechanical properties :
#
#
# Convention : Reuss Voigt Hill
#
# Bulk Modulus (GPa) = 33.70201 33.79768 33.74985
# Shear Modulus (GPa) = 15.17847 20.47545 17.82696
#
# Velocity S-wave (km/s) = 2.76180 3.20771 2.99307
# Velocity P-wave (km/s) = 5.20636 5.54106 5.37632
#
# Compressibility (1/GPa) = 0.02967182
#
# Stress axis : x y z
#
# Youngs Moduli (GPa) = 73.16833 72.68690 71.25734
#
# Poissons Ratio (x) = 0.05905 0.19281
# Poissons Ratio (y) = 0.05944 0.16924
# Poissons Ratio (z) = 0.19798 0.17263
#
# Static dielectric constant tensor:
#      x y z
#    x 3.742120 0.000000 0.000000 
#    y 0.000000 3.555510 0.000000 
#    z 0.000000 0.000000 3.719110 
# 
# 
# High freq. dielectric constant tensor:
#      x y z
#    x 1.782530 0.000000 0.000000 
#    y 0.000000 1.760850 0.000000 
#    z 0.000000 0.000000 1.782730 
# 
# From -- ./inp_files/3041.got.cif
#   From: 2010.03.12/outbox.cif.g09.slc.cpg/sg61_2_cif.got.tgz:3041.got - 2010.04.10 19:05:03.
