data_PCOD8249034
_publ_section_title
;
Structure prediction by ZEFSAII (Michael W. Deem and Ramdas Pophale) SiO2 
 PCOD8249034
Probable space group: P B C A
;
_chemical_formula_sum "Si O2"
_cell_formula_units_Z 64
_cell_length_a 13.862493
_cell_length_b 11.708921
_cell_length_c 16.815978
_cell_angle_alpha 90.000000
_cell_angle_beta 90.000000
_cell_angle_gamma 90.000000
_cell_volume 2729.482701
_symmetry_space_group_name_H-M "P B C A"
_symmetry_group_IT_number 61
_symmetry_cell_setting 'orthorhombic'
loop_
_space_group_symop_operation_xyz
x,y,z
1/2-x,-y,1/2+z
1/2+x,1/2-y,-z
-x,1/2+y,1/2-z
-x,-y,-z
1/2+x,y,1/2-z
1/2-x,1/2+y,z
x,1/2-y,1/2+z
loop_
_atom_site_type_symbol
_atom_site_label
_atom_site_fract_x
_atom_site_fract_y
_atom_site_fract_z
Si Si1 0.777801 0.125560 0.394821
Si Si2 0.052256 0.026204 0.598160
Si Si3 0.171299 0.483393 0.905646
Si Si4 0.679774 0.737144 0.749382
Si Si5 0.854608 0.984875 0.769514
Si Si6 0.850597 0.787258 0.493160
Si Si7 0.563469 0.954936 0.720407
Si Si8 0.827804 0.850470 0.134037
O O1 0.811163 0.231559 0.341619
O O2 0.726944 0.033074 0.335827
O O3 0.706641 0.181930 0.457018
O O4 0.867072 0.061675 0.439637
O O5 0.073936 0.156841 0.569168
O O6 0.069113 0.009576 0.691850
O O7 0.943536 0.996404 0.571609
O O8 0.181245 0.433831 0.815126
O O9 0.213701 0.391163 0.969064
O O10 0.232713 0.599526 0.912137
O O11 0.622619 0.617714 0.749687
O O12 0.618392 0.835940 0.706634
O O13 0.785405 0.720579 0.709114
O O14 0.952617 0.927333 0.800300
O O15 0.892329 0.728720 0.574802
O O16 0.604873 0.046083 0.659478
#
# Coordination Sequence:
#
# PCOD8249034 Si02
#       8
#     8   8   8   8   8   8   8   8
#     4  11  22  38  61  90 122 158 206 255 304 361
#     4  10  22  41  62  87 120 163 210 244 296 376
#     4  10  22  41  62  87 120 163 210 244 296 376
#     4  10  20  38  64  86 118 164 204 258 308 346
#     4  10  22  40  64  94 121 154 208 259 304 363
#     4  12  23  36  58  86 125 164 192 246 306 354
#     4  10  22  40  64  94 121 154 208 259 304 363
#     4  11  22  38  61  90 122 158 206 255 304 361
#
# _framework density 23.447665000000001
#
# number of rings (size 3 to 8) (size 9 to 14) (size 15 to 20)
#    0.000    1.500    0.000    7.125    0.000    7.000 
#    0.000    3.125    0.000    0.000    0.000    0.000 
#    0.000    0.000    0.000    0.000    0.000    0.000 
#
# Total GULP energy -792920.133974 kJ/mol
# GULP energy per Si atom -12389.377093 kJ/mol
# Density = 2.339430 g / cm^3
# Si number density = 23.447665 Si / 1000 Ang^3
#
#
#
# Elastic Constant Matrix: (Units=GPa)
#
#
# Indices 1 2 3 4 5 6 
#
# 1 84.7193 20.7235 19.2133 0.0000 0.0000 0.0000
# 2 20.7235 84.4059 32.4485 0.0000 0.0000 0.0000
# 3 19.2133 32.4485 56.8383 0.0000 0.0000 0.0000
# 4 0.0000 0.0000 0.0000 50.4350 0.0000 0.0000
# 5 0.0000 0.0000 0.0000 0.0000 28.3941 0.0000
# 6 0.0000 0.0000 0.0000 0.0000 0.0000 24.9849
#
#
#
# Elastic Compliance Matrix: (Units=1/GPa)
#
#
# Indices 1 2 3 4 5 6 
#
# 1 0.013024 -0.001928 -0.003302 0.000000 0.000000 0.000000
# 2 -0.001928 0.015464 -0.008177 0.000000 0.000000 0.000000
# 3 -0.003302 -0.008177 0.023378 0.000000 0.000000 0.000000
# 4 0.000000 0.000000 0.000000 0.019828 0.000000 0.000000
# 5 0.000000 0.000000 0.000000 0.000000 0.035219 0.000000
# 6 0.000000 0.000000 0.000000 0.000000 0.000000 0.040024
#
#
# Mechanical properties :
#
#
# Convention : Reuss Voigt Hill
#
# Bulk Modulus (GPa) = 39.91553 41.19266 40.55409
# Shear Modulus (GPa) = 27.45730 31.00134 29.22932
#
# Velocity S-wave (km/s) = 3.42571 3.64008 3.53452
# Velocity P-wave (km/s) = 5.71904 5.93911 5.83011
#
# Compressibility (1/GPa) = 0.02505291
#
# Stress axis : x y z
#
# Youngs Moduli (GPa) = 76.78018 64.66495 42.77567
#
# Poissons Ratio (x) = 0.12470 0.14123
# Poissons Ratio (y) = 0.14807 0.34976
# Poissons Ratio (z) = 0.25350 0.52874
#
# Static dielectric constant tensor:
#      x y z
#    x 4.135110 0.000000 0.000000 
#    y 0.000000 4.229850 0.000000 
#    z 0.000000 0.000000 4.436600 
# 
# 
# High freq. dielectric constant tensor:
#      x y z
#    x 1.901610 0.000000 0.000000 
#    y 0.000000 1.935030 0.000000 
#    z 0.000000 0.000000 1.940870 
# 
# From -- ./inp_files/9542.got.cif
#   From: 2010.03.12/outbox.cif.g09.slc.cpg/sg61_5_cif.got.tgz:9542.got - 2010.04.10 19:05:03.
