data_PCOD8249877
_publ_section_title
;
Structure prediction by ZEFSAII (Michael W. Deem and Ramdas Pophale) SiO2 
 PCOD8249877
Probable space group: P B C A
;
_chemical_formula_sum "Si O2"
_cell_formula_units_Z 48
_cell_length_a 26.472938
_cell_length_b 9.658655
_cell_length_c 8.454058
_cell_angle_alpha 90.000000
_cell_angle_beta 90.000000
_cell_angle_gamma 90.000000
_cell_volume 2161.643241
_symmetry_space_group_name_H-M "P B C A"
_symmetry_group_IT_number 61
_symmetry_cell_setting 'orthorhombic'
loop_
_space_group_symop_operation_xyz
x,y,z
1/2-x,-y,1/2+z
1/2+x,1/2-y,-z
-x,1/2+y,1/2-z
-x,-y,-z
1/2+x,y,1/2-z
1/2-x,1/2+y,z
x,1/2-y,1/2+z
loop_
_atom_site_type_symbol
_atom_site_label
_atom_site_fract_x
_atom_site_fract_y
_atom_site_fract_z
Si Si1 0.319096 0.673295 0.916718
Si Si2 0.544292 0.639208 0.156426
Si Si3 0.956468 0.429918 0.292644
Si Si4 0.298348 0.171382 0.909959
Si Si5 0.654233 0.916408 0.766026
Si Si6 0.149279 0.441074 0.745591
O O1 0.259987 0.679290 0.955188
O O2 0.330364 0.574501 0.767837
O O3 0.340092 0.823848 0.875334
O O4 0.348258 0.617677 0.069213
O O5 0.500940 0.540195 0.222980
O O6 0.528529 0.797817 0.186879
O O7 0.594663 0.604282 0.252384
O O8 0.553155 0.617312 0.971556
O O9 0.905995 0.498051 0.222780
O O10 0.315974 0.323336 0.860522
O O11 0.309298 0.063417 0.767349
O O12 0.330848 0.121363 0.057516
#
# Coordination Sequence:
#
# PCOD8249877 Si02
#       6
#     8   8   8   8   8   8
#     4  12  25  43  67 100 142 184 237 278 344 417
#     4  11  25  48  72 107 134 184 227 293 349 419
#     4  11  26  48  76 101 141 177 235 286 356 417
#     4  12  24  43  69  99 139 189 229 284 347 413
#     4  12  24  44  71 100 142 181 229 291 344 415
#     4  12  26  46  67 104 140 183 233 292 347 412
#
# _framework density 22.205328999999999
#
# number of rings (size 3 to 8) (size 9 to 14) (size 15 to 20)
#    0.000    0.333    3.333    6.000    2.333    0.667 
#    0.000    0.000    0.000    0.000    0.000    0.000 
#    0.000    0.000    0.000    0.000    0.000    0.000 
#
# Total GULP energy -595671.861886 kJ/mol
# GULP energy per Si atom -12409.830456 kJ/mol
# Density = 2.215479 g / cm^3
# Si number density = 22.205329 Si / 1000 Ang^3
#
#
#
# Elastic Constant Matrix: (Units=GPa)
#
#
# Indices 1 2 3 4 5 6 
#
# 1 103.0772 69.1055 21.1126 0.0000 0.0000 0.0000
# 2 69.1055 134.6499 19.9437 0.0000 0.0000 0.0000
# 3 21.1126 19.9437 68.6161 0.0000 0.0000 0.0000
# 4 0.0000 0.0000 0.0000 39.8106 0.0000 0.0000
# 5 0.0000 0.0000 0.0000 0.0000 32.4508 0.0000
# 6 0.0000 0.0000 0.0000 0.0000 0.0000 43.2620
#
#
#
# Elastic Compliance Matrix: (Units=1/GPa)
#
#
# Indices 1 2 3 4 5 6 
#
# 1 0.015196 -0.007426 -0.002517 0.000000 0.000000 0.000000
# 2 -0.007426 0.011390 -0.001026 0.000000 0.000000 0.000000
# 3 -0.002517 -0.001026 0.015646 0.000000 0.000000 0.000000
# 4 0.000000 0.000000 0.000000 0.025119 0.000000 0.000000
# 5 0.000000 0.000000 0.000000 0.000000 0.030816 0.000000
# 6 0.000000 0.000000 0.000000 0.000000 0.000000 0.023115
#
#
# Mechanical properties :
#
#
# Convention : Reuss Voigt Hill
#
# Bulk Modulus (GPa) = 49.27468 58.51853 53.89660
# Shear Modulus (GPa) = 33.33697 36.18342 34.76020
#
# Velocity S-wave (km/s) = 3.87887 4.04108 3.96080
# Velocity P-wave (km/s) = 6.50381 6.94149 6.72621
#
# Compressibility (1/GPa) = 0.02029440
#
# Stress axis : x y z
#
# Youngs Moduli (GPa) = 65.80887 87.79857 63.91221
#
# Poissons Ratio (x) = 0.65198 0.16088
# Poissons Ratio (y) = 0.48869 0.06555
# Poissons Ratio (z) = 0.16565 0.09005
#
# Static dielectric constant tensor:
#      x y z
#    x 3.961970 0.000000 0.000000 
#    y 0.000000 4.353190 0.000000 
#    z 0.000000 0.000000 3.935470 
# 
# 
# High freq. dielectric constant tensor:
#      x y z
#    x 1.878820 0.000000 0.000000 
#    y 0.000000 1.895010 0.000000 
#    z 0.000000 0.000000 1.878270 
# 
# From -- ./inp_files/4575.got.cif
#   From: 2010.03.12/outbox.cif.g09.slc.cpg/sg61_3_cif.got.tgz:4575.got - 2010.04.10 19:05:03.
