data_PCOD8249343
_publ_section_title
;
Structure prediction by ZEFSAII (Michael W. Deem and Ramdas Pophale) SiO2 
 PCOD8249343
Probable space group: P B C A
;
_chemical_formula_sum "Si O2"
_cell_formula_units_Z 32
_cell_length_a 8.760391
_cell_length_b 15.187949
_cell_length_c 12.243990
_cell_angle_alpha 90.000000
_cell_angle_beta 90.000000
_cell_angle_gamma 90.000000
_cell_volume 1629.091909
_symmetry_space_group_name_H-M "P B C A"
_symmetry_group_IT_number 61
_symmetry_cell_setting 'orthorhombic'
loop_
_space_group_symop_operation_xyz
x,y,z
1/2-x,-y,1/2+z
1/2+x,1/2-y,-z
-x,1/2+y,1/2-z
-x,-y,-z
1/2+x,y,1/2-z
1/2-x,1/2+y,z
x,1/2-y,1/2+z
loop_
_atom_site_type_symbol
_atom_site_label
_atom_site_fract_x
_atom_site_fract_y
_atom_site_fract_z
Si Si1 0.241968 0.021214 0.366323
Si Si2 0.758704 0.661527 0.515672
Si Si3 0.075183 0.595608 0.185763
Si Si4 0.928813 0.319538 0.595819
O O1 0.273749 0.926375 0.414604
O O2 0.307373 0.026269 0.242186
O O3 0.329767 0.094469 0.440263
O O4 0.062435 0.040742 0.366219
O O5 0.659617 0.648674 0.407941
O O6 0.680203 0.734948 0.590550
O O7 0.927372 0.693377 0.482878
O O8 0.017847 0.666049 0.277665
#
# Coordination Sequence:
#
# PCOD8249343 Si02
#       4
#     8   8   8   8
#     4  10  22  43  65  95 128 176 211 275 321 386
#     4  12  22  43  69  93 134 176 212 271 337 375
#     4  10  21  44  61  93 135 157 224 272 303 406
#     4  10  23  41  63  99 131 168 224 268 318 394
#
# _framework density 19.642845999999999
#
# number of rings (size 3 to 8) (size 9 to 14) (size 15 to 20)
#    1.500    0.000    2.500    3.000    0.000    0.000 
#   18.000    0.000    0.000    0.000    0.000    0.000 
#    0.000    0.000    0.000    0.000    0.000    0.000 
#
# Total GULP energy -396684.341341 kJ/mol
# GULP energy per Si atom -12396.385667 kJ/mol
# Density = 1.959814 g / cm^3
# Si number density = 19.642846 Si / 1000 Ang^3
#
#
#
# Elastic Constant Matrix: (Units=GPa)
#
#
# Indices 1 2 3 4 5 6 
#
# 1 95.1703 16.2685 -2.7047 0.0000 0.0000 0.0000
# 2 16.2685 57.7181 4.6004 0.0000 0.0000 0.0000
# 3 -2.7047 4.6004 46.7510 0.0000 0.0000 0.0000
# 4 0.0000 0.0000 0.0000 18.2229 0.0000 0.0000
# 5 0.0000 0.0000 0.0000 0.0000 25.5350 0.0000
# 6 0.0000 0.0000 0.0000 0.0000 0.0000 28.5169
#
#
#
# Elastic Compliance Matrix: (Units=1/GPa)
#
#
# Indices 1 2 3 4 5 6 
#
# 1 0.011082 -0.003200 0.000956 0.000000 0.000000 0.000000
# 2 -0.003200 0.018386 -0.001994 0.000000 0.000000 0.000000
# 3 0.000956 -0.001994 0.021641 0.000000 0.000000 0.000000
# 4 0.000000 0.000000 0.000000 0.054876 0.000000 0.000000
# 5 0.000000 0.000000 0.000000 0.000000 0.039162 0.000000
# 6 0.000000 0.000000 0.000000 0.000000 0.000000 0.035067
#
#
# Mechanical properties :
#
#
# Convention : Reuss Voigt Hill
#
# Bulk Modulus (GPa) = 23.45584 26.21865 24.83724
# Shear Modulus (GPa) = 24.64249 26.55331 25.59790
#
# Velocity S-wave (km/s) = 3.54577 3.68068 3.61386
# Velocity P-wave (km/s) = 5.36008 5.60713 5.48499
#
# Compressibility (1/GPa) = 0.04263331
#
# Stress axis : x y z
#
# Youngs Moduli (GPa) = 90.23962 54.38802 46.20759
#
# Poissons Ratio (x) = 0.17402 -0.04417
# Poissons Ratio (y) = 0.28874 0.09216
# Poissons Ratio (z) = -0.08627 0.10847
#
# Static dielectric constant tensor:
#      x y z
#    x 3.628910 0.000000 0.000000 
#    y 0.000000 3.290010 0.000000 
#    z 0.000000 0.000000 3.468450 
# 
# 
# High freq. dielectric constant tensor:
#      x y z
#    x 1.781740 0.000000 0.000000 
#    y 0.000000 1.751230 0.000000 
#    z 0.000000 0.000000 1.752560 
# 
# From -- ./inp_files/2030.got.cif
#   From: 2010.03.12/outbox.cif.g09.slc.cpg/sg61_2_cif.got.tgz:2030.got - 2010.04.10 19:05:03.
