data_PCOD8249331
_publ_section_title
;
Structure prediction by ZEFSAII (Michael W. Deem and Ramdas Pophale) SiO2 
 PCOD8249331
Probable space group: P B C A
;
_chemical_formula_sum "Si O2"
_cell_formula_units_Z 40
_cell_length_a 11.040458
_cell_length_b 14.608356
_cell_length_c 9.512779
_cell_angle_alpha 90.000000
_cell_angle_beta 90.000000
_cell_angle_gamma 90.000000
_cell_volume 1534.248973
_symmetry_space_group_name_H-M "P B C A"
_symmetry_group_IT_number 61
_symmetry_cell_setting 'orthorhombic'
loop_
_space_group_symop_operation_xyz
x,y,z
1/2-x,-y,1/2+z
1/2+x,1/2-y,-z
-x,1/2+y,1/2-z
-x,-y,-z
1/2+x,y,1/2-z
1/2-x,1/2+y,z
x,1/2-y,1/2+z
loop_
_atom_site_type_symbol
_atom_site_label
_atom_site_fract_x
_atom_site_fract_y
_atom_site_fract_z
Si Si1 0.616947 0.397170 0.954706
Si Si2 0.921351 0.150482 0.827333
Si Si3 0.678049 0.658690 0.291030
Si Si4 0.485003 0.983388 0.829690
Si Si5 0.757110 0.932660 0.519825
O O1 0.718103 0.322451 0.908806
O O2 0.573296 0.441857 0.810514
O O3 0.507215 0.350251 0.035484
O O4 0.675338 0.477207 0.051465
O O5 0.911680 0.255383 0.778971
O O6 0.981555 0.093067 0.699548
O O7 0.787411 0.111011 0.871213
O O8 0.615455 0.564318 0.345326
O O9 0.734470 0.643128 0.138490
O O10 0.402101 0.958859 0.969877
#
# Coordination Sequence:
#
# PCOD8249331 Si02
#       5
#     8   8   8   8   8
#     4  10  21  43  67  88 133 174 209 278 333 378
#     4  11  22  42  69  95 133 177 214 279 331 379
#     4  11  23  38  68 101 124 175 230 258 329 404
#     4  10  21  43  66  91 134 173 215 268 331 398
#     4  10  21  43  64  91 133 172 216 268 334 382
#
# _framework density 26.071387999999999
#
# number of rings (size 3 to 8) (size 9 to 14) (size 15 to 20)
#    0.000    1.600    4.000    1.200    2.800    2.400 
#    3.600    0.000    0.000    0.000    0.000    0.000 
#    0.000    0.000    0.000    0.000    0.000    0.000 
#
# Total GULP energy -495862.139790 kJ/mol
# GULP energy per Si atom -12396.553495 kJ/mol
# Density = 2.601205 g / cm^3
# Si number density = 26.071388 Si / 1000 Ang^3
#
#
#
# Elastic Constant Matrix: (Units=GPa)
#
#
# Indices 1 2 3 4 5 6 
#
# 1 87.0548 -1.2365 -8.8670 0.0000 0.0000 0.0000
# 2 -1.2365 105.0062 4.4320 0.0000 0.0000 0.0000
# 3 -8.8670 4.4320 56.3478 0.0000 0.0000 0.0000
# 4 0.0000 0.0000 0.0000 29.6100 0.0000 0.0000
# 5 0.0000 0.0000 0.0000 0.0000 25.0281 0.0000
# 6 0.0000 0.0000 0.0000 0.0000 0.0000 34.8262
#
#
#
# Elastic Compliance Matrix: (Units=1/GPa)
#
#
# Indices 1 2 3 4 5 6 
#
# 1 0.011675 0.000060 0.001832 0.000000 0.000000 0.000000
# 2 0.000060 0.009555 -0.000742 0.000000 0.000000 0.000000
# 3 0.001832 -0.000742 0.018094 0.000000 0.000000 0.000000
# 4 0.000000 0.000000 0.000000 0.033772 0.000000 0.000000
# 5 0.000000 0.000000 0.000000 0.000000 0.039955 0.000000
# 6 0.000000 0.000000 0.000000 0.000000 0.000000 0.028714
#
#
# Mechanical properties :
#
#
# Convention : Reuss Voigt Hill
#
# Bulk Modulus (GPa) = 24.02442 26.34063 25.18253
# Shear Modulus (GPa) = 32.60750 34.83153 33.71952
#
# Velocity S-wave (km/s) = 3.54036 3.65911 3.60022
# Velocity P-wave (km/s) = 5.09383 5.28936 5.19251
#
# Compressibility (1/GPa) = 0.04162431
#
# Stress axis : x y z
#
# Youngs Moduli (GPa) = 85.65668 104.65420 55.26802
#
# Poissons Ratio (x) = -0.00629 -0.10127
# Poissons Ratio (y) = -0.00515 0.04101
# Poissons Ratio (z) = -0.15696 0.07766
#
# Static dielectric constant tensor:
#      x y z
#    x 5.151800 0.000000 0.000000 
#    y 0.000000 4.510390 0.000000 
#    z 0.000000 0.000000 4.748600 
# 
# 
# High freq. dielectric constant tensor:
#      x y z
#    x 2.052250 0.000000 0.000000 
#    y 0.000000 2.022900 0.000000 
#    z 0.000000 0.000000 2.050290 
# 
# From -- ./inp_files/5141.got.cif
#   From: 2010.03.12/outbox.cif.g09.slc.cpg/sg61_3_cif.got.tgz:5141.got - 2010.04.10 19:05:03.
