data_PCOD8249037
_publ_section_title
;
Structure prediction by ZEFSAII (Michael W. Deem and Ramdas Pophale) SiO2 
 PCOD8249037
Probable space group: P B C A
;
_chemical_formula_sum "Si O2"
_cell_formula_units_Z 48
_cell_length_a 15.105119
_cell_length_b 13.630371
_cell_length_c 11.256879
_cell_angle_alpha 90.000000
_cell_angle_beta 90.000000
_cell_angle_gamma 90.000000
_cell_volume 2317.660536
_symmetry_space_group_name_H-M "P B C A"
_symmetry_group_IT_number 61
_symmetry_cell_setting 'orthorhombic'
loop_
_space_group_symop_operation_xyz
x,y,z
1/2-x,-y,1/2+z
1/2+x,1/2-y,-z
-x,1/2+y,1/2-z
-x,-y,-z
1/2+x,y,1/2-z
1/2-x,1/2+y,z
x,1/2-y,1/2+z
loop_
_atom_site_type_symbol
_atom_site_label
_atom_site_fract_x
_atom_site_fract_y
_atom_site_fract_z
Si Si1 0.138654 0.931868 0.905188
Si Si2 0.960201 0.941062 0.776100
Si Si3 0.580910 0.853690 0.340529
Si Si4 0.332519 0.872198 0.529808
Si Si5 0.098736 0.239927 0.343691
Si Si6 0.229180 0.797301 0.727105
O O1 0.213473 0.866338 0.841753
O O2 0.064101 0.947424 0.804324
O O3 0.101539 0.876816 0.021957
O O4 0.180378 0.037441 0.938102
O O5 0.918481 0.892154 0.892059
O O6 0.938335 0.872672 0.661446
O O7 0.916870 0.048245 0.759899
O O8 0.483132 0.811850 0.322970
O O9 0.651464 0.780356 0.285015
O O10 0.353268 0.768430 0.466257
O O11 0.241886 0.861315 0.606547
O O12 0.175281 0.255241 0.244189
#
# Coordination Sequence:
#
# PCOD8249037 Si02
#       6
#     8   8   8   8   8   8
#     4  11  20  40  67  90 125 176 221 265 328 389
#     4  10  20  38  66  91 119 177 216 258 327 388
#     4  11  21  41  64  91 131 170 217 268 323 394
#     4  10  21  40  63  93 127 167 214 269 322 385
#     4  11  21  38  64  92 129 165 215 263 320 391
#     4  11  25  38  64 100 127 170 217 270 329 389
#
# _framework density 20.710539000000001
#
# number of rings (size 3 to 8) (size 9 to 14) (size 15 to 20)
#    0.000    1.333    5.000    2.000    0.000    4.000 
#    0.000    0.000    0.000   10.000    0.000    0.000 
#    0.000    0.000    0.000    0.000    0.000    0.000 
#
# Total GULP energy -594867.203881 kJ/mol
# GULP energy per Si atom -12393.066748 kJ/mol
# Density = 2.066340 g / cm^3
# Si number density = 20.710539 Si / 1000 Ang^3
#
#
#
# Elastic Constant Matrix: (Units=GPa)
#
#
# Indices 1 2 3 4 5 6 
#
# 1 89.9408 49.9810 42.6335 0.0000 0.0000 0.0000
# 2 49.9810 142.4166 75.5827 0.0000 0.0000 0.0000
# 3 42.6335 75.5827 72.3709 0.0000 0.0000 0.0000
# 4 0.0000 0.0000 0.0000 45.4778 0.0000 0.0000
# 5 0.0000 0.0000 0.0000 0.0000 30.3570 0.0000
# 6 0.0000 0.0000 0.0000 0.0000 0.0000 25.4744
#
#
#
# Elastic Compliance Matrix: (Units=1/GPa)
#
#
# Indices 1 2 3 4 5 6 
#
# 1 0.015538 -0.001335 -0.007759 0.000000 0.000000 0.000000
# 2 -0.001335 0.015868 -0.015785 0.000000 0.000000 0.000000
# 3 -0.007759 -0.015785 0.034874 0.000000 0.000000 0.000000
# 4 0.000000 0.000000 0.000000 0.021989 0.000000 0.000000
# 5 0.000000 0.000000 0.000000 0.000000 0.032941 0.000000
# 6 0.000000 0.000000 0.000000 0.000000 0.000000 0.039255
#
#
# Mechanical properties :
#
#
# Convention : Reuss Voigt Hill
#
# Bulk Modulus (GPa) = 60.52834 71.23584 65.88209
# Shear Modulus (GPa) = 23.17686 29.36391 26.27039
#
# Velocity S-wave (km/s) = 3.34890 3.76949 3.56540
# Velocity P-wave (km/s) = 6.65153 7.30862 6.98780
#
# Compressibility (1/GPa) = 0.01652119
#
# Stress axis : x y z
#
# Youngs Moduli (GPa) = 64.35674 63.02050 28.67431
#
# Poissons Ratio (x) = 0.08416 0.22248
# Poissons Ratio (y) = 0.08594 0.45264
# Poissons Ratio (z) = 0.49934 0.99480
#
# Static dielectric constant tensor:
#      x y z
#    x 3.776960 0.000000 0.000000 
#    y 0.000000 4.050700 0.000000 
#    z 0.000000 0.000000 3.671600 
# 
# 
# High freq. dielectric constant tensor:
#      x y z
#    x 1.815630 0.000000 0.000000 
#    y 0.000000 1.813350 0.000000 
#    z 0.000000 0.000000 1.785390 
# 
# From -- ./inp_files/5773.got.cif
#   From: 2010.03.12/outbox.cif.g09.slc.cpg/sg61_3_cif.got.tgz:5773.got - 2010.04.10 19:05:03.
