data_PCOD8249126
_publ_section_title
;
Structure prediction by ZEFSAII (Michael W. Deem and Ramdas Pophale) SiO2 
 PCOD8249126
Probable space group: P B C A
;
_chemical_formula_sum "Si O2"
_cell_formula_units_Z 64
_cell_length_a 9.128754
_cell_length_b 13.885601
_cell_length_c 22.779987
_cell_angle_alpha 90.000000
_cell_angle_beta 90.000000
_cell_angle_gamma 90.000000
_cell_volume 2887.550961
_symmetry_space_group_name_H-M "P B C A"
_symmetry_group_IT_number 61
_symmetry_cell_setting 'orthorhombic'
loop_
_space_group_symop_operation_xyz
x,y,z
1/2-x,-y,1/2+z
1/2+x,1/2-y,-z
-x,1/2+y,1/2-z
-x,-y,-z
1/2+x,y,1/2-z
1/2-x,1/2+y,z
x,1/2-y,1/2+z
loop_
_atom_site_type_symbol
_atom_site_label
_atom_site_fract_x
_atom_site_fract_y
_atom_site_fract_z
Si Si1 0.552364 0.249418 0.805438
Si Si2 0.687030 0.605902 0.191237
Si Si3 0.254909 0.658411 0.507445
Si Si4 0.059730 0.266414 0.826204
Si Si5 0.072097 0.431351 0.111153
Si Si6 0.800558 0.392982 0.821660
Si Si7 0.755822 0.500321 0.585590
Si Si8 0.076157 0.325200 0.449224
O O1 0.388727 0.288706 0.815836
O O2 0.579295 0.215959 0.737815
O O3 0.586557 0.157900 0.844751
O O4 0.638353 0.348166 0.823308
O O5 0.855606 0.631498 0.176555
O O6 0.662216 0.566035 0.256680
O O7 0.650474 0.521000 0.145228
O O8 0.355883 0.597179 0.550313
O O9 0.253276 0.601801 0.446564
O O10 0.334042 0.759197 0.494310
O O11 0.094049 0.676378 0.533745
O O12 0.104497 0.199884 0.880691
O O13 0.893305 0.297921 0.837116
O O14 0.170256 0.520593 0.133606
O O15 0.903506 0.456859 0.100254
O O16 0.851919 0.569737 0.544267
#
# Coordination Sequence:
#
# PCOD8249126 Si02
#       8
#     8   8   8   8   8   8   8   8
#     4  10  24  40  70 102 142 176 229 284 347 418
#     4  10  21  42  66  94 139 180 220 284 343 410
#     4  12  28  47  69 102 139 181 242 296 351 413
#     4  10  20  46  65  98 137 181 221 290 345 410
#     4  12  25  44  73 106 134 193 230 286 357 432
#     4  10  22  42  65 101 144 174 223 285 346 413
#     4  12  26  45  70  98 137 189 235 289 352 423
#     4  12  26  46  72  99 138 186 239 295 352 419
#
# _framework density 22.164110000000001
#
# number of rings (size 3 to 8) (size 9 to 14) (size 15 to 20)
#    0.000    1.000    2.500    3.000    5.250    2.000 
#    2.250    0.000    0.000    0.000    0.000    0.000 
#    0.000    0.000    0.000    0.000    0.000    0.000 
#
# Total GULP energy -793414.274017 kJ/mol
# GULP energy per Si atom -12397.098032 kJ/mol
# Density = 2.211366 g / cm^3
# Si number density = 22.164110 Si / 1000 Ang^3
#
#
#
# Elastic Constant Matrix: (Units=GPa)
#
#
# Indices 1 2 3 4 5 6 
#
# 1 73.3320 18.0384 24.7069 0.0000 0.0000 0.0000
# 2 18.0384 68.3743 19.4407 0.0000 0.0000 0.0000
# 3 24.7069 19.4407 83.1252 0.0000 0.0000 0.0000
# 4 0.0000 0.0000 0.0000 43.8513 0.0000 0.0000
# 5 0.0000 0.0000 0.0000 0.0000 35.2292 0.0000
# 6 0.0000 0.0000 0.0000 0.0000 0.0000 33.9398
#
#
#
# Elastic Compliance Matrix: (Units=1/GPa)
#
#
# Indices 1 2 3 4 5 6 
#
# 1 0.015715 -0.003019 -0.003965 0.000000 0.000000 0.000000
# 2 -0.003019 0.016247 -0.002903 0.000000 0.000000 0.000000
# 3 -0.003965 -0.002903 0.013887 0.000000 0.000000 0.000000
# 4 0.000000 0.000000 0.000000 0.022804 0.000000 0.000000
# 5 0.000000 0.000000 0.000000 0.000000 0.028386 0.000000
# 6 0.000000 0.000000 0.000000 0.000000 0.000000 0.029464
#
#
# Mechanical properties :
#
#
# Convention : Reuss Voigt Hill
#
# Bulk Modulus (GPa) = 38.34758 38.80041 38.57400
# Shear Modulus (GPa) = 32.26481 33.44710 32.85596
#
# Velocity S-wave (km/s) = 3.81953 3.88888 3.85436
# Velocity P-wave (km/s) = 6.06556 6.14073 6.10326
#
# Compressibility (1/GPa) = 0.02607726
#
# Stress axis : x y z
#
# Youngs Moduli (GPa) = 63.63357 61.54977 72.00804
#
# Poissons Ratio (x) = 0.18579 0.28551
# Poissons Ratio (y) = 0.19208 0.20901
# Poissons Ratio (z) = 0.25230 0.17865
#
# Static dielectric constant tensor:
#      x y z
#    x 4.004430 0.000000 0.000000 
#    y 0.000000 3.764200 0.000000 
#    z 0.000000 0.000000 4.092120 
# 
# 
# High freq. dielectric constant tensor:
#      x y z
#    x 1.881890 0.000000 0.000000 
#    y 0.000000 1.862040 0.000000 
#    z 0.000000 0.000000 1.883870 
# 
# From -- ./inp_files/10921.got.cif
#   From: 2010.03.12/outbox.cif.g09.slc.cpg/sg61_6_cif.got.tgz:10921.got - 2010.04.10 19:05:03.
