data_PCOD8249021
_publ_section_title
;
Structure prediction by ZEFSAII (Michael W. Deem and Ramdas Pophale) SiO2 
 PCOD8249021
Probable space group: P B C A
;
_chemical_formula_sum "Si O2"
_cell_formula_units_Z 48
_cell_length_a 16.082988
_cell_length_b 15.428031
_cell_length_c 9.228933
_cell_angle_alpha 90.000000
_cell_angle_beta 90.000000
_cell_angle_gamma 90.000000
_cell_volume 2289.964416
_symmetry_space_group_name_H-M "P B C A"
_symmetry_group_IT_number 61
_symmetry_cell_setting 'orthorhombic'
loop_
_space_group_symop_operation_xyz
x,y,z
1/2-x,-y,1/2+z
1/2+x,1/2-y,-z
-x,1/2+y,1/2-z
-x,-y,-z
1/2+x,y,1/2-z
1/2-x,1/2+y,z
x,1/2-y,1/2+z
loop_
_atom_site_type_symbol
_atom_site_label
_atom_site_fract_x
_atom_site_fract_y
_atom_site_fract_z
Si Si1 0.804765 0.088573 0.993134
Si Si2 0.013350 0.577228 0.643535
Si Si3 0.558788 0.394771 0.854368
Si Si4 0.755646 0.570188 0.313087
Si Si5 0.549574 0.768545 0.167226
Si Si6 0.164365 0.730572 0.087641
O O1 0.902246 0.085818 0.952552
O O2 0.777494 0.188902 0.965542
O O3 0.752526 0.023345 0.891294
O O4 0.791183 0.062539 0.160068
O O5 0.007710 0.479105 0.704351
O O6 0.009422 0.641634 0.779058
O O7 0.938793 0.598475 0.531029
O O8 0.650512 0.397633 0.787838
O O9 0.516554 0.306704 0.802901
O O10 0.713431 0.640418 0.419790
O O11 0.636331 0.748529 0.247915
O O12 0.577068 0.776540 0.000634
#
# Coordination Sequence:
#
# PCOD8249021 Si02
#       6
#     8   8   8   8   8   8
#     4  10  22  40  60  92 122 166 202 250 319 370
#     4   9  20  39  64  85 121 170 193 249 318 370
#     4  10  20  38  61  89 122 155 205 250 307 360
#     4  11  24  37  66  93 127 158 209 267 300 373
#     4  11  20  41  67  84 119 168 209 242 312 381
#     4  11  22  41  64  87 121 170 206 247 311 380
#
# _framework density 20.961026
#
# number of rings (size 3 to 8) (size 9 to 14) (size 15 to 20)
#    0.000    1.667    5.000    0.000    7.000    1.333 
#    0.000    4.167    0.000    0.000    0.000    0.000 
#    0.000    0.000    0.000    0.000    0.000    0.000 
#
# Total GULP energy -595022.656658 kJ/mol
# GULP energy per Si atom -12396.305347 kJ/mol
# Density = 2.091332 g / cm^3
# Si number density = 20.961026 Si / 1000 Ang^3
#
#
#
# Elastic Constant Matrix: (Units=GPa)
#
#
# Indices 1 2 3 4 5 6 
#
# 1 34.5042 22.2338 14.2294 0.0000 0.0000 0.0000
# 2 22.2338 147.7351 43.2145 0.0000 0.0000 0.0000
# 3 14.2294 43.2145 74.3485 0.0000 0.0000 0.0000
# 4 0.0000 0.0000 0.0000 36.9326 0.0000 0.0000
# 5 0.0000 0.0000 0.0000 0.0000 23.0752 0.0000
# 6 0.0000 0.0000 0.0000 0.0000 0.0000 35.0320
#
#
#
# Elastic Compliance Matrix: (Units=1/GPa)
#
#
# Indices 1 2 3 4 5 6 
#
# 1 0.033123 -0.003772 -0.004147 0.000000 0.000000 0.000000
# 2 -0.003772 0.008585 -0.004268 0.000000 0.000000 0.000000
# 3 -0.004147 -0.004268 0.016725 0.000000 0.000000 0.000000
# 4 0.000000 0.000000 0.000000 0.027076 0.000000 0.000000
# 5 0.000000 0.000000 0.000000 0.000000 0.043337 0.000000
# 6 0.000000 0.000000 0.000000 0.000000 0.000000 0.028545
#
#
# Mechanical properties :
#
#
# Convention : Reuss Voigt Hill
#
# Bulk Modulus (GPa) = 29.36118 46.21592 37.78855
# Shear Modulus (GPa) = 25.89101 30.80195 28.34648
#
# Velocity S-wave (km/s) = 3.51835 3.83755 3.68141
# Velocity P-wave (km/s) = 5.52657 6.46004 6.01145
#
# Compressibility (1/GPa) = 0.03405857
#
# Stress axis : x y z
#
# Youngs Moduli (GPa) = 30.19082 116.48224 59.79200
#
# Poissons Ratio (x) = 0.43935 0.24795
# Poissons Ratio (y) = 0.11388 0.25520
# Poissons Ratio (z) = 0.12520 0.49716
#
# Static dielectric constant tensor:
#      x y z
#    x 3.423050 0.000000 0.000000 
#    y 0.000000 4.317700 0.000000 
#    z 0.000000 0.000000 3.563030 
# 
# 
# High freq. dielectric constant tensor:
#      x y z
#    x 1.786440 0.000000 0.000000 
#    y 0.000000 1.846710 0.000000 
#    z 0.000000 0.000000 1.806980 
# 
# From -- ./inp_files/3408.got.cif
#   From: 2010.03.12/outbox.cif.g09.slc.cpg/sg61_2_cif.got.tgz:3408.got - 2010.04.10 19:05:03.
