data_PCOD8249363
_publ_section_title
;
Structure prediction by ZEFSAII (Michael W. Deem and Ramdas Pophale) SiO2 
 PCOD8249363
Probable space group: P B C A
;
_chemical_formula_sum "Si O2"
_cell_formula_units_Z 48
_cell_length_a 19.320319
_cell_length_b 22.449511
_cell_length_c 5.135635
_cell_angle_alpha 90.000000
_cell_angle_beta 90.000000
_cell_angle_gamma 90.000000
_cell_volume 2227.487771
_symmetry_space_group_name_H-M "P B C A"
_symmetry_group_IT_number 61
_symmetry_cell_setting 'orthorhombic'
loop_
_space_group_symop_operation_xyz
x,y,z
1/2-x,-y,1/2+z
1/2+x,1/2-y,-z
-x,1/2+y,1/2-z
-x,-y,-z
1/2+x,y,1/2-z
1/2-x,1/2+y,z
x,1/2-y,1/2+z
loop_
_atom_site_type_symbol
_atom_site_label
_atom_site_fract_x
_atom_site_fract_y
_atom_site_fract_z
Si Si1 0.621418 0.413195 0.193470
Si Si2 0.032019 0.911753 0.070150
Si Si3 0.252109 0.462237 0.550738
Si Si4 0.546116 0.781120 0.263165
Si Si5 0.116335 0.218267 0.700389
Si Si6 0.401029 0.037285 0.054356
O O1 0.550414 0.408791 0.028317
O O2 0.632637 0.351413 0.346541
O O3 0.615254 0.467743 0.394734
O O4 0.686366 0.419914 0.998127
O O5 0.063353 0.849038 0.163856
O O6 0.051177 0.959295 0.296634
O O7 0.062851 0.931064 0.796498
O O8 0.248083 0.517701 0.350939
O O9 0.326740 0.430561 0.501352
O O10 0.578600 0.738066 0.485953
O O11 0.464984 0.770425 0.227754
O O12 0.149754 0.255765 0.464695
#
# Coordination Sequence:
#
# PCOD8249363 Si02
#       6
#     8   8   8   8   8   8
#     4  10  22  38  61  84 115 153 189 235 286 337
#     4  11  22  35  58  88 115 144 192 244 282 329
#     4  10  22  39  57  80 112 153 186 215 276 354
#     4   9  17  32  52  76 108 147 186 229 281 334
#     4   9  19  33  53  81 108 139 188 239 279 323
#     4  11  22  37  55  87 122 150 182 232 289 343
#
# _framework density 21.548940999999999
#
# number of rings (size 3 to 8) (size 9 to 14) (size 15 to 20)
#    0.000    2.000    0.000    4.000    0.000   10.667 
#    0.000    0.000    0.000    6.000    0.000    0.000 
#    0.000    0.000    0.000    0.000    0.000    0.000 
#
# Total GULP energy -594962.259468 kJ/mol
# GULP energy per Si atom -12395.047072 kJ/mol
# Density = 2.149989 g / cm^3
# Si number density = 21.548941 Si / 1000 Ang^3
#
#
#
# Elastic Constant Matrix: (Units=GPa)
#
#
# Indices 1 2 3 4 5 6 
#
# 1 91.2131 28.2511 25.4615 0.0000 0.0000 0.0000
# 2 28.2511 102.2943 15.7347 0.0000 0.0000 0.0000
# 3 25.4615 15.7347 88.8300 0.0000 0.0000 0.0000
# 4 0.0000 0.0000 0.0000 22.0722 0.0000 0.0000
# 5 0.0000 0.0000 0.0000 0.0000 20.7626 0.0000
# 6 0.0000 0.0000 0.0000 0.0000 0.0000 5.7904
#
#
#
# Elastic Compliance Matrix: (Units=1/GPa)
#
#
# Indices 1 2 3 4 5 6 
#
# 1 0.012779 -0.003049 -0.003123 0.000000 0.000000 0.000000
# 2 -0.003049 0.010777 -0.001035 0.000000 0.000000 0.000000
# 3 -0.003123 -0.001035 0.012336 0.000000 0.000000 0.000000
# 4 0.000000 0.000000 0.000000 0.045306 0.000000 0.000000
# 5 0.000000 0.000000 0.000000 0.000000 0.048163 0.000000
# 6 0.000000 0.000000 0.000000 0.000000 0.000000 0.172698
#
#
# Mechanical properties :
#
#
# Convention : Reuss Voigt Hill
#
# Bulk Modulus (GPa) = 46.55826 46.80357 46.68092
# Shear Modulus (GPa) = 15.44958 23.91772 19.68365
#
# Velocity S-wave (km/s) = 2.68050 3.33517 3.02559
# Velocity P-wave (km/s) = 5.58864 6.04962 5.82369
#
# Compressibility (1/GPa) = 0.02147847
#
# Stress axis : x y z
#
# Youngs Moduli (GPa) = 78.25072 92.79039 81.06408
#
# Poissons Ratio (x) = 0.28292 0.25316
# Poissons Ratio (y) = 0.23859 0.08390
# Poissons Ratio (z) = 0.24437 0.09604
#
# Static dielectric constant tensor:
#      x y z
#    x 4.011260 0.000000 0.000000 
#    y 0.000000 3.815260 0.000000 
#    z 0.000000 0.000000 4.032040 
# 
# 
# High freq. dielectric constant tensor:
#      x y z
#    x 1.816940 0.000000 0.000000 
#    y 0.000000 1.831570 0.000000 
#    z 0.000000 0.000000 1.854890 
# 
# From -- ./inp_files/974.got.cif
#   From: 2010.03.12/outbox.cif.g09.slc.cpg/sg61_1_cif.got.tgz:974.got - 2010.04.10 19:05:03.
