data_PCOD8249867
_publ_section_title
;
Structure prediction by ZEFSAII (Michael W. Deem and Ramdas Pophale) SiO2 
 PCOD8249867
Probable space group: P B C A
;
_chemical_formula_sum "Si O2"
_cell_formula_units_Z 48
_cell_length_a 17.595573
_cell_length_b 12.414916
_cell_length_c 9.193831
_cell_angle_alpha 90.000000
_cell_angle_beta 90.000000
_cell_angle_gamma 90.000000
_cell_volume 2008.369956
_symmetry_space_group_name_H-M "P B C A"
_symmetry_group_IT_number 61
_symmetry_cell_setting 'orthorhombic'
loop_
_space_group_symop_operation_xyz
x,y,z
1/2-x,-y,1/2+z
1/2+x,1/2-y,-z
-x,1/2+y,1/2-z
-x,-y,-z
1/2+x,y,1/2-z
1/2-x,1/2+y,z
x,1/2-y,1/2+z
loop_
_atom_site_type_symbol
_atom_site_label
_atom_site_fract_x
_atom_site_fract_y
_atom_site_fract_z
Si Si1 0.599799 0.457368 0.003365
Si Si2 0.474424 0.734750 0.402070
Si Si3 0.864515 0.935301 0.679363
Si Si4 0.933114 0.319124 0.632526
Si Si5 0.228324 0.790398 0.721241
Si Si6 0.760858 0.390757 0.078402
O O1 0.569763 0.346077 0.070703
O O2 0.554789 0.558384 0.073650
O O3 0.689139 0.466440 0.043419
O O4 0.590992 0.464011 0.828384
O O5 0.416301 0.635501 0.431216
O O6 0.498422 0.716620 0.236680
O O7 0.551519 0.735809 0.499053
O O8 0.786869 0.876090 0.718587
O O9 0.838761 0.041349 0.591928
O O10 0.852640 0.308032 0.704874
O O11 0.224776 0.800647 0.546935
O O12 0.254665 0.670686 0.768360
#
# Coordination Sequence:
#
# PCOD8249867 Si02
#       6
#     8   8   8   8   8   8
#     4  11  25  50  73 110 155 198 251 311 382 442
#     4  12  26  47  77 104 153 199 246 310 383 447
#     4  11  25  48  76 112 147 206 252 310 378 451
#     4  12  27  48  74 111 151 201 246 311 382 454
#     4  11  25  46  72 112 149 195 250 315 368 439
#     4  11  25  45  81 109 150 194 257 311 372 449
#
# _framework density 23.899979999999999
#
# number of rings (size 3 to 8) (size 9 to 14) (size 15 to 20)
#    0.000    0.667    5.000    1.500    4.667    1.333 
#    0.000    2.500    0.000    0.000    0.000    0.000 
#    0.000    0.000    0.000    0.000    0.000    0.000 
#
# Total GULP energy -595019.963368 kJ/mol
# GULP energy per Si atom -12396.249237 kJ/mol
# Density = 2.384558 g / cm^3
# Si number density = 23.899980 Si / 1000 Ang^3
#
#
#
# Elastic Constant Matrix: (Units=GPa)
#
#
# Indices 1 2 3 4 5 6 
#
# 1 84.6943 27.8836 44.7284 0.0000 0.0000 0.0000
# 2 27.8836 93.4522 72.5379 0.0000 0.0000 0.0000
# 3 44.7284 72.5379 108.8732 0.0000 0.0000 0.0000
# 4 0.0000 0.0000 0.0000 36.1097 0.0000 0.0000
# 5 0.0000 0.0000 0.0000 0.0000 45.4912 0.0000
# 6 0.0000 0.0000 0.0000 0.0000 0.0000 55.8610
#
#
#
# Elastic Compliance Matrix: (Units=1/GPa)
#
#
# Indices 1 2 3 4 5 6 
#
# 1 0.015097 0.000641 -0.006630 0.000000 0.000000 0.000000
# 2 0.000641 0.022189 -0.015047 0.000000 0.000000 0.000000
# 3 -0.006630 -0.015047 0.021934 0.000000 0.000000 0.000000
# 4 0.000000 0.000000 0.000000 0.027693 0.000000 0.000000
# 5 0.000000 0.000000 0.000000 0.000000 0.021982 0.000000
# 6 0.000000 0.000000 0.000000 0.000000 0.000000 0.017902
#
#
# Mechanical properties :
#
#
# Convention : Reuss Voigt Hill
#
# Bulk Modulus (GPa) = 58.31146 64.14660 61.22903
# Shear Modulus (GPa) = 28.63936 36.95037 32.79486
#
# Velocity S-wave (km/s) = 3.46540 3.93624 3.70830
# Velocity P-wave (km/s) = 6.36106 6.89612 6.63399
#
# Compressibility (1/GPa) = 0.01714929
#
# Stress axis : x y z
#
# Youngs Moduli (GPa) = 66.23705 45.06755 45.59121
#
# Poissons Ratio (x) = -0.02891 0.30226
# Poissons Ratio (y) = -0.04249 0.68602
# Poissons Ratio (z) = 0.43914 0.67814
#
# Static dielectric constant tensor:
#      x y z
#    x 4.495700 0.000000 0.000000 
#    y 0.000000 4.305950 0.000000 
#    z 0.000000 0.000000 4.418310 
# 
# 
# High freq. dielectric constant tensor:
#      x y z
#    x 1.972430 0.000000 0.000000 
#    y 0.000000 1.939130 0.000000 
#    z 0.000000 0.000000 1.942650 
# 
# From -- ./inp_files/3441.got.cif
#   From: 2010.03.12/outbox.cif.g09.slc.cpg/sg61_2_cif.got.tgz:3441.got - 2010.04.10 19:05:03.
