data_PCOD8249438
_publ_section_title
;
Structure prediction by ZEFSAII (Michael W. Deem and Ramdas Pophale) SiO2 
 PCOD8249438
Probable space group: P B C A
;
_chemical_formula_sum "Si O2"
_cell_formula_units_Z 64
_cell_length_a 10.010416
_cell_length_b 18.543074
_cell_length_c 16.665464
_cell_angle_alpha 90.000000
_cell_angle_beta 90.000000
_cell_angle_gamma 90.000000
_cell_volume 3093.508167
_symmetry_space_group_name_H-M "P B C A"
_symmetry_group_IT_number 61
_symmetry_cell_setting 'orthorhombic'
loop_
_space_group_symop_operation_xyz
x,y,z
1/2-x,-y,1/2+z
1/2+x,1/2-y,-z
-x,1/2+y,1/2-z
-x,-y,-z
1/2+x,y,1/2-z
1/2-x,1/2+y,z
x,1/2-y,1/2+z
loop_
_atom_site_type_symbol
_atom_site_label
_atom_site_fract_x
_atom_site_fract_y
_atom_site_fract_z
Si Si1 0.535622 0.854095 0.153161
Si Si2 0.196280 0.334691 0.437803
Si Si3 0.546418 0.788978 0.331510
Si Si4 0.180132 0.242164 0.592363
Si Si5 0.584504 0.490681 0.422318
Si Si6 0.642029 0.116809 0.313130
Si Si7 0.066598 0.622747 0.187356
Si Si8 0.639760 0.026754 0.464230
O O1 0.685909 0.836355 0.127079
O O2 0.524462 0.827143 0.245075
O O3 0.440405 0.813883 0.089249
O O4 0.485537 0.937031 0.142423
O O5 0.218467 0.271636 0.504122
O O6 0.198348 0.411867 0.478933
O O7 0.056695 0.324587 0.392725
O O8 0.695713 0.799112 0.365805
O O9 0.519218 0.703601 0.332032
O O10 0.119464 0.305488 0.647422
O O11 0.500000 0.500000 0.500000
O O12 0.583199 0.572778 0.389944
O O13 0.737711 0.469288 0.449591
O O14 0.787605 0.120043 0.271715
O O15 0.541107 0.090917 0.246093
O O16 0.610622 0.055477 0.376541
O O17 0.500000 0.000000 0.500000
#
# Coordination Sequence:
#
# PCOD8249438 Si02
#       8
#     8   8   8   8   8   8   8   8
#     4  12  24  43  68  98 140 176 233 288 346 415
#     4  11  24  42  68 100 131 177 233 284 338 417
#     4  11  24  42  68 100 137 175 230 290 341 403
#     4  10  22  41  67  97 133 173 225 284 346 402
#     4  11  25  45  65  97 135 185 228 280 353 425
#     4   9  20  40  64  92 124 168 217 270 337 402
#     4  10  22  42  64  91 135 171 217 281 340 412
#     4  10  23  44  65  91 132 169 222 278 333 419
#
# _framework density 20.688485
#
# number of rings (size 3 to 8) (size 9 to 14) (size 15 to 20)
#    0.000    1.500    2.500    2.250    5.250    2.000 
#    6.750    0.000    0.000    0.000    0.000    0.000 
#    0.000    0.000    0.000    0.000    0.000    0.000 
#
# Total GULP energy -792990.646740 kJ/mol
# GULP energy per Si atom -12390.478855 kJ/mol
# Density = 2.064140 g / cm^3
# Si number density = 20.688485 Si / 1000 Ang^3
#
#
#
# Elastic Constant Matrix: (Units=GPa)
#
#
# Indices 1 2 3 4 5 6 
#
# 1 77.6802 8.0396 27.7233 0.0000 0.0000 0.0000
# 2 8.0396 53.7619 14.9973 0.0000 0.0000 0.0000
# 3 27.7233 14.9973 84.1047 0.0000 0.0000 0.0000
# 4 0.0000 0.0000 0.0000 24.6056 0.0000 0.0000
# 5 0.0000 0.0000 0.0000 0.0000 45.5012 0.0000
# 6 0.0000 0.0000 0.0000 0.0000 0.0000 30.7119
#
#
#
# Elastic Compliance Matrix: (Units=1/GPa)
#
#
# Indices 1 2 3 4 5 6 
#
# 1 0.014630 -0.000887 -0.004664 0.000000 0.000000 0.000000
# 2 -0.000887 0.019628 -0.003208 0.000000 0.000000 0.000000
# 3 -0.004664 -0.003208 0.013999 0.000000 0.000000 0.000000
# 4 0.000000 0.000000 0.000000 0.040641 0.000000 0.000000
# 5 0.000000 0.000000 0.000000 0.000000 0.021977 0.000000
# 6 0.000000 0.000000 0.000000 0.000000 0.000000 0.032561
#
#
# Mechanical properties :
#
#
# Convention : Reuss Voigt Hill
#
# Bulk Modulus (GPa) = 32.53110 35.22968 33.88039
# Shear Modulus (GPa) = 29.20559 31.14952 30.17755
#
# Velocity S-wave (km/s) = 3.76131 3.88447 3.82339
# Velocity P-wave (km/s) = 5.88402 6.09791 5.99192
#
# Compressibility (1/GPa) = 0.03073982
#
# Stress axis : x y z
#
# Youngs Moduli (GPa) = 68.35418 50.94772 71.43157
#
# Poissons Ratio (x) = 0.04517 0.33318
# Poissons Ratio (y) = 0.06060 0.22914
# Poissons Ratio (z) = 0.31882 0.16343
#
# Static dielectric constant tensor:
#      x y z
#    x 4.072420 0.000000 0.000000 
#    y 0.000000 3.866080 0.000000 
#    z 0.000000 0.000000 3.702830 
# 
# 
# High freq. dielectric constant tensor:
#      x y z
#    x 1.827410 0.000000 0.000000 
#    y 0.000000 1.802480 0.000000 
#    z 0.000000 0.000000 1.807360 
# 
# From -- ./inp_files/9048.got.cif
#   From: 2010.03.12/outbox.cif.g09.slc.cpg/sg61_5_cif.got.tgz:9048.got - 2010.04.10 19:05:03.
