data_PCOD8249403
_publ_section_title
;
Structure prediction by ZEFSAII (Michael W. Deem and Ramdas Pophale) SiO2 
 PCOD8249403
Probable space group: P B C A
;
_chemical_formula_sum "Si O2"
_cell_formula_units_Z 40
_cell_length_a 15.259972
_cell_length_b 23.087666
_cell_length_c 4.941283
_cell_angle_alpha 90.000000
_cell_angle_beta 90.000000
_cell_angle_gamma 90.000000
_cell_volume 1740.898678
_symmetry_space_group_name_H-M "P B C A"
_symmetry_group_IT_number 61
_symmetry_cell_setting 'orthorhombic'
loop_
_space_group_symop_operation_xyz
x,y,z
1/2-x,-y,1/2+z
1/2+x,1/2-y,-z
-x,1/2+y,1/2-z
-x,-y,-z
1/2+x,y,1/2-z
1/2-x,1/2+y,z
x,1/2-y,1/2+z
loop_
_atom_site_type_symbol
_atom_site_label
_atom_site_fract_x
_atom_site_fract_y
_atom_site_fract_z
Si Si1 0.442444 0.906504 0.943759
Si Si2 0.193038 0.000000 0.249984
Si Si3 0.649032 0.287588 0.490629
Si Si4 0.149023 0.712412 0.490656
Si Si5 0.942450 0.406505 0.443756
O O1 0.362836 0.948022 0.873234
O O2 0.524064 0.919034 0.745897
O O3 0.411378 0.840593 0.922147
O O4 0.475931 0.919039 0.245895
O O5 0.250002 0.975145 0.499978
O O6 0.137158 0.948024 0.126748
O O7 0.627998 0.233978 0.688958
O O8 0.750005 0.307408 0.499988
O O9 0.127988 0.733978 0.188986
O O10 0.088614 0.659406 0.577882
#
# Coordination Sequence:
#
# PCOD8249403 Si02
#       5
#     8   8   8   8   8
#     4  12  25  42  66  97 132 165 210 269 325 377
#     4  12  26  46  70  92 124 170 218 262 318 388
#     4  10  22  40  63  92 128 170 213 254 305 376
#     4  10  22  40  63  92 128 170 213 254 305 376
#     4  12  25  42  66  97 132 165 210 269 325 377
#
# _framework density 22.976635999999999
#
# number of rings (size 3 to 8) (size 9 to 14) (size 15 to 20)
#    0.000    0.800    0.000    7.200    0.000    9.600 
#    0.000    0.000    0.000    0.000    0.000    0.000 
#    0.000    0.000    0.000    0.000    0.000    0.000 
#
# Total GULP energy -496297.867056 kJ/mol
# GULP energy per Si atom -12407.446676 kJ/mol
# Density = 2.292434 g / cm^3
# Si number density = 22.976636 Si / 1000 Ang^3
#
#
#
# Elastic Constant Matrix: (Units=GPa)
#
#
# Indices 1 2 3 4 5 6 
#
# 1 91.3204 43.0006 31.4096 0.0000 0.0000 0.0000
# 2 43.0006 82.4112 14.8172 0.0000 0.0000 0.0000
# 3 31.4096 14.8172 106.4809 0.0000 0.0000 0.0000
# 4 0.0000 0.0000 0.0000 22.2685 0.0000 0.0000
# 5 0.0000 0.0000 0.0000 0.0000 52.3132 0.0000
# 6 0.0000 0.0000 0.0000 0.0000 0.0000 16.2592
#
#
#
# Elastic Compliance Matrix: (Units=1/GPa)
#
#
# Indices 1 2 3 4 5 6 
#
# 1 0.015752 -0.007573 -0.003593 0.000000 0.000000 0.000000
# 2 -0.007573 0.016087 -0.000005 0.000000 0.000000 0.000000
# 3 -0.003593 -0.000005 0.010452 0.000000 0.000000 0.000000
# 4 0.000000 0.000000 0.000000 0.044906 0.000000 0.000000
# 5 0.000000 0.000000 0.000000 0.000000 0.019116 0.000000
# 6 0.000000 0.000000 0.000000 0.000000 0.000000 0.061504
#
#
# Mechanical properties :
#
#
# Convention : Reuss Voigt Hill
#
# Bulk Modulus (GPa) = 50.12638 50.96303 50.54470
# Shear Modulus (GPa) = 25.40556 30.90054 28.15305
#
# Velocity S-wave (km/s) = 3.32883 3.67122 3.50421
# Velocity P-wave (km/s) = 6.05297 6.34027 6.19828
#
# Compressibility (1/GPa) = 0.01994958
#
# Stress axis : x y z
#
# Youngs Moduli (GPa) = 63.48299 62.16317 95.67761
#
# Poissons Ratio (x) = 0.47078 0.34374
# Poissons Ratio (y) = 0.48077 0.00044
# Poissons Ratio (z) = 0.22808 0.00028
#
# Static dielectric constant tensor:
#      x y z
#    x 4.277780 0.000000 0.000000 
#    y 0.000000 3.884740 0.000000 
#    z 0.000000 0.000000 4.375020 
# 
# 
# High freq. dielectric constant tensor:
#      x y z
#    x 1.915980 0.000000 0.000000 
#    y 0.000000 1.903730 0.000000 
#    z 0.000000 0.000000 1.926100 
# 
# From -- ./inp_files/446.got.cif
#   From: 2010.03.12/outbox.cif.g09.slc.cpg/sg61_1_cif.got.tgz:446.got - 2010.04.10 19:05:03.
