data_PCOD8249840
_publ_section_title
;
Structure prediction by ZEFSAII (Michael W. Deem and Ramdas Pophale) SiO2 
 PCOD8249840
Probable space group: P B C A
;
_chemical_formula_sum "Si O2"
_cell_formula_units_Z 64
_cell_length_a 12.159170
_cell_length_b 22.390546
_cell_length_c 8.956328
_cell_angle_alpha 90.000000
_cell_angle_beta 90.000000
_cell_angle_gamma 90.000000
_cell_volume 2438.364375
_symmetry_space_group_name_H-M "P B C A"
_symmetry_group_IT_number 61
_symmetry_cell_setting 'orthorhombic'
loop_
_space_group_symop_operation_xyz
x,y,z
1/2-x,-y,1/2+z
1/2+x,1/2-y,-z
-x,1/2+y,1/2-z
-x,-y,-z
1/2+x,y,1/2-z
1/2-x,1/2+y,z
x,1/2-y,1/2+z
loop_
_atom_site_type_symbol
_atom_site_label
_atom_site_fract_x
_atom_site_fract_y
_atom_site_fract_z
Si Si1 0.867954 0.565892 0.503895
Si Si2 0.780237 0.917254 0.596094
Si Si3 0.542376 0.222930 0.846371
Si Si4 0.443479 0.184759 0.148493
Si Si5 0.700440 0.174311 0.356005
Si Si6 0.572916 0.405808 0.319042
Si Si7 0.453536 0.445262 0.778868
Si Si8 0.879847 0.030801 0.534143
O O1 0.874391 0.637107 0.471980
O O2 0.739544 0.551618 0.476260
O O3 0.905591 0.551653 0.673656
O O4 0.948213 0.532624 0.386900
O O5 0.798526 0.859600 0.696079
O O6 0.655133 0.941665 0.613516
O O7 0.817776 0.905621 0.424682
O O8 0.862943 0.972619 0.641295
O O9 0.446238 0.264929 0.778608
O O10 0.654653 0.260009 0.832591
O O11 0.558906 0.161463 0.755898
O O12 0.524286 0.205612 0.018420
O O13 0.322645 0.179975 0.080759
O O14 0.480990 0.120362 0.212107
O O15 0.452514 0.417372 0.393487
O O16 0.438300 0.489019 0.627780
#
# Coordination Sequence:
#
# PCOD8249840 Si02
#       8
#     8   8   8   8   8   8   8   8
#     4  12  26  46  77 111 157 204 267 326 401 472
#     4  11  27  51  80 111 158 214 255 329 410 466
#     4  12  24  44  74 104 151 201 254 320 388 467
#     4  11  24  45  73 110 151 199 257 319 393 463
#     4  11  24  49  73 107 153 207 256 317 403 477
#     4  12  28  46  75 119 158 198 277 332 387 476
#     4  11  25  51  79 108 161 211 261 325 406 483
#     4  12  27  52  78 108 162 209 269 331 397 486
#
# _framework density 26.247102000000002
#
# number of rings (size 3 to 8) (size 9 to 14) (size 15 to 20)
#    0.000    0.500    5.000    2.625    3.500    5.500 
#    0.000    0.000    0.000    0.000    0.000    0.000 
#    0.000    0.000    0.000    0.000    0.000    0.000 
#
# Total GULP energy -793416.347506 kJ/mol
# GULP energy per Si atom -12397.130430 kJ/mol
# Density = 2.618736 g / cm^3
# Si number density = 26.247102 Si / 1000 Ang^3
#
#
#
# Elastic Constant Matrix: (Units=GPa)
#
#
# Indices 1 2 3 4 5 6 
#
# 1 143.6564 24.7708 54.1155 0.0000 0.0000 0.0000
# 2 24.7708 96.6803 27.4518 0.0000 0.0000 0.0000
# 3 54.1155 27.4518 141.4203 0.0000 0.0000 0.0000
# 4 0.0000 0.0000 0.0000 41.9413 0.0000 0.0000
# 5 0.0000 0.0000 0.0000 0.0000 36.6821 0.0000
# 6 0.0000 0.0000 0.0000 0.0000 0.0000 39.2224
#
#
#
# Elastic Compliance Matrix: (Units=1/GPa)
#
#
# Indices 1 2 3 4 5 6 
#
# 1 0.008284 -0.001294 -0.002919 0.000000 0.000000 0.000000
# 2 -0.001294 0.011149 -0.001669 0.000000 0.000000 0.000000
# 3 -0.002919 -0.001669 0.008512 0.000000 0.000000 0.000000
# 4 0.000000 0.000000 0.000000 0.023843 0.000000 0.000000
# 5 0.000000 0.000000 0.000000 0.000000 0.027261 0.000000
# 6 0.000000 0.000000 0.000000 0.000000 0.000000 0.025496
#
#
# Mechanical properties :
#
#
# Convention : Reuss Voigt Hill
#
# Bulk Modulus (GPa) = 61.79903 66.04810 63.92356
# Shear Modulus (GPa) = 41.08440 41.93042 41.50741
#
# Velocity S-wave (km/s) = 3.96067 4.00124 3.98101
# Velocity P-wave (km/s) = 6.67174 6.82387 6.74823
#
# Compressibility (1/GPa) = 0.01618148
#
# Stress axis : x y z
#
# Youngs Moduli (GPa) = 120.72088 89.69612 117.48166
#
# Poissons Ratio (x) = 0.11603 0.34289
# Poissons Ratio (y) = 0.15617 0.19609
# Poissons Ratio (z) = 0.35234 0.14971
#
# Static dielectric constant tensor:
#      x y z
#    x 4.900180 0.000000 0.000000 
#    y 0.000000 5.217700 0.000000 
#    z 0.000000 0.000000 4.712560 
# 
# 
# High freq. dielectric constant tensor:
#      x y z
#    x 2.067280 0.000000 0.000000 
#    y 0.000000 2.073740 0.000000 
#    z 0.000000 0.000000 2.050550 
# 
# From -- ./inp_files/3203.got.cif
#   From: 2010.03.12/outbox.cif.g09.slc.cpg/sg61_2_cif.got.tgz:3203.got - 2010.04.10 19:05:03.
