data_PCOD8249551
_publ_section_title
;
Structure prediction by ZEFSAII (Michael W. Deem and Ramdas Pophale) SiO2 
 PCOD8249551
Probable space group: P B C A
;
_chemical_formula_sum "Si O2"
_cell_formula_units_Z 48
_cell_length_a 8.719876
_cell_length_b 22.048982
_cell_length_c 9.502413
_cell_angle_alpha 90.000000
_cell_angle_beta 90.000000
_cell_angle_gamma 90.000000
_cell_volume 1826.975629
_symmetry_space_group_name_H-M "P B C A"
_symmetry_group_IT_number 61
_symmetry_cell_setting 'orthorhombic'
loop_
_space_group_symop_operation_xyz
x,y,z
1/2-x,-y,1/2+z
1/2+x,1/2-y,-z
-x,1/2+y,1/2-z
-x,-y,-z
1/2+x,y,1/2-z
1/2-x,1/2+y,z
x,1/2-y,1/2+z
loop_
_atom_site_type_symbol
_atom_site_label
_atom_site_fract_x
_atom_site_fract_y
_atom_site_fract_z
Si Si1 0.855739 0.598074 0.145639
Si Si2 0.754264 0.699758 0.328009
Si Si3 0.510480 0.783161 0.241817
Si Si4 0.981632 0.443714 0.103149
Si Si5 0.271624 0.642736 0.891656
Si Si6 0.563418 0.520460 0.151354
O O1 0.778783 0.662671 0.182193
O O2 0.734272 0.543876 0.127373
O O3 0.971002 0.574249 0.268258
O O4 0.935258 0.609010 0.990478
O O5 0.584069 0.729412 0.339194
O O6 0.878538 0.752770 0.351084
O O7 0.785789 0.647897 0.441754
O O8 0.654540 0.804254 0.151930
O O9 0.437294 0.842378 0.320969
O O10 0.062973 0.459741 0.250812
O O11 0.804688 0.423305 0.137016
O O12 0.000000 0.500000 0.000000
O O13 0.500000 0.500000 0.000000
#
# Coordination Sequence:
#
# PCOD8249551 Si02
#       6
#     8   8   8   8   8   8
#     4  11  23  42  70  99 135 184 234 291 354 429
#     4  11  21  42  66  95 129 175 231 285 351 427
#     4  10  24  40  63  95 130 173 226 292 353 421
#     4  10  23  43  65  96 136 178 228 285 346 424
#     4  11  23  41  64  93 132 177 226 286 355 422
#     4  11  24  42  66 100 140 185 233 291 358 429
#
# _framework density 26.272926999999999
#
# number of rings (size 3 to 8) (size 9 to 14) (size 15 to 20)
#    0.000    1.333    0.000    6.000    0.000    8.000 
#    0.000    5.000    0.000    0.000    0.000    0.000 
#    0.000    0.000    0.000    0.000    0.000    0.000 
#
# Total GULP energy -594787.783298 kJ/mol
# GULP energy per Si atom -12391.412152 kJ/mol
# Density = 2.621313 g / cm^3
# Si number density = 26.272927 Si / 1000 Ang^3
#
#
#
# Elastic Constant Matrix: (Units=GPa)
#
#
# Indices 1 2 3 4 5 6 
#
# 1 98.7865 3.9201 20.0208 0.0000 0.0000 0.0000
# 2 3.9201 83.9544 -1.8304 0.0000 0.0000 0.0000
# 3 20.0208 -1.8304 119.5421 0.0000 0.0000 0.0000
# 4 0.0000 0.0000 0.0000 34.5081 0.0000 0.0000
# 5 0.0000 0.0000 0.0000 0.0000 36.3048 0.0000
# 6 0.0000 0.0000 0.0000 0.0000 0.0000 56.3717
#
#
#
# Elastic Compliance Matrix: (Units=1/GPa)
#
#
# Indices 1 2 3 4 5 6 
#
# 1 0.010502 -0.000529 -0.001767 0.000000 0.000000 0.000000
# 2 -0.000529 0.011942 0.000271 0.000000 0.000000 0.000000
# 3 -0.001767 0.000271 0.008665 0.000000 0.000000 0.000000
# 4 0.000000 0.000000 0.000000 0.028979 0.000000 0.000000
# 5 0.000000 0.000000 0.000000 0.000000 0.027545 0.000000
# 6 0.000000 0.000000 0.000000 0.000000 0.000000 0.017739
#
#
# Mechanical properties :
#
#
# Convention : Reuss Voigt Hill
#
# Bulk Modulus (GPa) = 36.95453 38.50044 37.72749
# Shear Modulus (GPa) = 42.21520 44.11507 43.16514
#
# Velocity S-wave (km/s) = 4.01283 4.10214 4.05773
# Velocity P-wave (km/s) = 5.96377 6.09283 6.02865
#
# Compressibility (1/GPa) = 0.02706028
#
# Stress axis : x y z
#
# Youngs Moduli (GPa) = 95.22061 83.73920 115.40233
#
# Poissons Ratio (x) = 0.04429 0.20391
# Poissons Ratio (y) = 0.05036 -0.03132
# Poissons Ratio (z) = 0.16825 -0.02273
#
# Static dielectric constant tensor:
#      x y z
#    x 5.193810 0.000000 0.000000 
#    y 0.000000 4.985820 0.000000 
#    z 0.000000 0.000000 5.036030 
# 
# 
# High freq. dielectric constant tensor:
#      x y z
#    x 2.061930 0.000000 0.000000 
#    y 0.000000 2.069190 0.000000 
#    z 0.000000 0.000000 2.040290 
# 
# From -- ./inp_files/1883.got.cif
#   From: 2010.03.12/outbox.cif.g09.slc.cpg/sg61_1_cif.got.tgz:1883.got - 2010.04.10 19:05:03.
