data_PCOD8249763
_publ_section_title
;
Structure prediction by ZEFSAII (Michael W. Deem and Ramdas Pophale) SiO2 
 PCOD8249763
Probable space group: P B C A
;
_chemical_formula_sum "Si O2"
_cell_formula_units_Z 40
_cell_length_a 18.002898
_cell_length_b 8.511034
_cell_length_c 11.257195
_cell_angle_alpha 90.000000
_cell_angle_beta 90.000000
_cell_angle_gamma 90.000000
_cell_volume 1724.864307
_symmetry_space_group_name_H-M "P B C A"
_symmetry_group_IT_number 61
_symmetry_cell_setting 'orthorhombic'
loop_
_space_group_symop_operation_xyz
x,y,z
1/2-x,-y,1/2+z
1/2+x,1/2-y,-z
-x,1/2+y,1/2-z
-x,-y,-z
1/2+x,y,1/2-z
1/2-x,1/2+y,z
x,1/2-y,1/2+z
loop_
_atom_site_type_symbol
_atom_site_label
_atom_site_fract_x
_atom_site_fract_y
_atom_site_fract_z
Si Si1 0.192149 0.999663 0.812366
Si Si2 0.915719 0.778011 0.282657
Si Si3 0.086192 0.482275 0.539166
Si Si4 0.968736 0.495118 0.129904
Si Si5 0.842649 0.152547 0.736397
O O1 0.164991 0.148519 0.736460
O O2 0.279749 0.033336 0.812839
O O3 0.181898 0.831856 0.748857
O O4 0.147449 0.001791 0.936234
O O5 0.912288 0.694302 0.409769
O O6 0.941182 0.664015 0.175873
O O7 0.968581 0.930874 0.280652
O O8 0.115636 0.598410 0.642737
O O9 0.000000 0.500000 0.500000
O O10 0.903185 0.365161 0.131282
O O11 0.000000 0.500000 0.000000
#
# Coordination Sequence:
#
# PCOD8249763 Si02
#       5
#     8   8   8   8   8
#     4  12  26  47  70  99 144 184 227 294 350 408
#     4  11  24  42  67 101 133 176 232 279 337 419
#     4  11  25  47  73 104 141 182 230 289 350 414
#     4  11  23  41  66  97 133 175 222 277 337 400
#     4  11  26  45  69 105 139 183 239 285 346 425
#
# _framework density 23.190228999999999
#
# number of rings (size 3 to 8) (size 9 to 14) (size 15 to 20)
#    0.000    0.800    0.000    8.400    0.000   11.200 
#    0.000    0.000    0.000    0.000    0.000    0.000 
#    0.000    0.000    0.000    0.000    0.000    0.000 
#
# Total GULP energy -495601.328220 kJ/mol
# GULP energy per Si atom -12390.033206 kJ/mol
# Density = 2.313745 g / cm^3
# Si number density = 23.190229 Si / 1000 Ang^3
#
#
#
# Elastic Constant Matrix: (Units=GPa)
#
#
# Indices 1 2 3 4 5 6 
#
# 1 96.6941 21.3615 71.3508 0.0000 0.0000 0.0000
# 2 21.3615 125.1260 42.5005 0.0000 0.0000 0.0000
# 3 71.3508 42.5005 124.1405 0.0000 0.0000 0.0000
# 4 0.0000 0.0000 0.0000 35.4409 0.0000 0.0000
# 5 0.0000 0.0000 0.0000 0.0000 40.3444 0.0000
# 6 0.0000 0.0000 0.0000 0.0000 0.0000 51.3358
#
#
#
# Elastic Compliance Matrix: (Units=1/GPa)
#
#
# Indices 1 2 3 4 5 6 
#
# 1 0.017986 0.000499 -0.010508 0.000000 0.000000 0.000000
# 2 0.000499 0.009057 -0.003388 0.000000 0.000000 0.000000
# 3 -0.010508 -0.003388 0.015255 0.000000 0.000000 0.000000
# 4 0.000000 0.000000 0.000000 0.028216 0.000000 0.000000
# 5 0.000000 0.000000 0.000000 0.000000 0.024787 0.000000
# 6 0.000000 0.000000 0.000000 0.000000 0.000000 0.019480
#
#
# Mechanical properties :
#
#
# Convention : Reuss Voigt Hill
#
# Bulk Modulus (GPa) = 64.49964 68.48734 66.49349
# Shear Modulus (GPa) = 34.07340 39.47409 36.77374
#
# Velocity S-wave (km/s) = 3.83730 4.13023 3.98646
# Velocity P-wave (km/s) = 6.89252 7.23478 7.06572
#
# Compressibility (1/GPa) = 0.01550396
#
# Stress axis : x y z
#
# Youngs Moduli (GPa) = 55.59959 110.40678 65.55316
#
# Poissons Ratio (x) = -0.05506 0.68885
# Poissons Ratio (y) = -0.02773 0.22206
# Poissons Ratio (z) = 0.58425 0.37400
#
# Static dielectric constant tensor:
#      x y z
#    x 4.230700 0.000000 0.000000 
#    y 0.000000 4.426700 0.000000 
#    z 0.000000 0.000000 4.040040 
# 
# 
# High freq. dielectric constant tensor:
#      x y z
#    x 1.937450 0.000000 0.000000 
#    y 0.000000 1.934530 0.000000 
#    z 0.000000 0.000000 1.907240 
# 
# From -- ./inp_files/2135.got.cif
#   From: 2010.03.12/outbox.cif.g09.slc.cpg/sg61_2_cif.got.tgz:2135.got - 2010.04.10 19:05:03.
