data_PCOD8249638
_publ_section_title
;
Structure prediction by ZEFSAII (Michael W. Deem and Ramdas Pophale) SiO2 
 PCOD8249638
Probable space group: P B C A
;
_chemical_formula_sum "Si O2"
_cell_formula_units_Z 64
_cell_length_a 12.147588
_cell_length_b 12.875565
_cell_length_c 18.084100
_cell_angle_alpha 90.000000
_cell_angle_beta 90.000000
_cell_angle_gamma 90.000000
_cell_volume 2828.480894
_symmetry_space_group_name_H-M "P B C A"
_symmetry_group_IT_number 61
_symmetry_cell_setting 'orthorhombic'
loop_
_space_group_symop_operation_xyz
x,y,z
1/2-x,-y,1/2+z
1/2+x,1/2-y,-z
-x,1/2+y,1/2-z
-x,-y,-z
1/2+x,y,1/2-z
1/2-x,1/2+y,z
x,1/2-y,1/2+z
loop_
_atom_site_type_symbol
_atom_site_label
_atom_site_fract_x
_atom_site_fract_y
_atom_site_fract_z
Si Si1 0.940202 0.680168 0.553214
Si Si2 0.386299 0.919004 0.916257
Si Si3 0.511961 0.548380 0.816208
Si Si4 0.436956 0.251609 0.423949
Si Si5 0.279043 0.092941 0.000969
Si Si6 0.815203 0.391234 0.683148
Si Si7 0.950278 0.575069 0.844794
Si Si8 0.745695 0.051838 0.335778
O O1 0.913146 0.802052 0.560920
O O2 0.831371 0.610536 0.546336
O O3 0.009566 0.641350 0.623878
O O4 0.010991 0.663648 0.477507
O O5 0.301314 0.926161 0.849028
O O6 0.495957 0.978091 0.889304
O O7 0.328790 0.977887 0.985696
O O8 0.405840 0.478252 0.829531
O O9 0.509198 0.594358 0.733905
O O10 0.619970 0.479085 0.824714
O O11 0.367465 0.323317 0.477716
O O12 0.358343 0.210870 0.358664
O O13 0.536180 0.317808 0.388732
O O14 0.255562 0.111426 0.087066
O O15 0.791236 0.372469 0.770437
O O16 0.821017 0.552093 0.835184
#
# Coordination Sequence:
#
# PCOD8249638 Si02
#       8
#     8   8   8   8   8   8   8   8
#     4  12  25  41  71 106 137 180 238 290 349 418
#     4  11  22  46  73  97 140 189 229 288 360 420
#     4  11  25  43  70 103 136 182 234 290 354 415
#     4  11  25  42  66 104 138 183 238 287 355 418
#     4  11  24  43  69 100 138 183 228 293 350 417
#     4  11  23  45  71  98 140 185 229 294 353 423
#     4  10  24  46  68  97 140 188 230 286 349 429
#     4  11  24  44  71  98 142 182 234 291 353 423
#
# _framework density 22.626985999999999
#
# number of rings (size 3 to 8) (size 9 to 14) (size 15 to 20)
#    0.000    1.000    3.750    2.250    1.750    7.000 
#    2.250    1.250    0.000    0.000    0.000    0.000 
#    0.000    0.000    0.000    0.000    0.000    0.000 
#
# Total GULP energy -793669.628264 kJ/mol
# GULP energy per Si atom -12401.087942 kJ/mol
# Density = 2.257549 g / cm^3
# Si number density = 22.626986 Si / 1000 Ang^3
#
#
#
# Elastic Constant Matrix: (Units=GPa)
#
#
# Indices 1 2 3 4 5 6 
#
# 1 62.4960 10.6790 18.5486 0.0000 0.0000 0.0000
# 2 10.6790 77.9483 36.0158 0.0000 0.0000 0.0000
# 3 18.5486 36.0158 149.3755 0.0000 0.0000 0.0000
# 4 0.0000 0.0000 0.0000 33.6382 0.0000 0.0000
# 5 0.0000 0.0000 0.0000 0.0000 38.3577 0.0000
# 6 0.0000 0.0000 0.0000 0.0000 0.0000 19.7616
#
#
#
# Elastic Compliance Matrix: (Units=1/GPa)
#
#
# Indices 1 2 3 4 5 6 
#
# 1 0.016768 -0.001503 -0.001720 0.000000 0.000000 0.000000
# 2 -0.001503 0.014572 -0.003327 0.000000 0.000000 0.000000
# 3 -0.001720 -0.003327 0.007710 0.000000 0.000000 0.000000
# 4 0.000000 0.000000 0.000000 0.029728 0.000000 0.000000
# 5 0.000000 0.000000 0.000000 0.000000 0.026070 0.000000
# 6 0.000000 0.000000 0.000000 0.000000 0.000000 0.050603
#
#
# Mechanical properties :
#
#
# Convention : Reuss Voigt Hill
#
# Bulk Modulus (GPa) = 38.53295 46.70072 42.61684
# Shear Modulus (GPa) = 29.90405 33.32328 31.61366
#
# Velocity S-wave (km/s) = 3.63934 3.84177 3.74192
# Velocity P-wave (km/s) = 5.89291 6.35320 6.12738
#
# Compressibility (1/GPa) = 0.02595182
#
# Stress axis : x y z
#
# Youngs Moduli (GPa) = 59.63657 68.62458 129.69766
#
# Poissons Ratio (x) = 0.10311 0.22307
# Poissons Ratio (y) = 0.08961 0.43149
# Poissons Ratio (z) = 0.10257 0.22830
#
# Static dielectric constant tensor:
#      x y z
#    x 4.213870 0.000000 0.000000 
#    y 0.000000 3.721260 0.000000 
#    z 0.000000 0.000000 4.417130 
# 
# 
# High freq. dielectric constant tensor:
#      x y z
#    x 1.906850 0.000000 0.000000 
#    y 0.000000 1.863590 0.000000 
#    z 0.000000 0.000000 1.914190 
# 
# From -- ./inp_files/9550.got.cif
#   From: 2010.03.12/outbox.cif.g09.slc.cpg/sg61_5_cif.got.tgz:9550.got - 2010.04.10 19:05:03.
