data_PCOD8249657
_publ_section_title
;
Structure prediction by ZEFSAII (Michael W. Deem and Ramdas Pophale) SiO2 
 PCOD8249657
Probable space group: P B C A
;
_chemical_formula_sum "Si O2"
_cell_formula_units_Z 40
_cell_length_a 17.530568
_cell_length_b 10.363433
_cell_length_c 9.334345
_cell_angle_alpha 90.000000
_cell_angle_beta 90.000000
_cell_angle_gamma 90.000000
_cell_volume 1695.834554
_symmetry_space_group_name_H-M "P B C A"
_symmetry_group_IT_number 61
_symmetry_cell_setting 'orthorhombic'
loop_
_space_group_symop_operation_xyz
x,y,z
1/2-x,-y,1/2+z
1/2+x,1/2-y,-z
-x,1/2+y,1/2-z
-x,-y,-z
1/2+x,y,1/2-z
1/2-x,1/2+y,z
x,1/2-y,1/2+z
loop_
_atom_site_type_symbol
_atom_site_label
_atom_site_fract_x
_atom_site_fract_y
_atom_site_fract_z
Si Si1 0.885005 0.369219 0.411304
Si Si2 0.469661 0.786746 0.945302
Si Si3 0.926409 0.499866 0.863884
Si Si4 0.653828 0.092115 0.595578
Si Si5 0.170347 0.854078 0.407480
O O1 0.867384 0.518595 0.447829
O O2 0.870052 0.341350 0.245498
O O3 0.829590 0.281274 0.508506
O O4 0.972390 0.333980 0.451648
O O5 0.460979 0.858176 0.100339
O O6 0.504844 0.896694 0.839282
O O7 0.387326 0.731887 0.898529
O O8 0.875441 0.501583 0.723588
O O9 0.874649 0.459604 0.999411
O O10 0.742992 0.106145 0.615278
#
# Coordination Sequence:
#
# PCOD8249657 Si02
#       5
#     8   8   8   8   8
#     4  11  25  48  69 103 142 185 235 289 350 425
#     4  10  25  44  71 101 142 184 232 286 354 414
#     4  10  25  48  70 103 144 182 234 297 347 414
#     4  12  26  42  78 104 137 186 242 284 358 412
#     4  11  26  46  70 101 148 182 232 294 353 416
#
# _framework density 23.587206999999999
#
# number of rings (size 3 to 8) (size 9 to 14) (size 15 to 20)
#    0.000    1.200    0.000    4.200   16.800    1.600 
#    0.000    0.000    0.000    0.000    0.000    0.000 
#    0.000    0.000    0.000    0.000    0.000    0.000 
#
# Total GULP energy -495986.706812 kJ/mol
# GULP energy per Si atom -12399.667670 kJ/mol
# Density = 2.353352 g / cm^3
# Si number density = 23.587207 Si / 1000 Ang^3
#
#
#
# Elastic Constant Matrix: (Units=GPa)
#
#
# Indices 1 2 3 4 5 6 
#
# 1 108.4225 40.6129 18.9190 0.0000 0.0000 0.0000
# 2 40.6129 91.7480 34.1531 0.0000 0.0000 0.0000
# 3 18.9190 34.1531 114.2319 0.0000 0.0000 0.0000
# 4 0.0000 0.0000 0.0000 30.3042 0.0000 0.0000
# 5 0.0000 0.0000 0.0000 0.0000 25.2566 0.0000
# 6 0.0000 0.0000 0.0000 0.0000 0.0000 46.5674
#
#
#
# Elastic Compliance Matrix: (Units=1/GPa)
#
#
# Indices 1 2 3 4 5 6 
#
# 1 0.011074 -0.004748 -0.000415 0.000000 0.000000 0.000000
# 2 -0.004748 0.014300 -0.003489 0.000000 0.000000 0.000000
# 3 -0.000415 -0.003489 0.009866 0.000000 0.000000 0.000000
# 4 0.000000 0.000000 0.000000 0.032999 0.000000 0.000000
# 5 0.000000 0.000000 0.000000 0.000000 0.039594 0.000000
# 6 0.000000 0.000000 0.000000 0.000000 0.000000 0.021474
#
#
# Mechanical properties :
#
#
# Convention : Reuss Voigt Hill
#
# Bulk Modulus (GPa) = 55.75043 55.75248 55.75146
# Shear Modulus (GPa) = 32.76805 35.14014 33.95409
#
# Velocity S-wave (km/s) = 3.73128 3.86398 3.79821
# Velocity P-wave (km/s) = 6.50004 6.60266 6.55155
#
# Compressibility (1/GPa) = 0.01793708
#
# Stress axis : x y z
#
# Youngs Moduli (GPa) = 90.30258 69.93120 101.35870
#
# Poissons Ratio (x) = 0.33200 0.04202
# Poissons Ratio (y) = 0.42872 0.35365
# Poissons Ratio (z) = 0.03744 0.24399
#
# Static dielectric constant tensor:
#      x y z
#    x 4.204620 0.000000 0.000000 
#    y 0.000000 4.313070 0.000000 
#    z 0.000000 0.000000 4.099400 
# 
# 
# High freq. dielectric constant tensor:
#      x y z
#    x 1.938440 0.000000 0.000000 
#    y 0.000000 1.937880 0.000000 
#    z 0.000000 0.000000 1.927460 
# 
# From -- ./inp_files/3296.got.cif
#   From: 2010.03.12/outbox.cif.g09.slc.cpg/sg61_2_cif.got.tgz:3296.got - 2010.04.10 19:05:03.
