data_PCOD8249284
_publ_section_title
;
Structure prediction by ZEFSAII (Michael W. Deem and Ramdas Pophale) SiO2 
 PCOD8249284
Probable space group: P B C A
;
_chemical_formula_sum "Si O2"
_cell_formula_units_Z 64
_cell_length_a 11.494637
_cell_length_b 15.295803
_cell_length_c 16.661094
_cell_angle_alpha 90.000000
_cell_angle_beta 90.000000
_cell_angle_gamma 90.000000
_cell_volume 2929.348601
_symmetry_space_group_name_H-M "P B C A"
_symmetry_group_IT_number 61
_symmetry_cell_setting 'orthorhombic'
loop_
_space_group_symop_operation_xyz
x,y,z
1/2-x,-y,1/2+z
1/2+x,1/2-y,-z
-x,1/2+y,1/2-z
-x,-y,-z
1/2+x,y,1/2-z
1/2-x,1/2+y,z
x,1/2-y,1/2+z
loop_
_atom_site_type_symbol
_atom_site_label
_atom_site_fract_x
_atom_site_fract_y
_atom_site_fract_z
Si Si1 0.530344 0.572487 0.333567
Si Si2 0.130338 0.073578 0.926927
Si Si3 0.005756 0.262716 0.351409
Si Si4 0.776996 0.969856 0.903677
Si Si5 0.976872 0.725884 0.835835
Si Si6 0.501186 0.581518 0.156245
Si Si7 0.348235 0.082846 0.821879
Si Si8 0.727924 0.651221 0.850961
O O1 0.469208 0.660256 0.369808
O O2 0.643589 0.553842 0.386634
O O3 0.569989 0.583216 0.240701
O O4 0.440445 0.494441 0.328717
O O5 0.075806 0.168343 0.905774
O O6 0.243693 0.054429 0.876582
O O7 0.168411 0.077301 0.018892
O O8 0.046486 0.991286 0.906784
O O9 0.039590 0.278551 0.259799
O O10 0.867880 0.274689 0.365776
O O11 0.863001 0.939522 0.831026
O O12 0.784580 0.074188 0.916215
O O13 0.009005 0.818988 0.875573
O O14 0.852954 0.693023 0.867149
O O15 0.084921 0.665419 0.860141
O O16 0.294853 0.104926 0.734990
#
# Coordination Sequence:
#
# PCOD8249284 Si02
#       8
#     8   8   8   8   8   8   8   8
#     4  11  23  42  69 100 130 177 236 286 324 402
#     4  12  25  43  63  99 142 180 217 273 355 413
#     4  10  22  39  66  96 133 171 222 283 332 397
#     4  12  24  42  70  95 134 181 226 273 353 412
#     4  10  21  40  68  99 127 167 230 282 332 384
#     4  11  23  42  70 100 130 175 233 283 330 408
#     4  11  22  40  67  92 134 173 218 284 337 395
#     4  11  19  40  69  95 127 175 226 283 332 398
#
# _framework density 21.847860000000001
#
# number of rings (size 3 to 8) (size 9 to 14) (size 15 to 20)
#    0.000    1.000    5.000    2.625    0.000    1.500 
#    2.250    2.500    0.000    0.000    0.000    0.000 
#    0.000    0.000    0.000    0.000    0.000    0.000 
#
# Total GULP energy -793098.922737 kJ/mol
# GULP energy per Si atom -12392.170668 kJ/mol
# Density = 2.179813 g / cm^3
# Si number density = 21.847860 Si / 1000 Ang^3
#
#
#
# Elastic Constant Matrix: (Units=GPa)
#
#
# Indices 1 2 3 4 5 6 
#
# 1 81.9094 21.8224 20.3071 0.0000 0.0000 0.0000
# 2 21.8224 149.4921 17.5975 0.0000 0.0000 0.0000
# 3 20.3071 17.5975 58.4704 0.0000 0.0000 0.0000
# 4 0.0000 0.0000 0.0000 7.0786 0.0000 0.0000
# 5 0.0000 0.0000 0.0000 0.0000 16.2010 0.0000
# 6 0.0000 0.0000 0.0000 0.0000 0.0000 13.2047
#
#
#
# Elastic Compliance Matrix: (Units=1/GPa)
#
#
# Indices 1 2 3 4 5 6 
#
# 1 0.013672 -0.001490 -0.004300 0.000000 0.000000 0.000000
# 2 -0.001490 0.007097 -0.001619 0.000000 0.000000 0.000000
# 3 -0.004300 -0.001619 0.019083 0.000000 0.000000 0.000000
# 4 0.000000 0.000000 0.000000 0.141272 0.000000 0.000000
# 5 0.000000 0.000000 0.000000 0.000000 0.061725 0.000000
# 6 0.000000 0.000000 0.000000 0.000000 0.000000 0.075730
#
#
# Mechanical properties :
#
#
# Convention : Reuss Voigt Hill
#
# Bulk Modulus (GPa) = 39.94293 45.48066 42.71179
# Shear Modulus (GPa) = 14.63100 22.63984 18.63542
#
# Velocity S-wave (km/s) = 2.59062 3.22258 2.92372
# Velocity P-wave (km/s) = 5.22211 5.89142 5.56683
#
# Compressibility (1/GPa) = 0.02503572
#
# Stress axis : x y z
#
# Youngs Moduli (GPa) = 73.14485 140.89856 52.40211
#
# Poissons Ratio (x) = 0.20988 0.22532
# Poissons Ratio (y) = 0.10895 0.08482
# Poissons Ratio (z) = 0.31451 0.22807
#
# Static dielectric constant tensor:
#      x y z
#    x 4.000160 0.000000 0.000000 
#    y 0.000000 4.205290 0.000000 
#    z 0.000000 0.000000 3.654940 
# 
# 
# High freq. dielectric constant tensor:
#      x y z
#    x 1.867490 0.000000 0.000000 
#    y 0.000000 1.878390 0.000000 
#    z 0.000000 0.000000 1.819480 
# 
# From -- ./inp_files/9298.got.cif
#   From: 2010.03.12/outbox.cif.g09.slc.cpg/sg61_5_cif.got.tgz:9298.got - 2010.04.10 19:05:03.
