data_PCOD8249754
_publ_section_title
;
Structure prediction by ZEFSAII (Michael W. Deem and Ramdas Pophale) SiO2 
 PCOD8249754
Probable space group: P B C A
;
_chemical_formula_sum "Si O2"
_cell_formula_units_Z 40
_cell_length_a 10.675748
_cell_length_b 14.578311
_cell_length_c 10.082864
_cell_angle_alpha 90.000000
_cell_angle_beta 90.000000
_cell_angle_gamma 90.000000
_cell_volume 1569.240232
_symmetry_space_group_name_H-M "P B C A"
_symmetry_group_IT_number 61
_symmetry_cell_setting 'orthorhombic'
loop_
_space_group_symop_operation_xyz
x,y,z
1/2-x,-y,1/2+z
1/2+x,1/2-y,-z
-x,1/2+y,1/2-z
-x,-y,-z
1/2+x,y,1/2-z
1/2-x,1/2+y,z
x,1/2-y,1/2+z
loop_
_atom_site_type_symbol
_atom_site_label
_atom_site_fract_x
_atom_site_fract_y
_atom_site_fract_z
Si Si1 0.218297 0.403193 0.847387
Si Si2 0.892124 0.764581 0.014752
Si Si3 0.303414 0.409035 0.453704
Si Si4 0.004278 0.841380 0.273968
Si Si5 0.448888 0.454319 0.692805
O O1 0.202317 0.312034 0.931441
O O2 0.252594 0.489492 0.940016
O O3 0.341570 0.391496 0.758450
O O4 0.089609 0.425708 0.765492
O O5 0.803493 0.849701 0.976693
O O6 0.992600 0.796301 0.127859
O O7 0.956903 0.733538 0.879986
O O8 0.351122 0.365019 0.313210
O O9 0.431884 0.423318 0.538715
O O10 0.925299 0.937202 0.278933
#
# Coordination Sequence:
#
# PCOD8249754 Si02
#       5
#     8   8   8   8   8
#     4  11  23  43  72 101 140 190 231 299 357 426
#     4  12  24  42  70 105 136 186 247 283 355 428
#     4  11  23  45  70  98 146 188 236 295 368 426
#     4  11  24  43  70 101 140 190 234 296 358 424
#     4  11  22  48  71  99 147 191 236 297 372 423
#
# _framework density 25.490041000000002
#
# number of rings (size 3 to 8) (size 9 to 14) (size 15 to 20)
#    0.000    0.800    6.000    2.400    2.800    1.600 
#    0.000    1.000    0.000    0.000    0.000    0.000 
#    0.000    0.000    0.000    0.000    0.000    0.000 
#
# Total GULP energy -495745.028867 kJ/mol
# GULP energy per Si atom -12393.625722 kJ/mol
# Density = 2.543202 g / cm^3
# Si number density = 25.490041 Si / 1000 Ang^3
#
#
#
# Elastic Constant Matrix: (Units=GPa)
#
#
# Indices 1 2 3 4 5 6 
#
# 1 67.6013 3.1163 4.3275 0.0000 0.0000 0.0000
# 2 3.1163 82.1768 -4.1862 0.0000 0.0000 0.0000
# 3 4.3275 -4.1862 51.4348 0.0000 0.0000 0.0000
# 4 0.0000 0.0000 0.0000 36.0236 0.0000 0.0000
# 5 0.0000 0.0000 0.0000 0.0000 28.8665 0.0000
# 6 0.0000 0.0000 0.0000 0.0000 0.0000 32.9283
#
#
#
# Elastic Compliance Matrix: (Units=1/GPa)
#
#
# Indices 1 2 3 4 5 6 
#
# 1 0.014905 -0.000632 -0.001305 0.000000 0.000000 0.000000
# 2 -0.000632 0.012246 0.001050 0.000000 0.000000 0.000000
# 3 -0.001305 0.001050 0.019637 0.000000 0.000000 0.000000
# 4 0.000000 0.000000 0.000000 0.027760 0.000000 0.000000
# 5 0.000000 0.000000 0.000000 0.000000 0.034642 0.000000
# 6 0.000000 0.000000 0.000000 0.000000 0.000000 0.030369
#
#
# Mechanical properties :
#
#
# Convention : Reuss Voigt Hill
#
# Bulk Modulus (GPa) = 22.21516 23.08089 22.64803
# Shear Modulus (GPa) = 31.98173 32.76071 32.37122
#
# Velocity S-wave (km/s) = 3.54598 3.58891 3.56751
# Velocity P-wave (km/s) = 5.04970 5.12330 5.08663
#
# Compressibility (1/GPa) = 0.04501430
#
# Stress axis : x y z
#
# Youngs Moduli (GPa) = 67.09019 81.65719 50.92327
#
# Poissons Ratio (x) = 0.05159 0.06648
# Poissons Ratio (y) = 0.04238 -0.05346
# Poissons Ratio (z) = 0.08759 -0.08573
#
# Static dielectric constant tensor:
#      x y z
#    x 4.269830 0.000000 0.000000 
#    y 0.000000 4.887940 0.000000 
#    z 0.000000 0.000000 4.394100 
# 
# 
# High freq. dielectric constant tensor:
#      x y z
#    x 2.006090 0.000000 0.000000 
#    y 0.000000 2.041690 0.000000 
#    z 0.000000 0.000000 1.993150 
# 
# From -- ./inp_files/5101.got.cif
#   From: 2010.03.12/outbox.cif.g09.slc.cpg/sg61_3_cif.got.tgz:5101.got - 2010.04.10 19:05:03.
