data_PCOD8249750
_publ_section_title
;
Structure prediction by ZEFSAII (Michael W. Deem and Ramdas Pophale) SiO2 
 PCOD8249750
Probable space group: P B C A
;
_chemical_formula_sum "Si O2"
_cell_formula_units_Z 32
_cell_length_a 9.961322
_cell_length_b 13.597203
_cell_length_c 9.073446
_cell_angle_alpha 90.000000
_cell_angle_beta 90.000000
_cell_angle_gamma 90.000000
_cell_volume 1228.963032
_symmetry_space_group_name_H-M "P B C A"
_symmetry_group_IT_number 61
_symmetry_cell_setting 'orthorhombic'
loop_
_space_group_symop_operation_xyz
x,y,z
1/2-x,-y,1/2+z
1/2+x,1/2-y,-z
-x,1/2+y,1/2-z
-x,-y,-z
1/2+x,y,1/2-z
1/2-x,1/2+y,z
x,1/2-y,1/2+z
loop_
_atom_site_type_symbol
_atom_site_label
_atom_site_fract_x
_atom_site_fract_y
_atom_site_fract_z
Si Si1 0.182388 0.046688 0.796544
Si Si2 0.131746 0.190289 0.034861
Si Si3 0.922534 0.349552 0.314662
Si Si4 0.725058 0.677011 0.173540
O O1 0.166316 0.932069 0.828607
O O2 0.212583 0.101419 0.952914
O O3 0.299558 0.073515 0.680589
O O4 0.044121 0.092944 0.732499
O O5 0.204537 0.291560 0.980033
O O6 0.973130 0.180204 0.982622
O O7 0.151040 0.184657 0.208939
O O8 0.892843 0.250761 0.224275
#
# Coordination Sequence:
#
# PCOD8249750 Si02
#       4
#     8   8   8   8
#     4   9  22  41  67  99 137 179 229 283 343 414
#     4   9  24  40  66 103 132 182 226 280 342 417
#     4   9  22  44  65 106 135 180 241 274 358 409
#     4  11  22  45  70  99 143 182 223 296 341 410
#
# _framework density 26.038212000000001
#
# number of rings (size 3 to 8) (size 9 to 14) (size 15 to 20)
#    1.500    1.000    0.000    0.000    3.500    9.000 
#    0.000    5.000    0.000    0.000    0.000    0.000 
#    0.000    0.000    0.000    0.000    0.000    0.000 
#
# Total GULP energy -396562.340793 kJ/mol
# GULP energy per Si atom -12392.573150 kJ/mol
# Density = 2.597895 g / cm^3
# Si number density = 26.038212 Si / 1000 Ang^3
#
#
#
# Elastic Constant Matrix: (Units=GPa)
#
#
# Indices 1 2 3 4 5 6 
#
# 1 124.0955 50.0916 -13.6534 0.0000 0.0000 0.0000
# 2 50.0916 206.1636 -1.5047 0.0000 0.0000 0.0000
# 3 -13.6534 -1.5047 66.8492 0.0000 0.0000 0.0000
# 4 0.0000 0.0000 0.0000 23.3927 0.0000 0.0000
# 5 0.0000 0.0000 0.0000 0.0000 4.0304 0.0000
# 6 0.0000 0.0000 0.0000 0.0000 0.0000 37.7150
#
#
#
# Elastic Compliance Matrix: (Units=1/GPa)
#
#
# Indices 1 2 3 4 5 6 
#
# 1 0.009151 -0.002210 0.001819 0.000000 0.000000 0.000000
# 2 -0.002210 0.005385 -0.000330 0.000000 0.000000 0.000000
# 3 0.001819 -0.000330 0.015323 0.000000 0.000000 0.000000
# 4 0.000000 0.000000 0.000000 0.042748 0.000000 0.000000
# 5 0.000000 0.000000 0.000000 0.000000 0.248114 0.000000
# 6 0.000000 0.000000 0.000000 0.000000 0.000000 0.026515
#
#
# Mechanical properties :
#
#
# Convention : Reuss Voigt Hill
#
# Bulk Modulus (GPa) = 35.19051 51.88614 43.53832
# Shear Modulus (GPa) = 13.96064 37.17261 25.56662
#
# Velocity S-wave (km/s) = 2.31802 3.78248 3.13691
# Velocity P-wave (km/s) = 4.55067 6.24871 5.46603
#
# Compressibility (1/GPa) = 0.02841675
#
# Stress axis : x y z
#
# Youngs Moduli (GPa) = 109.28303 185.69830 65.26064
#
# Poissons Ratio (x) = 0.41040 -0.11872
# Poissons Ratio (y) = 0.24152 0.02155
# Poissons Ratio (z) = -0.19881 0.06131
#
# Static dielectric constant tensor:
#      x y z
#    x 4.630350 0.000000 0.000000 
#    y 0.000000 4.610320 0.000000 
#    z 0.000000 0.000000 4.379830 
# 
# 
# High freq. dielectric constant tensor:
#      x y z
#    x 2.051600 0.000000 0.000000 
#    y 0.000000 2.044150 0.000000 
#    z 0.000000 0.000000 2.023930 
# 
# From -- ./inp_files/2003.got.cif
#   From: 2010.03.12/outbox.cif.g09.slc.cpg/sg61_2_cif.got.tgz:2003.got - 2010.04.10 19:05:03.
