data_PCOD8249849
_publ_section_title
;
Structure prediction by ZEFSAII (Michael W. Deem and Ramdas Pophale) SiO2 
 PCOD8249849
Probable space group: P B C A
;
_chemical_formula_sum "Si O2"
_cell_formula_units_Z 48
_cell_length_a 8.442145
_cell_length_b 11.647325
_cell_length_c 21.192692
_cell_angle_alpha 90.000000
_cell_angle_beta 90.000000
_cell_angle_gamma 90.000000
_cell_volume 2083.843634
_symmetry_space_group_name_H-M "P B C A"
_symmetry_group_IT_number 61
_symmetry_cell_setting 'orthorhombic'
loop_
_space_group_symop_operation_xyz
x,y,z
1/2-x,-y,1/2+z
1/2+x,1/2-y,-z
-x,1/2+y,1/2-z
-x,-y,-z
1/2+x,y,1/2-z
1/2-x,1/2+y,z
x,1/2-y,1/2+z
loop_
_atom_site_type_symbol
_atom_site_label
_atom_site_fract_x
_atom_site_fract_y
_atom_site_fract_z
Si Si1 0.071953 0.408687 0.807604
Si Si2 0.084150 0.617470 0.013332
Si Si3 0.063622 0.865928 0.822194
Si Si4 0.013811 0.208590 0.888250
Si Si5 0.134003 0.861901 0.372641
Si Si6 0.403382 0.515448 0.063996
O O1 0.030875 0.426974 0.734457
O O2 0.254675 0.386492 0.811492
O O3 0.969219 0.298948 0.832372
O O4 0.047904 0.519727 0.852217
O O5 0.243284 0.585713 0.051969
O O6 0.972542 0.707384 0.050656
O O7 0.111609 0.673274 0.945309
O O8 0.000000 0.500000 0.000000
O O9 0.045994 0.728359 0.826759
O O10 0.010170 0.913427 0.888804
O O11 0.173863 0.141605 0.867132
O O12 0.879897 0.112212 0.903944
O O13 0.500000 0.500000 0.000000
#
# Coordination Sequence:
#
# PCOD8249849 Si02
#       6
#     8   8   8   8   8   8
#     4  11  25  48  68 109 148 198 252 304 380 456
#     4  12  26  43  72 112 146 190 259 308 384 453
#     4  11  27  44  75 107 146 201 253 306 381 454
#     4  11  25  45  70 104 152 194 247 318 378 447
#     4  11  24  47  74 104 157 193 246 317 375 457
#     4  12  25  47  75 106 148 199 251 319 387 451
#
# _framework density 23.034358000000001
#
# number of rings (size 3 to 8) (size 9 to 14) (size 15 to 20)
#    0.000    0.667    5.000    1.000    9.333    0.000 
#    0.000    0.000    0.000    0.000    0.000    0.000 
#    0.000    0.000    0.000    0.000    0.000    0.000 
#
# Total GULP energy -594696.557133 kJ/mol
# GULP energy per Si atom -12389.511607 kJ/mol
# Density = 2.298193 g / cm^3
# Si number density = 23.034358 Si / 1000 Ang^3
#
#
#
# Elastic Constant Matrix: (Units=GPa)
#
#
# Indices 1 2 3 4 5 6 
#
# 1 50.1075 33.2853 36.3407 0.0000 0.0000 0.0000
# 2 33.2853 102.1761 34.0468 0.0000 0.0000 0.0000
# 3 36.3407 34.0468 139.4763 0.0000 0.0000 0.0000
# 4 0.0000 0.0000 0.0000 56.6056 0.0000 0.0000
# 5 0.0000 0.0000 0.0000 0.0000 46.0551 0.0000
# 6 0.0000 0.0000 0.0000 0.0000 0.0000 25.5488
#
#
#
# Elastic Compliance Matrix: (Units=1/GPa)
#
#
# Indices 1 2 3 4 5 6 
#
# 1 0.029164 -0.007586 -0.005747 0.000000 0.000000 0.000000
# 2 -0.007586 0.012627 -0.001106 0.000000 0.000000 0.000000
# 3 -0.005747 -0.001106 0.008937 0.000000 0.000000 0.000000
# 4 0.000000 0.000000 0.000000 0.017666 0.000000 0.000000
# 5 0.000000 0.000000 0.000000 0.000000 0.021713 0.000000
# 6 0.000000 0.000000 0.000000 0.000000 0.000000 0.039141
#
#
# Mechanical properties :
#
#
# Convention : Reuss Voigt Hill
#
# Bulk Modulus (GPa) = 45.76478 55.45616 50.61047
# Shear Modulus (GPa) = 30.22825 38.18103 34.20464
#
# Velocity S-wave (km/s) = 3.62651 4.07574 3.85767
# Velocity P-wave (km/s) = 6.11937 6.80269 6.47006
#
# Compressibility (1/GPa) = 0.02185087
#
# Stress axis : x y z
#
# Youngs Moduli (GPa) = 34.28870 79.19793 111.89425
#
# Poissons Ratio (x) = 0.60076 0.64306
# Poissons Ratio (y) = 0.26010 0.12373
# Poissons Ratio (z) = 0.19706 0.08758
#
# Static dielectric constant tensor:
#      x y z
#    x 3.763210 0.000000 0.000000 
#    y 0.000000 4.709380 0.000000 
#    z 0.000000 0.000000 4.517220 
# 
# 
# High freq. dielectric constant tensor:
#      x y z
#    x 1.883100 0.000000 0.000000 
#    y 0.000000 1.930870 0.000000 
#    z 0.000000 0.000000 1.917940 
# 
# From -- ./inp_files/10834.got.cif
#   From: 2010.03.12/outbox.cif.g09.slc.cpg/sg61_6_cif.got.tgz:10834.got - 2010.04.10 19:05:03.
