data_PCOD8249196
_publ_section_title
;
Structure prediction by ZEFSAII (Michael W. Deem and Ramdas Pophale) SiO2 
 PCOD8249196
Probable space group: P B C A
;
_chemical_formula_sum "Si O2"
_cell_formula_units_Z 56
_cell_length_a 9.481083
_cell_length_b 14.314083
_cell_length_c 21.512941
_cell_angle_alpha 90.000000
_cell_angle_beta 90.000000
_cell_angle_gamma 90.000000
_cell_volume 2919.585955
_symmetry_space_group_name_H-M "P B C A"
_symmetry_group_IT_number 61
_symmetry_cell_setting 'orthorhombic'
loop_
_space_group_symop_operation_xyz
x,y,z
1/2-x,-y,1/2+z
1/2+x,1/2-y,-z
-x,1/2+y,1/2-z
-x,-y,-z
1/2+x,y,1/2-z
1/2-x,1/2+y,z
x,1/2-y,1/2+z
loop_
_atom_site_type_symbol
_atom_site_label
_atom_site_fract_x
_atom_site_fract_y
_atom_site_fract_z
Si Si1 0.852490 0.111645 0.996456
Si Si2 0.972841 0.254510 0.179608
Si Si3 0.748809 0.746158 0.399027
Si Si4 0.744511 0.394190 0.132164
Si Si5 0.258596 0.110427 0.364646
Si Si6 0.830296 0.897800 0.994338
Si Si7 0.529051 0.250477 0.177374
O O1 0.767473 0.167039 0.944819
O O2 0.848801 0.004761 0.974897
O O3 0.775847 0.126868 0.061993
O O4 0.013964 0.147696 0.999140
O O5 0.874273 0.343150 0.165102
O O6 0.889144 0.157745 0.170904
O O7 0.102984 0.258393 0.133743
O O8 0.029310 0.259024 0.248963
O O9 0.744064 0.651797 0.439616
O O10 0.628860 0.741294 0.347218
O O11 0.742532 0.501697 0.153632
O O12 0.598278 0.345358 0.151403
O O13 0.758488 0.386700 0.057675
O O14 0.113748 0.158426 0.343577
#
# Coordination Sequence:
#
# PCOD8249196 Si02
#       7
#     8   8   8   8   8   8   8
#     4  10  21  38  62  92 122 155 199 250 308 366
#     4  11  24  41  60  89 122 160 209 248 289 360
#     4  12  22  36  66  90 120 162 198 250 312 350
#     4  10  22  42  63  85 122 161 197 250 308 355
#     4  10  22  42  63  85 122 161 197 250 308 355
#     4  10  21  38  62  92 122 155 199 250 308 366
#     4  11  24  41  60  89 122 160 209 248 289 360
#
# _framework density 19.180802
#
# number of rings (size 3 to 8) (size 9 to 14) (size 15 to 20)
#    0.000    1.429    2.857    3.429    0.000    2.286 
#    0.000    5.714    0.000    0.000    0.000    0.000 
#    0.000    0.000    0.000    0.000    0.000    0.000 
#
# Total GULP energy -694672.796631 kJ/mol
# GULP energy per Si atom -12404.871368 kJ/mol
# Density = 1.913715 g / cm^3
# Si number density = 19.180802 Si / 1000 Ang^3
#
#
#
# Elastic Constant Matrix: (Units=GPa)
#
#
# Indices 1 2 3 4 5 6 
#
# 1 78.3879 38.3896 6.9739 0.0000 0.0000 0.0000
# 2 38.3896 125.6451 34.9419 0.0000 0.0000 0.0000
# 3 6.9739 34.9419 80.3153 0.0000 0.0000 0.0000
# 4 0.0000 0.0000 0.0000 16.0757 0.0000 0.0000
# 5 0.0000 0.0000 0.0000 0.0000 34.8512 0.0000
# 6 0.0000 0.0000 0.0000 0.0000 0.0000 23.0735
#
#
#
# Elastic Compliance Matrix: (Units=1/GPa)
#
#
# Indices 1 2 3 4 5 6 
#
# 1 0.015046 -0.004816 0.000789 0.000000 0.000000 0.000000
# 2 -0.004816 0.010596 -0.004192 0.000000 0.000000 0.000000
# 3 0.000789 -0.004192 0.014206 0.000000 0.000000 0.000000
# 4 0.000000 0.000000 0.000000 0.062206 0.000000 0.000000
# 5 0.000000 0.000000 0.000000 0.000000 0.028693 0.000000
# 6 0.000000 0.000000 0.000000 0.000000 0.000000 0.043340
#
#
# Mechanical properties :
#
#
# Convention : Reuss Voigt Hill
#
# Bulk Modulus (GPa) = 42.71760 49.43990 46.07875
# Shear Modulus (GPa) = 25.21069 28.40295 26.80682
#
# Velocity S-wave (km/s) = 3.62936 3.85229 3.74249
# Velocity P-wave (km/s) = 6.31525 6.75415 6.53838
#
# Compressibility (1/GPa) = 0.02340956
#
# Stress axis : x y z
#
# Youngs Moduli (GPa) = 66.46424 94.37272 70.39237
#
# Poissons Ratio (x) = 0.45454 -0.05554
# Poissons Ratio (y) = 0.32012 0.29507
# Poissons Ratio (z) = -0.05244 0.39559
#
# Static dielectric constant tensor:
#      x y z
#    x 3.566050 0.000000 0.000000 
#    y 0.000000 6.622230 0.000000 
#    z 0.000000 0.000000 3.499750 
# 
# 
# High freq. dielectric constant tensor:
#      x y z
#    x 1.749060 0.000000 0.000000 
#    y 0.000000 1.749280 0.000000 
#    z 0.000000 0.000000 1.752090 
# 
# From -- ./inp_files/10137.got.cif
#   From: 2010.03.12/outbox.cif.g09.slc.cpg/sg61_6_cif.got.tgz:10137.got - 2010.04.10 19:05:03.
