data_PCOD8249515
_publ_section_title
;
Structure prediction by ZEFSAII (Michael W. Deem and Ramdas Pophale) SiO2 
 PCOD8249515
Probable space group: P B C A
;
_chemical_formula_sum "Si O2"
_cell_formula_units_Z 40
_cell_length_a 8.404896
_cell_length_b 20.288318
_cell_length_c 9.733525
_cell_angle_alpha 90.000000
_cell_angle_beta 90.000000
_cell_angle_gamma 90.000000
_cell_volume 1659.772391
_symmetry_space_group_name_H-M "P B C A"
_symmetry_group_IT_number 61
_symmetry_cell_setting 'orthorhombic'
loop_
_space_group_symop_operation_xyz
x,y,z
1/2-x,-y,1/2+z
1/2+x,1/2-y,-z
-x,1/2+y,1/2-z
-x,-y,-z
1/2+x,y,1/2-z
1/2-x,1/2+y,z
x,1/2-y,1/2+z
loop_
_atom_site_type_symbol
_atom_site_label
_atom_site_fract_x
_atom_site_fract_y
_atom_site_fract_z
Si Si1 0.323135 0.079594 0.346657
Si Si2 0.844360 0.298027 0.846109
Si Si3 0.545956 0.511812 0.713114
Si Si4 0.778541 0.597748 0.869485
Si Si5 0.035047 0.223961 0.623313
O O1 0.343319 0.128977 0.218554
O O2 0.320073 0.117103 0.492586
O O3 0.152701 0.044246 0.353121
O O4 0.460002 0.024195 0.342610
O O5 0.664431 0.282479 0.893302
O O6 0.900544 0.245764 0.730820
O O7 0.962100 0.295411 0.975803
O O8 0.647984 0.575154 0.759097
O O9 0.406722 0.537865 0.611471
O O10 0.870449 0.661633 0.814918
#
# Coordination Sequence:
#
# PCOD8249515 Si02
#       5
#     8   8   8   8   8
#     4  11  22  42  65  94 129 173 220 276 340 402
#     4  12  26  45  71 101 139 180 228 284 342 410
#     4  10  23  39  64  95 128 171 223 276 334 403
#     4  11  22  40  63  93 132 173 222 277 336 403
#     4  12  25  44  68 101 136 179 226 279 342 406
#
# _framework density 24.099692000000001
#
# number of rings (size 3 to 8) (size 9 to 14) (size 15 to 20)
#    0.000    0.800    0.000    8.400    0.000    1.600 
#    0.000    8.000    0.000    0.000    0.000    0.000 
#    0.000    0.000    0.000    0.000    0.000    0.000 
#
# Total GULP energy -495875.424883 kJ/mol
# GULP energy per Si atom -12396.885622 kJ/mol
# Density = 2.404484 g / cm^3
# Si number density = 24.099692 Si / 1000 Ang^3
#
#
#
# Elastic Constant Matrix: (Units=GPa)
#
#
# Indices 1 2 3 4 5 6 
#
# 1 86.3992 13.0310 33.1914 0.0000 0.0000 0.0000
# 2 13.0310 73.5104 26.2798 0.0000 0.0000 0.0000
# 3 33.1914 26.2798 114.3856 0.0000 0.0000 0.0000
# 4 0.0000 0.0000 0.0000 30.5679 0.0000 0.0000
# 5 0.0000 0.0000 0.0000 0.0000 30.3352 0.0000
# 6 0.0000 0.0000 0.0000 0.0000 0.0000 38.6720
#
#
#
# Elastic Compliance Matrix: (Units=1/GPa)
#
#
# Indices 1 2 3 4 5 6 
#
# 1 0.013100 -0.001049 -0.003560 0.000000 0.000000 0.000000
# 2 -0.001049 0.014905 -0.003120 0.000000 0.000000 0.000000
# 3 -0.003560 -0.003120 0.010492 0.000000 0.000000 0.000000
# 4 0.000000 0.000000 0.000000 0.032714 0.000000 0.000000
# 5 0.000000 0.000000 0.000000 0.000000 0.032965 0.000000
# 6 0.000000 0.000000 0.000000 0.000000 0.000000 0.025858
#
#
# Mechanical properties :
#
#
# Convention : Reuss Voigt Hill
#
# Bulk Modulus (GPa) = 43.40602 46.58884 44.99743
# Shear Modulus (GPa) = 32.64279 33.36789 33.00534
#
# Velocity S-wave (km/s) = 3.68433 3.72503 3.70474
# Velocity P-wave (km/s) = 6.01242 6.15425 6.08375
#
# Compressibility (1/GPa) = 0.02303828
#
# Stress axis : x y z
#
# Youngs Moduli (GPa) = 76.33499 67.09205 95.30898
#
# Poissons Ratio (x) = 0.07041 0.33932
# Poissons Ratio (y) = 0.08011 0.29735
# Poissons Ratio (z) = 0.27177 0.20932
#
# Static dielectric constant tensor:
#      x y z
#    x 4.568940 0.000000 0.000000 
#    y 0.000000 4.287320 0.000000 
#    z 0.000000 0.000000 3.960880 
# 
# 
# High freq. dielectric constant tensor:
#      x y z
#    x 1.976600 0.000000 0.000000 
#    y 0.000000 1.961470 0.000000 
#    z 0.000000 0.000000 1.936680 
# 
# From -- ./inp_files/1768.got.cif
#   From: 2010.03.12/outbox.cif.g09.slc.cpg/sg61_1_cif.got.tgz:1768.got - 2010.04.10 19:05:03.
