data_PCOD8249051
_publ_section_title
;
Structure prediction by ZEFSAII (Michael W. Deem and Ramdas Pophale) SiO2 
 PCOD8249051
Probable space group: P B C A
;
_chemical_formula_sum "Si O2"
_cell_formula_units_Z 64
_cell_length_a 14.806773
_cell_length_b 17.250587
_cell_length_c 12.889587
_cell_angle_alpha 90.000000
_cell_angle_beta 90.000000
_cell_angle_gamma 90.000000
_cell_volume 3292.329537
_symmetry_space_group_name_H-M "P B C A"
_symmetry_group_IT_number 61
_symmetry_cell_setting 'orthorhombic'
loop_
_space_group_symop_operation_xyz
x,y,z
1/2-x,-y,1/2+z
1/2+x,1/2-y,-z
-x,1/2+y,1/2-z
-x,-y,-z
1/2+x,y,1/2-z
1/2-x,1/2+y,z
x,1/2-y,1/2+z
loop_
_atom_site_type_symbol
_atom_site_label
_atom_site_fract_x
_atom_site_fract_y
_atom_site_fract_z
Si Si1 0.626999 0.837757 0.672526
Si Si2 0.983933 0.763621 0.688588
Si Si3 0.816548 0.867676 0.749192
Si Si4 0.208756 0.900852 0.553974
Si Si5 0.208531 0.536037 0.827255
Si Si6 0.383649 0.493030 0.727856
Si Si7 0.029653 0.616811 0.793449
Si Si8 0.069261 0.783084 0.482611
O O1 0.577352 0.792479 0.763801
O O2 0.732968 0.824415 0.694020
O O3 0.602793 0.929181 0.680286
O O4 0.596913 0.801193 0.563086
O O5 0.901782 0.811202 0.739124
O O6 0.983194 0.671081 0.707036
O O7 0.989573 0.773840 0.565849
O O8 0.795944 0.883951 0.872135
O O9 0.830753 0.949106 0.689011
O O10 0.231360 0.947717 0.448523
O O11 0.137995 0.951379 0.619653
O O12 0.161639 0.819792 0.525478
O O13 0.300666 0.548267 0.762186
O O14 0.135706 0.596394 0.779763
O O15 0.475728 0.537053 0.707748
O O16 0.019698 0.661201 0.901553
#
# Coordination Sequence:
#
# PCOD8249051 Si02
#       8
#     8   8   8   8   8   8   8   8
#     4   9  20  41  58  85 126 152 198 260 303 348
#     4  11  21  39  58  90 124 161 203 244 311 364
#     4  10  21  39  65  89 122 165 200 257 308 369
#     4   9  19  38  63  85 116 159 198 254 301 355
#     4   9  20  38  62  89 117 157 209 249 310 364
#     4  10  20  40  60  89 123 154 204 260 305 358
#     4  10  23  37  60  90 118 160 203 256 296 372
#     4  10  20  39  62  85 115 163 201 244 306 367
#
# _framework density 19.439124
#
# number of rings (size 3 to 8) (size 9 to 14) (size 15 to 20)
#    0.000    2.500    2.500    0.750    1.750    4.000 
#   18.000    0.625    0.000    0.000    0.000    0.000 
#    0.000    0.000    0.000    0.000    0.000    0.000 
#
# Total GULP energy -793112.274254 kJ/mol
# GULP energy per Si atom -12392.379285 kJ/mol
# Density = 1.939488 g / cm^3
# Si number density = 19.439124 Si / 1000 Ang^3
#
#
#
# Elastic Constant Matrix: (Units=GPa)
#
#
# Indices 1 2 3 4 5 6 
#
# 1 72.2701 45.6042 37.8962 0.0000 0.0000 0.0000
# 2 45.6042 90.2139 49.6838 0.0000 0.0000 0.0000
# 3 37.8962 49.6838 103.6561 0.0000 0.0000 0.0000
# 4 0.0000 0.0000 0.0000 32.9390 0.0000 0.0000
# 5 0.0000 0.0000 0.0000 0.0000 23.1907 0.0000
# 6 0.0000 0.0000 0.0000 0.0000 0.0000 36.8125
#
#
#
# Elastic Compliance Matrix: (Units=1/GPa)
#
#
# Indices 1 2 3 4 5 6 
#
# 1 0.021242 -0.008779 -0.003558 0.000000 0.000000 0.000000
# 2 -0.008779 0.018688 -0.005748 0.000000 0.000000 0.000000
# 3 -0.003558 -0.005748 0.013703 0.000000 0.000000 0.000000
# 4 0.000000 0.000000 0.000000 0.030359 0.000000 0.000000
# 5 0.000000 0.000000 0.000000 0.000000 0.043121 0.000000
# 6 0.000000 0.000000 0.000000 0.000000 0.000000 0.027165
#
#
# Mechanical properties :
#
#
# Convention : Reuss Voigt Hill
#
# Bulk Modulus (GPa) = 57.26149 59.16761 58.21455
# Shear Modulus (GPa) = 25.47515 27.45216 26.46366
#
# Velocity S-wave (km/s) = 3.62402 3.76202 3.69366
# Velocity P-wave (km/s) = 6.85800 7.02665 6.94284
#
# Compressibility (1/GPa) = 0.01746374
#
# Stress axis : x y z
#
# Youngs Moduli (GPa) = 47.07574 53.51010 72.97473
#
# Poissons Ratio (x) = 0.46974 0.25968
# Poissons Ratio (y) = 0.41325 0.41946
# Poissons Ratio (z) = 0.16752 0.30758
#
# Static dielectric constant tensor:
#      x y z
#    x 3.377880 0.000000 0.000000 
#    y 0.000000 3.726500 0.000000 
#    z 0.000000 0.000000 3.632440 
# 
# 
# High freq. dielectric constant tensor:
#      x y z
#    x 1.747760 0.000000 0.000000 
#    y 0.000000 1.758450 0.000000 
#    z 0.000000 0.000000 1.750160 
# 
# From -- ./inp_files/5981.got.cif
#   From: 2010.03.12/outbox.cif.g09.slc.cpg/sg61_3_cif.got.tgz:5981.got - 2010.04.10 19:05:03.
