data_PCOD8249312
_publ_section_title
;
Structure prediction by ZEFSAII (Michael W. Deem and Ramdas Pophale) SiO2 
 PCOD8249312
Probable space group: P B C A
;
_chemical_formula_sum "Si O2"
_cell_formula_units_Z 56
_cell_length_a 9.513285
_cell_length_b 20.993503
_cell_length_c 12.804209
_cell_angle_alpha 90.000000
_cell_angle_beta 90.000000
_cell_angle_gamma 90.000000
_cell_volume 2557.220478
_symmetry_space_group_name_H-M "P B C A"
_symmetry_group_IT_number 61
_symmetry_cell_setting 'orthorhombic'
loop_
_space_group_symop_operation_xyz
x,y,z
1/2-x,-y,1/2+z
1/2+x,1/2-y,-z
-x,1/2+y,1/2-z
-x,-y,-z
1/2+x,y,1/2-z
1/2-x,1/2+y,z
x,1/2-y,1/2+z
loop_
_atom_site_type_symbol
_atom_site_label
_atom_site_fract_x
_atom_site_fract_y
_atom_site_fract_z
Si Si1 0.285649 0.879401 0.704458
Si Si2 0.557714 0.318995 0.147134
Si Si3 0.711624 0.006896 0.874419
Si Si4 0.023631 0.821968 0.925700
Si Si5 0.022491 0.462263 0.309184
Si Si6 0.674719 0.751652 0.232285
Si Si7 0.788027 0.435672 0.583430
O O1 0.436870 0.857623 0.664745
O O2 0.186593 0.817764 0.713997
O O3 0.305626 0.915389 0.816433
O O4 0.217069 0.929649 0.623574
O O5 0.578686 0.393991 0.154889
O O6 0.406311 0.299247 0.191807
O O7 0.673625 0.281135 0.211834
O O8 0.568096 0.300000 0.024819
O O9 0.574153 0.028412 0.809963
O O10 0.854054 0.032691 0.818007
O O11 0.693779 0.033491 0.991873
O O12 0.092839 0.758349 0.877097
O O13 0.140611 0.872336 0.964618
O O14 0.091146 0.514475 0.385002
#
# Coordination Sequence:
#
# PCOD8249312 Si02
#       7
#     8   8   8   8   8   8   8
#     4  10  22  42  70  94 135 170 223 275 322 403
#     4  12  25  42  68  93 137 177 222 275 324 397
#     4  11  21  40  69 100 127 172 215 274 340 396
#     4  11  22  43  70  91 130 182 218 268 339 390
#     4  11  22  39  66  97 133 164 217 273 334 394
#     4  11  26  44  62  97 133 176 230 272 320 393
#     4  10  21  41  70  99 128 173 215 272 344 403
#
# _framework density 21.898776999999999
#
# number of rings (size 3 to 8) (size 9 to 14) (size 15 to 20)
#    0.000    1.143    4.286    2.143    2.000    0.000 
#    2.571    2.857    6.286    0.000    0.000    0.000 
#    0.000    0.000    0.000    0.000    0.000    0.000 
#
# Total GULP energy -694466.318555 kJ/mol
# GULP energy per Si atom -12401.184260 kJ/mol
# Density = 2.184893 g / cm^3
# Si number density = 21.898777 Si / 1000 Ang^3
#
#
#
# Elastic Constant Matrix: (Units=GPa)
#
#
# Indices 1 2 3 4 5 6 
#
# 1 59.1980 19.4263 30.8533 0.0000 0.0000 0.0000
# 2 19.4263 79.3673 23.4905 0.0000 0.0000 0.0000
# 3 30.8533 23.4905 104.8865 0.0000 0.0000 0.0000
# 4 0.0000 0.0000 0.0000 29.4129 0.0000 0.0000
# 5 0.0000 0.0000 0.0000 0.0000 30.6912 0.0000
# 6 0.0000 0.0000 0.0000 0.0000 0.0000 19.7710
#
#
#
# Elastic Compliance Matrix: (Units=1/GPa)
#
#
# Indices 1 2 3 4 5 6 
#
# 1 0.020830 -0.003518 -0.005339 0.000000 0.000000 0.000000
# 2 -0.003518 0.014088 -0.002120 0.000000 0.000000 0.000000
# 3 -0.005339 -0.002120 0.011580 0.000000 0.000000 0.000000
# 4 0.000000 0.000000 0.000000 0.033999 0.000000 0.000000
# 5 0.000000 0.000000 0.000000 0.000000 0.032583 0.000000
# 6 0.000000 0.000000 0.000000 0.000000 0.000000 0.050579
#
#
# Mechanical properties :
#
#
# Convention : Reuss Voigt Hill
#
# Bulk Modulus (GPa) = 40.74629 43.44354 42.09492
# Shear Modulus (GPa) = 25.80052 27.28712 26.54382
#
# Velocity S-wave (km/s) = 3.43617 3.53378 3.48532
# Velocity P-wave (km/s) = 5.86431 6.04413 5.95490
#
# Compressibility (1/GPa) = 0.02454211
#
# Stress axis : x y z
#
# Youngs Moduli (GPa) = 48.00825 70.98081 86.35874
#
# Poissons Ratio (x) = 0.24972 0.46110
# Poissons Ratio (y) = 0.16890 0.18311
# Poissons Ratio (z) = 0.25633 0.15050
#
# Static dielectric constant tensor:
#      x y z
#    x 3.711760 0.000000 0.000000 
#    y 0.000000 4.106510 0.000000 
#    z 0.000000 0.000000 3.936770 
# 
# 
# High freq. dielectric constant tensor:
#      x y z
#    x 1.842360 0.000000 0.000000 
#    y 0.000000 1.870980 0.000000 
#    z 0.000000 0.000000 1.857100 
# 
# From -- ./inp_files/7149.got.cif
#   From: 2010.03.12/outbox.cif.g09.slc.cpg/sg61_4_cif.got.tgz:7149.got - 2010.04.10 19:05:03.
