data_PCOD8249951
_publ_section_title
;
Structure prediction by ZEFSAII (Michael W. Deem and Ramdas Pophale) SiO2 
 PCOD8249951
Probable space group: P N M A
;
_chemical_formula_sum "Si O2"
_cell_formula_units_Z 20
_cell_length_a 6.395466
_cell_length_b 5.272384
_cell_length_c 23.860411
_cell_angle_alpha 90.000000
_cell_angle_beta 90.000000
_cell_angle_gamma 90.000000
_cell_volume 804.557612
_symmetry_space_group_name_H-M "P N M A"
_symmetry_group_IT_number 62
_symmetry_cell_setting 'orthorhombic'
loop_
_space_group_symop_operation_xyz
x,y,z
1/2-x,-y,1/2+z
1/2+x,1/2-y,1/2-z
-x,1/2+y,-z
-x,-y,-z
1/2+x,y,1/2-z
1/2-x,1/2+y,1/2+z
x,1/2-y,z
loop_
_atom_site_type_symbol
_atom_site_label
_atom_site_fract_x
_atom_site_fract_y
_atom_site_fract_z
Si Si1 0.533041 0.750000 0.666760
Si Si2 0.042396 0.750000 0.464817
Si Si3 0.004665 0.250000 0.294129
Si Si4 0.059019 0.250000 0.656210
Si Si5 0.115462 0.250000 0.881338
O O1 0.434166 0.750000 0.728850
O O2 0.470044 0.496697 0.631297
O O3 0.785388 0.750000 0.669339
O O4 0.285780 0.750000 0.444117
O O5 0.000000 0.500000 0.500000
O O6 0.887889 0.750000 0.410506
O O7 0.862983 0.494408 0.311981
O O8 0.805384 0.250000 0.663656
#
# Coordination Sequence:
#
# PCOD8249951 Si02
#       5
#     4   4   4   4   4
#     4  10  17  29  43  61  89 123 142 176 216 256
#     4  10  16  26  44  62  90 118 140 180 238 260
#     4  10  17  29  43  61  89 123 142 176 216 256
#     4   8  17  27  39  61  89 111 140 183 213 258
#     4   8  17  27  39  61  89 111 140 183 213 258
#
# _framework density 24.85838
#
# number of rings (size 3 to 8) (size 9 to 14) (size 15 to 20)
#    1.200    1.600    0.000    3.600    0.000    0.000 
#    0.000    0.000    0.000    0.000    0.000    0.000 
#    0.000   32.000    0.000    0.000    0.000    0.000 
#
# Total GULP energy -247822.022803 kJ/mol
# GULP energy per Si atom -12391.101140 kJ/mol
# Density = 2.480180 g / cm^3
# Si number density = 24.858380 Si / 1000 Ang^3
#
#
#
# Elastic Constant Matrix: (Units=GPa)
#
#
# Indices 1 2 3 4 5 6 
#
# 1 29.7128 -22.6690 -2.1433 0.0000 0.0000 0.0000
# 2 -22.6690 297.4482 99.8844 0.0000 0.0000 0.0000
# 3 -2.1433 99.8844 131.2730 0.0000 0.0000 0.0000
# 4 0.0000 0.0000 0.0000 61.5021 0.0000 0.0000
# 5 0.0000 0.0000 0.0000 0.0000 35.1036 0.0000
# 6 0.0000 0.0000 0.0000 0.0000 0.0000 -24.8532
#
#
#
# Elastic Compliance Matrix: (Units=1/GPa)
#
#
# Indices 1 2 3 4 5 6 
#
# 1 0.036128 0.003432 -0.002022 0.000000 0.000000 0.000000
# 2 0.003432 0.004842 -0.003628 0.000000 0.000000 0.000000
# 3 -0.002022 -0.003628 0.010345 0.000000 0.000000 0.000000
# 4 0.000000 0.000000 0.000000 0.016260 0.000000 0.000000
# 5 0.000000 0.000000 0.000000 0.000000 0.028487 0.000000
# 6 0.000000 0.000000 0.000000 0.000000 0.000000 -0.040236
#
#
# Mechanical properties :
#
#
# Convention : Reuss Voigt Hill
#
# Bulk Modulus (GPa) = 21.33088 67.61979 44.47534
# Shear Modulus (GPa) = 65.88691 39.90796 52.89744
#
# Velocity S-wave (km/s) = 5.15388 4.01111 4.61798
# Velocity P-wave (km/s) = 6.63447 6.97947 6.80916
#
# Compressibility (1/GPa) = 0.04688039
#
# Stress axis : x y z
#
# Youngs Moduli (GPa) = 27.67915 206.53354 96.66260
#
# Poissons Ratio (x) = -0.70888 0.19542
# Poissons Ratio (y) = -0.09500 0.35070
# Poissons Ratio (z) = 0.05596 0.74932
#
# Static dielectric constant tensor:
#      x y z
#    x 4.008140 0.000000 0.000000 
#    y 0.000000 5.172340 0.000000 
#    z 0.000000 0.000000 3.913900 
# 
# 
# High freq. dielectric constant tensor:
#      x y z
#    x 1.980870 0.000000 0.000000 
#    y 0.000000 2.019090 0.000000 
#    z 0.000000 0.000000 1.953760 
# 
# From -- ./inp_files/17459.got.cif
#   From: 2010.03.12/outbox.cif.g09.slc.cpg/sg62_9_cif.got.tgz:17459.got - 2010.04.10 19:12:36.
