data_PCOD8249089
_publ_section_title
;
Structure prediction by ZEFSAII (Michael W. Deem and Ramdas Pophale) SiO2 
 PCOD8249089
Probable space group: P B C A
;
_chemical_formula_sum "Si O2"
_cell_formula_units_Z 40
_cell_length_a 9.324098
_cell_length_b 22.048832
_cell_length_c 9.441063
_cell_angle_alpha 90.000000
_cell_angle_beta 90.000000
_cell_angle_gamma 90.000000
_cell_volume 1940.945377
_symmetry_space_group_name_H-M "P B C A"
_symmetry_group_IT_number 61
_symmetry_cell_setting 'orthorhombic'
loop_
_space_group_symop_operation_xyz
x,y,z
1/2-x,-y,1/2+z
1/2+x,1/2-y,-z
-x,1/2+y,1/2-z
-x,-y,-z
1/2+x,y,1/2-z
1/2-x,1/2+y,z
x,1/2-y,1/2+z
loop_
_atom_site_type_symbol
_atom_site_label
_atom_site_fract_x
_atom_site_fract_y
_atom_site_fract_z
Si Si1 0.289460 0.203410 0.128981
Si Si2 0.101947 0.240075 0.866354
Si Si3 0.280237 0.928114 0.567098
Si Si4 0.479544 0.892792 0.341889
Si Si5 0.271487 0.038440 0.765665
O O1 0.452228 0.225551 0.111406
O O2 0.216574 0.222517 0.275533
O O3 0.304136 0.130642 0.121574
O O4 0.183627 0.230950 0.012860
O O5 0.060936 0.175347 0.797099
O O6 0.435894 0.905775 0.506821
O O7 0.194971 0.960439 0.435703
O O8 0.302918 0.973242 0.698361
O O9 0.392869 0.940916 0.242860
O O10 0.644035 0.907657 0.314926
#
# Coordination Sequence:
#
# PCOD8249089 Si02
#       5
#     8   8   8   8   8
#     4  11  24  43  66 100 128 173 212 272 318 395
#     4  11  23  43  67  94 135 163 220 263 330 376
#     4   9  23  40  61  93 123 162 217 252 321 374
#     4   9  21  38  65  87 122 162 204 254 318 372
#     4  10  20  41  61  86 127 158 207 260 307 382
#
# _framework density 20.608512999999999
#
# number of rings (size 3 to 8) (size 9 to 14) (size 15 to 20)
#    1.200    0.800    0.000    3.000    2.800    2.400 
#   10.800    0.000    0.000    0.000    0.000    0.000 
#    0.000    0.000    0.000    0.000    0.000    0.000 
#
# Total GULP energy -495545.800737 kJ/mol
# GULP energy per Si atom -12388.645018 kJ/mol
# Density = 2.056161 g / cm^3
# Si number density = 20.608513 Si / 1000 Ang^3
#
#
#
# Elastic Constant Matrix: (Units=GPa)
#
#
# Indices 1 2 3 4 5 6 
#
# 1 69.5794 18.1166 5.8673 0.0000 0.0000 0.0000
# 2 18.1166 124.6948 52.6063 0.0000 0.0000 0.0000
# 3 5.8673 52.6063 51.7982 0.0000 0.0000 0.0000
# 4 0.0000 0.0000 0.0000 35.9744 0.0000 0.0000
# 5 0.0000 0.0000 0.0000 0.0000 -18.3187 0.0000
# 6 0.0000 0.0000 0.0000 0.0000 0.0000 30.0512
#
#
#
# Elastic Compliance Matrix: (Units=1/GPa)
#
#
# Indices 1 2 3 4 5 6 
#
# 1 0.014961 -0.002552 0.000897 0.000000 0.000000 0.000000
# 2 -0.002552 0.014467 -0.014404 0.000000 0.000000 0.000000
# 3 0.000897 -0.014404 0.033832 0.000000 0.000000 0.000000
# 4 0.000000 0.000000 0.000000 0.027798 0.000000 0.000000
# 5 0.000000 0.000000 0.000000 0.000000 -0.054589 0.000000
# 6 0.000000 0.000000 0.000000 0.000000 0.000000 0.033277
#
#
# Mechanical properties :
#
#
# Convention : Reuss Voigt Hill
#
# Bulk Modulus (GPa) = 32.10954 44.36144 38.23549
# Shear Modulus (GPa) = 44.54605 20.84020 32.69312
#
# Velocity S-wave (km/s) = 4.65428 3.18345 3.98727
# Velocity P-wave (km/s) = 6.67065 5.92326 6.30803
#
# Compressibility (1/GPa) = 0.03114339
#
# Stress axis : x y z
#
# Youngs Moduli (GPa) = 66.84078 69.12287 29.55747
#
# Poissons Ratio (x) = 0.17642 -0.02652
# Poissons Ratio (y) = 0.17059 0.42573
# Poissons Ratio (z) = -0.05998 0.99562
#
# Static dielectric constant tensor:
#      x y z
#    x 3.584610 0.000000 0.000000 
#    y 0.000000 3.694040 0.000000 
#    z 0.000000 0.000000 3.530540 
# 
# 
# High freq. dielectric constant tensor:
#      x y z
#    x 1.799960 0.000000 0.000000 
#    y 0.000000 1.812760 0.000000 
#    z 0.000000 0.000000 1.791100 
# 
# From -- ./inp_files/1748.got.cif
#   From: 2010.03.12/outbox.cif.g09.slc.cpg/sg61_1_cif.got.tgz:1748.got - 2010.04.10 19:05:03.
