data_PCOD8249582
_publ_section_title
;
Structure prediction by ZEFSAII (Michael W. Deem and Ramdas Pophale) SiO2 
 PCOD8249582
Probable space group: P B C A
;
_chemical_formula_sum "Si O2"
_cell_formula_units_Z 56
_cell_length_a 21.865859
_cell_length_b 13.650695
_cell_length_c 8.894779
_cell_angle_alpha 90.000000
_cell_angle_beta 90.000000
_cell_angle_gamma 90.000000
_cell_volume 2654.950746
_symmetry_space_group_name_H-M "P B C A"
_symmetry_group_IT_number 61
_symmetry_cell_setting 'orthorhombic'
loop_
_space_group_symop_operation_xyz
x,y,z
1/2-x,-y,1/2+z
1/2+x,1/2-y,-z
-x,1/2+y,1/2-z
-x,-y,-z
1/2+x,y,1/2-z
1/2-x,1/2+y,z
x,1/2-y,1/2+z
loop_
_atom_site_type_symbol
_atom_site_label
_atom_site_fract_x
_atom_site_fract_y
_atom_site_fract_z
Si Si1 0.687539 0.913182 0.033002
Si Si2 0.786421 0.868176 0.534104
Si Si3 0.583897 0.789309 0.926810
Si Si4 0.968705 0.377421 0.638940
Si Si5 0.698235 0.173301 0.381024
Si Si6 0.671290 0.630298 0.849370
Si Si7 0.905976 0.965137 0.955771
O O1 0.618300 0.872263 0.023456
O O2 0.733420 0.858713 0.921869
O O3 0.684149 0.027727 0.994949
O O4 0.712377 0.889546 0.201532
O O5 0.805189 0.839598 0.702519
O O6 0.813334 0.786642 0.421299
O O7 0.713034 0.875317 0.500633
O O8 0.539220 0.843270 0.810052
O O9 0.637678 0.734118 0.836232
O O10 0.546595 0.713379 0.029358
O O11 0.927378 0.474606 0.605113
O O12 0.039015 0.405583 0.618705
O O13 0.649563 0.110847 0.478910
O O14 0.619117 0.547272 0.843246
#
# Coordination Sequence:
#
# PCOD8249582 Si02
#       7
#     8   8   8   8   8   8   8
#     4  12  23  41  67 102 131 175 214 279 335 401
#     4  12  25  40  62 104 136 175 213 266 341 401
#     4  11  23  41  71  99 127 170 233 273 331 402
#     4  10  24  44  72  95 127 184 228 281 328 396
#     4  12  26  40  67  97 142 174 217 276 334 408
#     4  11  22  43  66  95 135 170 220 268 334 408
#     4  10  23  45  68  92 135 176 226 276 337 387
#
# _framework density 21.092669999999998
#
# number of rings (size 3 to 8) (size 9 to 14) (size 15 to 20)
#    0.000    0.857    5.714    0.857    4.000    3.429 
#    0.000    3.571    0.000    0.000    0.000    0.000 
#    0.000    0.000    0.000    0.000    0.000    0.000 
#
# Total GULP energy -694124.759049 kJ/mol
# GULP energy per Si atom -12395.084983 kJ/mol
# Density = 2.104466 g / cm^3
# Si number density = 21.092670 Si / 1000 Ang^3
#
#
#
# Elastic Constant Matrix: (Units=GPa)
#
#
# Indices 1 2 3 4 5 6 
#
# 1 91.0154 37.7306 20.4934 0.0000 0.0000 0.0000
# 2 37.7306 125.2322 20.8177 0.0000 0.0000 0.0000
# 3 20.4934 20.8177 68.5714 0.0000 0.0000 0.0000
# 4 0.0000 0.0000 0.0000 19.1920 0.0000 0.0000
# 5 0.0000 0.0000 0.0000 0.0000 21.5318 0.0000
# 6 0.0000 0.0000 0.0000 0.0000 0.0000 49.5397
#
#
#
# Elastic Compliance Matrix: (Units=1/GPa)
#
#
# Indices 1 2 3 4 5 6 
#
# 1 0.013065 -0.003462 -0.002854 0.000000 0.000000 0.000000
# 2 -0.003462 0.009327 -0.001797 0.000000 0.000000 0.000000
# 3 -0.002854 -0.001797 0.015982 0.000000 0.000000 0.000000
# 4 0.000000 0.000000 0.000000 0.052105 0.000000 0.000000
# 5 0.000000 0.000000 0.000000 0.000000 0.046443 0.000000
# 6 0.000000 0.000000 0.000000 0.000000 0.000000 0.020186
#
#
# Mechanical properties :
#
#
# Convention : Reuss Voigt Hill
#
# Bulk Modulus (GPa) = 45.14957 49.21137 47.18047
# Shear Modulus (GPa) = 27.66789 31.77119 29.71954
#
# Velocity S-wave (km/s) = 3.62571 3.88528 3.75774
# Velocity P-wave (km/s) = 6.24336 6.59612 6.42216
#
# Compressibility (1/GPa) = 0.02214860
#
# Stress axis : x y z
#
# Youngs Moduli (GPa) = 76.54152 107.21696 62.57155
#
# Poissons Ratio (x) = 0.37117 0.17855
# Poissons Ratio (y) = 0.26498 0.11244
# Poissons Ratio (z) = 0.21842 0.19266
#
# Static dielectric constant tensor:
#      x y z
#    x 3.669980 0.000000 0.000000 
#    y 0.000000 4.173430 0.000000 
#    z 0.000000 0.000000 3.677050 
# 
# 
# High freq. dielectric constant tensor:
#      x y z
#    x 1.806860 0.000000 0.000000 
#    y 0.000000 1.849490 0.000000 
#    z 0.000000 0.000000 1.813310 
# 
# From -- ./inp_files/3962.got.cif
#   From: 2010.03.12/outbox.cif.g09.slc.cpg/sg61_2_cif.got.tgz:3962.got - 2010.04.10 19:05:03.
