data_PCOD8249702
_publ_section_title
;
Structure prediction by ZEFSAII (Michael W. Deem and Ramdas Pophale) SiO2 
 PCOD8249702
Probable space group: P B C A
;
_chemical_formula_sum "Si O2"
_cell_formula_units_Z 64
_cell_length_a 14.278134
_cell_length_b 8.912703
_cell_length_c 23.787042
_cell_angle_alpha 90.000000
_cell_angle_beta 90.000000
_cell_angle_gamma 90.000000
_cell_volume 3027.062079
_symmetry_space_group_name_H-M "P B C A"
_symmetry_group_IT_number 61
_symmetry_cell_setting 'orthorhombic'
loop_
_space_group_symop_operation_xyz
x,y,z
1/2-x,-y,1/2+z
1/2+x,1/2-y,-z
-x,1/2+y,1/2-z
-x,-y,-z
1/2+x,y,1/2-z
1/2-x,1/2+y,z
x,1/2-y,1/2+z
loop_
_atom_site_type_symbol
_atom_site_label
_atom_site_fract_x
_atom_site_fract_y
_atom_site_fract_z
Si Si1 0.522103 0.211567 0.169667
Si Si2 0.757452 0.269114 0.996387
Si Si3 0.955325 0.898454 0.360901
Si Si4 0.084196 0.365691 0.442837
Si Si5 0.951130 0.296667 0.544811
Si Si6 0.733372 0.020151 0.916990
Si Si7 0.166438 0.880489 0.190839
Si Si8 0.349885 0.786553 0.729205
O O1 0.541329 0.273897 0.108067
O O2 0.427738 0.284120 0.194650
O O3 0.609830 0.253384 0.209355
O O4 0.514109 0.031061 0.168157
O O5 0.692409 0.322284 0.047668
O O6 0.864029 0.285004 0.015707
O O7 0.734584 0.099785 0.978069
O O8 0.740332 0.352218 0.936056
O O9 0.867623 0.981016 0.389098
O O10 0.923061 0.776290 0.315949
O O11 0.017230 0.812579 0.406067
O O12 0.076956 0.542141 0.429564
O O13 0.032967 0.319360 0.500084
O O14 0.811351 0.082854 0.874404
O O15 0.247809 0.784603 0.220676
O O16 0.156104 0.034899 0.224085
#
# Coordination Sequence:
#
# PCOD8249702 Si02
#       8
#     8   8   8   8   8   8   8   8
#     4  12  26  45  69 102 137 179 228 282 345 408
#     4  12  23  39  62  98 136 176 216 273 334 406
#     4  11  23  41  71  99 131 180 229 284 336 401
#     4  11  25  43  63 100 137 182 219 277 342 407
#     4  11  24  42  66  95 139 178 223 277 345 403
#     4  11  21  38  66  99 131 171 227 274 322 403
#     4  11  23  45  74 101 133 178 231 286 337 398
#     4  11  25  47  71 102 130 176 233 285 340 405
#
# _framework density 21.142613000000001
#
# number of rings (size 3 to 8) (size 9 to 14) (size 15 to 20)
#    0.000    0.750    2.500    6.750    3.500    1.000 
#    6.750    0.000    0.000    0.000    0.000    0.000 
#    0.000    0.000    0.000    0.000    0.000    0.000 
#
# Total GULP energy -793906.937891 kJ/mol
# GULP energy per Si atom -12404.795905 kJ/mol
# Density = 2.109449 g / cm^3
# Si number density = 21.142613 Si / 1000 Ang^3
#
#
#
# Elastic Constant Matrix: (Units=GPa)
#
#
# Indices 1 2 3 4 5 6 
#
# 1 80.1836 32.2943 24.9634 0.0000 0.0000 0.0000
# 2 32.2943 102.5443 26.3506 0.0000 0.0000 0.0000
# 3 24.9634 26.3506 60.0747 0.0000 0.0000 0.0000
# 4 0.0000 0.0000 0.0000 31.9942 0.0000 0.0000
# 5 0.0000 0.0000 0.0000 0.0000 35.2092 0.0000
# 6 0.0000 0.0000 0.0000 0.0000 0.0000 32.0254
#
#
#
# Elastic Compliance Matrix: (Units=1/GPa)
#
#
# Indices 1 2 3 4 5 6 
#
# 1 0.015431 -0.003620 -0.004824 0.000000 0.000000 0.000000
# 2 -0.003620 0.011840 -0.003689 0.000000 0.000000 0.000000
# 3 -0.004824 -0.003689 0.020269 0.000000 0.000000 0.000000
# 4 0.000000 0.000000 0.000000 0.031256 0.000000 0.000000
# 5 0.000000 0.000000 0.000000 0.000000 0.028402 0.000000
# 6 0.000000 0.000000 0.000000 0.000000 0.000000 0.031225
#
#
# Mechanical properties :
#
#
# Convention : Reuss Voigt Hill
#
# Bulk Modulus (GPa) = 42.96843 45.55771 44.26307
# Shear Modulus (GPa) = 29.33455 30.45872 29.89664
#
# Velocity S-wave (km/s) = 3.72890 3.79968 3.76446
# Velocity P-wave (km/s) = 6.23754 6.39099 6.31473
#
# Compressibility (1/GPa) = 0.02327290
#
# Stress axis : x y z
#
# Youngs Moduli (GPa) = 64.80306 84.45995 49.33685
#
# Poissons Ratio (x) = 0.30575 0.23802
# Poissons Ratio (y) = 0.23459 0.18201
# Poissons Ratio (z) = 0.31264 0.31158
#
# Static dielectric constant tensor:
#      x y z
#    x 3.861440 0.000000 0.000000 
#    y 0.000000 3.974130 0.000000 
#    z 0.000000 0.000000 3.711930 
# 
# 
# High freq. dielectric constant tensor:
#      x y z
#    x 1.831480 0.000000 0.000000 
#    y 0.000000 1.848000 0.000000 
#    z 0.000000 0.000000 1.816320 
# 
# From -- ./inp_files/11084.got.cif
#   From: 2010.03.12/outbox.cif.g09.slc.cpg/sg61_6_cif.got.tgz:11084.got - 2010.04.10 19:05:03.
