data_PCOD8249116
_publ_section_title
;
Structure prediction by ZEFSAII (Michael W. Deem and Ramdas Pophale) SiO2 
 PCOD8249116
Probable space group: P B C A
;
_chemical_formula_sum "Si O2"
_cell_formula_units_Z 40
_cell_length_a 8.517673
_cell_length_b 12.210998
_cell_length_c 13.245126
_cell_angle_alpha 90.000000
_cell_angle_beta 90.000000
_cell_angle_gamma 90.000000
_cell_volume 1377.616124
_symmetry_space_group_name_H-M "P B C A"
_symmetry_group_IT_number 61
_symmetry_cell_setting 'orthorhombic'
loop_
_space_group_symop_operation_xyz
x,y,z
1/2-x,-y,1/2+z
1/2+x,1/2-y,-z
-x,1/2+y,1/2-z
-x,-y,-z
1/2+x,y,1/2-z
1/2-x,1/2+y,z
x,1/2-y,1/2+z
loop_
_atom_site_type_symbol
_atom_site_label
_atom_site_fract_x
_atom_site_fract_y
_atom_site_fract_z
Si Si1 0.015006 0.869505 0.938565
Si Si2 0.179654 0.813246 0.552066
Si Si3 0.356236 0.787289 0.742389
Si Si4 0.664070 0.063207 0.667768
Si Si5 0.980156 0.978974 0.646809
O O1 0.842822 0.861947 0.993581
O O2 0.005865 0.802599 0.833053
O O3 0.059228 0.997183 0.915911
O O4 0.141686 0.802818 0.002107
O O5 0.200923 0.780460 0.671148
O O6 0.050540 0.913089 0.549191
O O7 0.387215 0.688947 0.820059
O O8 0.346507 0.897386 0.807345
O O9 0.849377 0.074359 0.630939
O O10 0.624018 0.014099 0.780589
#
# Coordination Sequence:
#
# PCOD8249116 Si02
#       5
#     8   8   8   8   8
#     4   9  21  40  69  99 141 177 222 289 344 404
#     4  10  20  43  67 101 139 178 224 287 349 399
#     4   9  23  38  67  97 136 177 232 273 347 408
#     4  11  21  38  66  97 132 182 227 282 337 412
#     4  11  21  39  65  93 140 176 233 282 328 415
#
# _framework density 29.035665000000002
#
# number of rings (size 3 to 8) (size 9 to 14) (size 15 to 20)
#    1.200    0.800    2.000    1.200    2.800    0.000 
#    0.000    2.000    8.800    0.000    0.000    0.000 
#    0.000    0.000    0.000    0.000    0.000    0.000 
#
# Total GULP energy -495530.145242 kJ/mol
# GULP energy per Si atom -12388.253631 kJ/mol
# Density = 2.896958 g / cm^3
# Si number density = 29.035665 Si / 1000 Ang^3
#
#
#
# Elastic Constant Matrix: (Units=GPa)
#
#
# Indices 1 2 3 4 5 6 
#
# 1 124.1798 22.9812 9.9188 0.0000 0.0000 0.0000
# 2 22.9812 96.8623 -18.8844 0.0000 0.0000 0.0000
# 3 9.9188 -18.8844 21.0432 0.0000 0.0000 0.0000
# 4 0.0000 0.0000 0.0000 -7.5986 0.0000 0.0000
# 5 0.0000 0.0000 0.0000 0.0000 47.2234 0.0000
# 6 0.0000 0.0000 0.0000 0.0000 0.0000 49.6456
#
#
#
# Elastic Compliance Matrix: (Units=1/GPa)
#
#
# Indices 1 2 3 4 5 6 
#
# 1 0.009365 -0.003736 -0.007767 0.000000 0.000000 0.000000
# 2 -0.003736 0.014004 0.014328 0.000000 0.000000 0.000000
# 3 -0.007767 0.014328 0.064040 0.000000 0.000000 0.000000
# 4 0.000000 0.000000 0.000000 -0.131602 0.000000 0.000000
# 5 0.000000 0.000000 0.000000 0.000000 0.021176 0.000000
# 6 0.000000 0.000000 0.000000 0.000000 0.000000 0.020143
#
#
# Mechanical properties :
#
#
# Convention : Reuss Voigt Hill
#
# Bulk Modulus (GPa) = 10.74585 30.01294 20.37939
# Shear Modulus (GPa) = 222.27962 33.05873 127.66918
#
# Velocity S-wave (km/s) = 8.75901 3.37791 6.63816
# Velocity P-wave (km/s) = 10.29575 5.05695 8.11096
#
# Compressibility (1/GPa) = 0.09305918
#
# Stress axis : x y z
#
# Youngs Moduli (GPa) = 106.78501 71.40945 15.61517
#
# Poissons Ratio (x) = 0.26679 0.12128
# Poissons Ratio (y) = 0.39895 -0.22374
# Poissons Ratio (z) = 0.82938 -1.02316
#
# Static dielectric constant tensor:
#      x y z
#    x 4.962700 0.000000 0.000000 
#    y 0.000000 5.001560 0.000000 
#    z 0.000000 0.000000 5.339590 
# 
# 
# High freq. dielectric constant tensor:
#      x y z
#    x 2.173480 0.000000 0.000000 
#    y 0.000000 2.185720 0.000000 
#    z 0.000000 0.000000 2.199990 
# 
# From -- ./inp_files/6964.got.cif
#   From: 2010.03.12/outbox.cif.g09.slc.cpg/sg61_4_cif.got.tgz:6964.got - 2010.04.10 19:05:03.
