data_PCOD8249104
_publ_section_title
;
Structure prediction by ZEFSAII (Michael W. Deem and Ramdas Pophale) SiO2 
 PCOD8249104
Probable space group: P B C A
;
_chemical_formula_sum "Si O2"
_cell_formula_units_Z 40
_cell_length_a 7.613015
_cell_length_b 14.036675
_cell_length_c 19.938802
_cell_angle_alpha 90.000000
_cell_angle_beta 90.000000
_cell_angle_gamma 90.000000
_cell_volume 2130.688641
_symmetry_space_group_name_H-M "P B C A"
_symmetry_group_IT_number 61
_symmetry_cell_setting 'orthorhombic'
loop_
_space_group_symop_operation_xyz
x,y,z
1/2-x,-y,1/2+z
1/2+x,1/2-y,-z
-x,1/2+y,1/2-z
-x,-y,-z
1/2+x,y,1/2-z
1/2-x,1/2+y,z
x,1/2-y,1/2+z
loop_
_atom_site_type_symbol
_atom_site_label
_atom_site_fract_x
_atom_site_fract_y
_atom_site_fract_z
Si Si1 0.848140 0.309393 0.914384
Si Si2 0.672597 0.016150 0.868080
Si Si3 0.636445 0.872221 0.170756
Si Si4 0.537280 0.648137 0.813110
Si Si5 0.057866 0.173251 0.545495
O O1 0.787874 0.405756 0.878027
O O2 0.929431 0.237818 0.860595
O O3 0.681034 0.265374 0.951409
O O4 0.989325 0.336232 0.970557
O O5 0.481670 0.030386 0.831878
O O6 0.828741 0.060921 0.823960
O O7 0.667237 0.076119 0.938342
O O8 0.567470 0.815598 0.236758
O O9 0.592523 0.812249 0.102982
O O10 0.842725 0.892867 0.174423
#
# Coordination Sequence:
#
# PCOD8249104 Si02
#       5
#     8   8   8   8   8
#     4  11  20  41  62  92 120 167 202 245 311 369
#     4   9  22  39  61  88 121 154 209 246 298 368
#     4  10  20  42  57  84 124 159 192 265 301 345
#     4  11  20  41  61  85 127 156 200 258 305 356
#     4   9  21  38  59  87 124 154 200 258 291 357
#
# _framework density 18.773271999999999
#
# number of rings (size 3 to 8) (size 9 to 14) (size 15 to 20)
#    1.200    0.800    2.000    1.800    0.000    0.000 
#   14.400    3.000    0.000    0.000    0.000    0.000 
#    0.000    0.000    0.000    0.000    0.000    0.000 
#
# Total GULP energy -495621.034614 kJ/mol
# GULP energy per Si atom -12390.525865 kJ/mol
# Density = 1.873054 g / cm^3
# Si number density = 18.773272 Si / 1000 Ang^3
#
#
#
# Elastic Constant Matrix: (Units=GPa)
#
#
# Indices 1 2 3 4 5 6 
#
# 1 88.1467 29.6157 -15.6991 0.0000 0.0000 0.0000
# 2 29.6157 84.3652 4.9791 0.0000 0.0000 0.0000
# 3 -15.6991 4.9791 55.5878 0.0000 0.0000 0.0000
# 4 0.0000 0.0000 0.0000 16.6667 0.0000 0.0000
# 5 0.0000 0.0000 0.0000 0.0000 27.8917 0.0000
# 6 0.0000 0.0000 0.0000 0.0000 0.0000 18.1912
#
#
#
# Elastic Compliance Matrix: (Units=1/GPa)
#
#
# Indices 1 2 3 4 5 6 
#
# 1 0.013842 -0.005117 0.004368 0.000000 0.000000 0.000000
# 2 -0.005117 0.013808 -0.002682 0.000000 0.000000 0.000000
# 3 0.004368 -0.002682 0.019463 0.000000 0.000000 0.000000
# 4 0.000000 0.000000 0.000000 0.060000 0.000000 0.000000
# 5 0.000000 0.000000 0.000000 0.000000 0.035853 0.000000
# 6 0.000000 0.000000 0.000000 0.000000 0.000000 0.054972
#
#
# Mechanical properties :
#
#
# Convention : Reuss Voigt Hill
#
# Bulk Modulus (GPa) = 24.84448 29.54346 27.19397
# Shear Modulus (GPa) = 22.91307 26.49686 24.70496
#
# Velocity S-wave (km/s) = 3.49738 3.76095 3.63156
# Velocity P-wave (km/s) = 5.43797 5.88480 5.66579
#
# Compressibility (1/GPa) = 0.04025039
#
# Stress axis : x y z
#
# Youngs Moduli (GPa) = 72.24523 72.42331 51.37890
#
# Poissons Ratio (x) = 0.37058 -0.22440
# Poissons Ratio (y) = 0.36966 0.13779
# Poissons Ratio (z) = -0.31553 0.19423
#
# Static dielectric constant tensor:
#      x y z
#    x 3.438430 0.000000 0.000000 
#    y 0.000000 3.052990 0.000000 
#    z 0.000000 0.000000 3.495920 
# 
# 
# High freq. dielectric constant tensor:
#      x y z
#    x 1.732780 0.000000 0.000000 
#    y 0.000000 1.694040 0.000000 
#    z 0.000000 0.000000 1.739120 
# 
# From -- ./inp_files/8297.got.cif
#   From: 2010.03.12/outbox.cif.g09.slc.cpg/sg61_5_cif.got.tgz:8297.got - 2010.04.10 19:05:03.
