data_PCOD8249857
_publ_section_title
;
Structure prediction by ZEFSAII (Michael W. Deem and Ramdas Pophale) SiO2 
 PCOD8249857
Probable space group: P B C A
;
_chemical_formula_sum "Si O2"
_cell_formula_units_Z 64
_cell_length_a 17.233284
_cell_length_b 21.926582
_cell_length_c 7.431997
_cell_angle_alpha 90.000000
_cell_angle_beta 90.000000
_cell_angle_gamma 90.000000
_cell_volume 2808.306520
_symmetry_space_group_name_H-M "P B C A"
_symmetry_group_IT_number 61
_symmetry_cell_setting 'orthorhombic'
loop_
_space_group_symop_operation_xyz
x,y,z
1/2-x,-y,1/2+z
1/2+x,1/2-y,-z
-x,1/2+y,1/2-z
-x,-y,-z
1/2+x,y,1/2-z
1/2-x,1/2+y,z
x,1/2-y,1/2+z
loop_
_atom_site_type_symbol
_atom_site_label
_atom_site_fract_x
_atom_site_fract_y
_atom_site_fract_z
Si Si1 0.144730 0.759670 0.891179
Si Si2 0.261439 0.140747 0.918446
Si Si3 0.155956 0.559529 0.201078
Si Si4 0.980231 0.243783 0.362773
Si Si5 0.486654 0.888687 0.758613
Si Si6 0.381568 0.930057 0.050394
Si Si7 0.220079 0.883751 0.022733
Si Si8 0.078113 0.139294 0.879851
O O1 0.205124 0.708005 0.943580
O O2 0.116907 0.753825 0.681769
O O3 0.047680 0.753910 0.929593
O O4 0.181843 0.824780 0.931252
O O5 0.298105 0.111441 0.735703
O O6 0.169006 0.147667 0.917986
O O7 0.284614 0.099588 0.085657
O O8 0.155833 0.493399 0.112446
O O9 0.187513 0.558376 0.408051
O O10 0.072596 0.589739 0.203862
O O11 0.023136 0.179785 0.334006
O O12 0.039895 0.297445 0.317087
O O13 0.464963 0.891307 0.549192
O O14 0.432133 0.935159 0.869791
O O15 0.313202 0.881879 0.006723
O O16 0.435105 0.906354 0.213565
#
# Coordination Sequence:
#
# PCOD8249857 Si02
#       8
#     8   8   8   8   8   8   8   8
#     4  12  21  42  70 105 142 181 241 291 360 440
#     4  11  26  44  74 107 142 190 241 301 366 445
#     4  12  26  49  74 103 143 196 252 298 363 441
#     4  12  22  41  70 105 145 187 234 296 369 443
#     4  12  25  45  71 106 144 193 240 303 365 441
#     4  11  29  46  71 104 147 191 251 304 364 440
#     4  11  25  44  70 105 141 189 239 303 366 428
#     4  11  27  45  70 109 146 195 233 306 385 430
#
# _framework density 22.789535999999998
#
# number of rings (size 3 to 8) (size 9 to 14) (size 15 to 20)
#    0.000    0.500    5.000    1.875    5.250    2.500 
#    0.000    0.000    0.000    0.000    0.000    0.000 
#    0.000    0.000    0.000    0.000    0.000    0.000 
#
# Total GULP energy -793189.449577 kJ/mol
# GULP energy per Si atom -12393.585150 kJ/mol
# Density = 2.273767 g / cm^3
# Si number density = 22.789536 Si / 1000 Ang^3
#
#
#
# Elastic Constant Matrix: (Units=GPa)
#
#
# Indices 1 2 3 4 5 6 
#
# 1 96.1616 22.0866 27.9118 0.0000 0.0000 0.0000
# 2 22.0866 63.5819 18.2908 0.0000 0.0000 0.0000
# 3 27.9118 18.2908 62.6825 0.0000 0.0000 0.0000
# 4 0.0000 0.0000 0.0000 33.8063 0.0000 0.0000
# 5 0.0000 0.0000 0.0000 0.0000 44.3194 0.0000
# 6 0.0000 0.0000 0.0000 0.0000 0.0000 21.6626
#
#
#
# Elastic Compliance Matrix: (Units=1/GPa)
#
#
# Indices 1 2 3 4 5 6 
#
# 1 0.012438 -0.002977 -0.004670 0.000000 0.000000 0.000000
# 2 -0.002977 0.017882 -0.003892 0.000000 0.000000 0.000000
# 3 -0.004670 -0.003892 0.019169 0.000000 0.000000 0.000000
# 4 0.000000 0.000000 0.000000 0.029580 0.000000 0.000000
# 5 0.000000 0.000000 0.000000 0.000000 0.022563 0.000000
# 6 0.000000 0.000000 0.000000 0.000000 0.000000 0.046162
#
#
# Mechanical properties :
#
#
# Convention : Reuss Voigt Hill
#
# Bulk Modulus (GPa) = 37.86449 39.88938 38.87693
# Shear Modulus (GPa) = 27.82771 30.23346 29.03059
#
# Velocity S-wave (km/s) = 3.49818 3.64626 3.57298
# Velocity P-wave (km/s) = 5.74171 5.93871 5.84104
#
# Compressibility (1/GPa) = 0.02640997
#
# Stress axis : x y z
#
# Youngs Moduli (GPa) = 80.39560 55.92328 52.16871
#
# Poissons Ratio (x) = 0.16650 0.24362
# Poissons Ratio (y) = 0.23937 0.20304
# Poissons Ratio (z) = 0.37544 0.21766
#
# Static dielectric constant tensor:
#      x y z
#    x 4.058170 0.000000 0.000000 
#    y 0.000000 3.914140 0.000000 
#    z 0.000000 0.000000 4.903280 
# 
# 
# High freq. dielectric constant tensor:
#      x y z
#    x 1.907070 0.000000 0.000000 
#    y 0.000000 1.881960 0.000000 
#    z 0.000000 0.000000 1.943260 
# 
# From -- ./inp_files/3717.got.cif
#   From: 2010.03.12/outbox.cif.g09.slc.cpg/sg61_2_cif.got.tgz:3717.got - 2010.04.10 19:05:03.
