data_PCOD8249963
_publ_section_title
;
Structure prediction by ZEFSAII (Michael W. Deem and Ramdas Pophale) SiO2 
 PCOD8249963
Probable space group: P N M A
;
_chemical_formula_sum "Si O2"
_cell_formula_units_Z 56
_cell_length_a 9.560837
_cell_length_b 13.358745
_cell_length_c 27.920255
_cell_angle_alpha 90.000000
_cell_angle_beta 90.000000
_cell_angle_gamma 90.000000
_cell_volume 3565.996843
_symmetry_space_group_name_H-M "P N M A"
_symmetry_group_IT_number 62
_symmetry_cell_setting 'orthorhombic'
loop_
_space_group_symop_operation_xyz
x,y,z
1/2-x,-y,1/2+z
1/2+x,1/2-y,1/2-z
-x,1/2+y,-z
-x,-y,-z
1/2+x,y,1/2-z
1/2-x,1/2+y,1/2+z
x,1/2-y,z
loop_
_atom_site_type_symbol
_atom_site_label
_atom_site_fract_x
_atom_site_fract_y
_atom_site_fract_z
Si Si1 0.756180 0.867336 0.896519
Si Si2 0.751885 0.866469 0.790442
Si Si3 0.634493 0.135778 0.551788
Si Si4 0.654934 0.968331 0.986406
Si Si5 0.564793 0.552049 0.604364
Si Si6 0.565068 0.630303 0.705339
Si Si7 0.641936 0.862677 0.506972
O O1 0.786469 0.750000 0.904870
O O2 0.689990 0.885751 0.843707
O O3 0.649186 0.908606 0.936112
O O4 0.901079 0.926193 0.900131
O O5 0.758301 0.750000 0.779275
O O6 0.654556 0.914436 0.749453
O O7 0.908078 0.910222 0.786718
O O8 0.644081 0.250000 0.569636
O O9 0.780527 0.103248 0.527485
O O10 0.515426 0.119890 0.511631
O O11 0.596287 0.066257 0.597212
O O12 0.500000 0.000000 0.000000
O O13 0.749646 0.066810 0.979206
O O14 0.624879 0.585552 0.655781
O O15 0.646427 0.613250 0.563362
O O16 0.567659 0.750000 0.701470
O O17 0.691830 0.750000 0.497804
#
# Coordination Sequence:
#
# PCOD8249963 Si02
#       7
#     8   8   8   8   8   8   8
#     4  10  17  30  50  69  97 132 159 187 233 288
#     4   8  16  28  44  66  93 122 150 186 232 282
#     4  10  19  33  52  70  95 124 158 204 239 270
#     4  11  21  32  45  69 101 129 162 193 233 294
#     4  10  16  29  51  74  89 120 163 196 230 279
#     4   9  16  28  45  68  96 122 151 188 232 281
#     4  10  18  31  49  70  94 122 160 202 231 269
#
# _framework density 15.703884
#
# number of rings (size 3 to 8) (size 9 to 14) (size 15 to 20)
#    0.000    2.286    2.857    3.429    0.000    1.143 
#    5.143    0.000    0.000    0.000    0.000    5.000 
#    0.000    0.000    0.000    0.000    0.000    0.000 
#
# Total GULP energy -694224.835847 kJ/mol
# GULP energy per Si atom -12396.872069 kJ/mol
# Density = 1.566814 g / cm^3
# Si number density = 15.703884 Si / 1000 Ang^3
#
#
#
# Elastic Constant Matrix: (Units=GPa)
#
#
# Indices 1 2 3 4 5 6 
#
# 1 73.4433 32.1120 43.3321 0.0000 0.0000 0.0000
# 2 32.1120 84.5090 35.7466 0.0000 0.0000 0.0000
# 3 43.3321 35.7466 117.5978 0.0000 0.0000 0.0000
# 4 0.0000 0.0000 0.0000 23.7013 0.0000 0.0000
# 5 0.0000 0.0000 0.0000 0.0000 24.2739 0.0000
# 6 0.0000 0.0000 0.0000 0.0000 0.0000 16.4146
#
#
#
# Elastic Compliance Matrix: (Units=1/GPa)
#
#
# Indices 1 2 3 4 5 6 
#
# 1 0.019010 -0.004889 -0.005518 0.000000 0.000000 0.000000
# 2 -0.004889 0.014836 -0.002708 0.000000 0.000000 0.000000
# 3 -0.005518 -0.002708 0.011360 0.000000 0.000000 0.000000
# 4 0.000000 0.000000 0.000000 0.042192 0.000000 0.000000
# 5 0.000000 0.000000 0.000000 0.000000 0.041196 0.000000
# 6 0.000000 0.000000 0.000000 0.000000 0.000000 0.060921
#
#
# Mechanical properties :
#
#
# Convention : Reuss Voigt Hill
#
# Bulk Modulus (GPa) = 52.70234 55.32572 54.01403
# Shear Modulus (GPa) = 22.51517 23.83525 23.17521
#
# Velocity S-wave (km/s) = 3.79057 3.90011 3.84573
# Velocity P-wave (km/s) = 7.26573 7.45575 7.36136
#
# Compressibility (1/GPa) = 0.01897449
#
# Stress axis : x y z
#
# Youngs Moduli (GPa) = 52.60514 67.40157 88.02622
#
# Poissons Ratio (x) = 0.32953 0.48577
# Poissons Ratio (y) = 0.25719 0.23841
# Poissons Ratio (z) = 0.29030 0.18255
#
# Static dielectric constant tensor:
#      x y z
#    x 2.888020 0.000000 0.000000 
#    y 0.000000 2.950020 0.000000 
#    z 0.000000 0.000000 3.128430 
# 
# 
# High freq. dielectric constant tensor:
#      x y z
#    x 1.583590 0.000000 0.000000 
#    y 0.000000 1.581970 0.000000 
#    z 0.000000 0.000000 1.597900 
# 
# From -- ./inp_files/32290.got.cif
#   From: 2010.03.12/outbox.cif.g09.slc.cpg/sg62_17_cif.got.tgz:32290.got - 2010.04.10 19:12:36.
