data_PCOD8249553
_publ_section_title
;
Structure prediction by ZEFSAII (Michael W. Deem and Ramdas Pophale) SiO2 
 PCOD8249553
Probable space group: P B C A
;
_chemical_formula_sum "Si O2"
_cell_formula_units_Z 64
_cell_length_a 14.374949
_cell_length_b 12.621397
_cell_length_c 16.682587
_cell_angle_alpha 90.000000
_cell_angle_beta 90.000000
_cell_angle_gamma 90.000000
_cell_volume 3026.754093
_symmetry_space_group_name_H-M "P B C A"
_symmetry_group_IT_number 61
_symmetry_cell_setting 'orthorhombic'
loop_
_space_group_symop_operation_xyz
x,y,z
1/2-x,-y,1/2+z
1/2+x,1/2-y,-z
-x,1/2+y,1/2-z
-x,-y,-z
1/2+x,y,1/2-z
1/2-x,1/2+y,z
x,1/2-y,1/2+z
loop_
_atom_site_type_symbol
_atom_site_label
_atom_site_fract_x
_atom_site_fract_y
_atom_site_fract_z
Si Si1 0.393454 0.032531 0.799361
Si Si2 0.560772 0.482747 0.422294
Si Si3 0.939032 0.597327 0.525233
Si Si4 0.619875 0.254369 0.399630
Si Si5 0.890071 0.793415 0.720056
Si Si6 0.446378 0.315108 0.157813
Si Si7 0.260816 0.649853 0.894525
Si Si8 0.816035 0.314102 0.944307
O O1 0.489937 0.028205 0.847920
O O2 0.401514 0.114436 0.726874
O O3 0.303046 0.068682 0.847529
O O4 0.364707 0.916098 0.769349
O O5 0.500000 0.500000 0.500000
O O6 0.619822 0.374578 0.432077
O O7 0.634930 0.577255 0.415866
O O8 0.951569 0.688524 0.456926
O O9 0.829867 0.581574 0.547165
O O10 0.000000 0.500000 0.500000
O O11 0.975126 0.619500 0.613689
O O12 0.597186 0.260969 0.306116
O O13 0.715951 0.191724 0.403843
O O14 0.812942 0.734756 0.663360
O O15 0.996053 0.787973 0.687270
O O16 0.370368 0.284895 0.092441
O O17 0.191939 0.706016 0.959636
#
# Coordination Sequence:
#
# PCOD8249553 Si02
#       8
#     8   8   8   8   8   8   8   8
#     4  12  24  44  72  98 139 186 236 296 365 436
#     4  12  24  43  72 102 134 187 235 285 366 438
#     4  10  23  43  66  96 140 182 227 286 357 424
#     4  11  25  44  69 102 142 180 242 298 356 437
#     4  11  24  45  65 102 142 179 233 299 358 433
#     4  11  23  42  68  98 135 183 232 289 356 428
#     4  10  25  42  67 104 137 184 237 290 357 429
#     4  11  24  42  69  99 134 180 235 296 352 427
#
# _framework density 21.144762
#
# number of rings (size 3 to 8) (size 9 to 14) (size 15 to 20)
#    0.000    1.000    3.750    2.250    3.500    5.000 
#    0.000    0.000    0.000    0.000    0.000    0.000 
#    0.000    0.000    0.000    0.000    0.000    0.000 
#
# Total GULP energy -792883.348849 kJ/mol
# GULP energy per Si atom -12388.802326 kJ/mol
# Density = 2.109664 g / cm^3
# Si number density = 21.144762 Si / 1000 Ang^3
#
#
#
# Elastic Constant Matrix: (Units=GPa)
#
#
# Indices 1 2 3 4 5 6 
#
# 1 93.9585 56.4696 43.4708 0.0000 0.0000 0.0000
# 2 56.4696 132.6754 42.7483 0.0000 0.0000 0.0000
# 3 43.4708 42.7483 128.1200 0.0000 0.0000 0.0000
# 4 0.0000 0.0000 0.0000 28.1711 0.0000 0.0000
# 5 0.0000 0.0000 0.0000 0.0000 40.3237 0.0000
# 6 0.0000 0.0000 0.0000 0.0000 0.0000 39.5710
#
#
#
# Elastic Compliance Matrix: (Units=1/GPa)
#
#
# Indices 1 2 3 4 5 6 
#
# 1 0.015543 -0.005509 -0.003436 0.000000 0.000000 0.000000
# 2 -0.005509 0.010397 -0.001600 0.000000 0.000000 0.000000
# 3 -0.003436 -0.001600 0.009505 0.000000 0.000000 0.000000
# 4 0.000000 0.000000 0.000000 0.035497 0.000000 0.000000
# 5 0.000000 0.000000 0.000000 0.000000 0.024799 0.000000
# 6 0.000000 0.000000 0.000000 0.000000 0.000000 0.025271
#
#
# Mechanical properties :
#
#
# Convention : Reuss Voigt Hill
#
# Bulk Modulus (GPa) = 69.65500 71.12570 70.39035
# Shear Modulus (GPa) = 34.03965 35.75085 34.89525
#
# Velocity S-wave (km/s) = 4.01663 4.11635 4.06680
# Velocity P-wave (km/s) = 7.38408 7.50353 7.44404
#
# Compressibility (1/GPa) = 0.01435647
#
# Stress axis : x y z
#
# Youngs Moduli (GPa) = 64.33654 96.17879 105.20955
#
# Poissons Ratio (x) = 0.52980 0.36148
# Poissons Ratio (y) = 0.35440 0.16835
# Poissons Ratio (z) = 0.22105 0.15390
#
# Static dielectric constant tensor:
#      x y z
#    x 3.797850 0.000000 0.000000 
#    y 0.000000 3.662720 0.000000 
#    z 0.000000 0.000000 3.891610 
# 
# 
# High freq. dielectric constant tensor:
#      x y z
#    x 1.837060 0.000000 0.000000 
#    y 0.000000 1.819720 0.000000 
#    z 0.000000 0.000000 1.846380 
# 
# From -- ./inp_files/9540.got.cif
#   From: 2010.03.12/outbox.cif.g09.slc.cpg/sg61_5_cif.got.tgz:9540.got - 2010.04.10 19:05:03.
