data_PCOD8249096
_publ_section_title
;
Structure prediction by ZEFSAII (Michael W. Deem and Ramdas Pophale) SiO2 
 PCOD8249096
Probable space group: P B C A
;
_chemical_formula_sum "Si O2"
_cell_formula_units_Z 56
_cell_length_a 23.745646
_cell_length_b 10.840154
_cell_length_c 11.217224
_cell_angle_alpha 90.000000
_cell_angle_beta 90.000000
_cell_angle_gamma 90.000000
_cell_volume 2887.385915
_symmetry_space_group_name_H-M "P B C A"
_symmetry_group_IT_number 61
_symmetry_cell_setting 'orthorhombic'
loop_
_space_group_symop_operation_xyz
x,y,z
1/2-x,-y,1/2+z
1/2+x,1/2-y,-z
-x,1/2+y,1/2-z
-x,-y,-z
1/2+x,y,1/2-z
1/2-x,1/2+y,z
x,1/2-y,1/2+z
loop_
_atom_site_type_symbol
_atom_site_label
_atom_site_fract_x
_atom_site_fract_y
_atom_site_fract_z
Si Si1 0.150196 0.014358 0.061129
Si Si2 0.171250 0.644281 0.779104
Si Si3 0.298107 0.627831 0.846378
Si Si4 0.925392 0.993875 0.602370
Si Si5 0.107971 0.208690 0.241877
Si Si6 0.953694 0.550650 0.836814
Si Si7 0.873113 0.086884 0.180358
O O1 0.111597 0.103939 0.140093
O O2 0.179339 0.914021 0.147602
O O3 0.192458 0.105900 0.988994
O O4 0.116767 0.931359 0.962579
O O5 0.232696 0.653257 0.834621
O O6 0.132582 0.559017 0.861426
O O7 0.143008 0.777901 0.776506
O O8 0.331599 0.744073 0.790542
O O9 0.321885 0.505109 0.779167
O O10 0.923426 0.851725 0.644919
O O11 0.930670 0.999113 0.461599
O O12 0.978778 0.059646 0.664735
O O13 0.069103 0.314790 0.191033
O O14 0.931853 0.452230 0.740249
#
# Coordination Sequence:
#
# PCOD8249096 Si02
#       7
#     8   8   8   8   8   8   8
#     4   9  22  41  59  96 119 162 212 244 317 368
#     4  11  23  39  65  91 129 158 210 257 301 375
#     4   9  22  39  62  90 124 161 201 249 316 364
#     4  10  24  39  63  95 117 166 208 252 313 365
#     4  10  20  41  66  87 124 160 205 260 304 380
#     4  10  22  42  63  87 126 160 207 258 309 365
#     4   9  23  41  60  92 119 165 203 253 313 360
#
# _framework density 19.394707
#
# number of rings (size 3 to 8) (size 9 to 14) (size 15 to 20)
#    0.857    1.429    0.000    0.857    8.000    3.429 
#    0.000    2.857    0.000    0.000    0.000    0.000 
#    0.000    0.000    0.000    0.000    0.000    0.000 
#
# Total GULP energy -693944.811783 kJ/mol
# GULP energy per Si atom -12391.871639 kJ/mol
# Density = 1.935056 g / cm^3
# Si number density = 19.394707 Si / 1000 Ang^3
#
#
#
# Elastic Constant Matrix: (Units=GPa)
#
#
# Indices 1 2 3 4 5 6 
#
# 1 95.8903 19.9914 30.6901 0.0000 0.0000 0.0000
# 2 19.9914 95.1661 24.3729 0.0000 0.0000 0.0000
# 3 30.6901 24.3729 94.6967 0.0000 0.0000 0.0000
# 4 0.0000 0.0000 0.0000 2.8811 0.0000 0.0000
# 5 0.0000 0.0000 0.0000 0.0000 24.1370 0.0000
# 6 0.0000 0.0000 0.0000 0.0000 0.0000 21.6777
#
#
#
# Elastic Compliance Matrix: (Units=1/GPa)
#
#
# Indices 1 2 3 4 5 6 
#
# 1 0.011863 -0.001614 -0.003429 0.000000 0.000000 0.000000
# 2 -0.001614 0.011469 -0.002429 0.000000 0.000000 0.000000
# 3 -0.003429 -0.002429 0.012297 0.000000 0.000000 0.000000
# 4 0.000000 0.000000 0.000000 0.347090 0.000000 0.000000
# 5 0.000000 0.000000 0.000000 0.000000 0.041430 0.000000
# 6 0.000000 0.000000 0.000000 0.000000 0.000000 0.046130
#
#
# Mechanical properties :
#
#
# Convention : Reuss Voigt Hill
#
# Bulk Modulus (GPa) = 48.34532 48.42909 48.38720
# Shear Modulus (GPa) = 10.16018 23.78574 16.97296
#
# Velocity S-wave (km/s) = 2.29129 3.50580 2.96147
# Velocity P-wave (km/s) = 5.65519 6.43522 6.05777
#
# Compressibility (1/GPa) = 0.02068452
#
# Stress axis : x y z
#
# Youngs Moduli (GPa) = 84.29905 87.19160 81.32371
#
# Poissons Ratio (x) = 0.14070 0.27887
# Poissons Ratio (y) = 0.13603 0.19753
# Poissons Ratio (z) = 0.28908 0.21178
#
# Static dielectric constant tensor:
#      x y z
#    x 3.319690 0.000000 0.000000 
#    y 0.000000 3.640990 0.000000 
#    z 0.000000 0.000000 3.620260 
# 
# 
# High freq. dielectric constant tensor:
#      x y z
#    x 1.738610 0.000000 0.000000 
#    y 0.000000 1.761310 0.000000 
#    z 0.000000 0.000000 1.758930 
# 
# From -- ./inp_files/6446.got.cif
#   From: 2010.03.12/outbox.cif.g09.slc.cpg/sg61_4_cif.got.tgz:6446.got - 2010.04.10 19:05:03.
