data_PCOD8249669
_publ_section_title
;
Structure prediction by ZEFSAII (Michael W. Deem and Ramdas Pophale) SiO2 
 PCOD8249669
Probable space group: P B C A
;
_chemical_formula_sum "Si O2"
_cell_formula_units_Z 40
_cell_length_a 17.609739
_cell_length_b 10.855883
_cell_length_c 7.835825
_cell_angle_alpha 90.000000
_cell_angle_beta 90.000000
_cell_angle_gamma 90.000000
_cell_volume 1497.968916
_symmetry_space_group_name_H-M "P B C A"
_symmetry_group_IT_number 61
_symmetry_cell_setting 'orthorhombic'
loop_
_space_group_symop_operation_xyz
x,y,z
1/2-x,-y,1/2+z
1/2+x,1/2-y,-z
-x,1/2+y,1/2-z
-x,-y,-z
1/2+x,y,1/2-z
1/2-x,1/2+y,z
x,1/2-y,1/2+z
loop_
_atom_site_type_symbol
_atom_site_label
_atom_site_fract_x
_atom_site_fract_y
_atom_site_fract_z
Si Si1 0.982071 0.368869 0.772306
Si Si2 0.303847 0.712791 0.749299
Si Si3 0.602587 0.050630 0.972307
Si Si4 0.365447 0.149813 0.749541
Si Si5 0.619741 0.414232 0.932783
O O1 0.930720 0.491980 0.794881
O O2 0.933681 0.245148 0.764414
O O3 0.030532 0.383204 0.596963
O O4 0.038342 0.365939 0.936756
O O5 0.326929 0.639444 0.574916
O O6 0.213706 0.721603 0.764568
O O7 0.336024 0.851609 0.730892
O O8 0.344441 0.638409 0.898030
O O9 0.626285 0.932207 0.082206
O O10 0.366804 0.061479 0.582238
#
# Coordination Sequence:
#
# PCOD8249669 Si02
#       5
#     8   8   8   8   8
#     4  10  25  48  78 105 151 199 254 306 386 450
#     4  12  27  48  75 108 161 193 255 319 386 452
#     4  10  25  51  76 112 156 197 255 323 371 455
#     4  11  26  47  82 112 148 204 255 311 391 451
#     4  11  27  48  73 112 151 205 253 314 383 453
#
# _framework density 26.702824
#
# number of rings (size 3 to 8) (size 9 to 14) (size 15 to 20)
#    0.000    1.200    0.000    3.600   16.800    2.400 
#    0.000    0.000    0.000    0.000    0.000    0.000 
#    0.000    0.000    0.000    0.000    0.000    0.000 
#
# Total GULP energy -495962.015430 kJ/mol
# GULP energy per Si atom -12399.050386 kJ/mol
# Density = 2.664205 g / cm^3
# Si number density = 26.702824 Si / 1000 Ang^3
#
#
#
# Elastic Constant Matrix: (Units=GPa)
#
#
# Indices 1 2 3 4 5 6 
#
# 1 153.6051 69.8321 5.3267 0.0000 0.0000 0.0000
# 2 69.8321 124.9293 0.6322 0.0000 0.0000 0.0000
# 3 5.3267 0.6322 34.0366 0.0000 0.0000 0.0000
# 4 0.0000 0.0000 0.0000 39.6267 0.0000 0.0000
# 5 0.0000 0.0000 0.0000 0.0000 28.6436 0.0000
# 6 0.0000 0.0000 0.0000 0.0000 0.0000 39.7834
#
#
#
# Elastic Compliance Matrix: (Units=1/GPa)
#
#
# Indices 1 2 3 4 5 6 
#
# 1 0.008784 -0.004903 -0.001284 0.000000 0.000000 0.000000
# 2 -0.004903 0.010743 0.000568 0.000000 0.000000 0.000000
# 3 -0.001284 0.000568 0.029570 0.000000 0.000000 0.000000
# 4 0.000000 0.000000 0.000000 0.025236 0.000000 0.000000
# 5 0.000000 0.000000 0.000000 0.000000 0.034912 0.000000
# 6 0.000000 0.000000 0.000000 0.000000 0.000000 0.025136
#
#
# Mechanical properties :
#
#
# Convention : Reuss Voigt Hill
#
# Bulk Modulus (GPa) = 26.41416 51.57257 38.99336
# Shear Modulus (GPa) = 31.59790 37.39608 34.49699
#
# Velocity S-wave (km/s) = 3.44367 3.74632 3.59818
# Velocity P-wave (km/s) = 5.07200 6.16998 5.64774
#
# Compressibility (1/GPa) = 0.03785848
#
# Stress axis : x y z
#
# Youngs Moduli (GPa) = 113.84401 93.08753 33.81756
#
# Poissons Ratio (x) = 0.45645 0.04341
# Poissons Ratio (y) = 0.55823 -0.01920
# Poissons Ratio (z) = 0.14613 -0.05286
#
# Static dielectric constant tensor:
#      x y z
#    x 4.929390 0.000000 0.000000 
#    y 0.000000 5.056810 0.000000 
#    z 0.000000 0.000000 4.999140 
# 
# 
# High freq. dielectric constant tensor:
#      x y z
#    x 2.069390 0.000000 0.000000 
#    y 0.000000 2.084240 0.000000 
#    z 0.000000 0.000000 2.079930 
# 
# From -- ./inp_files/3306.got.cif
#   From: 2010.03.12/outbox.cif.g09.slc.cpg/sg61_2_cif.got.tgz:3306.got - 2010.04.10 19:05:03.
