data_PCOD8249999
_publ_section_title
;
Structure prediction by ZEFSAII (Michael W. Deem and Ramdas Pophale) SiO2 
 PCOD8249999
Probable space group: P N M A
;
_chemical_formula_sum "Si O2"
_cell_formula_units_Z 56
_cell_length_a 17.878140
_cell_length_b 8.636580
_cell_length_c 22.285076
_cell_angle_alpha 90.000000
_cell_angle_beta 90.000000
_cell_angle_gamma 90.000000
_cell_volume 3440.949141
_symmetry_space_group_name_H-M "P N M A"
_symmetry_group_IT_number 62
_symmetry_cell_setting 'orthorhombic'
loop_
_space_group_symop_operation_xyz
x,y,z
1/2-x,-y,1/2+z
1/2+x,1/2-y,1/2-z
-x,1/2+y,-z
-x,-y,-z
1/2+x,y,1/2-z
1/2-x,1/2+y,1/2+z
x,1/2-y,z
loop_
_atom_site_type_symbol
_atom_site_label
_atom_site_fract_x
_atom_site_fract_y
_atom_site_fract_z
Si Si1 0.083596 0.067960 0.216458
Si Si2 0.723334 0.419976 0.679385
Si Si3 0.070286 0.065030 0.781826
Si Si4 0.120087 0.933333 0.343065
Si Si5 0.231650 0.921866 0.182705
Si Si6 0.507510 0.067748 0.934454
Si Si7 0.618355 0.931698 0.842801
O O1 0.087734 0.250000 0.211457
O O2 0.086031 0.018464 0.285758
O O3 0.149971 0.998439 0.175836
O O4 0.004611 0.007216 0.190195
O O5 0.711250 0.250000 0.652081
O O6 0.641619 0.502376 0.679304
O O7 0.794224 0.496846 0.644522
O O8 0.749270 0.411353 0.747822
O O9 0.067807 0.250000 0.784952
O O10 0.079699 0.019936 0.712370
O O11 0.122840 0.750000 0.328695
O O12 0.069862 0.970982 0.400342
O O13 0.230128 0.750000 0.154271
O O14 0.294429 0.023799 0.149314
O O15 0.523107 0.250000 0.935945
O O16 0.576566 0.982404 0.903100
O O17 0.500000 0.000000 0.000000
O O18 0.610673 0.750000 0.832043
#
# Coordination Sequence:
#
# PCOD8249999 Si02
#       7
#     8   8   8   8   8   8   8
#     4  11  19  26  41  66  93 119 151 188 223 264
#     4   7  13  25  42  61  79 108 149 183 213 263
#     4  10  17  27  43  63  90 123 153 180 220 273
#     4   9  17  31  47  60  82 118 155 189 230 275
#     4   9  17  30  45  61  85 118 152 181 222 276
#     4  11  22  34  49  66  89 121 160 199 237 275
#     4  11  20  31  46  65  89 115 151 194 235 273
#
# _framework density 16.274578999999999
#
# number of rings (size 3 to 8) (size 9 to 14) (size 15 to 20)
#    0.000    2.286    1.429    5.571    0.000    0.571 
#    0.000    0.714    0.000    0.000    0.000    0.000 
#    0.000    1.143    0.000    3.143    0.000    4.571 
#
# Total GULP energy -693909.263668 kJ/mol
# GULP energy per Si atom -12391.236851 kJ/mol
# Density = 1.623754 g / cm^3
# Si number density = 16.274579 Si / 1000 Ang^3
#
#
#
# Elastic Constant Matrix: (Units=GPa)
#
#
# Indices 1 2 3 4 5 6 
#
# 1 165.4767 36.1346 33.3761 0.0000 0.0000 0.0000
# 2 36.1346 78.1358 11.0858 0.0000 0.0000 0.0000
# 3 33.3761 11.0858 39.6096 0.0000 0.0000 0.0000
# 4 0.0000 0.0000 0.0000 15.4637 0.0000 0.0000
# 5 0.0000 0.0000 0.0000 0.0000 15.6519 0.0000
# 6 0.0000 0.0000 0.0000 0.0000 0.0000 22.7780
#
#
#
# Elastic Compliance Matrix: (Units=1/GPa)
#
#
# Indices 1 2 3 4 5 6 
#
# 1 0.007826 -0.002794 -0.005812 0.000000 0.000000 0.000000
# 2 -0.002794 0.014325 -0.001655 0.000000 0.000000 0.000000
# 3 -0.005812 -0.001655 0.030607 0.000000 0.000000 0.000000
# 4 0.000000 0.000000 0.000000 0.064667 0.000000 0.000000
# 5 0.000000 0.000000 0.000000 0.000000 0.063890 0.000000
# 6 0.000000 0.000000 0.000000 0.000000 0.000000 0.043902
#
#
# Mechanical properties :
#
#
# Convention : Reuss Voigt Hill
#
# Bulk Modulus (GPa) = 31.02159 49.37946 40.20052
# Shear Modulus (GPa) = 19.49435 24.28711 21.89073
#
# Velocity S-wave (km/s) = 3.46474 3.86726 3.67152
# Velocity P-wave (km/s) = 5.92525 7.09565 6.53670
#
# Compressibility (1/GPa) = 0.03223562
#
# Stress axis : x y z
#
# Youngs Moduli (GPa) = 127.78557 69.80656 32.67245
#
# Poissons Ratio (x) = 0.19507 0.18989
# Poissons Ratio (y) = 0.35709 0.05406
# Poissons Ratio (z) = 0.74269 0.11551
#
# Static dielectric constant tensor:
#      x y z
#    x 3.737980 0.000000 0.000000 
#    y 0.000000 3.062840 0.000000 
#    z 0.000000 0.000000 2.508260 
# 
# 
# High freq. dielectric constant tensor:
#      x y z
#    x 1.654290 0.000000 0.000000 
#    y 0.000000 1.626360 0.000000 
#    z 0.000000 0.000000 1.545300 
# 
# From -- ./inp_files/27594.got.cif
#   From: 2010.03.12/outbox.cif.g09.slc.cpg/sg62_14_cif.got.tgz:27594.got - 2010.04.10 19:12:36.
