data_PCOD8249733
_publ_section_title
;
Structure prediction by ZEFSAII (Michael W. Deem and Ramdas Pophale) SiO2 
 PCOD8249733
Probable space group: P B C A
;
_chemical_formula_sum "Si O2"
_cell_formula_units_Z 48
_cell_length_a 25.076492
_cell_length_b 10.055992
_cell_length_c 8.902426
_cell_angle_alpha 90.000000
_cell_angle_beta 90.000000
_cell_angle_gamma 90.000000
_cell_volume 2244.915888
_symmetry_space_group_name_H-M "P B C A"
_symmetry_group_IT_number 61
_symmetry_cell_setting 'orthorhombic'
loop_
_space_group_symop_operation_xyz
x,y,z
1/2-x,-y,1/2+z
1/2+x,1/2-y,-z
-x,1/2+y,1/2-z
-x,-y,-z
1/2+x,y,1/2-z
1/2-x,1/2+y,z
x,1/2-y,1/2+z
loop_
_atom_site_type_symbol
_atom_site_label
_atom_site_fract_x
_atom_site_fract_y
_atom_site_fract_z
Si Si1 0.777896 0.624504 0.384330
Si Si2 0.771680 0.359524 0.564810
Si Si3 0.556217 0.400833 0.166700
Si Si4 0.432607 0.098000 0.733422
Si Si5 0.399622 0.828291 0.645044
Si Si6 0.606936 0.833362 0.587003
O O1 0.764359 0.481702 0.452136
O O2 0.741661 0.729016 0.471042
O O3 0.839371 0.660742 0.412240
O O4 0.767104 0.623760 0.206757
O O5 0.831264 0.347288 0.628429
O O6 0.495292 0.390550 0.212269
O O7 0.591739 0.314060 0.279836
O O8 0.575120 0.553267 0.178791
O O9 0.561699 0.346682 0.997632
O O10 0.415193 0.188092 0.872709
O O11 0.400318 0.150091 0.589852
O O12 0.414790 0.945448 0.763605
#
# Coordination Sequence:
#
# PCOD8249733 Si02
#       6
#     8   8   8   8   8   8
#     4  12  26  45  70 100 137 180 229 282 342 405
#     4  12  26  45  70 100 137 180 229 282 342 405
#     4  11  22  42  67  94 131 173 218 272 328 396
#     4  11  22  42  67  94 131 173 218 272 328 396
#     4  11  24  43  64  97 132 170 222 272 334 395
#     4  11  24  43  64  97 132 170 222 272 334 395
#
# _framework density 21.381648999999999
#
# number of rings (size 3 to 8) (size 9 to 14) (size 15 to 20)
#    0.000    0.667    3.333    7.000    4.667    1.333 
#    0.000    3.333    0.000    0.000    0.000    0.000 
#    0.000    0.000    0.000    0.000    0.000    0.000 
#
# Total GULP energy -595557.889082 kJ/mol
# GULP energy per Si atom -12407.456023 kJ/mol
# Density = 2.133298 g / cm^3
# Si number density = 21.381649 Si / 1000 Ang^3
#
#
#
# Elastic Constant Matrix: (Units=GPa)
#
#
# Indices 1 2 3 4 5 6 
#
# 1 76.6729 32.3643 10.8525 0.0000 0.0000 0.0000
# 2 32.3643 70.4358 5.5192 0.0000 0.0000 0.0000
# 3 10.8525 5.5192 43.1248 0.0000 0.0000 0.0000
# 4 0.0000 0.0000 0.0000 33.5511 0.0000 0.0000
# 5 0.0000 0.0000 0.0000 0.0000 32.2797 0.0000
# 6 0.0000 0.0000 0.0000 0.0000 0.0000 36.2813
#
#
#
# Elastic Compliance Matrix: (Units=1/GPa)
#
#
# Indices 1 2 3 4 5 6 
#
# 1 0.016616 -0.007381 -0.003237 0.000000 0.000000 0.000000
# 2 -0.007381 0.017620 -0.000398 0.000000 0.000000 0.000000
# 3 -0.003237 -0.000398 0.024054 0.000000 0.000000 0.000000
# 4 0.000000 0.000000 0.000000 0.029805 0.000000 0.000000
# 5 0.000000 0.000000 0.000000 0.000000 0.030979 0.000000
# 6 0.000000 0.000000 0.000000 0.000000 0.000000 0.027562
#
#
# Mechanical properties :
#
#
# Convention : Reuss Voigt Hill
#
# Bulk Modulus (GPa) = 27.57941 31.96726 29.77333
# Shear Modulus (GPa) = 27.66174 29.85558 28.75866
#
# Velocity S-wave (km/s) = 3.60073 3.74079 3.67142
# Velocity P-wave (km/s) = 5.49669 5.80011 5.65044
#
# Compressibility (1/GPa) = 0.03625894
#
# Stress axis : x y z
#
# Youngs Moduli (GPa) = 60.18187 56.75332 41.57319
#
# Poissons Ratio (x) = 0.41892 0.13457
# Poissons Ratio (y) = 0.44422 0.01653
# Poissons Ratio (z) = 0.19480 0.02256
#
# Static dielectric constant tensor:
#      x y z
#    x 3.913550 0.000000 0.000000 
#    y 0.000000 4.184040 0.000000 
#    z 0.000000 0.000000 3.882500 
# 
# 
# High freq. dielectric constant tensor:
#      x y z
#    x 1.854670 0.000000 0.000000 
#    y 0.000000 1.852790 0.000000 
#    z 0.000000 0.000000 1.827630 
# 
# From -- ./inp_files/4218.got.cif
#   From: 2010.03.12/outbox.cif.g09.slc.cpg/sg61_3_cif.got.tgz:4218.got - 2010.04.10 19:05:03.
