data_PCOD8249402
_publ_section_title
;
Structure prediction by ZEFSAII (Michael W. Deem and Ramdas Pophale) SiO2 
 PCOD8249402
Probable space group: P B C A
;
_chemical_formula_sum "Si O2"
_cell_formula_units_Z 56
_cell_length_a 12.923975
_cell_length_b 19.657480
_cell_length_c 9.733178
_cell_angle_alpha 90.000000
_cell_angle_beta 90.000000
_cell_angle_gamma 90.000000
_cell_volume 2472.740930
_symmetry_space_group_name_H-M "P B C A"
_symmetry_group_IT_number 61
_symmetry_cell_setting 'orthorhombic'
loop_
_space_group_symop_operation_xyz
x,y,z
1/2-x,-y,1/2+z
1/2+x,1/2-y,-z
-x,1/2+y,1/2-z
-x,-y,-z
1/2+x,y,1/2-z
1/2-x,1/2+y,z
x,1/2-y,1/2+z
loop_
_atom_site_type_symbol
_atom_site_label
_atom_site_fract_x
_atom_site_fract_y
_atom_site_fract_z
Si Si1 0.681028 0.906408 0.122480
Si Si2 0.381941 0.066901 0.178206
Si Si3 0.570114 0.732147 0.614370
Si Si4 0.374857 0.061591 0.595638
Si Si5 0.531439 0.188215 0.159854
Si Si6 0.234433 0.847711 0.886181
Si Si7 0.398376 0.946758 0.380864
O O1 0.613451 0.840886 0.160474
O O2 0.661127 0.957346 0.250137
O O3 0.805089 0.891938 0.124120
O O4 0.645827 0.942542 0.981848
O O5 0.481819 0.115155 0.196183
O O6 0.286501 0.102428 0.257592
O O7 0.406166 0.993347 0.243212
O O8 0.530211 0.726245 0.460211
O O9 0.477348 0.760447 0.710464
O O10 0.667941 0.780352 0.627504
O O11 0.296605 0.115834 0.528724
O O12 0.492742 0.091479 0.596623
O O13 0.372686 0.992155 0.512820
O O14 0.647525 0.175065 0.112730
#
# Coordination Sequence:
#
# PCOD8249402 Si02
#       7
#     8   8   8   8   8   8   8
#     4  11  22  37  61  92 124 161 210 257 304 366
#     4   9  22  40  60  92 122 160 207 246 312 371
#     4  10  23  39  59  93 120 156 209 248 303 373
#     4  10  23  39  61  92 118 158 215 250 301 375
#     4  10  22  40  63  87 126 162 198 260 307 364
#     4  10  22  42  64  86 123 163 197 247 312 366
#     4  10  22  41  62  86 127 166 200 261 309 359
#
# _framework density 22.646934999999999
#
# number of rings (size 3 to 8) (size 9 to 14) (size 15 to 20)
#    0.000    2.000    0.000    1.714    0.000   16.571 
#    0.000    0.000    0.000    0.000    0.000    0.000 
#    0.000    0.000    0.000    0.000    0.000    0.000 
#
# Total GULP energy -694280.021479 kJ/mol
# GULP energy per Si atom -12397.857526 kJ/mol
# Density = 2.259539 g / cm^3
# Si number density = 22.646935 Si / 1000 Ang^3
#
#
#
# Elastic Constant Matrix: (Units=GPa)
#
#
# Indices 1 2 3 4 5 6 
#
# 1 115.9093 19.0314 14.4405 0.0000 0.0000 0.0000
# 2 19.0314 47.8596 28.0653 0.0000 0.0000 0.0000
# 3 14.4405 28.0653 149.3039 0.0000 0.0000 0.0000
# 4 0.0000 0.0000 0.0000 13.5283 0.0000 0.0000
# 5 0.0000 0.0000 0.0000 0.0000 27.9765 0.0000
# 6 0.0000 0.0000 0.0000 0.0000 0.0000 30.9728
#
#
#
# Elastic Compliance Matrix: (Units=1/GPa)
#
#
# Indices 1 2 3 4 5 6 
#
# 1 0.009237 -0.003539 -0.000228 0.000000 0.000000 0.000000
# 2 -0.003539 0.024839 -0.004327 0.000000 0.000000 0.000000
# 3 -0.000228 -0.004327 0.007533 0.000000 0.000000 0.000000
# 4 0.000000 0.000000 0.000000 0.073919 0.000000 0.000000
# 5 0.000000 0.000000 0.000000 0.000000 0.035744 0.000000
# 6 0.000000 0.000000 0.000000 0.000000 0.000000 0.032286
#
#
# Mechanical properties :
#
#
# Convention : Reuss Voigt Hill
#
# Bulk Modulus (GPa) = 39.33786 48.46080 43.89933
# Shear Modulus (GPa) = 24.01294 31.26456 27.63875
#
# Velocity S-wave (km/s) = 3.25978 3.71957 3.49724
# Velocity P-wave (km/s) = 5.61925 6.31599 5.97778
#
# Compressibility (1/GPa) = 0.02542080
#
# Stress axis : x y z
#
# Youngs Moduli (GPa) = 108.26039 40.25903 132.74679
#
# Poissons Ratio (x) = 0.14249 0.03028
# Poissons Ratio (y) = 0.38317 0.57437
# Poissons Ratio (z) = 0.02469 0.17419
#
# Static dielectric constant tensor:
#      x y z
#    x 4.151390 0.000000 0.000000 
#    y 0.000000 3.806230 0.000000 
#    z 0.000000 0.000000 4.275400 
# 
# 
# High freq. dielectric constant tensor:
#      x y z
#    x 1.897840 0.000000 0.000000 
#    y 0.000000 1.870520 0.000000 
#    z 0.000000 0.000000 1.907590 
# 
# From -- ./inp_files/3033.got.cif
#   From: 2010.03.12/outbox.cif.g09.slc.cpg/sg61_2_cif.got.tgz:3033.got - 2010.04.10 19:05:03.
