data_PCOD8249012
_publ_section_title
;
Structure prediction by ZEFSAII (Michael W. Deem and Ramdas Pophale) SiO2 
 PCOD8249012
Probable space group: P B C A
;
_chemical_formula_sum "Si O2"
_cell_formula_units_Z 64
_cell_length_a 8.476228
_cell_length_b 14.738419
_cell_length_c 23.530745
_cell_angle_alpha 90.000000
_cell_angle_beta 90.000000
_cell_angle_gamma 90.000000
_cell_volume 2939.606551
_symmetry_space_group_name_H-M "P B C A"
_symmetry_group_IT_number 61
_symmetry_cell_setting 'orthorhombic'
loop_
_space_group_symop_operation_xyz
x,y,z
1/2-x,-y,1/2+z
1/2+x,1/2-y,-z
-x,1/2+y,1/2-z
-x,-y,-z
1/2+x,y,1/2-z
1/2-x,1/2+y,z
x,1/2-y,1/2+z
loop_
_atom_site_type_symbol
_atom_site_label
_atom_site_fract_x
_atom_site_fract_y
_atom_site_fract_z
Si Si1 0.773840 0.792496 0.308003
Si Si2 0.514784 0.050169 0.183134
Si Si3 0.700168 0.723927 0.931631
Si Si4 0.576135 0.251183 0.696857
Si Si5 0.146223 0.975790 0.427000
Si Si6 0.690997 0.987437 0.294721
Si Si7 0.957080 0.593208 0.620278
Si Si8 0.464280 0.647348 0.492799
O O1 0.797169 0.756153 0.372740
O O2 0.862029 0.733972 0.260877
O O3 0.593642 0.787978 0.291783
O O4 0.807393 0.899182 0.297280
O O5 0.582419 0.150334 0.167879
O O6 0.547656 0.985190 0.130452
O O7 0.609745 0.007008 0.235151
O O8 0.325312 0.063717 0.192604
O O9 0.591197 0.635628 0.920781
O O10 0.577613 0.803706 0.947198
O O11 0.828519 0.712508 0.981444
O O12 0.643747 0.172129 0.654874
O O13 0.332255 0.962657 0.416459
O O14 0.076653 0.887262 0.457094
O O15 0.129015 0.064599 0.465132
O O16 0.548862 0.979675 0.340165
#
# Coordination Sequence:
#
# PCOD8249012 Si02
#       8
#     8   8   8   8   8   8   8   8
#     4  10  20  38  59  83 119 157 195 238 302 366
#     4  12  21  36  57  88 127 155 197 250 304 364
#     4  10  22  43  63  88 121 161 207 266 314 362
#     4  10  21  35  58  89 122 155 192 241 300 374
#     4  11  23  40  63  90 120 162 209 258 308 366
#     4  10  21  36  59  88 123 164 199 243 306 382
#     4  10  22  41  63  88 122 159 203 251 313 377
#     4  11  24  41  64  88 118 162 212 259 309 361
#
# _framework density 21.771622000000001
#
# number of rings (size 3 to 8) (size 9 to 14) (size 15 to 20)
#    0.000    1.750    0.000    7.500    0.000    1.500 
#    0.000    6.250    0.000    0.000    0.000    0.000 
#    0.000    0.000    0.000    0.000    0.000    0.000 
#
# Total GULP energy -793045.478900 kJ/mol
# GULP energy per Si atom -12391.335608 kJ/mol
# Density = 2.172207 g / cm^3
# Si number density = 21.771622 Si / 1000 Ang^3
#
#
#
# Elastic Constant Matrix: (Units=GPa)
#
#
# Indices 1 2 3 4 5 6 
#
# 1 46.8247 12.7262 31.1738 0.0000 0.0000 0.0000
# 2 12.7262 59.0277 22.0762 0.0000 0.0000 0.0000
# 3 31.1738 22.0762 74.4346 0.0000 0.0000 0.0000
# 4 0.0000 0.0000 0.0000 35.8706 0.0000 0.0000
# 5 0.0000 0.0000 0.0000 0.0000 56.7700 0.0000
# 6 0.0000 0.0000 0.0000 0.0000 0.0000 22.4594
#
#
#
# Elastic Compliance Matrix: (Units=1/GPa)
#
#
# Indices 1 2 3 4 5 6 
#
# 1 0.029817 -0.001977 -0.011901 0.000000 0.000000 0.000000
# 2 -0.001977 0.019186 -0.004862 0.000000 0.000000 0.000000
# 3 -0.011901 -0.004862 0.019861 0.000000 0.000000 0.000000
# 4 0.000000 0.000000 0.000000 0.027878 0.000000 0.000000
# 5 0.000000 0.000000 0.000000 0.000000 0.017615 0.000000
# 6 0.000000 0.000000 0.000000 0.000000 0.000000 0.044525
#
#
# Mechanical properties :
#
#
# Convention : Reuss Voigt Hill
#
# Bulk Modulus (GPa) = 31.86489 34.69326 33.27908
# Shear Modulus (GPa) = 24.17519 30.64072 27.40796
#
# Velocity S-wave (km/s) = 3.33588 3.75556 3.55193
# Velocity P-wave (km/s) = 5.43187 5.89706 5.66924
#
# Compressibility (1/GPa) = 0.03138250
#
# Stress axis : x y z
#
# Youngs Moduli (GPa) = 33.53804 52.12147 50.35010
#
# Poissons Ratio (x) = 0.10307 0.59922
# Poissons Ratio (y) = 0.06632 0.24481
# Poissons Ratio (z) = 0.39914 0.25342
#
# Static dielectric constant tensor:
#      x y z
#    x 3.827530 0.000000 0.000000 
#    y 0.000000 3.985830 0.000000 
#    z 0.000000 0.000000 3.294640 
# 
# 
# High freq. dielectric constant tensor:
#      x y z
#    x 1.848390 0.000000 0.000000 
#    y 0.000000 1.849450 0.000000 
#    z 0.000000 0.000000 1.860270 
# 
# From -- ./inp_files/10901.got.cif
#   From: 2010.03.12/outbox.cif.g09.slc.cpg/sg61_6_cif.got.tgz:10901.got - 2010.04.10 19:05:03.
