data_PCOD8249816
_publ_section_title
;
Structure prediction by ZEFSAII (Michael W. Deem and Ramdas Pophale) SiO2 
 PCOD8249816
Probable space group: P B C A
;
_chemical_formula_sum "Si O2"
_cell_formula_units_Z 64
_cell_length_a 21.877755
_cell_length_b 14.421210
_cell_length_c 9.533288
_cell_angle_alpha 90.000000
_cell_angle_beta 90.000000
_cell_angle_gamma 90.000000
_cell_volume 3007.787629
_symmetry_space_group_name_H-M "P B C A"
_symmetry_group_IT_number 61
_symmetry_cell_setting 'orthorhombic'
loop_
_space_group_symop_operation_xyz
x,y,z
1/2-x,-y,1/2+z
1/2+x,1/2-y,-z
-x,1/2+y,1/2-z
-x,-y,-z
1/2+x,y,1/2-z
1/2-x,1/2+y,z
x,1/2-y,1/2+z
loop_
_atom_site_type_symbol
_atom_site_label
_atom_site_fract_x
_atom_site_fract_y
_atom_site_fract_z
Si Si1 0.081623 0.354657 0.583002
Si Si2 0.021389 0.397644 0.308328
Si Si3 0.100366 0.146622 0.557151
Si Si4 0.204510 0.014424 0.494843
Si Si5 0.881350 0.346447 0.946831
Si Si6 0.008865 0.412026 0.828135
Si Si7 0.321029 0.501852 0.177154
Si Si8 0.103420 0.678124 0.731746
O O1 0.048747 0.415195 0.462426
O O2 0.100075 0.255221 0.517996
O O3 0.033550 0.340222 0.710739
O O4 0.142136 0.405224 0.639209
O O5 0.078313 0.364246 0.215867
O O6 0.989129 0.487901 0.244141
O O7 0.967872 0.320190 0.314689
O O8 0.055815 0.086468 0.457632
O O9 0.168362 0.106530 0.542211
O O10 0.171386 0.922843 0.553812
O O11 0.271687 0.018452 0.558026
O O12 0.211460 0.013429 0.327227
O O13 0.892619 0.307216 0.101857
O O14 0.861572 0.262012 0.846076
O O15 0.942055 0.390650 0.882529
O O16 0.367427 0.417100 0.180771
#
# Coordination Sequence:
#
# PCOD8249816 Si02
#       8
#     8   8   8   8   8   8   8   8
#     4  12  26  42  67 106 139 175 227 278 331 402
#     4  12  24  39  69 103 139 178 216 268 342 400
#     4  12  23  44  70  99 138 182 220 274 340 405
#     4  11  26  48  68  93 127 182 229 278 338 394
#     4  11  24  42  69  99 134 175 219 271 338 402
#     4  12  22  43  66 100 143 176 213 271 336 404
#     4  11  27  48  68  92 131 176 231 280 331 397
#     4  11  24  43  67 101 135 172 218 274 333 401
#
# _framework density 21.278098
#
# number of rings (size 3 to 8) (size 9 to 14) (size 15 to 20)
#    0.000    0.500    5.000    3.750    3.500    2.000 
#    0.000    2.500    0.000    0.000    0.000    0.000 
#    0.000    0.000    0.000    0.000    0.000    0.000 
#
# Total GULP energy -794002.425678 kJ/mol
# GULP energy per Si atom -12406.287901 kJ/mol
# Density = 2.122967 g / cm^3
# Si number density = 21.278098 Si / 1000 Ang^3
#
#
#
# Elastic Constant Matrix: (Units=GPa)
#
#
# Indices 1 2 3 4 5 6 
#
# 1 79.9117 14.0948 46.2486 0.0000 0.0000 0.0000
# 2 14.0948 82.8011 25.0173 0.0000 0.0000 0.0000
# 3 46.2486 25.0173 128.0345 0.0000 0.0000 0.0000
# 4 0.0000 0.0000 0.0000 34.5763 0.0000 0.0000
# 5 0.0000 0.0000 0.0000 0.0000 41.6528 0.0000
# 6 0.0000 0.0000 0.0000 0.0000 0.0000 12.3275
#
#
#
# Elastic Compliance Matrix: (Units=1/GPa)
#
#
# Indices 1 2 3 4 5 6 
#
# 1 0.015904 -0.001032 -0.005543 0.000000 0.000000 0.000000
# 2 -0.001032 0.012902 -0.002148 0.000000 0.000000 0.000000
# 3 -0.005543 -0.002148 0.010232 0.000000 0.000000 0.000000
# 4 0.000000 0.000000 0.000000 0.028922 0.000000 0.000000
# 5 0.000000 0.000000 0.000000 0.000000 0.024008 0.000000
# 6 0.000000 0.000000 0.000000 0.000000 0.000000 0.081120
#
#
# Mechanical properties :
#
#
# Convention : Reuss Voigt Hill
#
# Bulk Modulus (GPa) = 46.31544 51.27430 48.79487
# Shear Modulus (GPa) = 25.28679 31.40374 28.34527
#
# Velocity S-wave (km/s) = 3.45105 3.84588 3.65380
# Velocity P-wave (km/s) = 6.13952 6.62348 6.38609
#
# Compressibility (1/GPa) = 0.02159107
#
# Stress axis : x y z
#
# Youngs Moduli (GPa) = 62.87739 77.50801 97.72899
#
# Poissons Ratio (x) = 0.08003 0.54172
# Poissons Ratio (y) = 0.06492 0.20992
# Poissons Ratio (z) = 0.34853 0.16649
#
# Static dielectric constant tensor:
#      x y z
#    x 3.623230 0.000000 0.000000 
#    y 0.000000 3.922280 0.000000 
#    z 0.000000 0.000000 4.018800 
# 
# 
# High freq. dielectric constant tensor:
#      x y z
#    x 1.816630 0.000000 0.000000 
#    y 0.000000 1.841360 0.000000 
#    z 0.000000 0.000000 1.850420 
# 
# From -- ./inp_files/4328.got.cif
#   From: 2010.03.12/outbox.cif.g09.slc.cpg/sg61_3_cif.got.tgz:4328.got - 2010.04.10 19:05:03.
