data_PCOD8249080
_publ_section_title
;
Structure prediction by ZEFSAII (Michael W. Deem and Ramdas Pophale) SiO2 
 PCOD8249080
Probable space group: P B C A
;
_chemical_formula_sum "Si O2"
_cell_formula_units_Z 48
_cell_length_a 17.444280
_cell_length_b 7.740951
_cell_length_c 16.917481
_cell_angle_alpha 90.000000
_cell_angle_beta 90.000000
_cell_angle_gamma 90.000000
_cell_volume 2284.457405
_symmetry_space_group_name_H-M "P B C A"
_symmetry_group_IT_number 61
_symmetry_cell_setting 'orthorhombic'
loop_
_space_group_symop_operation_xyz
x,y,z
1/2-x,-y,1/2+z
1/2+x,1/2-y,-z
-x,1/2+y,1/2-z
-x,-y,-z
1/2+x,y,1/2-z
1/2-x,1/2+y,z
x,1/2-y,1/2+z
loop_
_atom_site_type_symbol
_atom_site_label
_atom_site_fract_x
_atom_site_fract_y
_atom_site_fract_z
Si Si1 0.839823 0.346732 0.460850
Si Si2 0.009593 0.274809 0.944635
Si Si3 0.851683 0.907303 0.284188
Si Si4 0.103524 0.957516 0.879508
Si Si5 0.000892 0.361516 0.117742
Si Si6 0.766699 0.870644 0.869189
O O1 0.917348 0.239749 0.445785
O O2 0.836853 0.416979 0.550383
O O3 0.762264 0.237065 0.445780
O O4 0.833988 0.502825 0.397862
O O5 0.034566 0.445420 0.895230
O O6 0.042590 0.099635 0.908767
O O7 0.038797 0.297305 0.035073
O O8 0.849778 0.964642 0.193347
O O9 0.937956 0.874226 0.312457
O O10 0.802134 0.734742 0.296070
O O11 0.812263 0.051493 0.337422
O O12 0.062200 0.778190 0.854374
#
# Coordination Sequence:
#
# PCOD8249080 Si02
#       6
#     8   8   8   8   8   8
#     4  10  20  41  62  88 115 165 213 242 298 370
#     4  10  20  40  64  89 119 155 202 251 303 364
#     4  11  23  40  58  93 122 160 201 247 318 355
#     4  11  24  38  62  94 121 155 201 262 306 353
#     4  10  21  39  63  89 120 154 199 250 306 364
#     4  10  22  40  64  80 124 170 202 247 293 376
#
# _framework density 21.011554
#
# number of rings (size 3 to 8) (size 9 to 14) (size 15 to 20)
#    0.000    1.667    1.667    4.000    2.333    1.333 
#    6.000    0.000    0.000    0.000    0.000    0.000 
#    0.000    0.000    0.000    0.000    0.000    0.000 
#
# Total GULP energy -595017.099559 kJ/mol
# GULP energy per Si atom -12396.189574 kJ/mol
# Density = 2.096373 g / cm^3
# Si number density = 21.011554 Si / 1000 Ang^3
#
#
#
# Elastic Constant Matrix: (Units=GPa)
#
#
# Indices 1 2 3 4 5 6 
#
# 1 36.2986 20.5104 30.2065 0.0000 0.0000 0.0000
# 2 20.5104 117.9652 36.3356 0.0000 0.0000 0.0000
# 3 30.2065 36.3356 108.2709 0.0000 0.0000 0.0000
# 4 0.0000 0.0000 0.0000 28.5806 0.0000 0.0000
# 5 0.0000 0.0000 0.0000 0.0000 24.9241 0.0000
# 6 0.0000 0.0000 0.0000 0.0000 0.0000 7.8312
#
#
#
# Elastic Compliance Matrix: (Units=1/GPa)
#
#
# Indices 1 2 3 4 5 6 
#
# 1 0.037238 -0.003652 -0.009164 0.000000 0.000000 0.000000
# 2 -0.003652 0.009813 -0.002274 0.000000 0.000000 0.000000
# 3 -0.009164 -0.002274 0.012556 0.000000 0.000000 0.000000
# 4 0.000000 0.000000 0.000000 0.034989 0.000000 0.000000
# 5 0.000000 0.000000 0.000000 0.000000 0.040122 0.000000
# 6 0.000000 0.000000 0.000000 0.000000 0.000000 0.127694
#
#
# Mechanical properties :
#
#
# Convention : Reuss Voigt Hill
#
# Bulk Modulus (GPa) = 33.98206 48.51552 41.24879
# Shear Modulus (GPa) = 16.53439 23.96600 20.25019
#
# Velocity S-wave (km/s) = 2.80825 3.38096 3.10782
# Velocity P-wave (km/s) = 5.16945 6.19526 5.70545
#
# Compressibility (1/GPa) = 0.02942729
#
# Stress axis : x y z
#
# Youngs Moduli (GPa) = 26.85396 101.91033 79.64415
#
# Poissons Ratio (x) = 0.37218 0.72982
# Poissons Ratio (y) = 0.09807 0.18113
# Poissons Ratio (z) = 0.24608 0.23176
#
# Static dielectric constant tensor:
#      x y z
#    x 3.409140 0.000000 0.000000 
#    y 0.000000 4.166800 0.000000 
#    z 0.000000 0.000000 3.673580 
# 
# 
# High freq. dielectric constant tensor:
#      x y z
#    x 1.798560 0.000000 0.000000 
#    y 0.000000 1.846430 0.000000 
#    z 0.000000 0.000000 1.808390 
# 
# From -- ./inp_files/3411.got.cif
#   From: 2010.03.12/outbox.cif.g09.slc.cpg/sg61_2_cif.got.tgz:3411.got - 2010.04.10 19:05:03.
