data_PCOD8249603
_publ_section_title
;
Structure prediction by ZEFSAII (Michael W. Deem and Ramdas Pophale) SiO2 
 PCOD8249603
Probable space group: P B C A
;
_chemical_formula_sum "Si O2"
_cell_formula_units_Z 56
_cell_length_a 11.142605
_cell_length_b 13.624019
_cell_length_c 16.026441
_cell_angle_alpha 90.000000
_cell_angle_beta 90.000000
_cell_angle_gamma 90.000000
_cell_volume 2432.926926
_symmetry_space_group_name_H-M "P B C A"
_symmetry_group_IT_number 61
_symmetry_cell_setting 'orthorhombic'
loop_
_space_group_symop_operation_xyz
x,y,z
1/2-x,-y,1/2+z
1/2+x,1/2-y,-z
-x,1/2+y,1/2-z
-x,-y,-z
1/2+x,y,1/2-z
1/2-x,1/2+y,z
x,1/2-y,1/2+z
loop_
_atom_site_type_symbol
_atom_site_label
_atom_site_fract_x
_atom_site_fract_y
_atom_site_fract_z
Si Si1 0.451819 0.655677 0.309354
Si Si2 0.523842 0.810701 0.565244
Si Si3 0.252915 0.432923 0.897045
Si Si4 0.671403 0.019114 0.428575
Si Si5 0.638461 0.288574 0.321034
Si Si6 0.106825 0.808152 0.108237
Si Si7 0.157022 0.506615 0.224789
O O1 0.378877 0.618188 0.390960
O O2 0.355678 0.693817 0.240669
O O3 0.528658 0.755328 0.321702
O O4 0.535335 0.570370 0.271208
O O5 0.643479 0.852389 0.606293
O O6 0.419004 0.892073 0.557311
O O7 0.478555 0.721296 0.621040
O O8 0.559165 0.762580 0.477645
O O9 0.265228 0.491093 0.809680
O O10 0.263035 0.496129 0.982342
O O11 0.591592 0.926264 0.397101
O O12 0.770192 0.041991 0.357682
O O13 0.754468 0.282924 0.379653
O O14 0.623671 0.392603 0.277474
#
# Coordination Sequence:
#
# PCOD8249603 Si02
#       7
#     8   8   8   8   8   8   8
#     4  12  25  44  71 102 147 177 237 301 353 419
#     4  11  23  46  73  96 143 186 236 291 354 425
#     4  11  24  44  69 103 138 189 232 282 362 416
#     4  10  24  47  74 101 142 186 237 290 353 433
#     4  11  26  45  71 104 141 185 237 293 352 423
#     4  10  24  41  71 104 136 182 234 289 351 422
#     4  11  26  47  70 104 143 184 238 293 353 425
#
# _framework density 23.017543
#
# number of rings (size 3 to 8) (size 9 to 14) (size 15 to 20)
#    0.000    1.143    1.429    4.286   10.000    1.714 
#    2.571    0.000    0.000    0.000    0.000    0.000 
#    0.000    0.000    0.000    0.000    0.000    0.000 
#
# Total GULP energy -694168.965152 kJ/mol
# GULP energy per Si atom -12395.874378 kJ/mol
# Density = 2.296515 g / cm^3
# Si number density = 23.017543 Si / 1000 Ang^3
#
#
#
# Elastic Constant Matrix: (Units=GPa)
#
#
# Indices 1 2 3 4 5 6 
#
# 1 69.4164 31.9064 19.9855 0.0000 0.0000 0.0000
# 2 31.9064 86.8266 35.7016 0.0000 0.0000 0.0000
# 3 19.9855 35.7016 110.0230 0.0000 0.0000 0.0000
# 4 0.0000 0.0000 0.0000 19.3185 0.0000 0.0000
# 5 0.0000 0.0000 0.0000 0.0000 47.9837 0.0000
# 6 0.0000 0.0000 0.0000 0.0000 0.0000 29.3497
#
#
#
# Elastic Compliance Matrix: (Units=1/GPa)
#
#
# Indices 1 2 3 4 5 6 
#
# 1 0.017483 -0.005907 -0.001259 0.000000 0.000000 0.000000
# 2 -0.005907 0.015286 -0.003887 0.000000 0.000000 0.000000
# 3 -0.001259 -0.003887 0.010579 0.000000 0.000000 0.000000
# 4 0.000000 0.000000 0.000000 0.051764 0.000000 0.000000
# 5 0.000000 0.000000 0.000000 0.000000 0.020840 0.000000
# 6 0.000000 0.000000 0.000000 0.000000 0.000000 0.034072
#
#
# Mechanical properties :
#
#
# Convention : Reuss Voigt Hill
#
# Bulk Modulus (GPa) = 47.07627 49.05034 48.06330
# Shear Modulus (GPa) = 27.89990 31.24189 29.57089
#
# Velocity S-wave (km/s) = 3.48532 3.68816 3.58818
# Velocity P-wave (km/s) = 6.05750 6.28434 6.17197
#
# Compressibility (1/GPa) = 0.02124212
#
# Stress axis : x y z
#
# Youngs Moduli (GPa) = 57.19721 65.41835 94.52593
#
# Poissons Ratio (x) = 0.38642 0.11901
# Poissons Ratio (y) = 0.33786 0.36745
# Poissons Ratio (z) = 0.07201 0.25430
#
# Static dielectric constant tensor:
#      x y z
#    x 4.138310 0.000000 0.000000 
#    y 0.000000 4.110850 0.000000 
#    z 0.000000 0.000000 4.405630 
# 
# 
# High freq. dielectric constant tensor:
#      x y z
#    x 1.910090 0.000000 0.000000 
#    y 0.000000 1.903530 0.000000 
#    z 0.000000 0.000000 1.920780 
# 
# From -- ./inp_files/7537.got.cif
#   From: 2010.03.12/outbox.cif.g09.slc.cpg/sg61_4_cif.got.tgz:7537.got - 2010.04.10 19:05:03.
