data_PCOD8249128
_publ_section_title
;
Structure prediction by ZEFSAII (Michael W. Deem and Ramdas Pophale) SiO2 
 PCOD8249128
Probable space group: P B C A
;
_chemical_formula_sum "Si O2"
_cell_formula_units_Z 48
_cell_length_a 17.026585
_cell_length_b 9.073692
_cell_length_c 16.061537
_cell_angle_alpha 90.000000
_cell_angle_beta 90.000000
_cell_angle_gamma 90.000000
_cell_volume 2481.410906
_symmetry_space_group_name_H-M "P B C A"
_symmetry_group_IT_number 61
_symmetry_cell_setting 'orthorhombic'
loop_
_space_group_symop_operation_xyz
x,y,z
1/2-x,-y,1/2+z
1/2+x,1/2-y,-z
-x,1/2+y,1/2-z
-x,-y,-z
1/2+x,y,1/2-z
1/2-x,1/2+y,z
x,1/2-y,1/2+z
loop_
_atom_site_type_symbol
_atom_site_label
_atom_site_fract_x
_atom_site_fract_y
_atom_site_fract_z
Si Si1 0.172637 0.192438 0.444067
Si Si2 0.574882 0.767163 0.588168
Si Si3 0.910635 0.518836 0.183783
Si Si4 0.001151 0.290969 0.929913
Si Si5 0.063183 0.015343 0.124492
Si Si6 0.810232 0.010160 0.016492
O O1 0.084501 0.212567 0.480116
O O2 0.209869 0.355691 0.438352
O O3 0.227224 0.090345 0.503011
O O4 0.163116 0.112660 0.353243
O O5 0.595324 0.653683 0.660973
O O6 0.565564 0.677642 0.499703
O O7 0.492877 0.849829 0.601899
O O8 0.644265 0.885852 0.582171
O O9 0.992169 0.584738 0.142830
O O10 0.908453 0.534929 0.281752
O O11 0.986160 0.133859 0.886695
O O12 0.141058 0.013666 0.067942
#
# Coordination Sequence:
#
# PCOD8249128 Si02
#       6
#     8   8   8   8   8   8
#     4  10  21  39  55  85 114 161 194 236 283 370
#     4  11  18  35  63  83 112 157 194 241 286 348
#     4  10  21  33  59  88 120 143 190 246 301 331
#     4   9  19  36  56  86 116 149 203 232 285 353
#     4  11  19  37  60  90 114 152 192 256 288 334
#     4  11  21  38  62  77 116 158 201 229 291 357
#
# _framework density 19.343834000000001
#
# number of rings (size 3 to 8) (size 9 to 14) (size 15 to 20)
#    1.000    0.667    3.333    3.500    0.000    0.000 
#    0.000    3.333    3.667    0.000    0.000    0.000 
#    0.000    0.000    0.000    0.000    0.000    0.000 
#
# Total GULP energy -594676.627348 kJ/mol
# GULP energy per Si atom -12389.096403 kJ/mol
# Density = 1.929981 g / cm^3
# Si number density = 19.343834 Si / 1000 Ang^3
#
#
#
# Elastic Constant Matrix: (Units=GPa)
#
#
# Indices 1 2 3 4 5 6 
#
# 1 67.0806 32.6465 21.8674 0.0000 0.0000 0.0000
# 2 32.6465 106.7019 32.5558 0.0000 0.0000 0.0000
# 3 21.8674 32.5558 86.0554 0.0000 0.0000 0.0000
# 4 0.0000 0.0000 0.0000 12.2539 0.0000 0.0000
# 5 0.0000 0.0000 0.0000 0.0000 15.4583 0.0000
# 6 0.0000 0.0000 0.0000 0.0000 0.0000 34.5463
#
#
#
# Elastic Compliance Matrix: (Units=1/GPa)
#
#
# Indices 1 2 3 4 5 6 
#
# 1 0.018106 -0.004676 -0.002832 0.000000 0.000000 0.000000
# 2 -0.004676 0.011802 -0.003277 0.000000 0.000000 0.000000
# 3 -0.002832 -0.003277 0.013580 0.000000 0.000000 0.000000
# 4 0.000000 0.000000 0.000000 0.081607 0.000000 0.000000
# 5 0.000000 0.000000 0.000000 0.000000 0.064690 0.000000
# 6 0.000000 0.000000 0.000000 0.000000 0.000000 0.028947
#
#
# Mechanical properties :
#
#
# Convention : Reuss Voigt Hill
#
# Bulk Modulus (GPa) = 45.62236 48.21971 46.92104
# Shear Modulus (GPa) = 20.19327 23.96957 22.08142
#
# Velocity S-wave (km/s) = 3.23447 3.52395 3.38231
# Velocity P-wave (km/s) = 6.13068 6.44511 6.28986
#
# Compressibility (1/GPa) = 0.02191907
#
# Stress axis : x y z
#
# Youngs Moduli (GPa) = 55.22967 84.72950 73.63913
#
# Poissons Ratio (x) = 0.39617 0.20855
# Poissons Ratio (y) = 0.25824 0.24130
# Poissons Ratio (z) = 0.15641 0.27764
#
# Static dielectric constant tensor:
#      x y z
#    x 3.364170 0.000000 0.000000 
#    y 0.000000 3.723280 0.000000 
#    z 0.000000 0.000000 3.250640 
# 
# 
# High freq. dielectric constant tensor:
#      x y z
#    x 1.736660 0.000000 0.000000 
#    y 0.000000 1.773150 0.000000 
#    z 0.000000 0.000000 1.716910 
# 
# From -- ./inp_files/9619.got.cif
#   From: 2010.03.12/outbox.cif.g09.slc.cpg/sg61_5_cif.got.tgz:9619.got - 2010.04.10 19:05:03.
