data_PCOD8249035
_publ_section_title
;
Structure prediction by ZEFSAII (Michael W. Deem and Ramdas Pophale) SiO2 
 PCOD8249035
Probable space group: P B C A
;
_chemical_formula_sum "Si O2"
_cell_formula_units_Z 48
_cell_length_a 18.591873
_cell_length_b 13.645903
_cell_length_c 8.572065
_cell_angle_alpha 90.000000
_cell_angle_beta 90.000000
_cell_angle_gamma 90.000000
_cell_volume 2174.757711
_symmetry_space_group_name_H-M "P B C A"
_symmetry_group_IT_number 61
_symmetry_cell_setting 'orthorhombic'
loop_
_space_group_symop_operation_xyz
x,y,z
1/2-x,-y,1/2+z
1/2+x,1/2-y,-z
-x,1/2+y,1/2-z
-x,-y,-z
1/2+x,y,1/2-z
1/2-x,1/2+y,z
x,1/2-y,1/2+z
loop_
_atom_site_type_symbol
_atom_site_label
_atom_site_fract_x
_atom_site_fract_y
_atom_site_fract_z
Si Si1 0.886720 0.523638 0.697171
Si Si2 0.629499 0.026481 0.328057
Si Si3 0.003445 0.621943 0.194754
Si Si4 0.744485 0.880870 0.231573
Si Si5 0.050957 0.302335 0.118317
Si Si6 0.800261 0.789377 0.920264
O O1 0.886963 0.513031 0.510883
O O2 0.918545 0.425545 0.774332
O O3 0.806106 0.537661 0.764476
O O4 0.931548 0.620346 0.745139
O O5 0.555307 0.038866 0.236052
O O6 0.679367 0.122849 0.300531
O O7 0.667615 0.931784 0.253171
O O8 0.994678 0.715743 0.304824
O O9 0.998143 0.648312 0.013346
O O10 0.746714 0.789838 0.349022
O O11 0.757666 0.836524 0.062278
O O12 0.123818 0.262420 0.034463
#
# Coordination Sequence:
#
# PCOD8249035 Si02
#       6
#     8   8   8   8   8   8
#     4  10  22  40  61  88 119 157 204 248 291 352
#     4  10  21  38  61  87 119 158 199 247 296 354
#     4  11  21  39  63  89 119 157 200 245 297 359
#     4  10  21  38  60  85 114 155 199 243 292 348
#     4  10  20  38  64  88 117 161 201 235 295 369
#     4   9  19  37  58  81 114 156 196 232 287 362
#
# _framework density 22.071424
#
# number of rings (size 3 to 8) (size 9 to 14) (size 15 to 20)
#    0.000    2.000    0.000    6.000    0.000    8.000 
#    0.000    6.667    0.000    0.000    0.000    0.000 
#    0.000    0.000    0.000    0.000    0.000    0.000 
#
# Total GULP energy -595193.240031 kJ/mol
# GULP energy per Si atom -12399.859167 kJ/mol
# Density = 2.202119 g / cm^3
# Si number density = 22.071424 Si / 1000 Ang^3
#
#
#
# Elastic Constant Matrix: (Units=GPa)
#
#
# Indices 1 2 3 4 5 6 
#
# 1 33.7824 19.6225 22.0129 0.0000 0.0000 0.0000
# 2 19.6225 69.0495 21.3471 0.0000 0.0000 0.0000
# 3 22.0129 21.3471 79.4280 0.0000 0.0000 0.0000
# 4 0.0000 0.0000 0.0000 25.4336 0.0000 0.0000
# 5 0.0000 0.0000 0.0000 0.0000 18.6470 0.0000
# 6 0.0000 0.0000 0.0000 0.0000 0.0000 42.8107
#
#
#
# Elastic Compliance Matrix: (Units=1/GPa)
#
#
# Indices 1 2 3 4 5 6 
#
# 1 0.040462 -0.008760 -0.008860 0.000000 0.000000 0.000000
# 2 -0.008760 0.017691 -0.002327 0.000000 0.000000 0.000000
# 3 -0.008860 -0.002327 0.015671 0.000000 0.000000 0.000000
# 4 0.000000 0.000000 0.000000 0.039318 0.000000 0.000000
# 5 0.000000 0.000000 0.000000 0.000000 0.053628 0.000000
# 6 0.000000 0.000000 0.000000 0.000000 0.000000 0.023359
#
#
# Mechanical properties :
#
#
# Convention : Reuss Voigt Hill
#
# Bulk Modulus (GPa) = 29.47095 34.24724 31.85910
# Shear Modulus (GPa) = 20.71839 25.33010 23.02425
#
# Velocity S-wave (km/s) = 3.06714 3.39136 3.23332
# Velocity P-wave (km/s) = 5.09163 5.55746 5.32963
#
# Compressibility (1/GPa) = 0.03393172
#
# Stress axis : x y z
#
# Youngs Moduli (GPa) = 24.71444 56.52570 63.81295
#
# Poissons Ratio (x) = 0.49514 0.56536
# Poissons Ratio (y) = 0.21649 0.14849
# Poissons Ratio (z) = 0.21896 0.13154
#
# Static dielectric constant tensor:
#      x y z
#    x 3.742820 0.000000 0.000000 
#    y 0.000000 4.147030 0.000000 
#    z 0.000000 0.000000 3.745200 
# 
# 
# High freq. dielectric constant tensor:
#      x y z
#    x 1.840040 0.000000 0.000000 
#    y 0.000000 1.877930 0.000000 
#    z 0.000000 0.000000 1.864340 
# 
# From -- ./inp_files/3412.got.cif
#   From: 2010.03.12/outbox.cif.g09.slc.cpg/sg61_2_cif.got.tgz:3412.got - 2010.04.10 19:05:03.
