data_PCOD8249891
_publ_section_title
;
Structure prediction by ZEFSAII (Michael W. Deem and Ramdas Pophale) SiO2 
 PCOD8249891
Probable space group: P B C A
;
_chemical_formula_sum "Si O2"
_cell_formula_units_Z 48
_cell_length_a 13.635962
_cell_length_b 9.621307
_cell_length_c 17.848066
_cell_angle_alpha 90.000000
_cell_angle_beta 90.000000
_cell_angle_gamma 90.000000
_cell_volume 2341.590880
_symmetry_space_group_name_H-M "P B C A"
_symmetry_group_IT_number 61
_symmetry_cell_setting 'orthorhombic'
loop_
_space_group_symop_operation_xyz
x,y,z
1/2-x,-y,1/2+z
1/2+x,1/2-y,-z
-x,1/2+y,1/2-z
-x,-y,-z
1/2+x,y,1/2-z
1/2-x,1/2+y,z
x,1/2-y,1/2+z
loop_
_atom_site_type_symbol
_atom_site_label
_atom_site_fract_x
_atom_site_fract_y
_atom_site_fract_z
Si Si1 0.049540 0.525570 0.697953
Si Si2 0.948068 0.893945 0.054848
Si Si3 0.250686 0.366552 0.124966
Si Si4 0.242134 0.885428 0.519347
Si Si5 0.447450 0.795383 0.181949
Si Si6 0.033329 0.849342 0.477348
O O1 0.151590 0.585228 0.666898
O O2 0.057169 0.361055 0.714925
O O3 0.961323 0.553208 0.639488
O O4 0.023066 0.607947 0.773237
O O5 0.834495 0.876318 0.035361
O O6 0.002804 0.747065 0.047084
O O7 0.000000 0.000000 0.000000
O O8 0.254322 0.210709 0.092959
O O9 0.230339 0.460325 0.052123
O O10 0.160069 0.367288 0.183638
O O11 0.150364 0.846323 0.467119
O O12 0.482854 0.788075 0.096322
O O13 0.000000 0.000000 0.500000
#
# Coordination Sequence:
#
# PCOD8249891 Si02
#       6
#     8   8   8   8   8   8
#     4  12  28  45  71  99 146 184 230 291 350 425
#     4  12  21  44  69  99 130 179 233 287 338 406
#     4  12  22  45  70  97 135 183 229 281 359 419
#     4  12  22  39  74 103 130 180 232 290 347 405
#     4  12  28  46  67 105 142 185 230 286 357 421
#     4  12  23  40  69 105 133 170 238 288 333 411
#
# _framework density 20.498885000000001
#
# number of rings (size 3 to 8) (size 9 to 14) (size 15 to 20)
#    0.000    0.000   10.000    0.000    4.667    1.333 
#    0.000    0.000    0.000    0.000    0.000    0.000 
#    0.000    0.000    0.000    0.000    0.000    0.000 
#
# Total GULP energy -595386.730913 kJ/mol
# GULP energy per Si atom -12403.890227 kJ/mol
# Density = 2.045223 g / cm^3
# Si number density = 20.498885 Si / 1000 Ang^3
#
#
#
# Elastic Constant Matrix: (Units=GPa)
#
#
# Indices 1 2 3 4 5 6 
#
# 1 155.4627 43.3972 21.7645 0.0000 0.0000 0.0000
# 2 43.3972 96.8782 14.2697 0.0000 0.0000 0.0000
# 3 21.7645 14.2697 51.9415 0.0000 0.0000 0.0000
# 4 0.0000 0.0000 0.0000 36.4369 0.0000 0.0000
# 5 0.0000 0.0000 0.0000 0.0000 35.3557 0.0000
# 6 0.0000 0.0000 0.0000 0.0000 0.0000 30.8022
#
#
#
# Elastic Compliance Matrix: (Units=1/GPa)
#
#
# Indices 1 2 3 4 5 6 
#
# 1 0.007617 -0.003066 -0.002349 0.000000 0.000000 0.000000
# 2 -0.003066 0.011992 -0.002010 0.000000 0.000000 0.000000
# 3 -0.002349 -0.002010 0.020789 0.000000 0.000000 0.000000
# 4 0.000000 0.000000 0.000000 0.027445 0.000000 0.000000
# 5 0.000000 0.000000 0.000000 0.000000 0.028284 0.000000
# 6 0.000000 0.000000 0.000000 0.000000 0.000000 0.032465
#
#
# Mechanical properties :
#
#
# Convention : Reuss Voigt Hill
#
# Bulk Modulus (GPa) = 39.14277 51.46059 45.30168
# Shear Modulus (GPa) = 32.90380 35.50903 34.20642
#
# Velocity S-wave (km/s) = 4.01078 4.16654 4.08940
# Velocity P-wave (km/s) = 6.37064 6.95020 6.66672
#
# Compressibility (1/GPa) = 0.02554750
#
# Stress axis : x y z
#
# Youngs Moduli (GPa) = 131.28125 83.39070 48.10241
#
# Poissons Ratio (x) = 0.25569 0.11301
# Poissons Ratio (y) = 0.40253 0.09667
# Poissons Ratio (z) = 0.30844 0.16759
#
# Static dielectric constant tensor:
#      x y z
#    x 4.049070 0.000000 0.000000 
#    y 0.000000 3.912780 0.000000 
#    z 0.000000 0.000000 3.664990 
# 
# 
# High freq. dielectric constant tensor:
#      x y z
#    x 1.817710 0.000000 0.000000 
#    y 0.000000 1.824230 0.000000 
#    z 0.000000 0.000000 1.770690 
# 
# From -- ./inp_files/3418.got.cif
#   From: 2010.03.12/outbox.cif.g09.slc.cpg/sg61_2_cif.got.tgz:3418.got - 2010.04.10 19:05:03.
