data_PCOD8249208
_publ_section_title
;
Structure prediction by ZEFSAII (Michael W. Deem and Ramdas Pophale) SiO2 
 PCOD8249208
Probable space group: P B C A
;
_chemical_formula_sum "Si O2"
_cell_formula_units_Z 56
_cell_length_a 21.682610
_cell_length_b 8.887057
_cell_length_c 12.365654
_cell_angle_alpha 90.000000
_cell_angle_beta 90.000000
_cell_angle_gamma 90.000000
_cell_volume 2382.794640
_symmetry_space_group_name_H-M "P B C A"
_symmetry_group_IT_number 61
_symmetry_cell_setting 'orthorhombic'
loop_
_space_group_symop_operation_xyz
x,y,z
1/2-x,-y,1/2+z
1/2+x,1/2-y,-z
-x,1/2+y,1/2-z
-x,-y,-z
1/2+x,y,1/2-z
1/2-x,1/2+y,z
x,1/2-y,1/2+z
loop_
_atom_site_type_symbol
_atom_site_label
_atom_site_fract_x
_atom_site_fract_y
_atom_site_fract_z
Si Si1 0.172702 0.121085 0.708899
Si Si2 0.957031 0.714804 0.501138
Si Si3 0.663382 0.072710 0.543084
Si Si4 0.877209 0.305381 0.407133
Si Si5 0.448406 0.008547 0.104311
Si Si6 0.018084 0.980680 0.175519
Si Si7 0.245961 0.639715 0.127535
O O1 0.109879 0.089061 0.645628
O O2 0.196758 0.292843 0.696859
O O3 0.231178 0.027230 0.665776
O O4 0.163099 0.073122 0.830203
O O5 0.883465 0.697056 0.496653
O O6 0.974073 0.895227 0.492502
O O7 0.987884 0.629668 0.398985
O O8 0.978085 0.649481 0.616865
O O9 0.730433 0.118685 0.496084
O O10 0.640239 0.904626 0.511457
O O11 0.911628 0.415802 0.321016
O O12 0.815541 0.237832 0.356986
O O13 0.924983 0.170763 0.439731
O O14 0.495727 0.022478 0.204669
#
# Coordination Sequence:
#
# PCOD8249208 Si02
#       7
#     8   8   8   8   8   8   8
#     4  11  24  39  67  93 128 172 223 270 341 396
#     4  10  21  38  67  91 130 173 216 269 326 400
#     4  11  22  43  64  90 134 177 217 277 339 392
#     4  10  24  41  64  96 136 172 218 288 329 399
#     4  11  21  41  67  97 127 174 223 270 331 399
#     4  10  21  41  64  97 131 173 217 268 341 397
#     4  11  23  43  62  97 128 171 227 275 330 409
#
# _framework density 23.501816000000002
#
# number of rings (size 3 to 8) (size 9 to 14) (size 15 to 20)
#    0.000    1.429    4.286    0.857    2.000    0.571 
#    0.000    0.000    6.286    0.000    0.000    0.000 
#    0.000    0.000    0.000    0.000    0.000    0.000 
#
# Total GULP energy -694170.297774 kJ/mol
# GULP energy per Si atom -12395.898175 kJ/mol
# Density = 2.344833 g / cm^3
# Si number density = 23.501816 Si / 1000 Ang^3
#
#
#
# Elastic Constant Matrix: (Units=GPa)
#
#
# Indices 1 2 3 4 5 6 
#
# 1 68.7933 25.9005 -17.0318 0.0000 0.0000 0.0000
# 2 25.9005 82.5129 3.5978 0.0000 0.0000 0.0000
# 3 -17.0318 3.5978 50.8666 0.0000 0.0000 0.0000
# 4 0.0000 0.0000 0.0000 17.6731 0.0000 0.0000
# 5 0.0000 0.0000 0.0000 0.0000 22.9097 0.0000
# 6 0.0000 0.0000 0.0000 0.0000 0.0000 38.0392
#
#
#
# Elastic Compliance Matrix: (Units=1/GPa)
#
#
# Indices 1 2 3 4 5 6 
#
# 1 0.018464 -0.006084 0.006613 0.000000 0.000000 0.000000
# 2 -0.006084 0.014162 -0.003039 0.000000 0.000000 0.000000
# 3 0.006613 -0.003039 0.022088 0.000000 0.000000 0.000000
# 4 0.000000 0.000000 0.000000 0.056583 0.000000 0.000000
# 5 0.000000 0.000000 0.000000 0.000000 0.043650 0.000000
# 6 0.000000 0.000000 0.000000 0.000000 0.000000 0.026289
#
#
# Mechanical properties :
#
#
# Convention : Reuss Voigt Hill
#
# Bulk Modulus (GPa) = 20.12331 25.23397 22.67864
# Shear Modulus (GPa) = 24.65234 28.37150 26.51192
#
# Velocity S-wave (km/s) = 3.24227 3.47825 3.36233
# Velocity P-wave (km/s) = 4.75368 5.18569 4.97437
#
# Compressibility (1/GPa) = 0.04969361
#
# Stress axis : x y z
#
# Youngs Moduli (GPa) = 54.15909 70.61349 45.27271
#
# Poissons Ratio (x) = 0.42962 -0.29938
# Poissons Ratio (y) = 0.32951 0.13758
# Poissons Ratio (z) = -0.35814 0.21458
#
# Static dielectric constant tensor:
#      x y z
#    x 5.393450 0.000000 0.000000 
#    y 0.000000 4.572220 0.000000 
#    z 0.000000 0.000000 3.796620 
# 
# 
# High freq. dielectric constant tensor:
#      x y z
#    x 1.955950 0.000000 0.000000 
#    y 0.000000 1.950980 0.000000 
#    z 0.000000 0.000000 1.899100 
# 
# From -- ./inp_files/8384.got.cif
#   From: 2010.03.12/outbox.cif.g09.slc.cpg/sg61_5_cif.got.tgz:8384.got - 2010.04.10 19:05:03.
