data_PCOD8249564
_publ_section_title
;
Structure prediction by ZEFSAII (Michael W. Deem and Ramdas Pophale) SiO2 
 PCOD8249564
Probable space group: P B C A
;
_chemical_formula_sum "Si O2"
_cell_formula_units_Z 48
_cell_length_a 9.855838
_cell_length_b 15.220589
_cell_length_c 13.215102
_cell_angle_alpha 90.000000
_cell_angle_beta 90.000000
_cell_angle_gamma 90.000000
_cell_volume 1982.419381
_symmetry_space_group_name_H-M "P B C A"
_symmetry_group_IT_number 61
_symmetry_cell_setting 'orthorhombic'
loop_
_space_group_symop_operation_xyz
x,y,z
1/2-x,-y,1/2+z
1/2+x,1/2-y,-z
-x,1/2+y,1/2-z
-x,-y,-z
1/2+x,y,1/2-z
1/2-x,1/2+y,z
x,1/2-y,1/2+z
loop_
_atom_site_type_symbol
_atom_site_label
_atom_site_fract_x
_atom_site_fract_y
_atom_site_fract_z
Si Si1 0.096835 0.639212 0.252192
Si Si2 0.684272 0.510118 0.084217
Si Si3 0.694842 0.764794 0.934561
Si Si4 0.512612 0.211478 0.892709
Si Si5 0.082579 0.916486 0.117024
Si Si6 0.054759 0.969758 0.323969
O O1 0.176594 0.598432 0.347793
O O2 0.195747 0.670665 0.162340
O O3 0.011089 0.720262 0.300066
O O4 0.011310 0.563713 0.196464
O O5 0.578756 0.437036 0.123308
O O6 0.838025 0.476846 0.084960
O O7 0.654735 0.525636 0.967332
O O8 0.600367 0.684649 0.902834
O O9 0.852442 0.740120 0.955307
O O10 0.620829 0.799082 0.035979
O O11 0.543747 0.113191 0.849166
O O12 0.144435 0.944522 0.224793
#
# Coordination Sequence:
#
# PCOD8249564 Si02
#       6
#     8   8   8   8   8   8
#     4  11  25  47  73 111 148 197 250 316 375 454
#     4  10  23  45  71 104 149 188 249 305 384 442
#     4  12  28  47  75 108 154 198 254 306 385 450
#     4  12  29  49  75 112 154 198 252 314 381 455
#     4  10  23  43  73 104 143 198 238 304 379 446
#     4  11  26  45  79 109 147 195 253 312 375 455
#
# _framework density 24.212837
#
# number of rings (size 3 to 8) (size 9 to 14) (size 15 to 20)
#    0.000    1.000    3.333    1.000    9.333    3.333 
#    0.000    0.000    0.000    0.000    0.000    0.000 
#    0.000    0.000    0.000    0.000    0.000    0.000 
#
# Total GULP energy -594886.652984 kJ/mol
# GULP energy per Si atom -12393.471937 kJ/mol
# Density = 2.415773 g / cm^3
# Si number density = 24.212837 Si / 1000 Ang^3
#
#
#
# Elastic Constant Matrix: (Units=GPa)
#
#
# Indices 1 2 3 4 5 6 
#
# 1 96.7452 26.4107 30.9271 0.0000 0.0000 0.0000
# 2 26.4107 101.1362 4.0516 0.0000 0.0000 0.0000
# 3 30.9271 4.0516 88.6090 0.0000 0.0000 0.0000
# 4 0.0000 0.0000 0.0000 29.7872 0.0000 0.0000
# 5 0.0000 0.0000 0.0000 0.0000 25.2104 0.0000
# 6 0.0000 0.0000 0.0000 0.0000 0.0000 22.0163
#
#
#
# Elastic Compliance Matrix: (Units=1/GPa)
#
#
# Indices 1 2 3 4 5 6 
#
# 1 0.012537 -0.003104 -0.004234 0.000000 0.000000 0.000000
# 2 -0.003104 0.010674 0.000595 0.000000 0.000000 0.000000
# 3 -0.004234 0.000595 0.012736 0.000000 0.000000 0.000000
# 4 0.000000 0.000000 0.000000 0.033571 0.000000 0.000000
# 5 0.000000 0.000000 0.000000 0.000000 0.039666 0.000000
# 6 0.000000 0.000000 0.000000 0.000000 0.000000 0.045421
#
#
# Mechanical properties :
#
#
# Convention : Reuss Voigt Hill
#
# Bulk Modulus (GPa) = 44.51938 45.47434 44.99686
# Shear Modulus (GPa) = 28.47709 30.40951 29.44330
#
# Velocity S-wave (km/s) = 3.43317 3.54775 3.49093
# Velocity P-wave (km/s) = 5.84313 5.96690 5.90534
#
# Compressibility (1/GPa) = 0.02246213
#
# Stress axis : x y z
#
# Youngs Moduli (GPa) = 79.76134 93.68132 78.51707
#
# Poissons Ratio (x) = 0.29082 0.33244
# Poissons Ratio (y) = 0.24761 -0.04675
# Poissons Ratio (z) = 0.33771 -0.05578
#
# Static dielectric constant tensor:
#      x y z
#    x 3.998060 0.000000 0.000000 
#    y 0.000000 4.536310 0.000000 
#    z 0.000000 0.000000 4.908530 
# 
# 
# High freq. dielectric constant tensor:
#      x y z
#    x 1.938000 0.000000 0.000000 
#    y 0.000000 1.974740 0.000000 
#    z 0.000000 0.000000 1.972890 
# 
# From -- ./inp_files/7039.got.cif
#   From: 2010.03.12/outbox.cif.g09.slc.cpg/sg61_4_cif.got.tgz:7039.got - 2010.04.10 19:05:03.
