data_PCOD8249334
_publ_section_title
;
Structure prediction by ZEFSAII (Michael W. Deem and Ramdas Pophale) SiO2 
 PCOD8249334
Probable space group: P B C A
;
_chemical_formula_sum "Si O2"
_cell_formula_units_Z 64
_cell_length_a 20.824377
_cell_length_b 17.275562
_cell_length_c 8.960665
_cell_angle_alpha 90.000000
_cell_angle_beta 90.000000
_cell_angle_gamma 90.000000
_cell_volume 3223.624467
_symmetry_space_group_name_H-M "P B C A"
_symmetry_group_IT_number 61
_symmetry_cell_setting 'orthorhombic'
loop_
_space_group_symop_operation_xyz
x,y,z
1/2-x,-y,1/2+z
1/2+x,1/2-y,-z
-x,1/2+y,1/2-z
-x,-y,-z
1/2+x,y,1/2-z
1/2-x,1/2+y,z
x,1/2-y,1/2+z
loop_
_atom_site_type_symbol
_atom_site_label
_atom_site_fract_x
_atom_site_fract_y
_atom_site_fract_z
Si Si1 0.434952 0.734236 0.666781
Si Si2 0.434235 0.919595 0.316455
Si Si3 0.423308 0.377298 0.091568
Si Si4 0.900168 0.084687 0.252014
Si Si5 0.647790 0.376061 0.912967
Si Si6 0.826635 0.015955 0.741369
Si Si7 0.525468 0.715941 0.403959
Si Si8 0.223684 0.557093 0.079749
O O1 0.408461 0.649962 0.711137
O O2 0.379070 0.788637 0.598705
O O3 0.499854 0.721659 0.572057
O O4 0.459339 0.778486 0.812481
O O5 0.506851 0.911190 0.371913
O O6 0.389783 0.923875 0.461380
O O7 0.426469 0.998118 0.224203
O O8 0.371052 0.414695 0.200152
O O9 0.424420 0.285649 0.125186
O O10 0.407082 0.389408 0.918345
O O11 0.940644 0.135798 0.367543
O O12 0.826294 0.090652 0.300578
O O13 0.639629 0.430833 0.764822
O O14 0.723901 0.374756 0.955935
O O15 0.812185 0.028397 0.568072
O O16 0.761158 0.014897 0.841164
#
# Coordination Sequence:
#
# PCOD8249334 Si02
#       8
#     8   8   8   8   8   8   8   8
#     4  11  22  43  65 100 134 170 222 280 340 404
#     4  11  23  40  71 102 132 177 224 284 349 410
#     4  11  22  40  69  97 130 180 219 277 356 401
#     4  12  23  41  67  97 135 173 230 276 344 408
#     4  10  21  43  68  91 137 183 215 275 346 392
#     4  10  22  40  71  93 135 175 226 277 326 411
#     4  11  24  39  66  97 139 166 217 287 344 403
#     4  10  24  42  64  98 131 179 231 271 327 407
#
# _framework density 19.853428999999998
#
# number of rings (size 3 to 8) (size 9 to 14) (size 15 to 20)
#    0.750    0.500    5.000    1.875    5.250    1.500 
#    0.000    3.750    0.000    0.000    0.000    0.000 
#    0.000    0.000    0.000    0.000    0.000    0.000 
#
# Total GULP energy -793205.155890 kJ/mol
# GULP energy per Si atom -12393.830561 kJ/mol
# Density = 1.980824 g / cm^3
# Si number density = 19.853429 Si / 1000 Ang^3
#
#
#
# Elastic Constant Matrix: (Units=GPa)
#
#
# Indices 1 2 3 4 5 6 
#
# 1 102.5460 64.7116 35.4372 0.0000 0.0000 0.0000
# 2 64.7116 139.1471 41.8857 0.0000 0.0000 0.0000
# 3 35.4372 41.8857 73.1235 0.0000 0.0000 0.0000
# 4 0.0000 0.0000 0.0000 30.7502 0.0000 0.0000
# 5 0.0000 0.0000 0.0000 0.0000 35.4062 0.0000
# 6 0.0000 0.0000 0.0000 0.0000 0.0000 27.3694
#
#
#
# Elastic Compliance Matrix: (Units=1/GPa)
#
#
# Indices 1 2 3 4 5 6 
#
# 1 0.014653 -0.005652 -0.003864 0.000000 0.000000 0.000000
# 2 -0.005652 0.010864 -0.003484 0.000000 0.000000 0.000000
# 3 -0.003864 -0.003484 0.017544 0.000000 0.000000 0.000000
# 4 0.000000 0.000000 0.000000 0.032520 0.000000 0.000000
# 5 0.000000 0.000000 0.000000 0.000000 0.028244 0.000000
# 6 0.000000 0.000000 0.000000 0.000000 0.000000 0.036537
#
#
# Mechanical properties :
#
#
# Convention : Reuss Voigt Hill
#
# Bulk Modulus (GPa) = 58.61092 66.54284 62.57688
# Shear Modulus (GPa) = 29.06161 30.22397 29.64279
#
# Velocity S-wave (km/s) = 3.83013 3.90597 3.86823
# Velocity P-wave (km/s) = 7.01040 7.34384 7.17906
#
# Compressibility (1/GPa) = 0.01706167
#
# Stress axis : x y z
#
# Youngs Moduli (GPa) = 68.24317 92.04993 57.00031
#
# Poissons Ratio (x) = 0.52023 0.22026
# Poissons Ratio (y) = 0.38568 0.19859
# Poissons Ratio (z) = 0.26370 0.32070
#
# Static dielectric constant tensor:
#      x y z
#    x 3.567650 0.000000 0.000000 
#    y 0.000000 3.612040 0.000000 
#    z 0.000000 0.000000 3.586190 
# 
# 
# High freq. dielectric constant tensor:
#      x y z
#    x 1.767380 0.000000 0.000000 
#    y 0.000000 1.766860 0.000000 
#    z 0.000000 0.000000 1.778310 
# 
# From -- ./inp_files/4064.got.cif
#   From: 2010.03.12/outbox.cif.g09.slc.cpg/sg61_3_cif.got.tgz:4064.got - 2010.04.10 19:05:03.
