data_PCOD8249969
_publ_section_title
;
Structure prediction by ZEFSAII (Michael W. Deem and Ramdas Pophale) SiO2 
 PCOD8249969
Probable space group: P N M A
;
_chemical_formula_sum "Si O2"
_cell_formula_units_Z 40
_cell_length_a 15.676169
_cell_length_b 22.688047
_cell_length_c 5.170676
_cell_angle_alpha 90.000000
_cell_angle_beta 90.000000
_cell_angle_gamma 90.000000
_cell_volume 1839.011205
_symmetry_space_group_name_H-M "P N M A"
_symmetry_group_IT_number 62
_symmetry_cell_setting 'orthorhombic'
loop_
_space_group_symop_operation_xyz
x,y,z
1/2-x,-y,1/2+z
1/2+x,1/2-y,1/2-z
-x,1/2+y,-z
-x,-y,-z
1/2+x,y,1/2-z
1/2-x,1/2+y,1/2+z
x,1/2-y,z
loop_
_atom_site_type_symbol
_atom_site_label
_atom_site_fract_x
_atom_site_fract_y
_atom_site_fract_z
Si Si1 0.552499 0.865484 0.164688
Si Si2 0.083770 0.574373 0.828587
Si Si3 0.773197 0.364404 0.443062
Si Si4 0.831167 0.750000 0.816244
Si Si5 0.203130 0.021348 0.867045
Si Si6 0.441420 0.750000 0.182389
O O1 0.532613 0.898603 0.431504
O O2 0.497658 0.807296 0.136356
O O3 0.529340 0.911153 0.930523
O O4 0.652971 0.848138 0.152342
O O5 0.178299 0.604343 0.797959
O O6 0.105624 0.504767 0.871549
O O7 0.726755 0.306886 0.345816
O O8 0.703532 0.408827 0.570252
O O9 0.866164 0.750000 0.525674
O O10 0.906239 0.750000 0.026772
O O11 0.240952 0.012165 0.582255
#
# Coordination Sequence:
#
# PCOD8249969 Si02
#       6
#     8   8   8   4   8   4
#     4  10  20  37  60  82 108 151 195 233 264 347
#     4   9  18  32  62  90 108 136 191 241 278 328
#     4   9  22  35  64  86 116 140 196 232 285 332
#     4  12  27  39  56  82 120 156 184 240 285 338
#     4  10  16  31  55  96 113 135 170 250 291 325
#     4  12  27  41  54  78 122 160 192 228 293 326
#
# _framework density 21.750819
#
# number of rings (size 3 to 8) (size 9 to 14) (size 15 to 20)
#    1.200    0.800    2.000    1.800    2.800    0.800 
#    0.000    0.000    0.000    7.200    0.000    0.000 
#    0.000    0.000    0.000    0.000    0.000    0.000 
#
# Total GULP energy -495617.803111 kJ/mol
# GULP energy per Si atom -12390.445078 kJ/mol
# Density = 2.170131 g / cm^3
# Si number density = 21.750819 Si / 1000 Ang^3
#
#
#
# Elastic Constant Matrix: (Units=GPa)
#
#
# Indices 1 2 3 4 5 6 
#
# 1 22.1030 13.6021 0.9516 0.0000 0.0000 0.0000
# 2 13.6021 77.8925 -5.9259 0.0000 0.0000 0.0000
# 3 0.9516 -5.9259 105.8896 0.0000 0.0000 0.0000
# 4 0.0000 0.0000 0.0000 23.7118 0.0000 0.0000
# 5 0.0000 0.0000 0.0000 0.0000 20.9403 0.0000
# 6 0.0000 0.0000 0.0000 0.0000 0.0000 -7.2702
#
#
#
# Elastic Compliance Matrix: (Units=1/GPa)
#
#
# Indices 1 2 3 4 5 6 
#
# 1 0.050787 -0.008941 -0.000957 0.000000 0.000000 0.000000
# 2 -0.008941 0.014467 0.000890 0.000000 0.000000 0.000000
# 3 -0.000957 0.000890 0.009502 0.000000 0.000000 0.000000
# 4 0.000000 0.000000 0.000000 0.042173 0.000000 0.000000
# 5 0.000000 0.000000 0.000000 0.000000 0.047755 0.000000
# 6 0.000000 0.000000 0.000000 0.000000 0.000000 -0.137547
#
#
# Mechanical properties :
#
#
# Convention : Reuss Voigt Hill
#
# Bulk Modulus (GPa) = 17.62439 24.79340 21.20889
# Shear Modulus (GPa) = 78.04372 20.62686 49.33529
#
# Velocity S-wave (km/s) = 5.99656 3.08283 4.76773
# Velocity P-wave (km/s) = 7.48768 4.90870 6.33091
#
# Compressibility (1/GPa) = 0.05673957
#
# Stress axis : x y z
#
# Youngs Moduli (GPa) = 19.69024 69.12127 105.23877
#
# Poissons Ratio (x) = 0.61805 0.10069
# Poissons Ratio (y) = 0.17606 -0.09366
# Poissons Ratio (z) = 0.01884 -0.06152
#
# Static dielectric constant tensor:
#      x y z
#    x 3.463210 0.000000 0.000000 
#    y 0.000000 3.939970 0.000000 
#    z 0.000000 0.000000 3.901040 
# 
# 
# High freq. dielectric constant tensor:
#      x y z
#    x 1.818900 0.000000 0.000000 
#    y 0.000000 1.854900 0.000000 
#    z 0.000000 0.000000 1.862950 
# 
# From -- ./inp_files/1054.got.cif
#   From: 2010.03.12/outbox.cif.g09.slc.cpg/sg62_1_cif.got.tgz:1054.got - 2010.04.10 19:12:36.
