data_PCOD8249623
_publ_section_title
;
Structure prediction by ZEFSAII (Michael W. Deem and Ramdas Pophale) SiO2 
 PCOD8249623
Probable space group: P B C A
;
_chemical_formula_sum "Si O2"
_cell_formula_units_Z 40
_cell_length_a 8.650402
_cell_length_b 16.979220
_cell_length_c 10.946955
_cell_angle_alpha 90.000000
_cell_angle_beta 90.000000
_cell_angle_gamma 90.000000
_cell_volume 1607.856770
_symmetry_space_group_name_H-M "P B C A"
_symmetry_group_IT_number 61
_symmetry_cell_setting 'orthorhombic'
loop_
_space_group_symop_operation_xyz
x,y,z
1/2-x,-y,1/2+z
1/2+x,1/2-y,-z
-x,1/2+y,1/2-z
-x,-y,-z
1/2+x,y,1/2-z
1/2-x,1/2+y,z
x,1/2-y,1/2+z
loop_
_atom_site_type_symbol
_atom_site_label
_atom_site_fract_x
_atom_site_fract_y
_atom_site_fract_z
Si Si1 0.094081 0.003001 0.206084
Si Si2 0.700924 0.272535 0.135054
Si Si3 0.855027 0.604889 0.843834
Si Si4 0.159917 0.891250 0.800445
Si Si5 0.057189 0.828844 0.551289
O O1 0.190128 0.053389 0.306173
O O2 0.984023 0.064505 0.130442
O O3 0.210953 0.952346 0.122267
O O4 0.988498 0.941377 0.276085
O O5 0.703274 0.323216 0.258690
O O6 0.806869 0.195145 0.151730
O O7 0.522136 0.251273 0.104626
O O8 0.785454 0.316951 0.024594
O O9 0.917578 0.635815 0.971436
O O10 0.105418 0.887496 0.658565
#
# Coordination Sequence:
#
# PCOD8249623 Si02
#       5
#     8   8   8   8   8
#     4  10  24  44  71  96 147 180 220 298 345 388
#     4  12  26  46  72 104 140 178 238 286 330 410
#     4  11  24  49  68 104 140 182 228 291 336 410
#     4  11  24  49  68 104 140 182 228 291 336 410
#     4  12  26  43  76 101 132 190 234 274 350 409
#
# _framework density 24.877839000000002
#
# number of rings (size 3 to 8) (size 9 to 14) (size 15 to 20)
#    0.000    0.800    4.000    2.400    5.600    3.200 
#    0.000    2.000    0.000    0.000    0.000    0.000 
#    0.000    0.000    0.000    0.000    0.000    0.000 
#
# Total GULP energy -495818.080404 kJ/mol
# GULP energy per Si atom -12395.452010 kJ/mol
# Density = 2.482122 g / cm^3
# Si number density = 24.877839 Si / 1000 Ang^3
#
#
#
# Elastic Constant Matrix: (Units=GPa)
#
#
# Indices 1 2 3 4 5 6 
#
# 1 105.9269 22.6458 -3.4332 0.0000 0.0000 0.0000
# 2 22.6458 98.8402 1.3899 0.0000 0.0000 0.0000
# 3 -3.4332 1.3899 52.7497 0.0000 0.0000 0.0000
# 4 0.0000 0.0000 0.0000 16.2514 0.0000 0.0000
# 5 0.0000 0.0000 0.0000 0.0000 39.2643 0.0000
# 6 0.0000 0.0000 0.0000 0.0000 0.0000 48.4939
#
#
#
# Elastic Compliance Matrix: (Units=1/GPa)
#
#
# Indices 1 2 3 4 5 6 
#
# 1 0.009953 -0.002290 0.000708 0.000000 0.000000 0.000000
# 2 -0.002290 0.010648 -0.000430 0.000000 0.000000 0.000000
# 3 0.000708 -0.000430 0.019015 0.000000 0.000000 0.000000
# 4 0.000000 0.000000 0.000000 0.061533 0.000000 0.000000
# 5 0.000000 0.000000 0.000000 0.000000 0.025468 0.000000
# 6 0.000000 0.000000 0.000000 0.000000 0.000000 0.020621
#
#
# Mechanical properties :
#
#
# Convention : Reuss Voigt Hill
#
# Bulk Modulus (GPa) = 28.09593 33.19133 30.64363
# Shear Modulus (GPa) = 30.65105 36.59622 33.62364
#
# Velocity S-wave (km/s) = 3.51388 3.83957 3.68033
# Velocity P-wave (km/s) = 5.27079 5.74692 5.51400
#
# Compressibility (1/GPa) = 0.03559235
#
# Stress axis : x y z
#
# Youngs Moduli (GPa) = 100.47145 93.91310 52.59044
#
# Poissons Ratio (x) = 0.21509 -0.03724
# Poissons Ratio (y) = 0.23012 0.02259
# Poissons Ratio (z) = -0.07115 0.04035
#
# Static dielectric constant tensor:
#      x y z
#    x 4.935270 0.000000 0.000000 
#    y 0.000000 4.746460 0.000000 
#    z 0.000000 0.000000 4.215950 
# 
# 
# High freq. dielectric constant tensor:
#      x y z
#    x 2.019730 0.000000 0.000000 
#    y 0.000000 2.004970 0.000000 
#    z 0.000000 0.000000 1.954090 
# 
# From -- ./inp_files/3284.got.cif
#   From: 2010.03.12/outbox.cif.g09.slc.cpg/sg61_2_cif.got.tgz:3284.got - 2010.04.10 19:05:03.
