data_PCOD8249699
_publ_section_title
;
Structure prediction by ZEFSAII (Michael W. Deem and Ramdas Pophale) SiO2 
 PCOD8249699
Probable space group: P B C A
;
_chemical_formula_sum "Si O2"
_cell_formula_units_Z 40
_cell_length_a 21.335857
_cell_length_b 8.761000
_cell_length_c 8.603445
_cell_angle_alpha 90.000000
_cell_angle_beta 90.000000
_cell_angle_gamma 90.000000
_cell_volume 1608.185563
_symmetry_space_group_name_H-M "P B C A"
_symmetry_group_IT_number 61
_symmetry_cell_setting 'orthorhombic'
loop_
_space_group_symop_operation_xyz
x,y,z
1/2-x,-y,1/2+z
1/2+x,1/2-y,-z
-x,1/2+y,1/2-z
-x,-y,-z
1/2+x,y,1/2-z
1/2-x,1/2+y,z
x,1/2-y,1/2+z
loop_
_atom_site_type_symbol
_atom_site_label
_atom_site_fract_x
_atom_site_fract_y
_atom_site_fract_z
Si Si1 0.906203 0.959150 0.992736
Si Si2 0.950488 0.638262 0.022338
Si Si3 0.682628 0.435742 0.528586
Si Si4 0.492155 0.118928 0.709909
Si Si5 0.211086 0.114574 0.832782
O O1 0.922353 0.075717 0.850942
O O2 0.914688 0.782285 0.937397
O O3 0.837488 0.987290 0.063501
O O4 0.957439 0.993285 0.127855
O O5 0.891662 0.525918 0.051553
O O6 0.003120 0.578208 0.895194
O O7 0.988062 0.704394 0.173167
O O8 0.702121 0.418071 0.349067
O O9 0.719479 0.575084 0.608115
O O10 0.699639 0.291354 0.635366
#
# Coordination Sequence:
#
# PCOD8249699 Si02
#       5
#     8   8   8   8   8
#     4   8  18  33  56  77 111 144 184 234 289 337
#     4   9  16  32  56  79 104 146 184 225 288 339
#     4  11  21  37  59  86 117 156 196 243 291 352
#     4   9  16  33  57  78 105 144 184 232 285 344
#     4  11  22  39  60  88 119 158 202 244 296 351
#
# _framework density 24.872751999999998
#
# number of rings (size 3 to 8) (size 9 to 14) (size 15 to 20)
#    1.200    1.200    2.000    1.200    0.000    1.600 
#    0.000    7.000    0.000    0.000    0.000    0.000 
#    0.000    0.000    0.000    0.000    0.000    0.000 
#
# Total GULP energy -495629.389651 kJ/mol
# GULP energy per Si atom -12390.734741 kJ/mol
# Density = 2.481614 g / cm^3
# Si number density = 24.872752 Si / 1000 Ang^3
#
#
#
# Elastic Constant Matrix: (Units=GPa)
#
#
# Indices 1 2 3 4 5 6 
#
# 1 88.2743 28.9035 14.6376 0.0000 0.0000 0.0000
# 2 28.9035 29.5755 19.9023 0.0000 0.0000 0.0000
# 3 14.6376 19.9023 134.6943 0.0000 0.0000 0.0000
# 4 0.0000 0.0000 0.0000 36.6993 0.0000 0.0000
# 5 0.0000 0.0000 0.0000 0.0000 31.2266 0.0000
# 6 0.0000 0.0000 0.0000 0.0000 0.0000 43.7407
#
#
#
# Elastic Compliance Matrix: (Units=1/GPa)
#
#
# Indices 1 2 3 4 5 6 
#
# 1 0.016712 -0.016779 0.000663 0.000000 0.000000 0.000000
# 2 -0.016779 0.054390 -0.006213 0.000000 0.000000 0.000000
# 3 0.000663 -0.006213 0.008270 0.000000 0.000000 0.000000
# 4 0.000000 0.000000 0.000000 0.027248 0.000000 0.000000
# 5 0.000000 0.000000 0.000000 0.000000 0.032024 0.000000
# 6 0.000000 0.000000 0.000000 0.000000 0.000000 0.022862
#
#
# Mechanical properties :
#
#
# Convention : Reuss Voigt Hill
#
# Bulk Modulus (GPa) = 28.80604 42.15899 35.48252
# Shear Modulus (GPa) = 22.96354 34.94003 28.95179
#
# Velocity S-wave (km/s) = 3.04178 3.75207 3.41544
# Velocity P-wave (km/s) = 4.89317 5.97974 5.46354
#
# Compressibility (1/GPa) = 0.03471494
#
# Stress axis : x y z
#
# Youngs Moduli (GPa) = 59.83668 18.38566 120.91558
#
# Poissons Ratio (x) = 0.30849 -0.08017
# Poissons Ratio (y) = 1.00398 0.75128
# Poissons Ratio (z) = -0.03967 0.11424
#
# Static dielectric constant tensor:
#      x y z
#    x 4.697540 0.000000 0.000000 
#    y 0.000000 4.260920 0.000000 
#    z 0.000000 0.000000 4.523110 
# 
# 
# High freq. dielectric constant tensor:
#      x y z
#    x 1.987700 0.000000 0.000000 
#    y 0.000000 1.966250 0.000000 
#    z 0.000000 0.000000 2.003930 
# 
# From -- ./inp_files/3815.got.cif
#   From: 2010.03.12/outbox.cif.g09.slc.cpg/sg61_2_cif.got.tgz:3815.got - 2010.04.10 19:05:03.
