data_PCOD8249017
_publ_section_title
;
Structure prediction by ZEFSAII (Michael W. Deem and Ramdas Pophale) SiO2 
 PCOD8249017
Probable space group: P B C A
;
_chemical_formula_sum "Si O2"
_cell_formula_units_Z 48
_cell_length_a 8.782368
_cell_length_b 16.588400
_cell_length_c 15.814669
_cell_angle_alpha 90.000000
_cell_angle_beta 90.000000
_cell_angle_gamma 90.000000
_cell_volume 2303.966906
_symmetry_space_group_name_H-M "P B C A"
_symmetry_group_IT_number 61
_symmetry_cell_setting 'orthorhombic'
loop_
_space_group_symop_operation_xyz
x,y,z
1/2-x,-y,1/2+z
1/2+x,1/2-y,-z
-x,1/2+y,1/2-z
-x,-y,-z
1/2+x,y,1/2-z
1/2-x,1/2+y,z
x,1/2-y,1/2+z
loop_
_atom_site_type_symbol
_atom_site_label
_atom_site_fract_x
_atom_site_fract_y
_atom_site_fract_z
Si Si1 0.900928 0.593291 0.342955
Si Si2 0.926562 0.932865 0.589347
Si Si3 0.782580 0.330743 0.701160
Si Si4 0.285323 0.081999 0.991879
Si Si5 0.474931 0.956875 0.237648
Si Si6 0.274545 0.147306 0.814787
O O1 0.755207 0.622285 0.287896
O O2 0.850999 0.590617 0.440663
O O3 0.042985 0.653958 0.326462
O O4 0.948803 0.503050 0.316871
O O5 0.049378 0.891836 0.527695
O O6 0.830809 0.861145 0.629002
O O7 0.026434 0.983171 0.657574
O O8 0.805437 0.990010 0.540813
O O9 0.743858 0.237264 0.716078
O O10 0.243410 0.141529 0.915076
O O11 0.311030 0.925745 0.266378
O O12 0.553721 0.873528 0.210214
#
# Coordination Sequence:
#
# PCOD8249017 Si02
#       6
#     8   8   8   8   8   8
#     4  11  21  39  62  86 113 156 202 239 281 350
#     4   9  20  40  60  83 115 156 196 240 285 342
#     4  11  23  38  59  85 120 155 189 234 298 352
#     4  10  21  37  60  86 115 148 197 245 286 334
#     4  10  20  38  61  81 111 155 200 229 278 351
#     4  11  23  38  58  88 118 150 188 242 296 344
#
# _framework density 20.833631
#
# number of rings (size 3 to 8) (size 9 to 14) (size 15 to 20)
#    0.000    1.667    0.000    7.000    0.000    4.000 
#    0.000    3.333    0.000    0.000    0.000    0.000 
#    0.000    0.000    0.000    0.000    0.000    0.000 
#
# Total GULP energy -595064.018184 kJ/mol
# GULP energy per Si atom -12397.167046 kJ/mol
# Density = 2.078621 g / cm^3
# Si number density = 20.833631 Si / 1000 Ang^3
#
#
#
# Elastic Constant Matrix: (Units=GPa)
#
#
# Indices 1 2 3 4 5 6 
#
# 1 67.1751 25.6963 27.9749 0.0000 0.0000 0.0000
# 2 25.6963 84.7925 4.1762 0.0000 0.0000 0.0000
# 3 27.9749 4.1762 72.8826 0.0000 0.0000 0.0000
# 4 0.0000 0.0000 0.0000 21.0791 0.0000 0.0000
# 5 0.0000 0.0000 0.0000 0.0000 38.5813 0.0000
# 6 0.0000 0.0000 0.0000 0.0000 0.0000 23.6910
#
#
#
# Elastic Compliance Matrix: (Units=1/GPa)
#
#
# Indices 1 2 3 4 5 6 
#
# 1 0.020173 -0.005748 -0.007414 0.000000 0.000000 0.000000
# 2 -0.005748 0.013465 0.001435 0.000000 0.000000 0.000000
# 3 -0.007414 0.001435 0.016484 0.000000 0.000000 0.000000
# 4 0.000000 0.000000 0.000000 0.047440 0.000000 0.000000
# 5 0.000000 0.000000 0.000000 0.000000 0.025919 0.000000
# 6 0.000000 0.000000 0.000000 0.000000 0.000000 0.042210
#
#
# Mechanical properties :
#
#
# Convention : Reuss Voigt Hill
#
# Bulk Modulus (GPa) = 37.49867 37.83835 37.66851
# Shear Modulus (GPa) = 25.24813 27.80380 26.52597
#
# Velocity S-wave (km/s) = 3.48500 3.65713 3.57210
# Velocity P-wave (km/s) = 5.85080 6.00286 5.92732
#
# Compressibility (1/GPa) = 0.02666761
#
# Stress axis : x y z
#
# Youngs Moduli (GPa) = 49.57199 74.26764 60.66458
#
# Poissons Ratio (x) = 0.42690 0.44974
# Poissons Ratio (y) = 0.28495 -0.08704
# Poissons Ratio (z) = 0.36751 -0.10656
#
# Static dielectric constant tensor:
#      x y z
#    x 3.727090 0.000000 0.000000 
#    y 0.000000 3.456810 0.000000 
#    z 0.000000 0.000000 3.873950 
# 
# 
# High freq. dielectric constant tensor:
#      x y z
#    x 1.821540 0.000000 0.000000 
#    y 0.000000 1.796930 0.000000 
#    z 0.000000 0.000000 1.816230 
# 
# From -- ./inp_files/3521.got.cif
#   From: 2010.03.12/outbox.cif.g09.slc.cpg/sg61_2_cif.got.tgz:3521.got - 2010.04.10 19:05:03.
