data_PCOD8249578
_publ_section_title
;
Structure prediction by ZEFSAII (Michael W. Deem and Ramdas Pophale) SiO2 
 PCOD8249578
Probable space group: P B C A
;
_chemical_formula_sum "Si O2"
_cell_formula_units_Z 64
_cell_length_a 8.039215
_cell_length_b 25.463789
_cell_length_c 13.122134
_cell_angle_alpha 90.000000
_cell_angle_beta 90.000000
_cell_angle_gamma 90.000000
_cell_volume 2686.217282
_symmetry_space_group_name_H-M "P B C A"
_symmetry_group_IT_number 61
_symmetry_cell_setting 'orthorhombic'
loop_
_space_group_symop_operation_xyz
x,y,z
1/2-x,-y,1/2+z
1/2+x,1/2-y,-z
-x,1/2+y,1/2-z
-x,-y,-z
1/2+x,y,1/2-z
1/2-x,1/2+y,z
x,1/2-y,1/2+z
loop_
_atom_site_type_symbol
_atom_site_label
_atom_site_fract_x
_atom_site_fract_y
_atom_site_fract_z
Si Si1 0.121209 0.762208 0.964396
Si Si2 0.669178 0.198023 0.873497
Si Si3 0.683939 0.320560 0.144600
Si Si4 0.006537 0.005504 0.288987
Si Si5 0.010350 0.870832 0.973028
Si Si6 0.516138 0.897857 0.115046
Si Si7 0.223788 0.941172 0.558602
Si Si8 0.838901 0.027079 0.091400
O O1 0.282518 0.731997 0.921161
O O2 0.082949 0.819579 0.913722
O O3 0.968596 0.724456 0.945276
O O4 0.158201 0.776526 0.084982
O O5 0.634834 0.203724 0.753958
O O6 0.654629 0.135503 0.899252
O O7 0.843993 0.357973 0.157716
O O8 0.538102 0.354368 0.089981
O O9 0.845313 0.032829 0.339707
O O10 0.997045 0.018942 0.168304
O O11 0.173682 0.026460 0.340024
O O12 0.987146 0.942799 0.300837
O O13 0.145824 0.917333 0.966360
O O14 0.838189 0.890159 0.918690
O O15 0.563640 0.924817 0.008559
O O16 0.338308 0.981052 0.492361
#
# Coordination Sequence:
#
# PCOD8249578 Si02
#       8
#     8   8   8   8   8   8   8   8
#     4  11  25  46  69 101 142 179 236 300 357 431
#     4  11  25  44  74 106 137 185 234 299 364 426
#     4  10  24  47  69 106 138 181 249 299 360 431
#     4  11  24  43  68 102 149 187 242 292 367 448
#     4  11  24  45  69  96 141 191 237 293 367 422
#     4   9  22  39  72 101 137 184 233 297 354 421
#     4  10  23  45  64 100 146 180 239 291 351 441
#     4  11  24  43  68 105 142 189 236 298 364 436
#
# _framework density 23.825326
#
# number of rings (size 3 to 8) (size 9 to 14) (size 15 to 20)
#    0.000    1.500    1.250    2.625   12.250    0.000 
#    6.750    0.000    0.000    0.000    0.000    0.000 
#    0.000    0.000    0.000    0.000    0.000    0.000 
#
# Total GULP energy -793044.817686 kJ/mol
# GULP energy per Si atom -12391.325276 kJ/mol
# Density = 2.377110 g / cm^3
# Si number density = 23.825326 Si / 1000 Ang^3
#
#
#
# Elastic Constant Matrix: (Units=GPa)
#
#
# Indices 1 2 3 4 5 6 
#
# 1 32.1058 32.1613 35.9381 0.0000 0.0000 0.0000
# 2 32.1613 158.5769 69.5182 0.0000 0.0000 0.0000
# 3 35.9381 69.5182 122.2256 0.0000 0.0000 0.0000
# 4 0.0000 0.0000 0.0000 32.3922 0.0000 0.0000
# 5 0.0000 0.0000 0.0000 0.0000 29.9257 0.0000
# 6 0.0000 0.0000 0.0000 0.0000 0.0000 57.7768
#
#
#
# Elastic Compliance Matrix: (Units=1/GPa)
#
#
# Indices 1 2 3 4 5 6 
#
# 1 0.049056 -0.004830 -0.011677 0.000000 0.000000 0.000000
# 2 -0.004830 0.008876 -0.003628 0.000000 0.000000 0.000000
# 3 -0.011677 -0.003628 0.013679 0.000000 0.000000 0.000000
# 4 0.000000 0.000000 0.000000 0.030872 0.000000 0.000000
# 5 0.000000 0.000000 0.000000 0.000000 0.033416 0.000000
# 6 0.000000 0.000000 0.000000 0.000000 0.000000 0.017308
#
#
# Mechanical properties :
#
#
# Convention : Reuss Voigt Hill
#
# Bulk Modulus (GPa) = 31.90765 65.34927 48.62846
# Shear Modulus (GPa) = 24.51892 35.70501 30.11197
#
# Velocity S-wave (km/s) = 3.21146 3.87540 3.55894
# Velocity P-wave (km/s) = 5.21274 6.89296 6.11088
#
# Compressibility (1/GPa) = 0.03134044
#
# Stress axis : x y z
#
# Youngs Moduli (GPa) = 20.38482 112.65904 73.10681
#
# Poissons Ratio (x) = 0.54417 0.85365
# Poissons Ratio (y) = 0.09846 0.26526
# Poissons Ratio (z) = 0.23803 0.40877
#
# Static dielectric constant tensor:
#      x y z
#    x 4.544180 0.000000 0.000000 
#    y 0.000000 4.588540 0.000000 
#    z 0.000000 0.000000 4.058030 
# 
# 
# High freq. dielectric constant tensor:
#      x y z
#    x 1.964000 0.000000 0.000000 
#    y 0.000000 1.950830 0.000000 
#    z 0.000000 0.000000 1.919800 
# 
# From -- ./inp_files/7231.got.cif
#   From: 2010.03.12/outbox.cif.g09.slc.cpg/sg61_4_cif.got.tgz:7231.got - 2010.04.10 19:05:03.
