data_PCOD8249487
_publ_section_title
;
Structure prediction by ZEFSAII (Michael W. Deem and Ramdas Pophale) SiO2 
 PCOD8249487
Probable space group: P B C A
;
_chemical_formula_sum "Si O2"
_cell_formula_units_Z 64
_cell_length_a 9.025255
_cell_length_b 13.381009
_cell_length_c 24.098610
_cell_angle_alpha 90.000000
_cell_angle_beta 90.000000
_cell_angle_gamma 90.000000
_cell_volume 2910.317277
_symmetry_space_group_name_H-M "P B C A"
_symmetry_group_IT_number 61
_symmetry_cell_setting 'orthorhombic'
loop_
_space_group_symop_operation_xyz
x,y,z
1/2-x,-y,1/2+z
1/2+x,1/2-y,-z
-x,1/2+y,1/2-z
-x,-y,-z
1/2+x,y,1/2-z
1/2-x,1/2+y,z
x,1/2-y,1/2+z
loop_
_atom_site_type_symbol
_atom_site_label
_atom_site_fract_x
_atom_site_fract_y
_atom_site_fract_z
Si Si1 0.837676 0.805207 0.788975
Si Si2 0.975824 0.050574 0.660764
Si Si3 0.409613 0.063776 0.259479
Si Si4 0.443484 0.832126 0.413995
Si Si5 0.303666 0.856770 0.301310
Si Si6 0.814027 0.035662 0.548651
Si Si7 0.274407 0.680897 0.610945
Si Si8 0.425375 0.842197 0.001100
O O1 0.743873 0.887065 0.756924
O O2 0.845814 0.703744 0.753378
O O3 0.769792 0.778408 0.849285
O O4 0.998949 0.855634 0.795740
O O5 0.133027 0.095389 0.642335
O O6 0.874300 0.134355 0.691507
O O7 0.887054 0.009643 0.607809
O O8 0.003165 0.960171 0.702713
O O9 0.378029 0.966145 0.296126
O O10 0.368496 0.803123 0.355667
O O11 0.352730 0.922392 0.443471
O O12 0.612559 0.863659 0.402173
O O13 0.440839 0.733627 0.451000
O O14 0.910806 0.117934 0.515767
O O15 0.813373 0.932846 0.514214
O O16 0.355708 0.713131 0.554265
#
# Coordination Sequence:
#
# PCOD8249487 Si02
#       8
#     8   8   8   8   8   8   8   8
#     4  12  26  41  70 102 133 188 229 283 363 423
#     4  10  22  44  65  94 140 179 218 285 349 415
#     4  12  25  42  67 101 137 182 231 279 349 435
#     4  11  24  41  72  99 133 184 231 287 347 414
#     4  11  25  45  67  99 148 175 230 295 350 424
#     4   9  22  43  68  97 135 185 224 278 350 414
#     4  11  24  43  70 100 138 177 228 299 339 411
#     4  10  22  45  69  99 140 180 231 285 349 417
#
# _framework density 21.990729999999999
#
# number of rings (size 3 to 8) (size 9 to 14) (size 15 to 20)
#    0.000    1.250    2.500    2.250    7.000    0.500 
#    2.250    2.500    0.000    0.000    0.000    0.000 
#    0.000    0.000    0.000    0.000    0.000    0.000 
#
# Total GULP energy -793766.723976 kJ/mol
# GULP energy per Si atom -12402.605062 kJ/mol
# Density = 2.194068 g / cm^3
# Si number density = 21.990730 Si / 1000 Ang^3
#
#
#
# Elastic Constant Matrix: (Units=GPa)
#
#
# Indices 1 2 3 4 5 6 
#
# 1 131.6762 47.4819 48.0831 0.0000 0.0000 0.0000
# 2 47.4819 83.0216 49.8486 0.0000 0.0000 0.0000
# 3 48.0831 49.8486 118.6846 0.0000 0.0000 0.0000
# 4 0.0000 0.0000 0.0000 34.6436 0.0000 0.0000
# 5 0.0000 0.0000 0.0000 0.0000 33.3752 0.0000
# 6 0.0000 0.0000 0.0000 0.0000 0.0000 26.5817
#
#
#
# Elastic Compliance Matrix: (Units=1/GPa)
#
#
# Indices 1 2 3 4 5 6 
#
# 1 0.009980 -0.004386 -0.002201 0.000000 0.000000 0.000000
# 2 -0.004386 0.018035 -0.005798 0.000000 0.000000 0.000000
# 3 -0.002201 -0.005798 0.011752 0.000000 0.000000 0.000000
# 4 0.000000 0.000000 0.000000 0.028865 0.000000 0.000000
# 5 0.000000 0.000000 0.000000 0.000000 0.029962 0.000000
# 6 0.000000 0.000000 0.000000 0.000000 0.000000 0.037620
#
#
# Mechanical properties :
#
#
# Convention : Reuss Voigt Hill
#
# Bulk Modulus (GPa) = 66.67870 69.35661 68.01765
# Shear Modulus (GPa) = 30.12351 31.45134 30.78742
#
# Velocity S-wave (km/s) = 3.70513 3.78591 3.74574
# Velocity P-wave (km/s) = 6.97790 7.12168 7.05016
#
# Compressibility (1/GPa) = 0.01499729
#
# Stress axis : x y z
#
# Youngs Moduli (GPa) = 100.20359 55.44850 85.08847
#
# Poissons Ratio (x) = 0.24320 0.18727
# Poissons Ratio (y) = 0.43951 0.49333
# Poissons Ratio (z) = 0.22054 0.32148
#
# Static dielectric constant tensor:
#      x y z
#    x 4.060660 0.000000 0.000000 
#    y 0.000000 3.664280 0.000000 
#    z 0.000000 0.000000 4.137110 
# 
# 
# High freq. dielectric constant tensor:
#      x y z
#    x 1.872320 0.000000 0.000000 
#    y 0.000000 1.846290 0.000000 
#    z 0.000000 0.000000 1.876030 
# 
# From -- ./inp_files/10914.got.cif
#   From: 2010.03.12/outbox.cif.g09.slc.cpg/sg61_6_cif.got.tgz:10914.got - 2010.04.10 19:05:03.
