data_PCOD8249859
_publ_section_title
;
Structure prediction by ZEFSAII (Michael W. Deem and Ramdas Pophale) SiO2 
 PCOD8249859
Probable space group: P B C A
;
_chemical_formula_sum "Si O2"
_cell_formula_units_Z 48
_cell_length_a 34.092617
_cell_length_b 7.302842
_cell_length_c 8.951065
_cell_angle_alpha 90.000000
_cell_angle_beta 90.000000
_cell_angle_gamma 90.000000
_cell_volume 2228.573464
_symmetry_space_group_name_H-M "P B C A"
_symmetry_group_IT_number 61
_symmetry_cell_setting 'orthorhombic'
loop_
_space_group_symop_operation_xyz
x,y,z
1/2-x,-y,1/2+z
1/2+x,1/2-y,-z
-x,1/2+y,1/2-z
-x,-y,-z
1/2+x,y,1/2-z
1/2-x,1/2+y,z
x,1/2-y,1/2+z
loop_
_atom_site_type_symbol
_atom_site_label
_atom_site_fract_x
_atom_site_fract_y
_atom_site_fract_z
Si Si1 0.045350 0.615479 0.350418
Si Si2 0.098457 0.180804 0.712227
Si Si3 0.786272 0.082651 0.598268
Si Si4 0.653388 0.233647 0.037287
Si Si5 0.207847 0.544928 0.552755
Si Si6 0.541375 0.983916 0.309727
O O1 0.078857 0.507636 0.262082
O O2 0.051347 0.591488 0.526515
O O3 0.049835 0.828775 0.312640
O O4 0.003527 0.543089 0.295898
O O5 0.139328 0.212940 0.798337
O O6 0.113291 0.165716 0.542430
O O7 0.067815 0.344374 0.733007
O O8 0.803579 0.272700 0.537551
O O9 0.814307 0.922782 0.543366
O O10 0.743640 0.056758 0.527609
O O11 0.781815 0.091730 0.776552
O O12 0.670601 0.411341 0.953620
#
# Coordination Sequence:
#
# PCOD8249859 Si02
#       6
#     8   8   8   8   8   8
#     4  11  25  44  72 104 141 185 239 284 350 423
#     4  12  26  48  68 107 145 185 227 299 352 413
#     4  12  27  46  75 105 141 188 237 288 350 426
#     4  12  28  48  70 103 151 180 233 292 358 410
#     4  12  27  46  75 106 140 189 238 287 352 426
#     4  11  25  44  72 105 138 189 236 286 348 424
#
# _framework density 21.538439
#
# number of rings (size 3 to 8) (size 9 to 14) (size 15 to 20)
#    0.000    0.333    6.667    1.000    7.000    3.333 
#    0.000    0.000    0.000    0.000    0.000    0.000 
#    0.000    0.000    0.000    0.000    0.000    0.000 
#
# Total GULP energy -595540.464542 kJ/mol
# GULP energy per Si atom -12407.093011 kJ/mol
# Density = 2.148942 g / cm^3
# Si number density = 21.538439 Si / 1000 Ang^3
#
#
#
# Elastic Constant Matrix: (Units=GPa)
#
#
# Indices 1 2 3 4 5 6 
#
# 1 72.7435 13.7022 17.4571 0.0000 0.0000 0.0000
# 2 13.7022 73.7758 18.4383 0.0000 0.0000 0.0000
# 3 17.4571 18.4383 95.0976 0.0000 0.0000 0.0000
# 4 0.0000 0.0000 0.0000 36.0935 0.0000 0.0000
# 5 0.0000 0.0000 0.0000 0.0000 41.5610 0.0000
# 6 0.0000 0.0000 0.0000 0.0000 0.0000 37.9259
#
#
#
# Elastic Compliance Matrix: (Units=1/GPa)
#
#
# Indices 1 2 3 4 5 6 
#
# 1 0.014701 -0.002161 -0.002280 0.000000 0.000000 0.000000
# 2 -0.002161 0.014562 -0.002427 0.000000 0.000000 0.000000
# 3 -0.002280 -0.002427 0.011405 0.000000 0.000000 0.000000
# 4 0.000000 0.000000 0.000000 0.027706 0.000000 0.000000
# 5 0.000000 0.000000 0.000000 0.000000 0.024061 0.000000
# 6 0.000000 0.000000 0.000000 0.000000 0.000000 0.026367
#
#
# Mechanical properties :
#
#
# Convention : Reuss Voigt Hill
#
# Bulk Modulus (GPa) = 37.12847 37.86801 37.49824
# Shear Modulus (GPa) = 35.33211 35.91735 35.62473
#
# Velocity S-wave (km/s) = 4.05461 4.08805 4.07136
# Velocity P-wave (km/s) = 6.26062 6.31685 6.28880
#
# Compressibility (1/GPa) = 0.02693351
#
# Stress axis : x y z
#
# Youngs Moduli (GPa) = 68.02257 68.66999 87.68428
#
# Poissons Ratio (x) = 0.14837 0.19990
# Poissons Ratio (y) = 0.14697 0.21280
# Poissons Ratio (z) = 0.15508 0.16665
#
# Static dielectric constant tensor:
#      x y z
#    x 3.869970 0.000000 0.000000 
#    y 0.000000 3.947170 0.000000 
#    z 0.000000 0.000000 3.955940 
# 
# 
# High freq. dielectric constant tensor:
#      x y z
#    x 1.850850 0.000000 0.000000 
#    y 0.000000 1.854280 0.000000 
#    z 0.000000 0.000000 1.858870 
# 
# From -- ./inp_files/4567.got.cif
#   From: 2010.03.12/outbox.cif.g09.slc.cpg/sg61_3_cif.got.tgz:4567.got - 2010.04.10 19:05:03.
