data_PCOD8249510
_publ_section_title
;
Structure prediction by ZEFSAII (Michael W. Deem and Ramdas Pophale) SiO2 
 PCOD8249510
Probable space group: P B C A
;
_chemical_formula_sum "Si O2"
_cell_formula_units_Z 40
_cell_length_a 24.036368
_cell_length_b 9.390776
_cell_length_c 7.348175
_cell_angle_alpha 90.000000
_cell_angle_beta 90.000000
_cell_angle_gamma 90.000000
_cell_volume 1658.631147
_symmetry_space_group_name_H-M "P B C A"
_symmetry_group_IT_number 61
_symmetry_cell_setting 'orthorhombic'
loop_
_space_group_symop_operation_xyz
x,y,z
1/2-x,-y,1/2+z
1/2+x,1/2-y,-z
-x,1/2+y,1/2-z
-x,-y,-z
1/2+x,y,1/2-z
1/2-x,1/2+y,z
x,1/2-y,1/2+z
loop_
_atom_site_type_symbol
_atom_site_label
_atom_site_fract_x
_atom_site_fract_y
_atom_site_fract_z
Si Si1 0.087758 0.918185 0.046979
Si Si2 0.922811 0.950678 0.315526
Si Si3 0.205730 0.670550 0.493971
Si Si4 0.197598 0.525088 0.106799
Si Si5 0.969991 0.154754 0.597347
O O1 0.150466 0.875375 0.104317
O O2 0.062135 0.801724 0.909834
O O3 0.085788 0.050274 0.904731
O O4 0.053076 0.939420 0.230996
O O5 0.963442 0.817899 0.366265
O O6 0.862980 0.951881 0.416465
O O7 0.959295 0.080001 0.402792
O O8 0.202275 0.605007 0.296218
O O9 0.259388 0.604212 0.592308
O O10 0.209286 0.842910 0.468472
#
# Coordination Sequence:
#
# PCOD8249510 Si02
#       5
#     8   8   8   8   8
#     4  11  20  39  64  90 127 166 210 255 331 379
#     4  10  23  38  60  93 122 162 210 259 312 386
#     4  11  23  40  68  94 130 174 215 270 320 391
#     4  11  23  42  64  96 129 168 221 264 327 383
#     4  11  20  37  64  88 121 164 205 256 316 377
#
# _framework density 24.116271000000001
#
# number of rings (size 3 to 8) (size 9 to 14) (size 15 to 20)
#    0.000    1.200    4.000    3.000    2.800    0.000 
#    0.000    8.000    0.000    0.000    0.000    0.000 
#    0.000    0.000    0.000    0.000    0.000    0.000 
#
# Total GULP energy -495540.345641 kJ/mol
# GULP energy per Si atom -12388.508641 kJ/mol
# Density = 2.406138 g / cm^3
# Si number density = 24.116271 Si / 1000 Ang^3
#
#
#
# Elastic Constant Matrix: (Units=GPa)
#
#
# Indices 1 2 3 4 5 6 
#
# 1 215.4165 45.8357 28.3052 0.0000 0.0000 0.0000
# 2 45.8357 24.8444 -0.0459 0.0000 0.0000 0.0000
# 3 28.3052 -0.0459 89.8159 0.0000 0.0000 0.0000
# 4 0.0000 0.0000 0.0000 23.9056 0.0000 0.0000
# 5 0.0000 0.0000 0.0000 0.0000 33.1535 0.0000
# 6 0.0000 0.0000 0.0000 0.0000 0.0000 33.3513
#
#
#
# Elastic Compliance Matrix: (Units=1/GPa)
#
#
# Indices 1 2 3 4 5 6 
#
# 1 0.008205 -0.015142 -0.002593 0.000000 0.000000 0.000000
# 2 -0.015142 0.068195 0.004807 0.000000 0.000000 0.000000
# 3 -0.002593 0.004807 0.011954 0.000000 0.000000 0.000000
# 4 0.000000 0.000000 0.000000 0.041831 0.000000 0.000000
# 5 0.000000 0.000000 0.000000 0.000000 0.030163 0.000000
# 6 0.000000 0.000000 0.000000 0.000000 0.000000 0.029984
#
#
# Mechanical properties :
#
#
# Convention : Reuss Voigt Hill
#
# Bulk Modulus (GPa) = 16.00097 53.14075 34.57086
# Shear Modulus (GPa) = 21.09522 35.14752 28.12137
#
# Velocity S-wave (km/s) = 2.96079 3.82176 3.41849
# Velocity P-wave (km/s) = 4.28226 6.44651 5.47244
#
# Compressibility (1/GPa) = 0.06249622
#
# Stress axis : x y z
#
# Youngs Moduli (GPa) = 121.87987 14.66385 83.65632
#
# Poissons Ratio (x) = 0.22204 0.21696
# Poissons Ratio (y) = 1.84550 -0.40212
# Poissons Ratio (z) = 0.31609 -0.07049
#
# Static dielectric constant tensor:
#      x y z
#    x 4.904090 0.000000 0.000000 
#    y 0.000000 4.351790 0.000000 
#    z 0.000000 0.000000 4.242140 
# 
# 
# High freq. dielectric constant tensor:
#      x y z
#    x 1.970280 0.000000 0.000000 
#    y 0.000000 1.907400 0.000000 
#    z 0.000000 0.000000 1.970300 
# 
# From -- ./inp_files/3810.got.cif
#   From: 2010.03.12/outbox.cif.g09.slc.cpg/sg61_2_cif.got.tgz:3810.got - 2010.04.10 19:05:03.
