data_PCOD8249306
_publ_section_title
;
Structure prediction by ZEFSAII (Michael W. Deem and Ramdas Pophale) SiO2 
 PCOD8249306
Probable space group: P B C A
;
_chemical_formula_sum "Si O2"
_cell_formula_units_Z 48
_cell_length_a 10.936511
_cell_length_b 14.994666
_cell_length_c 13.201228
_cell_angle_alpha 90.000000
_cell_angle_beta 90.000000
_cell_angle_gamma 90.000000
_cell_volume 2164.860530
_symmetry_space_group_name_H-M "P B C A"
_symmetry_group_IT_number 61
_symmetry_cell_setting 'orthorhombic'
loop_
_space_group_symop_operation_xyz
x,y,z
1/2-x,-y,1/2+z
1/2+x,1/2-y,-z
-x,1/2+y,1/2-z
-x,-y,-z
1/2+x,y,1/2-z
1/2-x,1/2+y,z
x,1/2-y,1/2+z
loop_
_atom_site_type_symbol
_atom_site_label
_atom_site_fract_x
_atom_site_fract_y
_atom_site_fract_z
Si Si1 0.297389 0.882847 0.971189
Si Si2 0.241677 0.430234 0.525666
Si Si3 0.044627 0.629765 0.134798
Si Si4 0.937448 0.836274 0.845770
Si Si5 0.786898 0.216184 0.835100
Si Si6 0.162233 0.775713 0.382576
O O1 0.441803 0.887513 0.950451
O O2 0.243055 0.814223 0.890308
O O3 0.262523 0.856295 0.086364
O O4 0.237463 0.981134 0.957070
O O5 0.344980 0.440979 0.614169
O O6 0.105984 0.409175 0.569637
O O7 0.294505 0.344393 0.466551
O O8 0.092901 0.732150 0.123208
O O9 0.998499 0.614038 0.249879
O O10 0.814943 0.789055 0.809273
O O11 0.023809 0.760427 0.895784
O O12 0.820802 0.174779 0.725706
#
# Coordination Sequence:
#
# PCOD8249306 Si02
#       6
#     8   8   8   8   8   8
#     4  12  23  41  69  96 132 167 224 262 330 387
#     4  11  25  41  69  99 130 172 218 269 330 387
#     4  10  21  41  67  95 128 171 216 268 323 384
#     4  10  21  41  67  92 131 172 214 264 325 391
#     4  10  22  40  65  96 128 176 212 268 328 383
#     4  11  23  42  66  93 132 173 216 270 325 385
#
# _framework density 22.172329000000001
#
# number of rings (size 3 to 8) (size 9 to 14) (size 15 to 20)
#    0.000    1.333    5.000    1.500    0.000    2.000 
#    0.000    1.667    0.000    0.000    0.000    0.000 
#    0.000    0.000    0.000    0.000    0.000    0.000 
#
# Total GULP energy -594797.635970 kJ/mol
# GULP energy per Si atom -12391.617416 kJ/mol
# Density = 2.212186 g / cm^3
# Si number density = 22.172329 Si / 1000 Ang^3
#
#
#
# Elastic Constant Matrix: (Units=GPa)
#
#
# Indices 1 2 3 4 5 6 
#
# 1 74.6603 16.0780 30.0273 0.0000 0.0000 0.0000
# 2 16.0780 93.0338 29.6038 0.0000 0.0000 0.0000
# 3 30.0273 29.6038 108.9088 0.0000 0.0000 0.0000
# 4 0.0000 0.0000 0.0000 10.7840 0.0000 0.0000
# 5 0.0000 0.0000 0.0000 0.0000 43.1881 0.0000
# 6 0.0000 0.0000 0.0000 0.0000 0.0000 18.2906
#
#
#
# Elastic Compliance Matrix: (Units=1/GPa)
#
#
# Indices 1 2 3 4 5 6 
#
# 1 0.015234 -0.001419 -0.003814 0.000000 0.000000 0.000000
# 2 -0.001419 0.011899 -0.002843 0.000000 0.000000 0.000000
# 3 -0.003814 -0.002843 0.011006 0.000000 0.000000 0.000000
# 4 0.000000 0.000000 0.000000 0.092730 0.000000 0.000000
# 5 0.000000 0.000000 0.000000 0.000000 0.023155 0.000000
# 6 0.000000 0.000000 0.000000 0.000000 0.000000 0.054673
#
#
# Mechanical properties :
#
#
# Convention : Reuss Voigt Hill
#
# Bulk Modulus (GPa) = 45.48349 47.55791 46.52070
# Shear Modulus (GPa) = 21.53523 27.84545 24.69034
#
# Velocity S-wave (km/s) = 3.11990 3.54766 3.34063
# Velocity P-wave (km/s) = 5.79107 6.18684 5.99222
#
# Compressibility (1/GPa) = 0.02198600
#
# Stress axis : x y z
#
# Youngs Moduli (GPa) = 65.64409 84.04282 90.85548
#
# Poissons Ratio (x) = 0.11925 0.34656
# Poissons Ratio (y) = 0.09314 0.25831
# Poissons Ratio (z) = 0.25039 0.23894
#
# Static dielectric constant tensor:
#      x y z
#    x 4.306090 0.000000 0.000000 
#    y 0.000000 3.595450 0.000000 
#    z 0.000000 0.000000 4.014070 
# 
# 
# High freq. dielectric constant tensor:
#      x y z
#    x 1.882890 0.000000 0.000000 
#    y 0.000000 1.833530 0.000000 
#    z 0.000000 0.000000 1.877970 
# 
# From -- ./inp_files/7470.got.cif
#   From: 2010.03.12/outbox.cif.g09.slc.cpg/sg61_4_cif.got.tgz:7470.got - 2010.04.10 19:05:03.
