data_PCOD8249223
_publ_section_title
;
Structure prediction by ZEFSAII (Michael W. Deem and Ramdas Pophale) SiO2 
 PCOD8249223
Probable space group: P B C A
;
_chemical_formula_sum "Si O2"
_cell_formula_units_Z 56
_cell_length_a 15.194041
_cell_length_b 28.919328
_cell_length_c 5.263841
_cell_angle_alpha 90.000000
_cell_angle_beta 90.000000
_cell_angle_gamma 90.000000
_cell_volume 2312.939396
_symmetry_space_group_name_H-M "P B C A"
_symmetry_group_IT_number 61
_symmetry_cell_setting 'orthorhombic'
loop_
_space_group_symop_operation_xyz
x,y,z
1/2-x,-y,1/2+z
1/2+x,1/2-y,-z
-x,1/2+y,1/2-z
-x,-y,-z
1/2+x,y,1/2-z
1/2-x,1/2+y,z
x,1/2-y,1/2+z
loop_
_atom_site_type_symbol
_atom_site_label
_atom_site_fract_x
_atom_site_fract_y
_atom_site_fract_z
Si Si1 0.257644 0.278003 0.616743
Si Si2 0.707650 0.116027 0.355094
Si Si3 0.305348 0.051347 0.476724
Si Si4 0.638519 0.458521 0.243228
Si Si5 0.035025 0.726083 0.132651
Si Si6 0.477770 0.629923 0.289922
Si Si7 0.038449 0.913772 0.233195
O O1 0.225070 0.246755 0.377834
O O2 0.222345 0.330256 0.575770
O O3 0.361572 0.282798 0.642410
O O4 0.679145 0.085909 0.598326
O O5 0.623101 0.113908 0.164013
O O6 0.794260 0.093537 0.224449
O O7 0.205558 0.034170 0.523123
O O8 0.360928 0.068122 0.723495
O O9 0.362808 0.007721 0.393744
O O10 0.536358 0.451032 0.315767
O O11 0.008239 0.765141 0.340067
O O12 0.980284 0.684280 0.253069
O O13 0.536761 0.623340 0.542535
O O14 0.518552 0.604636 0.047395
#
# Coordination Sequence:
#
# PCOD8249223 Si02
#       7
#     8   8   8   8   8   8   8
#     4  10  24  41  65  98 131 175 233 282 344 420
#     4  11  25  43  68  98 143 181 232 296 348 420
#     4  12  24  44  73  98 144 192 227 294 354 414
#     4  11  25  46  66 109 139 185 240 285 347 428
#     4  10  21  39  62  92 131 172 225 288 344 410
#     4  11  24  44  64 101 135 179 239 284 348 424
#     4  11  26  43  70 100 140 185 234 286 344 418
#
# _framework density 24.211617
#
# number of rings (size 3 to 8) (size 9 to 14) (size 15 to 20)
#    0.000    1.143    2.857    2.143    6.000    2.286 
#    0.000    2.857    0.000    0.000    0.000    0.000 
#    0.000    0.000    0.000    0.000    0.000    0.000 
#
# Total GULP energy -693929.118890 kJ/mol
# GULP energy per Si atom -12391.591409 kJ/mol
# Density = 2.415651 g / cm^3
# Si number density = 24.211617 Si / 1000 Ang^3
#
#
#
# Elastic Constant Matrix: (Units=GPa)
#
#
# Indices 1 2 3 4 5 6 
#
# 1 54.7535 -0.1647 10.2552 0.0000 0.0000 0.0000
# 2 -0.1647 118.7403 17.5207 0.0000 0.0000 0.0000
# 3 10.2552 17.5207 97.1301 0.0000 0.0000 0.0000
# 4 0.0000 0.0000 0.0000 22.4021 0.0000 0.0000
# 5 0.0000 0.0000 0.0000 0.0000 27.2802 0.0000
# 6 0.0000 0.0000 0.0000 0.0000 0.0000 31.4122
#
#
#
# Elastic Compliance Matrix: (Units=1/GPa)
#
#
# Indices 1 2 3 4 5 6 
#
# 1 0.018644 0.000325 -0.002027 0.000000 0.000000 0.000000
# 2 0.000325 0.008658 -0.001596 0.000000 0.000000 0.000000
# 3 -0.002027 -0.001596 0.010797 0.000000 0.000000 0.000000
# 4 0.000000 0.000000 0.000000 0.044639 0.000000 0.000000
# 5 0.000000 0.000000 0.000000 0.000000 0.036657 0.000000
# 6 0.000000 0.000000 0.000000 0.000000 0.000000 0.031835
#
#
# Mechanical properties :
#
#
# Convention : Reuss Voigt Hill
#
# Bulk Modulus (GPa) = 31.74292 36.20512 33.97402
# Shear Modulus (GPa) = 29.70412 32.41976 31.06194
#
# Velocity S-wave (km/s) = 3.50645 3.66323 3.58569
# Velocity P-wave (km/s) = 5.43439 5.73397 5.58619
#
# Compressibility (1/GPa) = 0.03150309
#
# Stress axis : x y z
#
# Youngs Moduli (GPa) = 53.63562 115.50419 92.61494
#
# Poissons Ratio (x) = -0.03754 0.18774
# Poissons Ratio (y) = -0.01743 0.14782
# Poissons Ratio (z) = 0.10873 0.18435
#
# Static dielectric constant tensor:
#      x y z
#    x 4.473000 0.000000 0.000000 
#    y 0.000000 4.323160 0.000000 
#    z 0.000000 0.000000 4.194770 
# 
# 
# High freq. dielectric constant tensor:
#      x y z
#    x 1.968220 0.000000 0.000000 
#    y 0.000000 1.963830 0.000000 
#    z 0.000000 0.000000 1.955320 
# 
# From -- ./inp_files/588.got.cif
#   From: 2010.03.12/outbox.cif.g09.slc.cpg/sg61_1_cif.got.tgz:588.got - 2010.04.10 19:05:03.
