data_PCOD8249686
_publ_section_title
;
Structure prediction by ZEFSAII (Michael W. Deem and Ramdas Pophale) SiO2 
 PCOD8249686
Probable space group: P B C A
;
_chemical_formula_sum "Si O2"
_cell_formula_units_Z 64
_cell_length_a 23.872874
_cell_length_b 9.304134
_cell_length_c 13.546981
_cell_angle_alpha 90.000000
_cell_angle_beta 90.000000
_cell_angle_gamma 90.000000
_cell_volume 3009.006903
_symmetry_space_group_name_H-M "P B C A"
_symmetry_group_IT_number 61
_symmetry_cell_setting 'orthorhombic'
loop_
_space_group_symop_operation_xyz
x,y,z
1/2-x,-y,1/2+z
1/2+x,1/2-y,-z
-x,1/2+y,1/2-z
-x,-y,-z
1/2+x,y,1/2-z
1/2-x,1/2+y,z
x,1/2-y,1/2+z
loop_
_atom_site_type_symbol
_atom_site_label
_atom_site_fract_x
_atom_site_fract_y
_atom_site_fract_z
Si Si1 0.763965 0.921582 0.210342
Si Si2 0.927592 0.394623 0.446181
Si Si3 0.859533 0.169278 0.551400
Si Si4 0.751085 0.822777 0.573917
Si Si5 0.352180 0.022807 0.737625
Si Si6 0.446917 0.655526 0.911114
Si Si7 0.369762 0.861084 0.015846
Si Si8 0.624450 0.307620 0.266739
O O1 0.758232 0.756194 0.178405
O O2 0.824250 0.922872 0.261767
O O3 0.759849 0.012407 0.107331
O O4 0.714504 0.964469 0.286545
O O5 0.909765 0.275332 0.525086
O O6 0.886322 0.414772 0.353870
O O7 0.929515 0.541740 0.506032
O O8 0.986445 0.339906 0.402741
O O9 0.802751 0.253971 0.520230
O O10 0.862787 0.121488 0.665695
O O11 0.866864 0.032123 0.481995
O O12 0.807154 0.802182 0.508507
O O13 0.364844 0.857849 0.765399
O O14 0.423871 0.621970 0.801238
O O15 0.416858 0.805188 0.939804
O O16 0.392778 0.803750 0.119811
#
# Coordination Sequence:
#
# PCOD8249686 Si02
#       8
#     8   8   8   8   8   8   8   8
#     4  11  20  39  68  98 138 177 213 278 338 410
#     4  11  27  45  73  97 136 186 230 290 347 408
#     4  11  25  43  67 106 139 173 230 289 336 415
#     4  11  21  40  66  99 144 174 213 279 343 406
#     4  11  23  45  66 101 140 177 225 283 349 409
#     4  11  24  50  68  97 135 184 235 285 348 400
#     4  12  24  42  70 102 131 187 231 272 354 411
#     4  12  24  42  73 100 140 181 229 282 341 417
#
# _framework density 21.269473999999999
#
# number of rings (size 3 to 8) (size 9 to 14) (size 15 to 20)
#    0.000    0.750    7.500    0.750    1.750    5.500 
#    2.250    0.000    0.000    0.000    0.000    0.000 
#    0.000    0.000    0.000    0.000    0.000    0.000 
#
# Total GULP energy -793239.480177 kJ/mol
# GULP energy per Si atom -12394.366878 kJ/mol
# Density = 2.122106 g / cm^3
# Si number density = 21.269474 Si / 1000 Ang^3
#
#
#
# Elastic Constant Matrix: (Units=GPa)
#
#
# Indices 1 2 3 4 5 6 
#
# 1 117.8181 46.1860 43.6948 0.0000 0.0000 0.0000
# 2 46.1860 73.2789 17.8154 0.0000 0.0000 0.0000
# 3 43.6948 17.8154 89.9257 0.0000 0.0000 0.0000
# 4 0.0000 0.0000 0.0000 28.3192 0.0000 0.0000
# 5 0.0000 0.0000 0.0000 0.0000 33.6547 0.0000
# 6 0.0000 0.0000 0.0000 0.0000 0.0000 27.3640
#
#
#
# Elastic Compliance Matrix: (Units=1/GPa)
#
#
# Indices 1 2 3 4 5 6 
#
# 1 0.013090 -0.007043 -0.004965 0.000000 0.000000 0.000000
# 2 -0.007043 0.018127 -0.000169 0.000000 0.000000 0.000000
# 3 -0.004965 -0.000169 0.013566 0.000000 0.000000 0.000000
# 4 0.000000 0.000000 0.000000 0.035312 0.000000 0.000000
# 5 0.000000 0.000000 0.000000 0.000000 0.029714 0.000000
# 6 0.000000 0.000000 0.000000 0.000000 0.000000 0.036544
#
#
# Mechanical properties :
#
#
# Convention : Reuss Voigt Hill
#
# Bulk Modulus (GPa) = 48.95069 55.15724 52.05396
# Shear Modulus (GPa) = 28.16635 29.42267 28.79451
#
# Velocity S-wave (km/s) = 3.64299 3.72335 3.68339
# Velocity P-wave (km/s) = 6.38433 6.66883 6.52813
#
# Compressibility (1/GPa) = 0.02042872
#
# Stress axis : x y z
#
# Youngs Moduli (GPa) = 76.39361 55.16708 73.71220
#
# Poissons Ratio (x) = 0.38856 0.36599
# Poissons Ratio (y) = 0.53806 0.01244
# Poissons Ratio (z) = 0.37930 0.00931
#
# Static dielectric constant tensor:
#      x y z
#    x 3.943630 0.000000 0.000000 
#    y 0.000000 3.935820 0.000000 
#    z 0.000000 0.000000 3.637360 
# 
# 
# High freq. dielectric constant tensor:
#      x y z
#    x 1.829050 0.000000 0.000000 
#    y 0.000000 1.840670 0.000000 
#    z 0.000000 0.000000 1.824640 
# 
# From -- ./inp_files/8506.got.cif
#   From: 2010.03.12/outbox.cif.g09.slc.cpg/sg61_5_cif.got.tgz:8506.got - 2010.04.10 19:05:03.
