data_PCOD8249571
_publ_section_title
;
Structure prediction by ZEFSAII (Michael W. Deem and Ramdas Pophale) SiO2 
 PCOD8249571
Probable space group: P B C A
;
_chemical_formula_sum "Si O2"
_cell_formula_units_Z 40
_cell_length_a 11.762520
_cell_length_b 10.140766
_cell_length_c 14.594376
_cell_angle_alpha 90.000000
_cell_angle_beta 90.000000
_cell_angle_gamma 90.000000
_cell_volume 1740.831222
_symmetry_space_group_name_H-M "P B C A"
_symmetry_group_IT_number 61
_symmetry_cell_setting 'orthorhombic'
loop_
_space_group_symop_operation_xyz
x,y,z
1/2-x,-y,1/2+z
1/2+x,1/2-y,-z
-x,1/2+y,1/2-z
-x,-y,-z
1/2+x,y,1/2-z
1/2-x,1/2+y,z
x,1/2-y,1/2+z
loop_
_atom_site_type_symbol
_atom_site_label
_atom_site_fract_x
_atom_site_fract_y
_atom_site_fract_z
Si Si1 0.911975 0.546400 0.715359
Si Si2 0.218524 0.602412 0.137703
Si Si3 0.105961 0.092417 0.985305
Si Si4 0.013318 0.364290 0.944806
Si Si5 0.418531 0.670787 0.253739
O O1 0.825696 0.516299 0.798100
O O2 0.848226 0.573539 0.618742
O O3 0.975158 0.683569 0.741835
O O4 0.002160 0.429211 0.696837
O O5 0.110429 0.680020 0.095763
O O6 0.296693 0.690128 0.204791
O O7 0.293088 0.549356 0.052876
O O8 0.066309 0.244942 0.004450
O O9 0.000000 0.000000 0.000000
O O10 0.094482 0.388695 0.856613
O O11 0.000000 0.500000 0.000000
#
# Coordination Sequence:
#
# PCOD8249571 Si02
#       5
#     8   8   8   8   8
#     4  10  24  45  69 106 139 185 245 296 362 440
#     4  11  25  42  74 100 148 191 232 299 376 417
#     4  11  24  44  71 108 140 184 244 298 356 441
#     4  10  26  46  68 104 142 187 245 298 357 443
#     4  10  23  44  69 101 142 185 240 298 359 434
#
# _framework density 22.977530000000002
#
# number of rings (size 3 to 8) (size 9 to 14) (size 15 to 20)
#    0.000    1.600    2.000    0.000   11.200    1.600 
#    3.600    0.000    0.000    0.000    0.000    0.000 
#    0.000    0.000    0.000    0.000    0.000    0.000 
#
# Total GULP energy -495609.468416 kJ/mol
# GULP energy per Si atom -12390.236710 kJ/mol
# Density = 2.292523 g / cm^3
# Si number density = 22.977530 Si / 1000 Ang^3
#
#
#
# Elastic Constant Matrix: (Units=GPa)
#
#
# Indices 1 2 3 4 5 6 
#
# 1 104.5997 34.2648 50.9255 0.0000 0.0000 0.0000
# 2 34.2648 124.8543 52.4914 0.0000 0.0000 0.0000
# 3 50.9255 52.4914 121.1622 0.0000 0.0000 0.0000
# 4 0.0000 0.0000 0.0000 35.1130 0.0000 0.0000
# 5 0.0000 0.0000 0.0000 0.0000 55.2702 0.0000
# 6 0.0000 0.0000 0.0000 0.0000 0.0000 26.7796
#
#
#
# Elastic Compliance Matrix: (Units=1/GPa)
#
#
# Indices 1 2 3 4 5 6 
#
# 1 0.012234 -0.001462 -0.004509 0.000000 0.000000 0.000000
# 2 -0.001462 0.009968 -0.003704 0.000000 0.000000 0.000000
# 3 -0.004509 -0.003704 0.011753 0.000000 0.000000 0.000000
# 4 0.000000 0.000000 0.000000 0.028479 0.000000 0.000000
# 5 0.000000 0.000000 0.000000 0.000000 0.018093 0.000000
# 6 0.000000 0.000000 0.000000 0.000000 0.000000 0.037342
#
#
# Mechanical properties :
#
#
# Convention : Reuss Voigt Hill
#
# Bulk Modulus (GPa) = 68.46554 69.55330 69.00942
# Shear Modulus (GPa) = 35.18959 37.62818 36.40888
#
# Velocity S-wave (km/s) = 3.91766 4.05113 3.98495
# Velocity P-wave (km/s) = 7.09404 7.22620 7.16043
#
# Compressibility (1/GPa) = 0.01460589
#
# Stress axis : x y z
#
# Youngs Moduli (GPa) = 81.73718 100.32354 85.08368
#
# Poissons Ratio (x) = 0.14667 0.38363
# Poissons Ratio (y) = 0.11950 0.31514
# Poissons Ratio (z) = 0.36854 0.37159
#
# Static dielectric constant tensor:
#      x y z
#    x 4.076790 0.000000 0.000000 
#    y 0.000000 4.041980 0.000000 
#    z 0.000000 0.000000 4.651080 
# 
# 
# High freq. dielectric constant tensor:
#      x y z
#    x 1.881350 0.000000 0.000000 
#    y 0.000000 1.899480 0.000000 
#    z 0.000000 0.000000 1.932820 
# 
# From -- ./inp_files/7728.got.cif
#   From: 2010.03.12/outbox.cif.g09.slc.cpg/sg61_4_cif.got.tgz:7728.got - 2010.04.10 19:05:03.
