data_PCOD8249377
_publ_section_title
;
Structure prediction by ZEFSAII (Michael W. Deem and Ramdas Pophale) SiO2 
 PCOD8249377
Probable space group: P B C A
;
_chemical_formula_sum "Si O2"
_cell_formula_units_Z 32
_cell_length_a 9.738290
_cell_length_b 8.784586
_cell_length_c 17.348351
_cell_angle_alpha 90.000000
_cell_angle_beta 90.000000
_cell_angle_gamma 90.000000
_cell_volume 1484.096711
_symmetry_space_group_name_H-M "P B C A"
_symmetry_group_IT_number 61
_symmetry_cell_setting 'orthorhombic'
loop_
_space_group_symop_operation_xyz
x,y,z
1/2-x,-y,1/2+z
1/2+x,1/2-y,-z
-x,1/2+y,1/2-z
-x,-y,-z
1/2+x,y,1/2-z
1/2-x,1/2+y,z
x,1/2-y,1/2+z
loop_
_atom_site_type_symbol
_atom_site_label
_atom_site_fract_x
_atom_site_fract_y
_atom_site_fract_z
Si Si1 0.820329 0.906467 0.458082
Si Si2 0.847981 0.199146 0.707877
Si Si3 0.620279 0.484530 0.287089
Si Si4 0.890899 0.210295 0.536017
O O1 0.815896 0.974292 0.372409
O O2 0.674963 0.825567 0.474360
O O3 0.943099 0.782219 0.467852
O O4 0.842893 0.038524 0.520124
O O5 0.878044 0.339857 0.763671
O O6 0.705256 0.121008 0.729355
O O7 0.838466 0.258710 0.620451
O O8 0.964392 0.071090 0.715219
#
# Coordination Sequence:
#
# PCOD8249377 Si02
#       4
#     8   8   8   8
#     4  10  22  40  60  88 120 154 197 246 295 354
#     4  11  23  40  62  91 122 159 201 247 299 358
#     4  11  23  39  62  89 122 159 201 248 300 356
#     4  10  22  39  60  87 120 155 197 243 294 351
#
# _framework density 21.561938000000001
#
# number of rings (size 3 to 8) (size 9 to 14) (size 15 to 20)
#    0.000    1.500    0.000    4.500    0.000    9.000 
#    0.000    0.000    0.000    0.000    0.000    0.000 
#    0.000    0.000    0.000    0.000    0.000    0.000 
#
# Total GULP energy -397012.692386 kJ/mol
# GULP energy per Si atom -12406.646637 kJ/mol
# Density = 2.151286 g / cm^3
# Si number density = 21.561938 Si / 1000 Ang^3
#
#
#
# Elastic Constant Matrix: (Units=GPa)
#
#
# Indices 1 2 3 4 5 6 
#
# 1 31.7304 4.8489 35.5166 0.0000 0.0000 0.0000
# 2 4.8489 58.5768 16.3613 0.0000 0.0000 0.0000
# 3 35.5166 16.3613 107.6006 0.0000 0.0000 0.0000
# 4 0.0000 0.0000 0.0000 37.3545 0.0000 0.0000
# 5 0.0000 0.0000 0.0000 0.0000 33.2858 0.0000
# 6 0.0000 0.0000 0.0000 0.0000 0.0000 27.8631
#
#
#
# Elastic Compliance Matrix: (Units=1/GPa)
#
#
# Indices 1 2 3 4 5 6 
#
# 1 0.049996 0.000492 -0.016577 0.000000 0.000000 0.000000
# 2 0.000492 0.017834 -0.002874 0.000000 0.000000 0.000000
# 3 -0.016577 -0.002874 0.015202 0.000000 0.000000 0.000000
# 4 0.000000 0.000000 0.000000 0.026771 0.000000 0.000000
# 5 0.000000 0.000000 0.000000 0.000000 0.030043 0.000000
# 6 0.000000 0.000000 0.000000 0.000000 0.000000 0.035890
#
#
# Mechanical properties :
#
#
# Convention : Reuss Voigt Hill
#
# Bulk Modulus (GPa) = 22.16671 34.59570 28.38121
# Shear Modulus (GPa) = 21.86348 29.11274 25.48811
#
# Velocity S-wave (km/s) = 3.18777 3.67848 3.44188
# Velocity P-wave (km/s) = 4.88385 5.84134 5.38392
#
# Compressibility (1/GPa) = 0.04511269
#
# Stress axis : x y z
#
# Youngs Moduli (GPa) = 20.00168 56.07379 65.77889
#
# Poissons Ratio (x) = -0.02757 1.09044
# Poissons Ratio (y) = -0.00983 0.18905
# Poissons Ratio (z) = 0.33157 0.16116
#
# Static dielectric constant tensor:
#      x y z
#    x 3.935880 0.000000 0.000000 
#    y 0.000000 3.672370 0.000000 
#    z 0.000000 0.000000 3.976890 
# 
# 
# High freq. dielectric constant tensor:
#      x y z
#    x 1.848090 0.000000 0.000000 
#    y 0.000000 1.841030 0.000000 
#    z 0.000000 0.000000 1.858120 
# 
# From -- ./inp_files/1661.got.cif
#   From: 2010.03.12/outbox.cif.g09.slc.cpg/sg61_1_cif.got.tgz:1661.got - 2010.04.10 19:05:03.
