data_PCOD8249273
_publ_section_title
;
Structure prediction by ZEFSAII (Michael W. Deem and Ramdas Pophale) SiO2 
 PCOD8249273
Probable space group: P B C A
;
_chemical_formula_sum "Si O2"
_cell_formula_units_Z 48
_cell_length_a 9.917591
_cell_length_b 10.331901
_cell_length_c 20.891233
_cell_angle_alpha 90.000000
_cell_angle_beta 90.000000
_cell_angle_gamma 90.000000
_cell_volume 2140.673846
_symmetry_space_group_name_H-M "P B C A"
_symmetry_group_IT_number 61
_symmetry_cell_setting 'orthorhombic'
loop_
_space_group_symop_operation_xyz
x,y,z
1/2-x,-y,1/2+z
1/2+x,1/2-y,-z
-x,1/2+y,1/2-z
-x,-y,-z
1/2+x,y,1/2-z
1/2-x,1/2+y,z
x,1/2-y,1/2+z
loop_
_atom_site_type_symbol
_atom_site_label
_atom_site_fract_x
_atom_site_fract_y
_atom_site_fract_z
Si Si1 0.116644 0.534477 0.592686
Si Si2 0.587608 0.339945 0.015594
Si Si3 0.568331 0.348728 0.804721
Si Si4 0.233052 0.816937 0.811856
Si Si5 0.200711 0.934806 0.390181
Si Si6 0.903246 0.640500 0.913654
O O1 0.052232 0.426102 0.546273
O O2 0.080766 0.493007 0.665176
O O3 0.277064 0.544667 0.588776
O O4 0.032548 0.661514 0.569508
O O5 0.727219 0.394557 0.043966
O O6 0.599345 0.196455 0.986226
O O7 0.658891 0.339835 0.742599
O O8 0.415518 0.329092 0.782010
O O9 0.617202 0.246581 0.858001
O O10 0.247466 0.672451 0.838824
O O11 0.253351 0.922653 0.868108
O O12 0.040560 0.937265 0.401442
#
# Coordination Sequence:
#
# PCOD8249273 Si02
#       6
#     8   8   8   8   8   8
#     4  10  21  40  66  90 132 168 218 266 329 384
#     4  10  21  41  66  92 132 174 208 271 332 381
#     4  10  24  43  62  93 129 174 216 271 329 378
#     4  11  26  44  67  92 133 174 216 273 320 394
#     4  11  25  44  65  98 133 171 218 268 333 382
#     4  10  23  40  65  97 128 168 222 269 319 399
#
# _framework density 22.422846
#
# number of rings (size 3 to 8) (size 9 to 14) (size 15 to 20)
#    0.000    1.667    1.667    1.000    9.333    3.333 
#    3.000    0.000    0.000    0.000    0.000    0.000 
#    0.000    0.000    0.000    0.000    0.000    0.000 
#
# Total GULP energy -595106.129415 kJ/mol
# GULP energy per Si atom -12398.044363 kJ/mol
# Density = 2.237181 g / cm^3
# Si number density = 22.422846 Si / 1000 Ang^3
#
#
#
# Elastic Constant Matrix: (Units=GPa)
#
#
# Indices 1 2 3 4 5 6 
#
# 1 109.6185 7.7160 9.3862 0.0000 0.0000 0.0000
# 2 7.7160 31.3124 -11.4495 0.0000 0.0000 0.0000
# 3 9.3862 -11.4495 43.0318 0.0000 0.0000 0.0000
# 4 0.0000 0.0000 0.0000 15.9902 0.0000 0.0000
# 5 0.0000 0.0000 0.0000 0.0000 50.7831 0.0000
# 6 0.0000 0.0000 0.0000 0.0000 0.0000 30.7301
#
#
#
# Elastic Compliance Matrix: (Units=1/GPa)
#
#
# Indices 1 2 3 4 5 6 
#
# 1 0.009626 -0.003478 -0.003025 0.000000 0.000000 0.000000
# 2 -0.003478 0.036635 0.010506 0.000000 0.000000 0.000000
# 3 -0.003025 0.010506 0.026694 0.000000 0.000000 0.000000
# 4 0.000000 0.000000 0.000000 0.062538 0.000000 0.000000
# 5 0.000000 0.000000 0.000000 0.000000 0.019692 0.000000
# 6 0.000000 0.000000 0.000000 0.000000 0.000000 0.032541
#
#
# Mechanical properties :
#
#
# Convention : Reuss Voigt Hill
#
# Bulk Modulus (GPa) = 12.35168 21.69647 17.02407
# Shear Modulus (GPa) = 24.18868 31.38801 27.78835
#
# Velocity S-wave (km/s) = 3.28800 3.74548 3.52417
# Velocity P-wave (km/s) = 4.46487 5.32934 4.91614
#
# Compressibility (1/GPa) = 0.08096063
#
# Stress axis : x y z
#
# Youngs Moduli (GPa) = 103.88074 27.29628 37.46176
#
# Poissons Ratio (x) = 0.09495 0.11333
# Poissons Ratio (y) = 0.36133 -0.39358
# Poissons Ratio (z) = 0.31426 -0.28678
#
# Static dielectric constant tensor:
#      x y z
#    x 4.027770 0.000000 0.000000 
#    y 0.000000 4.011520 0.000000 
#    z 0.000000 0.000000 3.999840 
# 
# 
# High freq. dielectric constant tensor:
#      x y z
#    x 1.896470 0.000000 0.000000 
#    y 0.000000 1.867030 0.000000 
#    z 0.000000 0.000000 1.880830 
# 
# From -- ./inp_files/10837.got.cif
#   From: 2010.03.12/outbox.cif.g09.slc.cpg/sg61_6_cif.got.tgz:10837.got - 2010.04.10 19:05:03.
