data_PCOD8250582
_publ_section_title
;
Structure prediction by ZEFSAII (Michael W. Deem and Ramdas Pophale) SiO2 
 PCOD8250582
Probable space group: P N M A
;
_chemical_formula_sum "Si O2"
_cell_formula_units_Z 40
_cell_length_a 8.237779
_cell_length_b 26.105747
_cell_length_c 8.859320
_cell_angle_alpha 90.000000
_cell_angle_beta 90.000000
_cell_angle_gamma 90.000000
_cell_volume 1905.226661
_symmetry_space_group_name_H-M "P N M A"
_symmetry_group_IT_number 62
_symmetry_cell_setting 'orthorhombic'
loop_
_space_group_symop_operation_xyz
x,y,z
1/2-x,-y,1/2+z
1/2+x,1/2-y,1/2-z
-x,1/2+y,-z
-x,-y,-z
1/2+x,y,1/2-z
1/2-x,1/2+y,1/2+z
x,1/2-y,z
loop_
_atom_site_type_symbol
_atom_site_label
_atom_site_fract_x
_atom_site_fract_y
_atom_site_fract_z
Si Si1 0.658529 0.645061 0.128024
Si Si2 0.789795 0.549469 0.957945
Si Si3 0.689621 0.750000 0.454381
Si Si4 0.213937 0.356175 0.542204
Si Si5 0.660028 0.950947 0.635257
Si Si6 0.187743 0.250000 0.876013
O O1 0.471556 0.639668 0.089004
O O2 0.673744 0.640591 0.308847
O O3 0.725246 0.698851 0.061836
O O4 0.760951 0.600129 0.053564
O O5 0.671167 0.546615 0.815330
O O6 0.972510 0.550194 0.902174
O O7 0.753966 0.500410 0.062387
O O8 0.742669 0.801994 0.541183
O O9 0.499462 0.750000 0.420553
O O10 0.800511 0.750000 0.304168
O O11 0.251422 0.400563 0.424941
#
# Coordination Sequence:
#
# PCOD8250582 Si02
#       6
#     8   8   4   8   8   4
#     4  11  21  36  59  87 119 154 194 238 286 338
#     4  11  24  41  61  86 116 151 192 237 288 344
#     4  10  18  32  55  84 117 152 193 236 282 336
#     4  11  21  36  59  87 119 154 194 238 286 338
#     4  11  24  41  61  86 116 151 192 237 288 344
#     4  10  18  32  55  84 117 152 193 236 282 336
#
# _framework density 20.994876000000001
#
# number of rings (size 3 to 8) (size 9 to 14) (size 15 to 20)
#    0.000    1.200    0.000   10.200    0.000    6.400 
#    0.000    1.000    0.000    0.000    0.000    0.000 
#    0.000    0.000    0.000    0.000    0.000    0.000 
#
# Total GULP energy -496125.695371 kJ/mol
# GULP energy per Si atom -12403.142384 kJ/mol
# Density = 2.094709 g / cm^3
# Si number density = 20.994876 Si / 1000 Ang^3
#
#
#
# Elastic Constant Matrix: (Units=GPa)
#
#
# Indices 1 2 3 4 5 6 
#
# 1 45.8869 4.5708 -15.1783 0.0000 0.0000 0.0000
# 2 4.5708 183.4958 35.7627 0.0000 0.0000 0.0000
# 3 -15.1783 35.7627 51.7800 0.0000 0.0000 0.0000
# 4 0.0000 0.0000 0.0000 27.7530 0.0000 0.0000
# 5 0.0000 0.0000 0.0000 0.0000 28.7412 0.0000
# 6 0.0000 0.0000 0.0000 0.0000 0.0000 32.4244
#
#
#
# Elastic Compliance Matrix: (Units=1/GPa)
#
#
# Indices 1 2 3 4 5 6 
#
# 1 0.024993 -0.002369 0.008963 0.000000 0.000000 0.000000
# 2 -0.002369 0.006522 -0.005199 0.000000 0.000000 0.000000
# 3 0.008963 -0.005199 0.025531 0.000000 0.000000 0.000000
# 4 0.000000 0.000000 0.000000 0.036032 0.000000 0.000000
# 5 0.000000 0.000000 0.000000 0.000000 0.034793 0.000000
# 6 0.000000 0.000000 0.000000 0.000000 0.000000 0.030841
#
#
# Mechanical properties :
#
#
# Convention : Reuss Voigt Hill
#
# Bulk Modulus (GPa) = 16.71272 36.83035 26.77154
# Shear Modulus (GPa) = 28.43030 34.85088 31.64059
#
# Velocity S-wave (km/s) = 3.68388 4.07869 3.88630
# Velocity P-wave (km/s) = 5.10610 6.30568 5.73733
#
# Compressibility (1/GPa) = 0.05983468
#
# Stress axis : x y z
#
# Youngs Moduli (GPa) = 40.01051 153.32659 39.16869
#
# Poissons Ratio (x) = 0.36329 -0.35106
# Poissons Ratio (y) = 0.09480 0.20364
# Poissons Ratio (z) = -0.35861 0.79716
#
# Static dielectric constant tensor:
#      x y z
#    x 3.778410 0.000000 0.000000 
#    y 0.000000 4.528590 0.000000 
#    z 0.000000 0.000000 3.688880 
# 
# 
# High freq. dielectric constant tensor:
#      x y z
#    x 1.839330 0.000000 0.000000 
#    y 0.000000 1.851960 0.000000 
#    z 0.000000 0.000000 1.784440 
# 
# From -- ./inp_files/4364.got.cif
#   From: 2010.03.12/outbox.cif.g09.slc.cpg/sg62_3_cif.got.tgz:4364.got - 2010.04.10 19:12:36.
