data_PCOD8250819
_publ_section_title
;
Structure prediction by ZEFSAII (Michael W. Deem and Ramdas Pophale) SiO2 
 PCOD8250819
Probable space group: P N M A
;
_chemical_formula_sum "Si O2"
_cell_formula_units_Z 64
_cell_length_a 23.575048
_cell_length_b 8.960593
_cell_length_c 18.879043
_cell_angle_alpha 90.000000
_cell_angle_beta 90.000000
_cell_angle_gamma 90.000000
_cell_volume 3988.130060
_symmetry_space_group_name_H-M "P N M A"
_symmetry_group_IT_number 62
_symmetry_cell_setting 'orthorhombic'
loop_
_space_group_symop_operation_xyz
x,y,z
1/2-x,-y,1/2+z
1/2+x,1/2-y,1/2-z
-x,1/2+y,-z
-x,-y,-z
1/2+x,y,1/2-z
1/2-x,1/2+y,1/2+z
x,1/2-y,z
loop_
_atom_site_type_symbol
_atom_site_label
_atom_site_fract_x
_atom_site_fract_y
_atom_site_fract_z
Si Si1 0.748034 0.074497 0.498509
Si Si2 0.830836 0.576338 0.777157
Si Si3 0.882358 0.926608 0.004360
Si Si4 0.835531 0.423142 0.237846
Si Si5 0.063832 0.574357 0.859611
Si Si6 0.562521 0.426190 0.360110
Si Si7 0.731282 0.078851 0.138932
Si Si8 0.771249 0.926415 0.356442
O O1 0.754030 0.250000 0.488138
O O2 0.682769 0.021821 0.500467
O O3 0.778116 0.026387 0.571555
O O4 0.780095 0.992854 0.434529
O O5 0.820201 0.750000 0.796346
O O6 0.894812 0.526430 0.796740
O O7 0.820214 0.548515 0.693906
O O8 0.787967 0.482612 0.824789
O O9 0.886398 0.750000 0.010605
O O10 0.912411 0.996548 0.071348
O O11 0.914156 0.988522 0.934662
O O12 0.829878 0.250000 0.258563
O O13 0.897749 0.464310 0.208621
O O14 0.790284 0.463057 0.176868
O O15 0.823622 0.519995 0.307654
O O16 0.064582 0.750000 0.874215
O O17 0.000503 0.512275 0.844292
O O18 0.559794 0.250000 0.365179
O O19 0.731921 0.250000 0.113653
O O20 0.771162 0.750000 0.360339
#
# Coordination Sequence:
#
# PCOD8250819 Si02
#       8
#     8   8   8   8   8   8   8   8
#     4  11  20  31  48  68  95 129 157 191 239 285
#     4   9  17  33  50  67  95 126 156 194 240 280
#     4  10  19  30  44  65  98 133 163 192 228 271
#     4   9  18  32  47  67  95 125 155 193 238 277
#     4  10  19  31  49  69  93 127 166 198 225 269
#     4   9  17  31  49  68  92 128 166 194 227 275
#     4   9  17  29  47  68  93 123 155 193 234 280
#     4  11  21  31  48  70  92 120 159 199 236 283
#
# _framework density 16.047619999999998
#
# number of rings (size 3 to 8) (size 9 to 14) (size 15 to 20)
#    0.000    2.250    2.500    2.625    0.000    3.000 
#    0.000    0.625    0.000    0.000    0.000    0.875 
#    0.000    0.000    0.000    0.000    0.000    0.000 
#
# Total GULP energy -793568.502315 kJ/mol
# GULP energy per Si atom -12399.507849 kJ/mol
# Density = 1.601109 g / cm^3
# Si number density = 16.047620 Si / 1000 Ang^3
#
#
#
# Elastic Constant Matrix: (Units=GPa)
#
#
# Indices 1 2 3 4 5 6 
#
# 1 87.2300 27.1109 57.3296 0.0000 0.0000 0.0000
# 2 27.1109 57.0324 48.0008 0.0000 0.0000 0.0000
# 3 57.3296 48.0008 118.3069 0.0000 0.0000 0.0000
# 4 0.0000 0.0000 0.0000 29.2935 0.0000 0.0000
# 5 0.0000 0.0000 0.0000 0.0000 23.5240 0.0000
# 6 0.0000 0.0000 0.0000 0.0000 0.0000 13.7110
#
#
#
# Elastic Compliance Matrix: (Units=1/GPa)
#
#
# Indices 1 2 3 4 5 6 
#
# 1 0.016934 -0.001736 -0.007501 0.000000 0.000000 0.000000
# 2 -0.001736 0.026804 -0.010034 0.000000 0.000000 0.000000
# 3 -0.007501 -0.010034 0.016159 0.000000 0.000000 0.000000
# 4 0.000000 0.000000 0.000000 0.034137 0.000000 0.000000
# 5 0.000000 0.000000 0.000000 0.000000 0.042510 0.000000
# 6 0.000000 0.000000 0.000000 0.000000 0.000000 0.072934
#
#
# Mechanical properties :
#
#
# Convention : Reuss Voigt Hill
#
# Bulk Modulus (GPa) = 46.83050 58.60576 52.71813
# Shear Modulus (GPa) = 19.59720 21.98092 20.78906
#
# Velocity S-wave (km/s) = 3.49834 3.70500 3.60316
# Velocity P-wave (km/s) = 6.75007 7.40958 7.08750
#
# Compressibility (1/GPa) = 0.02135360
#
# Stress axis : x y z
#
# Youngs Moduli (GPa) = 59.05422 37.30760 61.88602
#
# Poissons Ratio (x) = 0.06477 0.46423
# Poissons Ratio (y) = 0.10252 0.62096
# Poissons Ratio (z) = 0.44299 0.37434
#
# Static dielectric constant tensor:
#      x y z
#    x 3.205810 0.000000 0.000000 
#    y 0.000000 2.888690 0.000000 
#    z 0.000000 0.000000 3.060960 
# 
# 
# High freq. dielectric constant tensor:
#      x y z
#    x 1.594250 0.000000 0.000000 
#    y 0.000000 1.606090 0.000000 
#    z 0.000000 0.000000 1.612790 
# 
# From -- ./inp_files/24933.got.cif
#   From: 2010.03.12/outbox.cif.g09.slc.cpg/sg62_13_cif.got.tgz:24933.got - 2010.04.10 19:12:36.
