data_PCOD8250515
_publ_section_title
;
Structure prediction by ZEFSAII (Michael W. Deem and Ramdas Pophale) SiO2 
 PCOD8250515
Probable space group: P N M A
;
_chemical_formula_sum "Si O2"
_cell_formula_units_Z 64
_cell_length_a 19.112488
_cell_length_b 8.605550
_cell_length_c 23.336858
_cell_angle_alpha 90.000000
_cell_angle_beta 90.000000
_cell_angle_gamma 90.000000
_cell_volume 3838.294040
_symmetry_space_group_name_H-M "P N M A"
_symmetry_group_IT_number 62
_symmetry_cell_setting 'orthorhombic'
loop_
_space_group_symop_operation_xyz
x,y,z
1/2-x,-y,1/2+z
1/2+x,1/2-y,1/2-z
-x,1/2+y,-z
-x,-y,-z
1/2+x,y,1/2-z
1/2-x,1/2+y,1/2+z
x,1/2-y,z
loop_
_atom_site_type_symbol
_atom_site_label
_atom_site_fract_x
_atom_site_fract_y
_atom_site_fract_z
Si Si1 0.841442 0.569924 0.735917
Si Si2 0.365610 0.565563 0.436395
Si Si3 0.856210 0.429677 0.271214
Si Si4 0.758742 0.067848 0.840071
Si Si5 0.725630 0.067211 0.667325
Si Si6 0.349784 0.567314 0.564840
Si Si7 0.989028 0.431506 0.885168
Si Si8 0.494043 0.571962 0.736090
O O1 0.826104 0.750000 0.746932
O O2 0.814705 0.477787 0.791505
O O3 0.800509 0.513939 0.679094
O O4 0.923862 0.536564 0.727655
O O5 0.367245 0.750000 0.433946
O O6 0.306500 0.503905 0.392344
O O7 0.347638 0.504592 0.499697
O O8 0.442326 0.505771 0.418072
O O9 0.838767 0.250000 0.260152
O O10 0.816334 0.486704 0.328372
O O11 0.828437 0.528095 0.217664
O O12 0.939421 0.457943 0.277461
O O13 0.747490 0.250000 0.839441
O O14 0.786988 0.015914 0.901728
O O15 0.737741 0.250000 0.665299
O O16 0.337307 0.750000 0.567720
O O17 0.424214 0.529932 0.592369
O O18 0.975167 0.250000 0.896317
O O19 0.999122 0.458576 0.817849
O O20 0.493593 0.750000 0.713958
#
# Coordination Sequence:
#
# PCOD8250515 Si02
#       8
#     8   8   8   8   8   8   8   8
#     4  10  19  32  49  71  98 128 159 198 242 291
#     4   9  20  34  49  69  97 132 168 205 245 285
#     4  10  19  32  50  72  95 127 162 198 244 293
#     4  11  21  33  48  71  96 126 163 205 246 287
#     4  10  18  32  49  70  96 126 161 202 243 288
#     4  11  21  35  50  67  96 134 170 205 242 287
#     4  11  20  32  48  70  99 132 169 205 239 280
#     4  10  20  32  49  72 100 132 164 195 239 294
#
# _framework density 16.674074999999998
#
# number of rings (size 3 to 8) (size 9 to 14) (size 15 to 20)
#    0.000    1.750    2.500    4.875    0.000    1.000 
#    0.000    4.375    0.000    0.000    0.000    0.875 
#    0.000    0.000    0.000    0.000    0.000    0.000 
#
# Total GULP energy -793598.230374 kJ/mol
# GULP energy per Si atom -12399.972350 kJ/mol
# Density = 1.663612 g / cm^3
# Si number density = 16.674075 Si / 1000 Ang^3
#
#
#
# Elastic Constant Matrix: (Units=GPa)
#
#
# Indices 1 2 3 4 5 6 
#
# 1 121.8636 20.0311 44.9204 0.0000 0.0000 0.0000
# 2 20.0311 42.4124 9.8840 0.0000 0.0000 0.0000
# 3 44.9204 9.8840 72.0751 0.0000 0.0000 0.0000
# 4 0.0000 0.0000 0.0000 19.8120 0.0000 0.0000
# 5 0.0000 0.0000 0.0000 0.0000 23.9615 0.0000
# 6 0.0000 0.0000 0.0000 0.0000 0.0000 17.6348
#
#
#
# Elastic Compliance Matrix: (Units=1/GPa)
#
#
# Indices 1 2 3 4 5 6 
#
# 1 0.011213 -0.003788 -0.006469 0.000000 0.000000 0.000000
# 2 -0.003788 0.025636 -0.001155 0.000000 0.000000 0.000000
# 3 -0.006469 -0.001155 0.018065 0.000000 0.000000 0.000000
# 4 0.000000 0.000000 0.000000 0.050474 0.000000 0.000000
# 5 0.000000 0.000000 0.000000 0.000000 0.041734 0.000000
# 6 0.000000 0.000000 0.000000 0.000000 0.000000 0.056706
#
#
# Mechanical properties :
#
#
# Convention : Reuss Voigt Hill
#
# Bulk Modulus (GPa) = 31.16220 42.89133 37.02677
# Shear Modulus (GPa) = 21.06606 23.04937 22.05771
#
# Velocity S-wave (km/s) = 3.55829 3.72203 3.64108
# Velocity P-wave (km/s) = 5.96754 6.65211 6.31910
#
# Compressibility (1/GPa) = 0.03209016
#
# Stress axis : x y z
#
# Youngs Moduli (GPa) = 89.18099 39.00719 55.35715
#
# Poissons Ratio (x) = 0.14777 0.35811
# Poissons Ratio (y) = 0.33785 0.06391
# Poissons Ratio (z) = 0.57691 0.04504
#
# Static dielectric constant tensor:
#      x y z
#    x 3.361310 0.000000 0.000000 
#    y 0.000000 3.117410 0.000000 
#    z 0.000000 0.000000 3.149400 
# 
# 
# High freq. dielectric constant tensor:
#      x y z
#    x 1.641760 0.000000 0.000000 
#    y 0.000000 1.648460 0.000000 
#    z 0.000000 0.000000 1.610040 
# 
# From -- ./inp_files/30050.got.cif
#   From: 2010.03.12/outbox.cif.g09.slc.cpg/sg62_16_cif.got.tgz:30050.got - 2010.04.10 19:12:36.
