data_PCOD8250700
_publ_section_title
;
Structure prediction by ZEFSAII (Michael W. Deem and Ramdas Pophale) SiO2 
 PCOD8250700
Probable space group: P N M A
;
_chemical_formula_sum "Si O2"
_cell_formula_units_Z 64
_cell_length_a 15.561179
_cell_length_b 23.910307
_cell_length_c 8.690947
_cell_angle_alpha 90.000000
_cell_angle_beta 90.000000
_cell_angle_gamma 90.000000
_cell_volume 3233.662961
_symmetry_space_group_name_H-M "P N M A"
_symmetry_group_IT_number 62
_symmetry_cell_setting 'orthorhombic'
loop_
_space_group_symop_operation_xyz
x,y,z
1/2-x,-y,1/2+z
1/2+x,1/2-y,1/2-z
-x,1/2+y,-z
-x,-y,-z
1/2+x,y,1/2-z
1/2-x,1/2+y,1/2+z
x,1/2-y,z
loop_
_atom_site_type_symbol
_atom_site_label
_atom_site_fract_x
_atom_site_fract_y
_atom_site_fract_z
Si Si1 0.624593 0.981741 0.430376
Si Si2 0.916796 0.313485 0.139349
Si Si3 0.403220 0.622599 0.152162
Si Si4 0.233260 0.618078 0.973916
Si Si5 0.905356 0.813747 0.036350
Si Si6 0.040666 0.006541 0.755007
Si Si7 0.008863 0.605743 0.631060
Si Si8 0.335370 0.901043 0.678556
O O1 0.696319 0.933884 0.429364
O O2 0.556516 0.972077 0.291358
O O3 0.575380 0.976802 0.591687
O O4 0.672545 0.041049 0.414179
O O5 0.902190 0.250000 0.192481
O O6 0.836903 0.332783 0.034665
O O7 0.923803 0.351431 0.292741
O O8 0.001624 0.319863 0.038232
O O9 0.415486 0.665216 0.290226
O O10 0.399325 0.558068 0.206629
O O11 0.316241 0.639883 0.064853
O O12 0.484897 0.628251 0.037853
O O13 0.257362 0.602061 0.798476
O O14 0.873035 0.750000 0.035102
O O15 0.834215 0.850001 0.944018
O O16 0.044805 0.958202 0.623346
O O17 0.924907 0.601423 0.734693
#
# Coordination Sequence:
#
# PCOD8250700 Si02
#       8
#     8   8   8   8   8   8   8   8
#     4  10  19  33  59  83 111 152 192 226 271 334
#     4  10  21  40  62  79 105 151 198 236 277 331
#     4  11  22  35  58  91 119 144 181 235 292 335
#     4  11  23  35  56  88 120 147 182 238 289 338
#     4  10  21  40  63  80 106 153 198 234 280 341
#     4  10  18  35  59  83 114 152 189 226 273 340
#     4   9  19  36  57  84 110 145 191 228 273 335
#     4   9  20  36  54  82 114 149 186 225 282 343
#
# _framework density 19.791796000000001
#
# number of rings (size 3 to 8) (size 9 to 14) (size 15 to 20)
#    0.000    2.000    2.500    1.125    1.750    1.500 
#    0.000    5.000    0.000    0.000    0.000    0.000 
#    0.000    0.000    0.000    0.000    0.000    0.000 
#
# Total GULP energy -793606.818355 kJ/mol
# GULP energy per Si atom -12400.106537 kJ/mol
# Density = 1.974675 g / cm^3
# Si number density = 19.791796 Si / 1000 Ang^3
#
#
#
# Elastic Constant Matrix: (Units=GPa)
#
#
# Indices 1 2 3 4 5 6 
#
# 1 49.3460 33.6771 9.6210 0.0000 0.0000 0.0000
# 2 33.6771 109.0388 31.8294 0.0000 0.0000 0.0000
# 3 9.6210 31.8294 73.9753 0.0000 0.0000 0.0000
# 4 0.0000 0.0000 0.0000 25.4913 0.0000 0.0000
# 5 0.0000 0.0000 0.0000 0.0000 22.0054 0.0000
# 6 0.0000 0.0000 0.0000 0.0000 0.0000 17.2307
#
#
#
# Elastic Compliance Matrix: (Units=1/GPa)
#
#
# Indices 1 2 3 4 5 6 
#
# 1 0.025678 -0.007955 0.000083 0.000000 0.000000 0.000000
# 2 -0.007955 0.012953 -0.004539 0.000000 0.000000 0.000000
# 3 0.000083 -0.004539 0.015460 0.000000 0.000000 0.000000
# 4 0.000000 0.000000 0.000000 0.039229 0.000000 0.000000
# 5 0.000000 0.000000 0.000000 0.000000 0.045443 0.000000
# 6 0.000000 0.000000 0.000000 0.000000 0.000000 0.058036
#
#
# Mechanical properties :
#
#
# Convention : Reuss Voigt Hill
#
# Bulk Modulus (GPa) = 34.16474 42.51279 38.33877
# Shear Modulus (GPa) = 21.60980 23.42766 22.51873
#
# Velocity S-wave (km/s) = 3.30791 3.44423 3.37676
# Velocity P-wave (km/s) = 5.64706 6.11094 5.88357
#
# Compressibility (1/GPa) = 0.02926994
#
# Stress axis : x y z
#
# Youngs Moduli (GPa) = 38.94403 77.20308 64.68286
#
# Poissons Ratio (x) = 0.61415 -0.00538
# Poissons Ratio (y) = 0.30980 0.29357
# Poissons Ratio (z) = -0.00324 0.35040
#
# Static dielectric constant tensor:
#      x y z
#    x 3.491680 0.000000 0.000000 
#    y 0.000000 3.611930 0.000000 
#    z 0.000000 0.000000 3.612640 
# 
# 
# High freq. dielectric constant tensor:
#      x y z
#    x 1.754550 0.000000 0.000000 
#    y 0.000000 1.767490 0.000000 
#    z 0.000000 0.000000 1.765170 
# 
# From -- ./inp_files/8159.got.cif
#   From: 2010.03.12/outbox.cif.g09.slc.cpg/sg62_5_cif.got.tgz:8159.got - 2010.04.10 19:12:36.
