data_PCOD8250107
_publ_section_title
;
Structure prediction by ZEFSAII (Michael W. Deem and Ramdas Pophale) SiO2 
 PCOD8250107
Probable space group: P N M A
;
_chemical_formula_sum "Si O2"
_cell_formula_units_Z 48
_cell_length_a 9.694234
_cell_length_b 14.737363
_cell_length_c 17.198303
_cell_angle_alpha 90.000000
_cell_angle_beta 90.000000
_cell_angle_gamma 90.000000
_cell_volume 2457.077616
_symmetry_space_group_name_H-M "P N M A"
_symmetry_group_IT_number 62
_symmetry_cell_setting 'orthorhombic'
loop_
_space_group_symop_operation_xyz
x,y,z
1/2-x,-y,1/2+z
1/2+x,1/2-y,1/2-z
-x,1/2+y,-z
-x,-y,-z
1/2+x,y,1/2-z
1/2-x,1/2+y,1/2+z
x,1/2-y,z
loop_
_atom_site_type_symbol
_atom_site_label
_atom_site_fract_x
_atom_site_fract_y
_atom_site_fract_z
Si Si1 0.487614 0.905046 0.455687
Si Si2 0.206293 0.349721 0.572449
Si Si3 0.672762 0.969500 0.835826
Si Si4 0.567391 0.434642 0.063384
Si Si5 0.422147 0.649269 0.610300
Si Si6 0.660470 0.977435 0.652631
O O1 0.630751 0.857531 0.438094
O O2 0.401353 0.843068 0.516474
O O3 0.500000 0.000000 0.500000
O O4 0.408689 0.927486 0.375505
O O5 0.173542 0.250000 0.607761
O O6 0.157056 0.429118 0.629850
O O7 0.131495 0.353381 0.487808
O O8 0.552280 0.907065 0.874714
O O9 0.818093 0.923173 0.853325
O O10 0.661016 0.978350 0.744649
O O11 0.688223 0.478642 0.115002
O O12 0.500000 0.500000 0.000000
O O13 0.402570 0.750000 0.646537
O O14 0.576448 0.612530 0.626887
#
# Coordination Sequence:
#
# PCOD8250107 Si02
#       6
#     8   8   8   8   8   8
#     4  10  17  36  63  88 111 158 209 250 298 366
#     4  11  21  39  65  90 121 164 212 252 308 382
#     4  11  23  40  62  94 130 165 200 264 325 375
#     4  10  21  37  61  90 118 164 210 255 309 367
#     4  11  22  39  64  92 122 163 214 256 302 374
#     4  11  21  39  65  86 126 166 206 256 322 375
#
# _framework density 19.535401
#
# number of rings (size 3 to 8) (size 9 to 14) (size 15 to 20)
#    0.000    1.333    6.667    2.500    0.000    1.333 
#    0.000    3.333    0.000    1.000    0.000    0.000 
#    0.000    0.000    0.000    0.000    0.000    0.000 
#
# Total GULP energy -594673.718697 kJ/mol
# GULP energy per Si atom -12389.035806 kJ/mol
# Density = 1.949094 g / cm^3
# Si number density = 19.535401 Si / 1000 Ang^3
#
#
#
# Elastic Constant Matrix: (Units=GPa)
#
#
# Indices 1 2 3 4 5 6 
#
# 1 93.8494 19.8002 44.6343 0.0000 0.0000 0.0000
# 2 19.8002 97.1926 27.6719 0.0000 0.0000 0.0000
# 3 44.6343 27.6719 135.1253 0.0000 0.0000 0.0000
# 4 0.0000 0.0000 0.0000 11.1530 0.0000 0.0000
# 5 0.0000 0.0000 0.0000 0.0000 25.3733 0.0000
# 6 0.0000 0.0000 0.0000 0.0000 0.0000 8.3200
#
#
#
# Elastic Compliance Matrix: (Units=1/GPa)
#
#
# Indices 1 2 3 4 5 6 
#
# 1 0.012843 -0.001496 -0.003936 0.000000 0.000000 0.000000
# 2 -0.001496 0.011100 -0.001779 0.000000 0.000000 0.000000
# 3 -0.003936 -0.001779 0.009065 0.000000 0.000000 0.000000
# 4 0.000000 0.000000 0.000000 0.089662 0.000000 0.000000
# 5 0.000000 0.000000 0.000000 0.000000 0.039411 0.000000
# 6 0.000000 0.000000 0.000000 0.000000 0.000000 0.120192
#
#
# Mechanical properties :
#
#
# Convention : Reuss Voigt Hill
#
# Bulk Modulus (GPa) = 53.80274 56.70889 55.25582
# Shear Modulus (GPa) = 16.50762 24.57334 20.54048
#
# Velocity S-wave (km/s) = 2.91006 3.55052 3.24612
# Velocity P-wave (km/s) = 6.23636 6.77496 6.51123
#
# Compressibility (1/GPa) = 0.01858641
#
# Stress axis : x y z
#
# Youngs Moduli (GPa) = 77.86445 90.08935 110.31475
#
# Poissons Ratio (x) = 0.13475 0.43419
# Poissons Ratio (y) = 0.11647 0.19626
# Poissons Ratio (z) = 0.30647 0.16028
#
# Static dielectric constant tensor:
#      x y z
#    x 3.850420 0.000000 0.000000 
#    y 0.000000 3.434880 0.000000 
#    z 0.000000 0.000000 3.878140 
# 
# 
# High freq. dielectric constant tensor:
#      x y z
#    x 1.768070 0.000000 0.000000 
#    y 0.000000 1.732580 0.000000 
#    z 0.000000 0.000000 1.761440 
# 
# From -- ./inp_files/22198.got.cif
#   From: 2010.03.12/outbox.cif.g09.slc.cpg/sg62_12_cif.got.tgz:22198.got - 2010.04.10 19:12:36.
