data_PCOD8250395
_publ_section_title
;
Structure prediction by ZEFSAII (Michael W. Deem and Ramdas Pophale) SiO2 
 PCOD8250395
Probable space group: P N M A
;
_chemical_formula_sum "Si O2"
_cell_formula_units_Z 64
_cell_length_a 14.201545
_cell_length_b 17.790330
_cell_length_c 14.093854
_cell_angle_alpha 90.000000
_cell_angle_beta 90.000000
_cell_angle_gamma 90.000000
_cell_volume 3560.814638
_symmetry_space_group_name_H-M "P N M A"
_symmetry_group_IT_number 62
_symmetry_cell_setting 'orthorhombic'
loop_
_space_group_symop_operation_xyz
x,y,z
1/2-x,-y,1/2+z
1/2+x,1/2-y,1/2-z
-x,1/2+y,-z
-x,-y,-z
1/2+x,y,1/2-z
1/2-x,1/2+y,1/2+z
x,1/2-y,z
loop_
_atom_site_type_symbol
_atom_site_label
_atom_site_fract_x
_atom_site_fract_y
_atom_site_fract_z
Si Si1 0.245119 0.508357 0.880346
Si Si2 0.230406 0.589449 0.560269
Si Si3 0.367677 0.833122 0.694237
Si Si4 0.542978 0.834596 0.961667
Si Si5 0.453833 0.551741 0.814251
Si Si6 0.126769 0.331411 0.576018
Si Si7 0.253718 0.669722 0.888136
Si Si8 0.640932 0.027599 0.800700
O O1 0.355222 0.516537 0.850784
O O2 0.195711 0.591549 0.892604
O O3 0.186840 0.462663 0.802297
O O4 0.232141 0.464926 0.978381
O O5 0.312908 0.642443 0.599402
O O6 0.150153 0.643029 0.516891
O O7 0.191168 0.541586 0.647957
O O8 0.412154 0.750000 0.676011
O O9 0.443646 0.898103 0.718278
O O10 0.300793 0.828216 0.785446
O O11 0.538671 0.750000 0.918371
O O12 0.496810 0.894422 0.892625
O O13 0.486036 0.838161 0.061036
O O14 0.528324 0.485252 0.793333
O O15 0.152151 0.250000 0.621196
O O16 0.168517 0.337124 0.470182
O O17 0.164585 0.395885 0.644069
O O18 0.197428 0.750000 0.900939
#
# Coordination Sequence:
#
# PCOD8250395 Si02
#       8
#     8   8   8   8   8   8   8   8
#     4  11  20  35  52  80 110 139 180 225 264 319
#     4  11  20  31  52  79 108 142 177 221 271 324
#     4  10  18  33  50  74 110 145 171 210 274 322
#     4  10  18  30  51  83 111 134 170 220 279 328
#     4  10  19  33  53  80 109 142 169 226 271 324
#     4  10  18  32  53  77 107 140 173 222 273 321
#     4   9  16  28  48  73 101 135 169 207 263 317
#     4  11  21  34  54  81 106 141 186 217 271 324
#
# _framework density 17.973413999999998
#
# number of rings (size 3 to 8) (size 9 to 14) (size 15 to 20)
#    0.000    1.750    6.250    1.500    0.000    2.000 
#    0.000    2.500    0.000    0.750    0.000    0.000 
#    0.000    0.000    0.000    0.000    0.000    0.000 
#
# Total GULP energy -792917.135421 kJ/mol
# GULP energy per Si atom -12389.330241 kJ/mol
# Density = 1.793251 g / cm^3
# Si number density = 17.973414 Si / 1000 Ang^3
#
#
#
# Elastic Constant Matrix: (Units=GPa)
#
#
# Indices 1 2 3 4 5 6 
#
# 1 26.9263 21.9841 22.7518 0.0000 0.0000 0.0000
# 2 21.9841 90.2236 37.9763 0.0000 0.0000 0.0000
# 3 22.7518 37.9763 73.2906 0.0000 0.0000 0.0000
# 4 0.0000 0.0000 0.0000 -42.6578 0.0000 0.0000
# 5 0.0000 0.0000 0.0000 0.0000 18.6248 0.0000
# 6 0.0000 0.0000 0.0000 0.0000 0.0000 15.0223
#
#
#
# Elastic Compliance Matrix: (Units=1/GPa)
#
#
# Indices 1 2 3 4 5 6 
#
# 1 0.054377 -0.007858 -0.012809 0.000000 0.000000 0.000000
# 2 -0.007858 0.015311 -0.005494 0.000000 0.000000 0.000000
# 3 -0.012809 -0.005494 0.020467 0.000000 0.000000 0.000000
# 4 0.000000 0.000000 0.000000 -0.023442 0.000000 0.000000
# 5 0.000000 0.000000 0.000000 0.000000 0.053692 0.000000
# 6 0.000000 0.000000 0.000000 0.000000 0.000000 0.066568
#
#
# Mechanical properties :
#
#
# Convention : Reuss Voigt Hill
#
# Bulk Modulus (GPa) = 26.43158 39.54056 32.98607
# Shear Modulus (GPa) = 19.84868 5.37975 12.61422
#
# Velocity S-wave (km/s) = 3.32676 1.73196 2.65207
# Velocity P-wave (km/s) = 5.43087 5.10361 5.26978
#
# Compressibility (1/GPa) = 0.03783353
#
# Stress axis : x y z
#
# Youngs Moduli (GPa) = 18.39000 65.31309 48.85841
#
# Poissons Ratio (x) = 0.51326 0.62581
# Poissons Ratio (y) = 0.14452 0.26843
# Poissons Ratio (z) = 0.23555 0.35883
#
# Static dielectric constant tensor:
#      x y z
#    x 3.155680 0.000000 0.000000 
#    y 0.000000 3.722070 0.000000 
#    z 0.000000 0.000000 3.029300 
# 
# 
# High freq. dielectric constant tensor:
#      x y z
#    x 1.655140 0.000000 0.000000 
#    y 0.000000 1.710850 0.000000 
#    z 0.000000 0.000000 1.665460 
# 
# From -- ./inp_files/18273.got.cif
#   From: 2010.03.12/outbox.cif.g09.slc.cpg/sg62_10_cif.got.tgz:18273.got - 2010.04.10 19:12:36.
