data_PCOD8250857
_publ_section_title
;
Structure prediction by ZEFSAII (Michael W. Deem and Ramdas Pophale) SiO2 
 PCOD8250857
Probable space group: P N M A
;
_chemical_formula_sum "Si O2"
_cell_formula_units_Z 48
_cell_length_a 23.728578
_cell_length_b 8.602051
_cell_length_c 13.750957
_cell_angle_alpha 90.000000
_cell_angle_beta 90.000000
_cell_angle_gamma 90.000000
_cell_volume 2806.768862
_symmetry_space_group_name_H-M "P N M A"
_symmetry_group_IT_number 62
_symmetry_cell_setting 'orthorhombic'
loop_
_space_group_symop_operation_xyz
x,y,z
1/2-x,-y,1/2+z
1/2+x,1/2-y,1/2-z
-x,1/2+y,-z
-x,-y,-z
1/2+x,y,1/2-z
1/2-x,1/2+y,1/2+z
x,1/2-y,z
loop_
_atom_site_type_symbol
_atom_site_label
_atom_site_fract_x
_atom_site_fract_y
_atom_site_fract_z
Si Si1 0.333949 0.433380 0.217692
Si Si2 0.229485 0.566550 0.902891
Si Si3 0.438888 0.431830 0.100853
Si Si4 0.669038 0.568747 0.208477
Si Si5 0.775687 0.567166 0.891413
Si Si6 0.566192 0.070667 0.107552
O O1 0.333259 0.250000 0.217960
O O2 0.318326 0.491546 0.326197
O O3 0.395333 0.492173 0.183503
O O4 0.286067 0.491004 0.142450
O O5 0.238635 0.750000 0.895838
O O6 0.288728 0.486244 0.876570
O O7 0.208552 0.518680 0.009039
O O8 0.430333 0.250000 0.076458
O O9 0.501802 0.463621 0.139447
O O10 0.425726 0.529079 0.004918
O O11 0.676970 0.750000 0.227191
O O12 0.679419 0.478030 0.308958
O O13 0.605551 0.534339 0.174982
O O14 0.777851 0.750000 0.909275
O O15 0.582174 0.250000 0.122543
#
# Coordination Sequence:
#
# PCOD8250857 Si02
#       6
#     8   8   8   8   8   8
#     4   8  16  30  48  69  94 124 154 188 232 285
#     4  10  19  32  50  73  99 125 158 198 241 290
#     4   9  17  31  50  71  97 129 160 192 240 297
#     4  11  21  33  49  69  97 132 166 200 240 283
#     4  10  19  32  50  73 100 127 158 196 241 292
#     4  10  19  30  47  72  99 126 160 202 242 286
#
# _framework density 17.101516
#
# number of rings (size 3 to 8) (size 9 to 14) (size 15 to 20)
#    0.000    2.333    0.000    5.000    0.000    2.000 
#    0.000    4.167    0.000    1.000    0.000    0.000 
#    0.000    0.000    0.000    0.000    0.000    0.000 
#
# Total GULP energy -595183.541939 kJ/mol
# GULP energy per Si atom -12399.657124 kJ/mol
# Density = 1.706259 g / cm^3
# Si number density = 17.101516 Si / 1000 Ang^3
#
#
#
# Elastic Constant Matrix: (Units=GPa)
#
#
# Indices 1 2 3 4 5 6 
#
# 1 107.5259 20.0588 49.8182 0.0000 0.0000 0.0000
# 2 20.0588 47.3508 11.8836 0.0000 0.0000 0.0000
# 3 49.8182 11.8836 95.4431 0.0000 0.0000 0.0000
# 4 0.0000 0.0000 0.0000 28.3211 0.0000 0.0000
# 5 0.0000 0.0000 0.0000 0.0000 25.4009 0.0000
# 6 0.0000 0.0000 0.0000 0.0000 0.0000 20.7263
#
#
#
# Elastic Compliance Matrix: (Units=1/GPa)
#
#
# Indices 1 2 3 4 5 6 
#
# 1 0.012930 -0.003906 -0.006263 0.000000 0.000000 0.000000
# 2 -0.003906 0.022980 -0.000823 0.000000 0.000000 0.000000
# 3 -0.006263 -0.000823 0.013849 0.000000 0.000000 0.000000
# 4 0.000000 0.000000 0.000000 0.035309 0.000000 0.000000
# 5 0.000000 0.000000 0.000000 0.000000 0.039369 0.000000
# 6 0.000000 0.000000 0.000000 0.000000 0.000000 0.048248
#
#
# Mechanical properties :
#
#
# Convention : Reuss Voigt Hill
#
# Bulk Modulus (GPa) = 36.00132 45.98234 40.99183
# Shear Modulus (GPa) = 24.51862 26.12694 25.32278
#
# Velocity S-wave (km/s) = 3.79054 3.91289 3.85220
# Velocity P-wave (km/s) = 6.34467 6.88190 6.61874
#
# Compressibility (1/GPa) = 0.02777676
#
# Stress axis : x y z
#
# Youngs Moduli (GPa) = 77.33705 43.51616 72.20781
#
# Poissons Ratio (x) = 0.16996 0.45223
# Poissons Ratio (y) = 0.30206 0.05939
# Poissons Ratio (z) = 0.48436 0.03579
#
# Static dielectric constant tensor:
#      x y z
#    x 3.347750 0.000000 0.000000 
#    y 0.000000 3.129860 0.000000 
#    z 0.000000 0.000000 3.203410 
# 
# 
# High freq. dielectric constant tensor:
#      x y z
#    x 1.649590 0.000000 0.000000 
#    y 0.000000 1.659540 0.000000 
#    z 0.000000 0.000000 1.649630 
# 
# From -- ./inp_files/15118.got.cif
#   From: 2010.03.12/outbox.cif.g09.slc.cpg/sg62_8_cif.got.tgz:15118.got - 2010.04.10 19:12:36.
