data_PCOD8250241
_publ_section_title
;
Structure prediction by ZEFSAII (Michael W. Deem and Ramdas Pophale) SiO2 
 PCOD8250241
Probable space group: P N M A
;
_chemical_formula_sum "Si O2"
_cell_formula_units_Z 40
_cell_length_a 5.184990
_cell_length_b 12.074274
_cell_length_c 39.728178
_cell_angle_alpha 90.000000
_cell_angle_beta 90.000000
_cell_angle_gamma 90.000000
_cell_volume 2487.182184
_symmetry_space_group_name_H-M "P N M A"
_symmetry_group_IT_number 62
_symmetry_cell_setting 'orthorhombic'
loop_
_space_group_symop_operation_xyz
x,y,z
1/2-x,-y,1/2+z
1/2+x,1/2-y,1/2-z
-x,1/2+y,-z
-x,-y,-z
1/2+x,y,1/2-z
1/2-x,1/2+y,1/2+z
x,1/2-y,z
loop_
_atom_site_type_symbol
_atom_site_label
_atom_site_fract_x
_atom_site_fract_y
_atom_site_fract_z
Si Si1 0.237843 0.879144 0.024790
Si Si2 0.727294 0.882116 0.769445
Si Si3 0.238048 0.618405 0.884859
Si Si4 0.262947 0.381548 0.154814
Si Si5 0.737186 0.497008 0.044201
O O1 0.279139 0.750000 0.030122
O O2 0.461334 0.943139 0.044826
O O3 0.961100 0.912723 0.039542
O O4 0.252328 0.906224 0.985277
O O5 0.475922 0.927327 0.750317
O O6 0.728083 0.750000 0.770043
O O7 0.729492 0.929575 0.807355
O O8 0.239769 0.750000 0.888592
O O9 0.491370 0.574550 0.865787
O O10 0.221083 0.567114 0.921469
O O11 0.994385 0.576465 0.863443
O O12 0.268083 0.250000 0.156371
#
# Coordination Sequence:
#
# PCOD8250241 Si02
#       5
#     8   8   8   8   8
#     4  10  20  34  49  67  89 111 145 185 218 260
#     4   9  15  23  35  51  74 106 146 183 208 238
#     4  10  18  29  43  61  87 114 147 185 218 254
#     4   9  17  26  38  57  81 112 147 183 216 247
#     4  10  20  32  49  68  86 115 147 178 223 263
#
# _framework density 16.082457999999999
#
# number of rings (size 3 to 8) (size 9 to 14) (size 15 to 20)
#    0.000    2.400    0.000    3.600    0.000    4.800 
#    0.000    6.000    0.000    0.000    0.000    0.000 
#    0.000    0.000    0.000    0.000    0.000  252.000 
#
# Total GULP energy -496044.106298 kJ/mol
# GULP energy per Si atom -12401.102657 kJ/mol
# Density = 1.604585 g / cm^3
# Si number density = 16.082458 Si / 1000 Ang^3
#
#
#
# Elastic Constant Matrix: (Units=GPa)
#
#
# Indices 1 2 3 4 5 6 
#
# 1 113.8143 10.0195 46.5169 0.0000 0.0000 0.0000
# 2 10.0195 30.3754 19.9989 0.0000 0.0000 0.0000
# 3 46.5169 19.9989 123.1076 0.0000 0.0000 0.0000
# 4 0.0000 0.0000 0.0000 12.9435 0.0000 0.0000
# 5 0.0000 0.0000 0.0000 0.0000 27.2794 0.0000
# 6 0.0000 0.0000 0.0000 0.0000 0.0000 7.7970
#
#
#
# Elastic Compliance Matrix: (Units=1/GPa)
#
#
# Indices 1 2 3 4 5 6 
#
# 1 0.010415 -0.000946 -0.003782 0.000000 0.000000 0.000000
# 2 -0.000946 0.036950 -0.005645 0.000000 0.000000 0.000000
# 3 -0.003782 -0.005645 0.010469 0.000000 0.000000 0.000000
# 4 0.000000 0.000000 0.000000 0.077259 0.000000 0.000000
# 5 0.000000 0.000000 0.000000 0.000000 0.036658 0.000000
# 6 0.000000 0.000000 0.000000 0.000000 0.000000 0.128254
#
#
# Mechanical properties :
#
#
# Convention : Reuss Voigt Hill
#
# Bulk Modulus (GPa) = 26.96221 46.70753 36.83487
# Shear Modulus (GPa) = 15.00989 22.32144 18.66567
#
# Velocity S-wave (km/s) = 3.05832 3.72954 3.41049
# Velocity P-wave (km/s) = 5.41041 6.90301 6.20178
#
# Compressibility (1/GPa) = 0.03708895
#
# Stress axis : x y z
#
# Youngs Moduli (GPa) = 96.01404 27.06354 95.51986
#
# Poissons Ratio (x) = 0.02559 0.36124
# Poissons Ratio (y) = 0.09079 0.53924
# Poissons Ratio (z) = 0.36311 0.15278
#
# Static dielectric constant tensor:
#      x y z
#    x 3.391400 0.000000 0.000000 
#    y 0.000000 2.467480 0.000000 
#    z 0.000000 0.000000 3.146740 
# 
# 
# High freq. dielectric constant tensor:
#      x y z
#    x 1.644430 0.000000 0.000000 
#    y 0.000000 1.548300 0.000000 
#    z 0.000000 0.000000 1.627530 
# 
# From -- ./inp_files/31502.got.cif
#   From: 2010.03.12/outbox.cif.g09.slc.cpg/sg62_16_cif.got.tgz:31502.got - 2010.04.10 19:12:36.
