data_PCOD8250286
_publ_section_title
;
Structure prediction by ZEFSAII (Michael W. Deem and Ramdas Pophale) SiO2 
 PCOD8250286
Probable space group: P N M A
;
_chemical_formula_sum "Si O2"
_cell_formula_units_Z 56
_cell_length_a 18.303652
_cell_length_b 8.738834
_cell_length_c 20.915815
_cell_angle_alpha 90.000000
_cell_angle_beta 90.000000
_cell_angle_gamma 90.000000
_cell_volume 3345.538497
_symmetry_space_group_name_H-M "P N M A"
_symmetry_group_IT_number 62
_symmetry_cell_setting 'orthorhombic'
loop_
_space_group_symop_operation_xyz
x,y,z
1/2-x,-y,1/2+z
1/2+x,1/2-y,1/2-z
-x,1/2+y,-z
-x,-y,-z
1/2+x,y,1/2-z
1/2-x,1/2+y,1/2+z
x,1/2-y,z
loop_
_atom_site_type_symbol
_atom_site_label
_atom_site_fract_x
_atom_site_fract_y
_atom_site_fract_z
Si Si1 0.849015 0.431671 0.873595
Si Si2 0.788001 0.581491 0.680589
Si Si3 0.712121 0.921861 0.817018
Si Si4 0.574668 0.068121 0.252104
Si Si5 0.656445 0.070648 0.626648
Si Si6 0.419428 0.568432 0.243877
Si Si7 0.580188 0.067530 0.498527
O O1 0.851620 0.250000 0.877293
O O2 0.765885 0.487354 0.864286
O O3 0.903077 0.485730 0.817638
O O4 0.876075 0.503896 0.938942
O O5 0.790880 0.750000 0.650038
O O6 0.749107 0.585836 0.748558
O O7 0.869978 0.520123 0.694441
O O8 0.741599 0.477629 0.632071
O O9 0.698269 0.750000 0.843175
O O10 0.636001 0.013570 0.811525
O O11 0.577816 0.250000 0.263383
O O12 0.495662 0.013504 0.230098
O O13 0.654345 0.250000 0.626310
O O14 0.609511 0.010838 0.687015
O O15 0.621487 0.006446 0.561847
O O16 0.428453 0.750000 0.241072
O O17 0.576539 0.250000 0.495918
O O18 0.500000 0.000000 0.500000
#
# Coordination Sequence:
#
# PCOD8250286 Si02
#       7
#     8   8   8   8   8   8   8
#     4  11  21  33  48  68  94 127 164 201 237 279
#     4   8  16  29  46  66  89 118 154 190 231 278
#     4   9  17  31  48  67  92 124 157 193 237 285
#     4  10  19  31  47  70  97 126 157 194 239 286
#     4   9  19  32  46  65  92 123 157 192 229 273
#     4  10  18  29  47  73  99 124 155 195 238 282
#     4  11  22  35  49  69  96 128 163 197 232 277
#
# _framework density 16.738709
#
# number of rings (size 3 to 8) (size 9 to 14) (size 15 to 20)
#    0.000    2.286    0.000    4.714    0.000    6.857 
#    0.000    0.000    0.000    0.000    0.000    1.000 
#    0.000    0.000    0.000    0.000    0.000    0.000 
#
# Total GULP energy -694272.149291 kJ/mol
# GULP energy per Si atom -12397.716952 kJ/mol
# Density = 1.670061 g / cm^3
# Si number density = 16.738709 Si / 1000 Ang^3
#
#
#
# Elastic Constant Matrix: (Units=GPa)
#
#
# Indices 1 2 3 4 5 6 
#
# 1 148.2565 39.9488 61.5824 0.0000 0.0000 0.0000
# 2 39.9488 74.3039 31.8943 0.0000 0.0000 0.0000
# 3 61.5824 31.8943 72.4600 0.0000 0.0000 0.0000
# 4 0.0000 0.0000 0.0000 21.4031 0.0000 0.0000
# 5 0.0000 0.0000 0.0000 0.0000 25.3939 0.0000
# 6 0.0000 0.0000 0.0000 0.0000 0.0000 33.8492
#
#
#
# Elastic Compliance Matrix: (Units=1/GPa)
#
#
# Indices 1 2 3 4 5 6 
#
# 1 0.010732 -0.002287 -0.008114 0.000000 0.000000 0.000000
# 2 -0.002287 0.017081 -0.005575 0.000000 0.000000 0.000000
# 3 -0.008114 -0.005575 0.023150 0.000000 0.000000 0.000000
# 4 0.000000 0.000000 0.000000 0.046722 0.000000 0.000000
# 5 0.000000 0.000000 0.000000 0.000000 0.039380 0.000000
# 6 0.000000 0.000000 0.000000 0.000000 0.000000 0.029543
#
#
# Mechanical properties :
#
#
# Convention : Reuss Voigt Hill
#
# Bulk Modulus (GPa) = 52.59965 62.43014 57.51490
# Shear Modulus (GPa) = 24.40263 26.90222 25.65242
#
# Velocity S-wave (km/s) = 3.82233 4.01332 3.91899
# Velocity P-wave (km/s) = 7.13950 7.67160 7.41033
#
# Compressibility (1/GPa) = 0.01901153
#
# Stress axis : x y z
#
# Youngs Moduli (GPa) = 93.18204 58.54572 43.19563
#
# Poissons Ratio (x) = 0.13389 0.35049
# Poissons Ratio (y) = 0.21310 0.24080
# Poissons Ratio (z) = 0.75608 0.32637
#
# Static dielectric constant tensor:
#      x y z
#    x 3.365060 0.000000 0.000000 
#    y 0.000000 3.273230 0.000000 
#    z 0.000000 0.000000 3.049300 
# 
# 
# High freq. dielectric constant tensor:
#      x y z
#    x 1.651730 0.000000 0.000000 
#    y 0.000000 1.657100 0.000000 
#    z 0.000000 0.000000 1.603010 
# 
# From -- ./inp_files/27519.got.cif
#   From: 2010.03.12/outbox.cif.g09.slc.cpg/sg62_14_cif.got.tgz:27519.got - 2010.04.10 19:12:36.
