data_PCOD8250728
_publ_section_title
;
Structure prediction by ZEFSAII (Michael W. Deem and Ramdas Pophale) SiO2 
 PCOD8250728
Probable space group: P N M A
;
_chemical_formula_sum "Si O2"
_cell_formula_units_Z 52
_cell_length_a 5.272281
_cell_length_b 29.835392
_cell_length_c 14.333666
_cell_angle_alpha 90.000000
_cell_angle_beta 90.000000
_cell_angle_gamma 90.000000
_cell_volume 2254.693837
_symmetry_space_group_name_H-M "P N M A"
_symmetry_group_IT_number 62
_symmetry_cell_setting 'orthorhombic'
loop_
_space_group_symop_operation_xyz
x,y,z
1/2-x,-y,1/2+z
1/2+x,1/2-y,1/2-z
-x,1/2+y,-z
-x,-y,-z
1/2+x,y,1/2-z
1/2-x,1/2+y,1/2+z
x,1/2-y,z
loop_
_atom_site_type_symbol
_atom_site_label
_atom_site_fract_x
_atom_site_fract_y
_atom_site_fract_z
Si Si1 0.587374 0.046210 0.351511
Si Si2 0.579837 0.908408 0.189700
Si Si3 0.087513 0.491795 0.356261
Si Si4 0.315748 0.329715 0.940630
Si Si5 0.939628 0.698651 0.617487
Si Si6 0.712256 0.250000 0.689236
Si Si7 0.429143 0.649046 0.621511
O O1 0.614899 0.022752 0.251326
O O2 0.344127 0.026071 0.406313
O O3 0.562533 0.099133 0.338745
O O4 0.846429 0.032384 0.405744
O O5 0.356249 0.904359 0.264387
O O6 0.544943 0.868598 0.116389
O O7 0.559709 0.955055 0.134640
O O8 0.180865 0.294222 0.873145
O O9 0.527464 0.305026 0.004863
O O10 0.100927 0.351246 0.008552
O O11 0.924021 0.750000 0.648685
O O12 0.685895 0.673932 0.650776
O O13 0.185659 0.675145 0.666224
O O14 0.489443 0.250000 0.764521
#
# Coordination Sequence:
#
# PCOD8250728 Si02
#       7
#     8   8   8   8   8   4   8
#     4  10  18  37  58  89 112 151 204 233 301 341
#     4  12  22  38  57  84 111 161 201 243 301 342
#     4  10  19  36  61  81 116 152 197 246 282 368
#     4  10  25  38  59  83 124 150 203 249 291 347
#     4  10  21  39  60  83 117 156 189 242 286 358
#     4  12  26  40  60  88 114 162 200 246 290 336
#     4  10  22  36  61  88 118 154 196 245 291 358
#
# _framework density 23.062996999999999
#
# number of rings (size 3 to 8) (size 9 to 14) (size 15 to 20)
#    0.923    0.615    3.846    2.308    5.385    0.000 
#    0.000    1.538    0.000    0.000    0.000   43.077 
#    0.000    0.000    0.000    0.000    0.000    0.000 
#
# Total GULP energy -644615.631047 kJ/mol
# GULP energy per Si atom -12396.454443 kJ/mol
# Density = 2.301050 g / cm^3
# Si number density = 23.062997 Si / 1000 Ang^3
#
#
#
# Elastic Constant Matrix: (Units=GPa)
#
#
# Indices 1 2 3 4 5 6 
#
# 1 171.6221 21.5620 -3.5326 0.0000 0.0000 0.0000
# 2 21.5620 141.3395 12.0512 0.0000 0.0000 0.0000
# 3 -3.5326 12.0512 35.4694 0.0000 0.0000 0.0000
# 4 0.0000 0.0000 0.0000 13.0368 0.0000 0.0000
# 5 0.0000 0.0000 0.0000 0.0000 113.3353 0.0000
# 6 0.0000 0.0000 0.0000 0.0000 0.0000 36.7740
#
#
#
# Elastic Compliance Matrix: (Units=1/GPa)
#
#
# Indices 1 2 3 4 5 6 
#
# 1 0.005970 -0.000990 0.000931 0.000000 0.000000 0.000000
# 2 -0.000990 0.007450 -0.002630 0.000000 0.000000 0.000000
# 3 0.000931 -0.002630 0.029180 0.000000 0.000000 0.000000
# 4 0.000000 0.000000 0.000000 0.076706 0.000000 0.000000
# 5 0.000000 0.000000 0.000000 0.000000 0.008823 0.000000
# 6 0.000000 0.000000 0.000000 0.000000 0.000000 0.027193
#
#
# Mechanical properties :
#
#
# Convention : Reuss Voigt Hill
#
# Bulk Modulus (GPa) = 26.86573 45.39913 36.13243
# Shear Modulus (GPa) = 28.88358 53.85256 41.36807
#
# Velocity S-wave (km/s) = 3.54273 4.83745 4.23980
# Velocity P-wave (km/s) = 5.32999 7.13644 6.29831
#
# Compressibility (1/GPa) = 0.03722213
#
# Stress axis : x y z
#
# Youngs Moduli (GPa) = 167.49513 134.21980 34.27045
#
# Poissons Ratio (x) = 0.13290 -0.03191
# Poissons Ratio (y) = 0.16585 0.09013
# Poissons Ratio (z) = -0.15595 0.35300
#
# Static dielectric constant tensor:
#      x y z
#    x 5.428050 0.000000 0.000000 
#    y 0.000000 4.076900 0.000000 
#    z 0.000000 0.000000 3.675730 
# 
# 
# High freq. dielectric constant tensor:
#      x y z
#    x 1.925540 0.000000 0.000000 
#    y 0.000000 1.920060 0.000000 
#    z 0.000000 0.000000 1.879430 
# 
# From -- ./inp_files/21642.got.cif
#   From: 2010.03.12/outbox.cif.g09.slc.cpg/sg62_11_cif.got.tgz:21642.got - 2010.04.10 19:12:36.
