data_PCOD8250357
_publ_section_title
;
Structure prediction by ZEFSAII (Michael W. Deem and Ramdas Pophale) SiO2 
 PCOD8250357
Probable space group: P N M A
;
_chemical_formula_sum "Si O2"
_cell_formula_units_Z 64
_cell_length_a 14.359071
_cell_length_b 8.822431
_cell_length_c 30.144094
_cell_angle_alpha 90.000000
_cell_angle_beta 90.000000
_cell_angle_gamma 90.000000
_cell_volume 3818.711497
_symmetry_space_group_name_H-M "P N M A"
_symmetry_group_IT_number 62
_symmetry_cell_setting 'orthorhombic'
loop_
_space_group_symop_operation_xyz
x,y,z
1/2-x,-y,1/2+z
1/2+x,1/2-y,1/2-z
-x,1/2+y,-z
-x,-y,-z
1/2+x,y,1/2-z
1/2-x,1/2+y,1/2+z
x,1/2-y,z
loop_
_atom_site_type_symbol
_atom_site_label
_atom_site_fract_x
_atom_site_fract_y
_atom_site_fract_z
Si Si1 0.599919 0.426465 0.447338
Si Si2 0.654839 0.929646 0.199980
Si Si3 0.018887 0.078499 0.815461
Si Si4 0.804447 0.928904 0.132737
Si Si5 0.236424 0.570637 0.717160
Si Si6 0.831076 0.078917 0.864808
Si Si7 0.901381 0.927249 0.047012
Si Si8 0.523800 0.573399 0.773621
O O1 0.602836 0.250000 0.436189
O O2 0.671935 0.510223 0.414389
O O3 0.494272 0.481267 0.441868
O O4 0.634682 0.461285 0.497428
O O5 0.653698 0.750000 0.204531
O O6 0.708710 0.985611 0.155320
O O7 0.705256 0.991977 0.243958
O O8 0.549663 0.990209 0.194012
O O9 0.033986 0.250000 0.797416
O O10 0.110891 0.008508 0.837593
O O11 0.938852 0.076390 0.851792
O O12 0.990410 0.968178 0.775731
O O13 0.808382 0.750000 0.135092
O O14 0.819793 0.979508 0.081489
O O15 0.245564 0.750000 0.722971
O O16 0.271472 0.521649 0.668863
O O17 0.128998 0.516648 0.719235
O O18 0.791530 0.250000 0.865084
O O19 0.925532 0.750000 0.052889
O O20 0.514436 0.750000 0.782172
#
# Coordination Sequence:
#
# PCOD8250357 Si02
#       8
#     8   8   8   8   8   8   8   8
#     4  10  19  29  47  73 102 133 164 204 250 297
#     4  11  21  33  52  74  97 130 170 208 246 292
#     4  10  18  30  49  70  97 133 171 204 237 287
#     4   9  17  31  50  71  96 130 170 204 235 284
#     4  11  23  36  50  71  99 131 169 208 249 294
#     4  11  21  33  51  72  98 135 170 205 247 295
#     4   9  17  32  49  69 100 135 169 204 245 294
#     4  11  23  36  49  69 102 135 164 209 253 293
#
# _framework density 16.75958
#
# number of rings (size 3 to 8) (size 9 to 14) (size 15 to 20)
#    0.000    1.750    3.750    1.875    0.000    2.500 
#    0.000    1.250    0.000    0.000    0.000    0.875 
#    0.000    0.000    0.000    0.000    0.000    0.000 
#
# Total GULP energy -793403.685109 kJ/mol
# GULP energy per Si atom -12396.932580 kJ/mol
# Density = 1.672143 g / cm^3
# Si number density = 16.759580 Si / 1000 Ang^3
#
#
#
# Elastic Constant Matrix: (Units=GPa)
#
#
# Indices 1 2 3 4 5 6 
#
# 1 71.6736 27.7942 25.8006 0.0000 0.0000 0.0000
# 2 27.7942 57.4583 24.5178 0.0000 0.0000 0.0000
# 3 25.8006 24.5178 97.3037 0.0000 0.0000 0.0000
# 4 0.0000 0.0000 0.0000 19.5681 0.0000 0.0000
# 5 0.0000 0.0000 0.0000 0.0000 25.5100 0.0000
# 6 0.0000 0.0000 0.0000 0.0000 0.0000 23.4915
#
#
#
# Elastic Compliance Matrix: (Units=1/GPa)
#
#
# Indices 1 2 3 4 5 6 
#
# 1 0.017860 -0.007416 -0.002867 0.000000 0.000000 0.000000
# 2 -0.007416 0.022580 -0.003723 0.000000 0.000000 0.000000
# 3 -0.002867 -0.003723 0.011975 0.000000 0.000000 0.000000
# 4 0.000000 0.000000 0.000000 0.051103 0.000000 0.000000
# 5 0.000000 0.000000 0.000000 0.000000 0.039200 0.000000
# 6 0.000000 0.000000 0.000000 0.000000 0.000000 0.042569
#
#
# Mechanical properties :
#
#
# Convention : Reuss Voigt Hill
#
# Bulk Modulus (GPa) = 40.97849 42.51786 41.74817
# Shear Modulus (GPa) = 22.58003 23.60211 23.09107
#
# Velocity S-wave (km/s) = 3.67453 3.75677 3.71588
# Velocity P-wave (km/s) = 6.51972 6.65148 6.58593
#
# Compressibility (1/GPa) = 0.02440305
#
# Stress axis : x y z
#
# Youngs Moduli (GPa) = 55.99088 44.28710 83.50420
#
# Poissons Ratio (x) = 0.32843 0.23941
# Poissons Ratio (y) = 0.41523 0.31090
# Poissons Ratio (z) = 0.16053 0.16489
#
# Static dielectric constant tensor:
#      x y z
#    x 3.204410 0.000000 0.000000 
#    y 0.000000 3.142130 0.000000 
#    z 0.000000 0.000000 3.284910 
# 
# 
# High freq. dielectric constant tensor:
#      x y z
#    x 1.620030 0.000000 0.000000 
#    y 0.000000 1.646090 0.000000 
#    z 0.000000 0.000000 1.638810 
# 
# From -- ./inp_files/32711.got.cif
#   From: 2010.03.12/outbox.cif.g09.slc.cpg/sg62_17_cif.got.tgz:32711.got - 2010.04.10 19:12:36.
