data_PCOD8250619
_publ_section_title
;
Structure prediction by ZEFSAII (Michael W. Deem and Ramdas Pophale) SiO2 
 PCOD8250619
Probable space group: P N M A
;
_chemical_formula_sum "Si O2"
_cell_formula_units_Z 56
_cell_length_a 16.253541
_cell_length_b 8.868252
_cell_length_c 19.585274
_cell_angle_alpha 90.000000
_cell_angle_beta 90.000000
_cell_angle_gamma 90.000000
_cell_volume 2823.031138
_symmetry_space_group_name_H-M "P N M A"
_symmetry_group_IT_number 62
_symmetry_cell_setting 'orthorhombic'
loop_
_space_group_symop_operation_xyz
x,y,z
1/2-x,-y,1/2+z
1/2+x,1/2-y,1/2-z
-x,1/2+y,-z
-x,-y,-z
1/2+x,y,1/2-z
1/2-x,1/2+y,1/2+z
x,1/2-y,z
loop_
_atom_site_type_symbol
_atom_site_label
_atom_site_fract_x
_atom_site_fract_y
_atom_site_fract_z
Si Si1 0.390126 0.423028 0.033190
Si Si2 0.297010 0.922221 0.375129
Si Si3 0.410041 0.928272 0.502057
Si Si4 0.482215 0.926490 0.145796
Si Si5 0.131595 0.424995 0.393190
Si Si6 0.722107 0.076620 0.389556
Si Si7 0.322255 0.578579 0.219113
O O1 0.417339 0.250000 0.043644
O O2 0.455602 0.534018 0.068396
O O3 0.298351 0.451047 0.060507
O O4 0.389086 0.464522 0.954866
O O5 0.267507 0.750000 0.390366
O O6 0.362754 0.973414 0.432108
O O7 0.333391 0.935278 0.299745
O O8 0.223580 0.041238 0.370820
O O9 0.420141 0.750000 0.505652
O O10 0.358160 0.985792 0.568827
O O11 0.500000 0.000000 0.500000
O O12 0.498463 0.750000 0.156363
O O13 0.407973 0.990501 0.192066
O O14 0.565249 0.020660 0.164123
O O15 0.121719 0.250000 0.410884
O O16 0.707487 0.250000 0.372757
O O17 0.742097 0.999600 0.316035
O O18 0.315085 0.750000 0.194968
#
# Coordination Sequence:
#
# PCOD8250619 Si02
#       7
#     8   8   8   8   8   8   8
#     4  10  18  33  56  81 112 149 184 227 280 335
#     4  10  21  42  63  82 114 154 196 243 297 346
#     4  10  21  39  62  88 117 153 197 246 297 350
#     4  10  20  35  54  82 116 149 188 232 282 345
#     4  12  23  34  53  84 115 148 189 232 285 344
#     4   9  18  35  59  84 115 151 186 232 294 348
#     4   9  20  38  62  86 111 149 196 242 289 348
#
# _framework density 19.836835000000001
#
# number of rings (size 3 to 8) (size 9 to 14) (size 15 to 20)
#    0.000    2.000    1.429    2.571    0.000    2.857 
#    2.571    0.000    0.000    0.000    0.000    0.000 
#    0.000    0.000    0.000    0.000    0.000    0.000 
#
# Total GULP energy -694046.764486 kJ/mol
# GULP energy per Si atom -12393.692223 kJ/mol
# Density = 1.979169 g / cm^3
# Si number density = 19.836835 Si / 1000 Ang^3
#
#
#
# Elastic Constant Matrix: (Units=GPa)
#
#
# Indices 1 2 3 4 5 6 
#
# 1 125.3995 39.8113 33.7804 0.0000 0.0000 0.0000
# 2 39.8113 60.9845 19.8224 0.0000 0.0000 0.0000
# 3 33.7804 19.8224 82.1793 0.0000 0.0000 0.0000
# 4 0.0000 0.0000 0.0000 25.1196 0.0000 0.0000
# 5 0.0000 0.0000 0.0000 0.0000 10.3786 0.0000
# 6 0.0000 0.0000 0.0000 0.0000 0.0000 34.6426
#
#
#
# Elastic Compliance Matrix: (Units=1/GPa)
#
#
# Indices 1 2 3 4 5 6 
#
# 1 0.010675 -0.006014 -0.002937 0.000000 0.000000 0.000000
# 2 -0.006014 0.021181 -0.002637 0.000000 0.000000 0.000000
# 3 -0.002937 -0.002637 0.014012 0.000000 0.000000 0.000000
# 4 0.000000 0.000000 0.000000 0.039810 0.000000 0.000000
# 5 0.000000 0.000000 0.000000 0.000000 0.096352 0.000000
# 6 0.000000 0.000000 0.000000 0.000000 0.000000 0.028866
#
#
# Mechanical properties :
#
#
# Convention : Reuss Voigt Hill
#
# Bulk Modulus (GPa) = 44.07002 50.59904 47.33453
# Shear Modulus (GPa) = 20.69228 25.70479 23.19853
#
# Velocity S-wave (km/s) = 3.23325 3.60364 3.42346
# Velocity P-wave (km/s) = 6.01689 6.54813 6.28812
#
# Compressibility (1/GPa) = 0.02269116
#
# Stress axis : x y z
#
# Youngs Moduli (GPa) = 93.67578 47.21274 71.36734
#
# Poissons Ratio (x) = 0.28394 0.20964
# Poissons Ratio (y) = 0.56337 0.18819
# Poissons Ratio (z) = 0.27517 0.12449
#
# Static dielectric constant tensor:
#      x y z
#    x 3.938450 0.000000 0.000000 
#    y 0.000000 3.506480 0.000000 
#    z 0.000000 0.000000 3.500200 
# 
# 
# High freq. dielectric constant tensor:
#      x y z
#    x 1.778700 0.000000 0.000000 
#    y 0.000000 1.764360 0.000000 
#    z 0.000000 0.000000 1.757850 
# 
# From -- ./inp_files/27194.got.cif
#   From: 2010.03.12/outbox.cif.g09.slc.cpg/sg62_14_cif.got.tgz:27194.got - 2010.04.10 19:12:36.
