data_PCOD8250722
_publ_section_title
;
Structure prediction by ZEFSAII (Michael W. Deem and Ramdas Pophale) SiO2 
 PCOD8250722
Probable space group: P N M A
;
_chemical_formula_sum "Si O2"
_cell_formula_units_Z 64
_cell_length_a 31.100032
_cell_length_b 8.858946
_cell_length_c 12.041538
_cell_angle_alpha 90.000000
_cell_angle_beta 90.000000
_cell_angle_gamma 90.000000
_cell_volume 3317.606329
_symmetry_space_group_name_H-M "P N M A"
_symmetry_group_IT_number 62
_symmetry_cell_setting 'orthorhombic'
loop_
_space_group_symop_operation_xyz
x,y,z
1/2-x,-y,1/2+z
1/2+x,1/2-y,1/2-z
-x,1/2+y,-z
-x,-y,-z
1/2+x,y,1/2-z
1/2-x,1/2+y,1/2+z
x,1/2-y,z
loop_
_atom_site_type_symbol
_atom_site_label
_atom_site_fract_x
_atom_site_fract_y
_atom_site_fract_z
Si Si1 0.874741 0.429592 0.384125
Si Si2 0.928497 0.428532 0.004173
Si Si3 0.957158 0.428587 0.766852
Si Si4 0.298070 0.428371 0.266574
Si Si5 0.797299 0.571259 0.778314
Si Si6 0.627634 0.570875 0.137106
Si Si7 0.955779 0.070522 0.242973
Si Si8 0.831276 0.428426 0.994347
O O1 0.874635 0.250000 0.379359
O O2 0.832303 0.494734 0.322523
O O3 0.875130 0.487033 0.510603
O O4 0.917513 0.489106 0.321805
O O5 0.927913 0.250000 0.012412
O O6 0.948432 0.493499 0.117916
O O7 0.880036 0.485308 0.990739
O O8 0.954505 0.482632 0.895543
O O9 0.961297 0.250000 0.757289
O O10 0.915045 0.484833 0.701067
O O11 0.999176 0.504327 0.712590
O O12 0.298513 0.250000 0.254739
O O13 0.250376 0.491411 0.247168
O O14 0.311907 0.477477 0.388716
O O15 0.800088 0.750000 0.766684
O O16 0.830370 0.499032 0.692252
O O17 0.805860 0.521014 0.902968
O O18 0.631793 0.750000 0.144572
O O19 0.957932 0.250000 0.244778
O O20 0.827394 0.250000 0.971356
#
# Coordination Sequence:
#
# PCOD8250722 Si02
#       8
#     8   8   8   8   8   8   8   8
#     4   9  18  35  58  81 105 141 190 229 261 323
#     4   9  16  31  55  79 105 138 180 221 264 322
#     4  10  20  34  51  77 109 142 182 224 268 327
#     4   9  19  35  57  83 112 143 179 226 275 319
#     4  11  23  36  54  87 119 140 176 235 282 312
#     4  10  21  38  59  78 105 151 193 220 263 333
#     4  10  19  33  56  82 104 136 182 230 274 319
#     4  10  18  36  62  81 105 149 188 216 264 332
#
# _framework density 19.291017
#
# number of rings (size 3 to 8) (size 9 to 14) (size 15 to 20)
#    0.000    2.250    2.500    0.750    1.750    1.000 
#    0.000    1.875    0.000    2.250    0.000    0.000 
#    0.000    0.000    0.000    0.000    0.000    0.000 
#
# Total GULP energy -793549.341239 kJ/mol
# GULP energy per Si atom -12399.208457 kJ/mol
# Density = 1.924711 g / cm^3
# Si number density = 19.291017 Si / 1000 Ang^3
#
#
#
# Elastic Constant Matrix: (Units=GPa)
#
#
# Indices 1 2 3 4 5 6 
#
# 1 140.2597 22.5174 69.6931 0.0000 0.0000 0.0000
# 2 22.5174 19.0146 20.3698 0.0000 0.0000 0.0000
# 3 69.6931 20.3698 141.5290 0.0000 0.0000 0.0000
# 4 0.0000 0.0000 0.0000 13.6310 0.0000 0.0000
# 5 0.0000 0.0000 0.0000 0.0000 -0.2325 0.0000
# 6 0.0000 0.0000 0.0000 0.0000 0.0000 24.0596
#
#
#
# Elastic Compliance Matrix: (Units=1/GPa)
#
#
# Indices 1 2 3 4 5 6 
#
# 1 0.010390 -0.008067 -0.003955 0.000000 0.000000 0.000000
# 2 -0.008067 0.068441 -0.005878 0.000000 0.000000 0.000000
# 3 -0.003955 -0.005878 0.009859 0.000000 0.000000 0.000000
# 4 0.000000 0.000000 0.000000 0.073362 0.000000 0.000000
# 5 0.000000 0.000000 0.000000 0.000000 -4.301211 0.000000
# 6 0.000000 0.000000 0.000000 0.000000 0.000000 0.041563
#
#
# Mechanical properties :
#
#
# Convention : Reuss Voigt Hill
#
# Bulk Modulus (GPa) = 18.90714 58.44041 38.67378
# Shear Modulus (GPa) = -1.23635 20.03983 9.40174
#
# Velocity S-wave (km/s) = -0.80143 3.22656 2.21003
# Velocity P-wave (km/s) = 2.99431 6.65138 5.15785
#
# Compressibility (1/GPa) = 0.05289006
#
# Stress axis : x y z
#
# Youngs Moduli (GPa) = 96.24608 14.61107 101.42563
#
# Poissons Ratio (x) = 0.11786 0.40117
# Poissons Ratio (y) = 0.77640 0.59620
# Poissons Ratio (z) = 0.38068 0.08589
#
# Static dielectric constant tensor:
#      x y z
#    x 3.761420 0.000000 0.000000 
#    y 0.000000 3.007430 0.000000 
#    z 0.000000 0.000000 3.739170 
# 
# 
# High freq. dielectric constant tensor:
#      x y z
#    x 1.767980 0.000000 0.000000 
#    y 0.000000 1.701710 0.000000 
#    z 0.000000 0.000000 1.759720 
# 
# From -- ./inp_files/15889.got.cif
#   From: 2010.03.12/outbox.cif.g09.slc.cpg/sg62_8_cif.got.tgz:15889.got - 2010.04.10 19:12:36.
