data_PCOD8250596
_publ_section_title
;
Structure prediction by ZEFSAII (Michael W. Deem and Ramdas Pophale) SiO2 
 PCOD8250596
Probable space group: P N M A
;
_chemical_formula_sum "Si O2"
_cell_formula_units_Z 64
_cell_length_a 28.845100
_cell_length_b 8.975936
_cell_length_c 12.891891
_cell_angle_alpha 90.000000
_cell_angle_beta 90.000000
_cell_angle_gamma 90.000000
_cell_volume 3337.862337
_symmetry_space_group_name_H-M "P N M A"
_symmetry_group_IT_number 62
_symmetry_cell_setting 'orthorhombic'
loop_
_space_group_symop_operation_xyz
x,y,z
1/2-x,-y,1/2+z
1/2+x,1/2-y,1/2-z
-x,1/2+y,-z
-x,-y,-z
1/2+x,y,1/2-z
1/2-x,1/2+y,1/2+z
x,1/2-y,z
loop_
_atom_site_type_symbol
_atom_site_label
_atom_site_fract_x
_atom_site_fract_y
_atom_site_fract_z
Si Si1 0.393000 0.075130 0.611893
Si Si2 0.066566 0.926704 0.331550
Si Si3 0.462761 0.926460 0.203176
Si Si4 0.289961 0.082659 0.553125
Si Si5 0.698903 0.921966 0.887894
Si Si6 0.418012 0.923823 0.410012
Si Si7 0.669770 0.583959 0.660233
Si Si8 0.109371 0.427078 0.531727
O O1 0.398726 0.250000 0.598547
O O2 0.410994 0.021090 0.723126
O O3 0.339306 0.028101 0.599560
O O4 0.424663 0.004792 0.520467
O O5 0.071101 0.750000 0.346573
O O6 0.013192 0.980106 0.333394
O O7 0.092815 0.010001 0.422482
O O8 0.459468 0.750000 0.201361
O O9 0.454387 0.980142 0.322029
O O10 0.424009 0.989922 0.123566
O O11 0.278726 0.250000 0.592979
O O12 0.291386 0.079719 0.428578
O O13 0.250813 0.968256 0.585768
O O14 0.691372 0.750000 0.916803
O O15 0.694595 0.953962 0.766656
O O16 0.661590 0.018236 0.950634
O O17 0.422948 0.750000 0.430642
O O18 0.367983 0.958485 0.361774
O O19 0.646788 0.750000 0.662117
O O20 0.108603 0.250000 0.527318
#
# Coordination Sequence:
#
# PCOD8250596 Si02
#       8
#     8   8   8   8   8   8   8   8
#     4   9  20  38  57  80 114 152 187 231 287 337
#     4  10  21  39  59  81 116 157 193 232 280 340
#     4   9  19  35  57  85 115 149 189 237 287 330
#     4   9  19  36  55  78 108 143 181 228 286 337
#     4  11  22  36  57  84 108 141 189 233 280 340
#     4  10  18  32  57  84 111 145 188 232 277 332
#     4   9  19  36  55  77 108 144 183 230 281 331
#     4  11  22  38  57  82 116 149 188 237 287 335
#
# _framework density 19.173950000000001
#
# number of rings (size 3 to 8) (size 9 to 14) (size 15 to 20)
#    0.000    2.250    1.250    2.250    0.000    4.500 
#    0.000    4.375    0.000    0.000    0.000    0.000 
#    0.000    0.000    0.000    0.000    0.000    0.000 
#
# Total GULP energy -793533.604108 kJ/mol
# GULP energy per Si atom -12398.962564 kJ/mol
# Density = 1.913031 g / cm^3
# Si number density = 19.173950 Si / 1000 Ang^3
#
#
#
# Elastic Constant Matrix: (Units=GPa)
#
#
# Indices 1 2 3 4 5 6 
#
# 1 56.2124 17.0388 35.7345 0.0000 0.0000 0.0000
# 2 17.0388 48.5060 36.8077 0.0000 0.0000 0.0000
# 3 35.7345 36.8077 127.4942 0.0000 0.0000 0.0000
# 4 0.0000 0.0000 0.0000 30.8991 0.0000 0.0000
# 5 0.0000 0.0000 0.0000 0.0000 26.3269 0.0000
# 6 0.0000 0.0000 0.0000 0.0000 0.0000 21.7635
#
#
#
# Elastic Compliance Matrix: (Units=1/GPa)
#
#
# Indices 1 2 3 4 5 6 
#
# 1 0.022220 -0.003943 -0.005090 0.000000 0.000000 0.000000
# 2 -0.003943 0.027099 -0.006718 0.000000 0.000000 0.000000
# 3 -0.005090 -0.006718 0.011210 0.000000 0.000000 0.000000
# 4 0.000000 0.000000 0.000000 0.032363 0.000000 0.000000
# 5 0.000000 0.000000 0.000000 0.000000 0.037984 0.000000
# 6 0.000000 0.000000 0.000000 0.000000 0.000000 0.045948
#
#
# Mechanical properties :
#
#
# Convention : Reuss Voigt Hill
#
# Bulk Modulus (GPa) = 34.45090 45.70832 40.07961
# Shear Modulus (GPa) = 22.93546 25.30669 24.12107
#
# Velocity S-wave (km/s) = 3.46233 3.63691 3.55070
# Velocity P-wave (km/s) = 5.83011 6.44412 6.14479
#
# Compressibility (1/GPa) = 0.02902682
#
# Stress axis : x y z
#
# Youngs Moduli (GPa) = 45.00364 36.90140 89.20919
#
# Poissons Ratio (x) = 0.14551 0.45404
# Poissons Ratio (y) = 0.17746 0.59934
# Poissons Ratio (z) = 0.22905 0.24792
#
# Static dielectric constant tensor:
#      x y z
#    x 3.467410 0.000000 0.000000 
#    y 0.000000 3.363450 0.000000 
#    z 0.000000 0.000000 3.766740 
# 
# 
# High freq. dielectric constant tensor:
#      x y z
#    x 1.737100 0.000000 0.000000 
#    y 0.000000 1.732230 0.000000 
#    z 0.000000 0.000000 1.758350 
# 
# From -- ./inp_files/15772.got.cif
#   From: 2010.03.12/outbox.cif.g09.slc.cpg/sg62_8_cif.got.tgz:15772.got - 2010.04.10 19:12:36.
