data_PCOD8250602
_publ_section_title
;
Structure prediction by ZEFSAII (Michael W. Deem and Ramdas Pophale) SiO2 
 PCOD8250602
Probable space group: P N M A
;
_chemical_formula_sum "Si O2"
_cell_formula_units_Z 48
_cell_length_a 19.149791
_cell_length_b 13.709625
_cell_length_c 9.916952
_cell_angle_alpha 90.000000
_cell_angle_beta 90.000000
_cell_angle_gamma 90.000000
_cell_volume 2603.561407
_symmetry_space_group_name_H-M "P N M A"
_symmetry_group_IT_number 62
_symmetry_cell_setting 'orthorhombic'
loop_
_space_group_symop_operation_xyz
x,y,z
1/2-x,-y,1/2+z
1/2+x,1/2-y,1/2-z
-x,1/2+y,-z
-x,-y,-z
1/2+x,y,1/2-z
1/2-x,1/2+y,1/2+z
x,1/2-y,z
loop_
_atom_site_type_symbol
_atom_site_label
_atom_site_fract_x
_atom_site_fract_y
_atom_site_fract_z
Si Si1 0.980453 0.361618 0.911370
Si Si2 0.859016 0.861346 0.716036
Si Si3 0.106700 0.033938 0.786897
Si Si4 0.796152 0.635848 0.427961
Si Si5 0.656548 0.521888 0.426421
Si Si6 0.486263 0.359698 0.277292
O O1 0.960689 0.250000 0.885087
O O2 0.914223 0.427483 0.874804
O O3 0.044594 0.390482 0.816769
O O4 0.003352 0.380647 0.065542
O O5 0.843118 0.750000 0.758673
O O6 0.822470 0.888923 0.577018
O O7 0.942180 0.875971 0.696225
O O8 0.827122 0.929299 0.832342
O O9 0.156007 0.078210 0.675409
O O10 0.073785 0.933373 0.728309
O O11 0.151969 0.012872 0.919628
O O12 0.800328 0.750000 0.395892
O O13 0.717111 0.601183 0.412773
O O14 0.457480 0.250000 0.257076
#
# Coordination Sequence:
#
# PCOD8250602 Si02
#       6
#     8   8   8   8   8   8
#     4  10  18  32  59  87 110 140 192 242 274 315
#     4  10  20  37  58  82 112 148 183 226 285 337
#     4  11  20  36  60  86 108 145 192 233 277 323
#     4  11  25  38  53  81 121 154 177 223 290 342
#     4  11  20  39  58  83 108 150 193 231 269 328
#     4   9  17  33  58  85 109 139 186 238 276 322
#
# _framework density 18.436285999999999
#
# number of rings (size 3 to 8) (size 9 to 14) (size 15 to 20)
#    0.000    1.667    3.333    3.000    0.000    2.000 
#    0.000    0.833    0.000    1.000    0.000    0.000 
#    0.000    0.000    0.000    0.000    0.000    0.000 
#
# Total GULP energy -595388.825983 kJ/mol
# GULP energy per Si atom -12403.933875 kJ/mol
# Density = 1.839432 g / cm^3
# Si number density = 18.436286 Si / 1000 Ang^3
#
#
#
# Elastic Constant Matrix: (Units=GPa)
#
#
# Indices 1 2 3 4 5 6 
#
# 1 83.5695 33.4791 29.6431 0.0000 0.0000 0.0000
# 2 33.4791 101.1637 33.9285 0.0000 0.0000 0.0000
# 3 29.6431 33.9285 37.0375 0.0000 0.0000 0.0000
# 4 0.0000 0.0000 0.0000 24.9856 0.0000 0.0000
# 5 0.0000 0.0000 0.0000 0.0000 28.3262 0.0000
# 6 0.0000 0.0000 0.0000 0.0000 0.0000 37.4249
#
#
#
# Elastic Compliance Matrix: (Units=1/GPa)
#
#
# Indices 1 2 3 4 5 6 
#
# 1 0.016871 -0.001522 -0.012108 0.000000 0.000000 0.000000
# 2 -0.001522 0.014406 -0.011978 0.000000 0.000000 0.000000
# 3 -0.012108 -0.011978 0.047663 0.000000 0.000000 0.000000
# 4 0.000000 0.000000 0.000000 0.040023 0.000000 0.000000
# 5 0.000000 0.000000 0.000000 0.000000 0.035303 0.000000
# 6 0.000000 0.000000 0.000000 0.000000 0.000000 0.026720
#
#
# Mechanical properties :
#
#
# Convention : Reuss Voigt Hill
#
# Bulk Modulus (GPa) = 36.07168 46.20803 41.13985
# Shear Modulus (GPa) = 20.70863 26.46199 23.58531
#
# Velocity S-wave (km/s) = 3.35513 3.79267 3.58059
# Velocity P-wave (km/s) = 5.88365 6.65561 6.28150
#
# Compressibility (1/GPa) = 0.02772258
#
# Stress axis : x y z
#
# Youngs Moduli (GPa) = 59.27378 69.41477 20.98050
#
# Poissons Ratio (x) = 0.10568 0.25403
# Poissons Ratio (y) = 0.09024 0.25131
# Poissons Ratio (z) = 0.71769 0.83148
#
# Static dielectric constant tensor:
#      x y z
#    x 3.333410 0.000000 0.000000 
#    y 0.000000 3.617790 0.000000 
#    z 0.000000 0.000000 3.152360 
# 
# 
# High freq. dielectric constant tensor:
#      x y z
#    x 1.713350 0.000000 0.000000 
#    y 0.000000 1.734500 0.000000 
#    z 0.000000 0.000000 1.689900 
# 
# From -- ./inp_files/7627.got.cif
#   From: 2010.03.12/outbox.cif.g09.slc.cpg/sg62_4_cif.got.tgz:7627.got - 2010.04.10 19:12:36.
