data_PCOD8250981
_publ_section_title
;
Structure prediction by ZEFSAII (Michael W. Deem and Ramdas Pophale) SiO2 
 PCOD8250981
Probable space group: P N M A
;
_chemical_formula_sum "Si O2"
_cell_formula_units_Z 48
_cell_length_a 17.117848
_cell_length_b 9.277562
_cell_length_c 16.399202
_cell_angle_alpha 90.000000
_cell_angle_beta 90.000000
_cell_angle_gamma 90.000000
_cell_volume 2604.388365
_symmetry_space_group_name_H-M "P N M A"
_symmetry_group_IT_number 62
_symmetry_cell_setting 'orthorhombic'
loop_
_space_group_symop_operation_xyz
x,y,z
1/2-x,-y,1/2+z
1/2+x,1/2-y,1/2-z
-x,1/2+y,-z
-x,-y,-z
1/2+x,y,1/2-z
1/2-x,1/2+y,1/2+z
x,1/2-y,z
loop_
_atom_site_type_symbol
_atom_site_label
_atom_site_fract_x
_atom_site_fract_y
_atom_site_fract_z
Si Si1 0.449217 0.584688 0.606989
Si Si2 0.612089 0.082097 0.220745
Si Si3 0.885185 0.091683 0.477766
Si Si4 0.730319 0.579490 0.113323
Si Si5 0.597221 0.418930 0.570997
Si Si6 0.491189 0.590071 0.119886
O O1 0.475081 0.750000 0.601134
O O2 0.389741 0.560489 0.681750
O O3 0.528498 0.495258 0.621057
O O4 0.405812 0.535207 0.524277
O O5 0.613042 0.250000 0.195990
O O6 0.689989 0.005521 0.187485
O O7 0.533735 0.010126 0.185603
O O8 0.868393 0.250000 0.439951
O O9 0.809520 0.035390 0.527169
O O10 0.956374 0.104711 0.540239
O O11 0.908215 0.982212 0.405189
O O12 0.718546 0.750000 0.128036
O O13 0.820315 0.532797 0.109075
O O14 0.586006 0.250000 0.580914
O O15 0.475148 0.750000 0.156247
#
# Coordination Sequence:
#
# PCOD8250981 Si02
#       6
#     8   8   8   8   8   8
#     4   9  19  35  54  76  99 128 167 205 245 293
#     4  10  19  31  49  73 103 134 164 203 248 296
#     4   8  14  25  41  63  93 128 162 195 236 289
#     4   9  18  32  51  75 102 131 163 202 250 299
#     4   9  18  35  57  76  97 128 166 207 247 290
#     4   9  16  26  42  65  94 128 166 202 238 287
#
# _framework density 18.430430000000001
#
# number of rings (size 3 to 8) (size 9 to 14) (size 15 to 20)
#    0.000    3.000    0.000    2.000    0.000    6.000 
#    0.000    1.667    0.000    4.000    0.000    0.000 
#    0.000    0.000    0.000    0.000    0.000    0.000 
#
# Total GULP energy -595027.534846 kJ/mol
# GULP energy per Si atom -12396.406976 kJ/mol
# Density = 1.838848 g / cm^3
# Si number density = 18.430430 Si / 1000 Ang^3
#
#
#
# Elastic Constant Matrix: (Units=GPa)
#
#
# Indices 1 2 3 4 5 6 
#
# 1 106.0193 46.4075 41.3813 0.0000 0.0000 0.0000
# 2 46.4075 83.2040 37.9629 0.0000 0.0000 0.0000
# 3 41.3813 37.9629 66.1025 0.0000 0.0000 0.0000
# 4 0.0000 0.0000 0.0000 24.0903 0.0000 0.0000
# 5 0.0000 0.0000 0.0000 0.0000 17.0762 0.0000
# 6 0.0000 0.0000 0.0000 0.0000 0.0000 27.4997
#
#
#
# Elastic Compliance Matrix: (Units=1/GPa)
#
#
# Indices 1 2 3 4 5 6 
#
# 1 0.013934 -0.005138 -0.005772 0.000000 0.000000 0.000000
# 2 -0.005138 0.018181 -0.007225 0.000000 0.000000 0.000000
# 3 -0.005772 -0.007225 0.022891 0.000000 0.000000 0.000000
# 4 0.000000 0.000000 0.000000 0.041510 0.000000 0.000000
# 5 0.000000 0.000000 0.000000 0.000000 0.058561 0.000000
# 6 0.000000 0.000000 0.000000 0.000000 0.000000 0.036364
#
#
# Mechanical properties :
#
#
# Convention : Reuss Voigt Hill
#
# Bulk Modulus (GPa) = 53.37447 56.31436 54.84442
# Shear Modulus (GPa) = 21.37142 22.37152 21.87147
#
# Velocity S-wave (km/s) = 3.40894 3.48779 3.44859
# Velocity P-wave (km/s) = 6.67213 6.84405 6.75864
#
# Compressibility (1/GPa) = 0.01873555
#
# Stress axis : x y z
#
# Youngs Moduli (GPa) = 71.76459 55.00256 43.68589
#
# Poissons Ratio (x) = 0.28262 0.25216
# Poissons Ratio (y) = 0.36875 0.31562
# Poissons Ratio (z) = 0.41424 0.39738
#
# Static dielectric constant tensor:
#      x y z
#    x 3.283200 0.000000 0.000000 
#    y 0.000000 3.574680 0.000000 
#    z 0.000000 0.000000 3.216530 
# 
# 
# High freq. dielectric constant tensor:
#      x y z
#    x 1.694320 0.000000 0.000000 
#    y 0.000000 1.717930 0.000000 
#    z 0.000000 0.000000 1.691980 
# 
# From -- ./inp_files/24188.got.cif
#   From: 2010.03.12/outbox.cif.g09.slc.cpg/sg62_13_cif.got.tgz:24188.got - 2010.04.10 19:12:36.
