data_PCOD8250499
_publ_section_title
;
Structure prediction by ZEFSAII (Michael W. Deem and Ramdas Pophale) SiO2 
 PCOD8250499
Probable space group: P N M A
;
_chemical_formula_sum "Si O2"
_cell_formula_units_Z 56
_cell_length_a 9.713893
_cell_length_b 14.593007
_cell_length_c 21.854634
_cell_angle_alpha 90.000000
_cell_angle_beta 90.000000
_cell_angle_gamma 90.000000
_cell_volume 3098.001644
_symmetry_space_group_name_H-M "P N M A"
_symmetry_group_IT_number 62
_symmetry_cell_setting 'orthorhombic'
loop_
_space_group_symop_operation_xyz
x,y,z
1/2-x,-y,1/2+z
1/2+x,1/2-y,1/2-z
-x,1/2+y,-z
-x,-y,-z
1/2+x,y,1/2-z
1/2-x,1/2+y,1/2+z
x,1/2-y,z
loop_
_atom_site_type_symbol
_atom_site_label
_atom_site_fract_x
_atom_site_fract_y
_atom_site_fract_z
Si Si1 0.974807 0.645853 0.472561
Si Si2 0.225951 0.542599 0.070571
Si Si3 0.008887 0.143000 0.868615
Si Si4 0.425049 0.032588 0.749822
Si Si5 0.306001 0.148365 0.072396
Si Si6 0.679843 0.957758 0.815165
Si Si7 0.824956 0.143457 0.634695
O O1 0.936331 0.750000 0.457738
O O2 0.048395 0.636286 0.538060
O O3 0.078458 0.608123 0.420394
O O4 0.831160 0.590794 0.476333
O O5 0.081046 0.594803 0.077511
O O6 0.203298 0.434692 0.051165
O O7 0.303759 0.542950 0.136850
O O8 0.971670 0.250000 0.867055
O O9 0.976525 0.101455 0.802371
O O10 0.167581 0.125752 0.885472
O O11 0.356962 0.090760 0.803412
O O12 0.549420 0.970688 0.772785
O O13 0.316521 0.957503 0.726083
O O14 0.243818 0.250000 0.058793
O O15 0.333292 0.136498 0.145439
O O16 0.849235 0.250000 0.647742
#
# Coordination Sequence:
#
# PCOD8250499 Si02
#       7
#     8   8   8   8   8   8   8
#     4  10  18  31  54  78 102 133 172 212 257 314
#     4   9  18  32  51  73  97 131 170 208 253 299
#     4  10  20  31  45  72 110 138 160 199 252 309
#     4  11  17  33  46  73 100 137 164 204 244 307
#     4   9  19  35  53  75  99 131 177 225 259 291
#     4   9  20  30  54  68 101 129 168 207 253 297
#     4  10  19  29  46  74 106 138 166 199 251 311
#
# _framework density 18.076167999999999
#
# number of rings (size 3 to 8) (size 9 to 14) (size 15 to 20)
#    0.857    1.429    2.857    1.286    0.000    0.000 
#    0.000    1.429    0.000    0.000    0.000    3.000 
#    0.000    0.000    0.000    0.000    0.000    0.000 
#
# Total GULP energy -693833.610332 kJ/mol
# GULP energy per Si atom -12389.885899 kJ/mol
# Density = 1.803503 g / cm^3
# Si number density = 18.076168 Si / 1000 Ang^3
#
#
#
# Elastic Constant Matrix: (Units=GPa)
#
#
# Indices 1 2 3 4 5 6 
#
# 1 64.2776 18.7477 11.4023 0.0000 0.0000 0.0000
# 2 18.7477 76.6750 15.9143 0.0000 0.0000 0.0000
# 3 11.4023 15.9143 33.9517 0.0000 0.0000 0.0000
# 4 0.0000 0.0000 0.0000 26.6733 0.0000 0.0000
# 5 0.0000 0.0000 0.0000 0.0000 17.9142 0.0000
# 6 0.0000 0.0000 0.0000 0.0000 0.0000 15.2040
#
#
#
# Elastic Compliance Matrix: (Units=1/GPa)
#
#
# Indices 1 2 3 4 5 6 
#
# 1 0.017285 -0.003347 -0.004236 0.000000 0.000000 0.000000
# 2 -0.003347 0.015096 -0.005952 0.000000 0.000000 0.000000
# 3 -0.004236 -0.005952 0.033666 0.000000 0.000000 0.000000
# 4 0.000000 0.000000 0.000000 0.037491 0.000000 0.000000
# 5 0.000000 0.000000 0.000000 0.000000 0.055822 0.000000
# 6 0.000000 0.000000 0.000000 0.000000 0.000000 0.065772
#
#
# Mechanical properties :
#
#
# Convention : Reuss Voigt Hill
#
# Bulk Modulus (GPa) = 25.65622 29.67033 27.66327
# Shear Modulus (GPa) = 18.85414 20.54766 19.70090
#
# Velocity S-wave (km/s) = 3.23311 3.37520 3.30492
# Velocity P-wave (km/s) = 5.30675 5.62485 5.46811
#
# Compressibility (1/GPa) = 0.03897691
#
# Stress axis : x y z
#
# Youngs Moduli (GPa) = 57.85285 66.24366 29.70349
#
# Poissons Ratio (x) = 0.22173 0.12583
# Poissons Ratio (y) = 0.19364 0.17679
# Poissons Ratio (z) = 0.24507 0.39427
#
# Static dielectric constant tensor:
#      x y z
#    x 3.230960 0.000000 0.000000 
#    y 0.000000 3.167520 0.000000 
#    z 0.000000 0.000000 3.243680 
# 
# 
# High freq. dielectric constant tensor:
#      x y z
#    x 1.691070 0.000000 0.000000 
#    y 0.000000 1.681480 0.000000 
#    z 0.000000 0.000000 1.689520 
# 
# From -- ./inp_files/29025.got.cif
#   From: 2010.03.12/outbox.cif.g09.slc.cpg/sg62_15_cif.got.tgz:29025.got - 2010.04.10 19:12:36.
