data_PCOD8250727
_publ_section_title
;
Structure prediction by ZEFSAII (Michael W. Deem and Ramdas Pophale) SiO2 
 PCOD8250727
Probable space group: P N M A
;
_chemical_formula_sum "Si O2"
_cell_formula_units_Z 64
_cell_length_a 18.193364
_cell_length_b 15.766346
_cell_length_c 11.081948
_cell_angle_alpha 90.000000
_cell_angle_beta 90.000000
_cell_angle_gamma 90.000000
_cell_volume 3178.777789
_symmetry_space_group_name_H-M "P N M A"
_symmetry_group_IT_number 62
_symmetry_cell_setting 'orthorhombic'
loop_
_space_group_symop_operation_xyz
x,y,z
1/2-x,-y,1/2+z
1/2+x,1/2-y,1/2-z
-x,1/2+y,-z
-x,-y,-z
1/2+x,y,1/2-z
1/2-x,1/2+y,1/2+z
x,1/2-y,z
loop_
_atom_site_type_symbol
_atom_site_label
_atom_site_fract_x
_atom_site_fract_y
_atom_site_fract_z
Si Si1 0.104215 0.656785 0.004499
Si Si2 0.957451 0.573371 0.747011
Si Si3 0.934136 0.655519 0.987220
Si Si4 0.216619 0.655190 0.208354
Si Si5 0.849936 0.937264 0.392887
Si Si6 0.864269 0.053906 0.607159
Si Si7 0.995543 0.649342 0.495076
Si Si8 0.598964 0.498502 0.647052
O O1 0.122781 0.750000 0.947977
O O2 0.131940 0.582503 0.916171
O O3 0.018113 0.648969 0.028476
O O4 0.141302 0.647697 0.134259
O O5 0.926021 0.640995 0.843086
O O6 0.890689 0.516953 0.701138
O O7 0.996416 0.621161 0.635005
O O8 0.014007 0.513329 0.818631
O O9 0.903171 0.750000 0.016436
O O10 0.890733 0.583896 0.061918
O O11 0.234306 0.750000 0.249002
O O12 0.282532 0.626871 0.120653
O O13 0.203438 0.603345 0.331688
O O14 0.854800 0.985151 0.266605
O O15 0.924981 0.888659 0.426583
O O16 0.830174 0.007832 0.491300
O O17 0.931652 0.114501 0.569157
O O18 0.994016 0.750000 0.484853
#
# Coordination Sequence:
#
# PCOD8250727 Si02
#       8
#     8   8   8   8   8   8   8   8
#     4   9  20  36  58  86 114 155 203 244 296 359
#     4  10  18  37  57  88 120 152 199 253 302 360
#     4  10  20  32  56  91 121 156 196 244 303 359
#     4  11  24  41  60  86 119 157 205 256 305 369
#     4  11  24  39  59  89 123 157 204 249 318 367
#     4  11  21  41  62  89 116 161 209 245 303 373
#     4  11  21  37  63  91 123 158 203 262 309 363
#     4  11  19  36  58  85 123 155 194 248 304 359
#
# _framework density 20.133524999999999
#
# number of rings (size 3 to 8) (size 9 to 14) (size 15 to 20)
#    0.000    1.500    2.500    4.875    1.750    1.500 
#    0.000    0.000    0.000    0.000    0.000    0.000 
#    0.000    0.000    0.000    0.000    0.000    0.000 
#
# Total GULP energy -793603.027650 kJ/mol
# GULP energy per Si atom -12400.047307 kJ/mol
# Density = 2.008770 g / cm^3
# Si number density = 20.133525 Si / 1000 Ang^3
#
#
#
# Elastic Constant Matrix: (Units=GPa)
#
#
# Indices 1 2 3 4 5 6 
#
# 1 46.9333 27.5945 26.3856 0.0000 0.0000 0.0000
# 2 27.5945 157.3243 62.6728 0.0000 0.0000 0.0000
# 3 26.3856 62.6728 107.3075 0.0000 0.0000 0.0000
# 4 0.0000 0.0000 0.0000 30.8691 0.0000 0.0000
# 5 0.0000 0.0000 0.0000 0.0000 9.6439 0.0000
# 6 0.0000 0.0000 0.0000 0.0000 0.0000 20.6408
#
#
#
# Elastic Compliance Matrix: (Units=1/GPa)
#
#
# Indices 1 2 3 4 5 6 
#
# 1 0.025500 -0.002574 -0.004767 0.000000 0.000000 0.000000
# 2 -0.002574 0.008543 -0.004357 0.000000 0.000000 0.000000
# 3 -0.004767 -0.004357 0.013036 0.000000 0.000000 0.000000
# 4 0.000000 0.000000 0.000000 0.032395 0.000000 0.000000
# 5 0.000000 0.000000 0.000000 0.000000 0.103693 0.000000
# 6 0.000000 0.000000 0.000000 0.000000 0.000000 0.048448
#
#
# Mechanical properties :
#
#
# Convention : Reuss Voigt Hill
#
# Bulk Modulus (GPa) = 42.22252 60.54119 51.38185
# Shear Modulus (GPa) = 19.01831 25.22489 22.12160
#
# Velocity S-wave (km/s) = 3.07678 3.54344 3.31833
# Velocity P-wave (km/s) = 5.79991 6.84664 6.34489
#
# Compressibility (1/GPa) = 0.02368405
#
# Stress axis : x y z
#
# Youngs Moduli (GPa) = 39.21571 117.04995 76.71181
#
# Poissons Ratio (x) = 0.30125 0.36568
# Poissons Ratio (y) = 0.10093 0.33423
# Poissons Ratio (z) = 0.18694 0.50998
#
# Static dielectric constant tensor:
#      x y z
#    x 3.294460 0.000000 0.000000 
#    y 0.000000 3.926840 0.000000 
#    z 0.000000 0.000000 3.793920 
# 
# 
# High freq. dielectric constant tensor:
#      x y z
#    x 1.753430 0.000000 0.000000 
#    y 0.000000 1.798480 0.000000 
#    z 0.000000 0.000000 1.794150 
# 
# From -- ./inp_files/14363.got.cif
#   From: 2010.03.12/outbox.cif.g09.slc.cpg/sg62_8_cif.got.tgz:14363.got - 2010.04.10 19:12:36.
