data_PCOD8250405
_publ_section_title
;
Structure prediction by ZEFSAII (Michael W. Deem and Ramdas Pophale) SiO2 
 PCOD8250405
Probable space group: P N M A
;
_chemical_formula_sum "Si O2"
_cell_formula_units_Z 32
_cell_length_a 35.350032
_cell_length_b 5.354725
_cell_length_c 8.639932
_cell_angle_alpha 90.000000
_cell_angle_beta 90.000000
_cell_angle_gamma 90.000000
_cell_volume 1635.450137
_symmetry_space_group_name_H-M "P N M A"
_symmetry_group_IT_number 62
_symmetry_cell_setting 'orthorhombic'
loop_
_space_group_symop_operation_xyz
x,y,z
1/2-x,-y,1/2+z
1/2+x,1/2-y,1/2-z
-x,1/2+y,-z
-x,-y,-z
1/2+x,y,1/2-z
1/2-x,1/2+y,1/2+z
x,1/2-y,z
loop_
_atom_site_type_symbol
_atom_site_label
_atom_site_fract_x
_atom_site_fract_y
_atom_site_fract_z
Si Si1 0.589510 0.250000 0.915346
Si Si2 0.588677 0.750000 0.728038
Si Si3 0.208178 0.750000 0.495316
Si Si4 0.676431 0.750000 0.658767
Si Si5 0.986565 0.250000 0.080770
Si Si6 0.322268 0.750000 0.022980
Si Si7 0.792609 0.750000 0.129187
Si Si8 0.515918 0.250000 0.076513
O O1 0.579827 0.499717 0.822009
O O2 0.633207 0.250000 0.957783
O O3 0.561823 0.250000 0.063189
O O4 0.631838 0.750000 0.677148
O O5 0.559371 0.750000 0.585268
O O6 0.200274 0.750000 0.680392
O O7 0.189045 0.498263 0.427150
O O8 0.250723 0.750000 0.436985
O O9 0.687639 0.501247 0.563406
O O10 0.005085 0.250000 0.247237
O O11 0.000000 0.500000 0.000000
O O12 0.298527 0.750000 0.184361
O O13 0.500000 0.500000 0.000000
#
# Coordination Sequence:
#
# PCOD8250405 Si02
#       8
#     4   4   4   4   4   4   4   4
#     4  12  19  37  64  93 119 155 216 283 300 368
#     4  12  20  38  66  88 120 164 214 265 316 385
#     4  10  18  31  51  80 113 144 185 254 299 353
#     4  10  19  34  53  86 104 149 213 237 300 371
#     4  12  26  43  64  96 139 175 209 271 350 402
#     4  10  19  33  52  85 110 147 203 243 318 354
#     4  10  18  30  53  77 116 141 180 246 309 361
#     4  12  23  40  67 101 127 167 230 273 314 386
#
# _framework density 19.566479000000001
#
# number of rings (size 3 to 8) (size 9 to 14) (size 15 to 20)
#    0.000    1.000    7.500    2.250    0.000    0.000 
#    0.000    0.000    0.000   18.000    0.000    0.000 
#    0.000    0.000    0.000    0.000    0.000    0.000 
#
# Total GULP energy -396439.286255 kJ/mol
# GULP energy per Si atom -12388.727695 kJ/mol
# Density = 1.952194 g / cm^3
# Si number density = 19.566479 Si / 1000 Ang^3
#
#
#
# Elastic Constant Matrix: (Units=GPa)
#
#
# Indices 1 2 3 4 5 6 
#
# 1 185.7509 62.8418 60.7254 0.0000 0.0000 0.0000
# 2 62.8418 240.7181 42.9068 0.0000 0.0000 0.0000
# 3 60.7254 42.9068 65.6985 0.0000 0.0000 0.0000
# 4 0.0000 0.0000 0.0000 22.2075 0.0000 0.0000
# 5 0.0000 0.0000 0.0000 0.0000 41.6589 0.0000
# 6 0.0000 0.0000 0.0000 0.0000 0.0000 58.9853
#
#
#
# Elastic Compliance Matrix: (Units=1/GPa)
#
#
# Indices 1 2 3 4 5 6 
#
# 1 0.007868 -0.000858 -0.006712 0.000000 0.000000 0.000000
# 2 -0.000858 0.004795 -0.002339 0.000000 0.000000 0.000000
# 3 -0.006712 -0.002339 0.022953 0.000000 0.000000 0.000000
# 4 0.000000 0.000000 0.000000 0.045030 0.000000 0.000000
# 5 0.000000 0.000000 0.000000 0.000000 0.024004 0.000000
# 6 0.000000 0.000000 0.000000 0.000000 0.000000 0.016953
#
#
# Mechanical properties :
#
#
# Convention : Reuss Voigt Hill
#
# Bulk Modulus (GPa) = 63.29846 91.67950 77.48898
# Shear Modulus (GPa) = 34.08604 46.28324 40.18464
#
# Velocity S-wave (km/s) = 4.17833 4.86885 4.53675
# Velocity P-wave (km/s) = 7.46315 8.86367 8.19339
#
# Compressibility (1/GPa) = 0.01579817
#
# Stress axis : x y z
#
# Youngs Moduli (GPa) = 127.09528 208.55001 43.56747
#
# Poissons Ratio (x) = 0.17885 0.29244
# Poissons Ratio (y) = 0.10900 0.10190
# Poissons Ratio (z) = 0.85312 0.48777
#
# Static dielectric constant tensor:
#      x y z
#    x 3.825390 0.000000 0.000000 
#    y 0.000000 4.849290 0.000000 
#    z 0.000000 0.000000 2.795330 
# 
# 
# High freq. dielectric constant tensor:
#      x y z
#    x 1.777870 0.000000 0.000000 
#    y 0.000000 1.814670 0.000000 
#    z 0.000000 0.000000 1.694660 
# 
# From -- ./inp_files/9985.got.cif
#   From: 2010.03.12/outbox.cif.g09.slc.cpg/sg62_5_cif.got.tgz:9985.got - 2010.04.10 19:12:36.
