data_PCOD8250010
_publ_section_title
;
Structure prediction by ZEFSAII (Michael W. Deem and Ramdas Pophale) SiO2 
 PCOD8250010
Probable space group: P N M A
;
_chemical_formula_sum "Si O2"
_cell_formula_units_Z 56
_cell_length_a 5.271984
_cell_length_b 21.466278
_cell_length_c 29.337799
_cell_angle_alpha 90.000000
_cell_angle_beta 90.000000
_cell_angle_gamma 90.000000
_cell_volume 3320.155021
_symmetry_space_group_name_H-M "P N M A"
_symmetry_group_IT_number 62
_symmetry_cell_setting 'orthorhombic'
loop_
_space_group_symop_operation_xyz
x,y,z
1/2-x,-y,1/2+z
1/2+x,1/2-y,1/2-z
-x,1/2+y,-z
-x,-y,-z
1/2+x,y,1/2-z
1/2-x,1/2+y,1/2+z
x,1/2-y,z
loop_
_atom_site_type_symbol
_atom_site_label
_atom_site_fract_x
_atom_site_fract_y
_atom_site_fract_z
Si Si1 0.557140 0.881453 0.207421
Si Si2 0.045480 0.250000 0.867883
Si Si3 0.508387 0.536439 0.930735
Si Si4 0.058550 0.570244 0.193905
Si Si5 0.492001 0.005586 0.384495
Si Si6 0.490078 0.902627 0.022949
Si Si7 0.047152 0.250000 0.690369
Si Si8 0.009720 0.129962 0.930168
O O1 0.587423 0.927249 0.251120
O O2 0.327965 0.904107 0.174502
O O3 0.496270 0.810621 0.222354
O O4 0.820534 0.885361 0.179599
O O5 0.831690 0.250000 0.828656
O O6 0.333750 0.250000 0.849119
O O7 0.002002 0.188511 0.897294
O O8 0.768390 0.544720 0.902492
O O9 0.493332 0.591132 0.968082
O O10 0.264547 0.541597 0.897565
O O11 0.505989 0.470649 0.955374
O O12 0.011436 0.502356 0.171036
O O13 0.495957 0.934564 0.402324
O O14 0.236477 0.866300 0.037293
O O15 0.739166 0.865434 0.038724
#
# Coordination Sequence:
#
# PCOD8250010 Si02
#       8
#     8   4   8   8   8   8   4   8
#     4  10  21  33  45  57  76 108 142 184 223 254
#     4  12  24  34  47  66  82 112 150 186 226 264
#     4   9  17  27  45  65  80  97 123 154 210 266
#     4  10  20  32  44  59  78 101 136 170 222 265
#     4  10  17  28  44  62  81 101 125 170 214 258
#     4   9  17  30  44  62  81 101 123 156 203 266
#     4  12  22  34  47  58  78 104 152 198 224 258
#     4  10  19  30  44  58  82 106 130 165 209 254
#
# _framework density 16.866682000000001
#
# number of rings (size 3 to 8) (size 9 to 14) (size 15 to 20)
#    0.000    2.000    0.000    5.143    0.000    8.000 
#    0.000    0.714    0.000    0.000    0.000    0.000 
#    0.000    0.000    0.000    0.000    0.000    0.000 
#
# Total GULP energy -693848.940232 kJ/mol
# GULP energy per Si atom -12390.159647 kJ/mol
# Density = 1.682829 g / cm^3
# Si number density = 16.866682 Si / 1000 Ang^3
#
#
#
# Elastic Constant Matrix: (Units=GPa)
#
#
# Indices 1 2 3 4 5 6 
#
# 1 144.8498 8.7938 19.4292 0.0000 0.0000 0.0000
# 2 8.7938 13.1707 18.0605 0.0000 0.0000 0.0000
# 3 19.4292 18.0605 66.8912 0.0000 0.0000 0.0000
# 4 0.0000 0.0000 0.0000 20.1548 0.0000 0.0000
# 5 0.0000 0.0000 0.0000 0.0000 18.5958 0.0000
# 6 0.0000 0.0000 0.0000 0.0000 0.0000 15.3939
#
#
#
# Elastic Compliance Matrix: (Units=1/GPa)
#
#
# Indices 1 2 3 4 5 6 
#
# 1 0.007263 -0.003107 -0.001271 0.000000 0.000000 0.000000
# 2 -0.003107 0.121893 -0.032009 0.000000 0.000000 0.000000
# 3 -0.001271 -0.032009 0.023961 0.000000 0.000000 0.000000
# 4 0.000000 0.000000 0.000000 0.049616 0.000000 0.000000
# 5 0.000000 0.000000 0.000000 0.000000 0.053776 0.000000
# 6 0.000000 0.000000 0.000000 0.000000 0.000000 0.064961
#
#
# Mechanical properties :
#
#
# Convention : Reuss Voigt Hill
#
# Bulk Modulus (GPa) = 12.44635 35.27543 23.86089
# Shear Modulus (GPa) = 11.87583 22.73742 17.30663
#
# Velocity S-wave (km/s) = 2.65637 3.67559 3.20673
# Velocity P-wave (km/s) = 4.09923 6.24283 5.28094
#
# Compressibility (1/GPa) = 0.08034482
#
# Stress axis : x y z
#
# Youngs Moduli (GPa) = 137.68877 8.20391 41.73448
#
# Poissons Ratio (x) = 0.02549 0.05303
# Poissons Ratio (y) = 0.42776 1.33586
# Poissons Ratio (z) = 0.17497 0.26260
#
# Static dielectric constant tensor:
#      x y z
#    x 3.971940 0.000000 0.000000 
#    y 0.000000 2.656580 0.000000 
#    z 0.000000 0.000000 3.125860 
# 
# 
# High freq. dielectric constant tensor:
#      x y z
#    x 1.693220 0.000000 0.000000 
#    y 0.000000 1.565220 0.000000 
#    z 0.000000 0.000000 1.634760 
# 
# From -- ./inp_files/30574.got.cif
#   From: 2010.03.12/outbox.cif.g09.slc.cpg/sg62_16_cif.got.tgz:30574.got - 2010.04.10 19:12:36.
