data_PCOD8250158
_publ_section_title
;
Structure prediction by ZEFSAII (Michael W. Deem and Ramdas Pophale) SiO2 
 PCOD8250158
Probable space group: P N M A
;
_chemical_formula_sum "Si O2"
_cell_formula_units_Z 64
_cell_length_a 26.270771
_cell_length_b 8.880288
_cell_length_c 18.494573
_cell_angle_alpha 90.000000
_cell_angle_beta 90.000000
_cell_angle_gamma 90.000000
_cell_volume 4314.636155
_symmetry_space_group_name_H-M "P N M A"
_symmetry_group_IT_number 62
_symmetry_cell_setting 'orthorhombic'
loop_
_space_group_symop_operation_xyz
x,y,z
1/2-x,-y,1/2+z
1/2+x,1/2-y,1/2-z
-x,1/2+y,-z
-x,-y,-z
1/2+x,y,1/2-z
1/2-x,1/2+y,1/2+z
x,1/2-y,z
loop_
_atom_site_type_symbol
_atom_site_label
_atom_site_fract_x
_atom_site_fract_y
_atom_site_fract_z
Si Si1 0.345462 0.575220 0.657813
Si Si2 0.694457 0.414590 0.802029
Si Si3 0.942627 0.424619 0.081019
Si Si4 0.740652 0.573176 0.593239
Si Si5 0.355424 0.569863 0.335739
Si Si6 0.701851 0.916843 0.213802
Si Si7 0.941939 0.922584 0.932810
Si Si8 0.742920 0.928428 0.427989
O O1 0.332182 0.750000 0.665381
O O2 0.339976 0.499378 0.736474
O O3 0.403335 0.547637 0.632628
O O4 0.309216 0.505783 0.596514
O O5 0.672464 0.250000 0.819880
O O6 0.654454 0.493566 0.746825
O O7 0.746662 0.403987 0.758142
O O8 0.709468 0.492778 0.878644
O O9 0.929645 0.250000 0.090196
O O10 0.910956 0.517790 0.139988
O O11 0.001706 0.461466 0.095837
O O12 0.927058 0.473308 0.000330
O O13 0.734882 0.750000 0.606593
O O14 0.686852 0.495835 0.610351
O O15 0.787325 0.510314 0.640815
O O16 0.754567 0.534314 0.510694
O O17 0.350735 0.750000 0.336725
O O18 0.681895 0.750000 0.193390
O O19 0.939489 0.750000 0.959707
O O20 0.737111 0.750000 0.414099
#
# Coordination Sequence:
#
# PCOD8250158 Si02
#       8
#     8   8   8   8   8   8   8   8
#     4  10  18  28  43  60  79 106 141 174 204 243
#     4   7  13  26  40  53  73 103 133 160 192 232
#     4  10  19  30  43  59  81 108 139 175 210 245
#     4  10  18  27  42  63  84 108 140 172 201 241
#     4  10  18  28  42  58  80 111 142 170 204 244
#     4   9  17  29  42  57  81 109 135 166 205 245
#     4   9  19  32  43  58  81 108 138 174 212 246
#     4   9  17  28  41  59  83 109 136 166 202 242
#
# _framework density 14.833232000000001
#
# number of rings (size 3 to 8) (size 9 to 14) (size 15 to 20)
#    0.000    2.750    0.000    4.125    0.000    4.500 
#    0.000    0.625    0.000    0.000    0.000    0.000 
#    0.000    1.000    0.000    2.000    0.000    2.750 
#
# Total GULP energy -793122.922499 kJ/mol
# GULP energy per Si atom -12392.545664 kJ/mol
# Density = 1.479947 g / cm^3
# Si number density = 14.833232 Si / 1000 Ang^3
#
#
#
# Elastic Constant Matrix: (Units=GPa)
#
#
# Indices 1 2 3 4 5 6 
#
# 1 70.2559 31.4043 52.6673 0.0000 0.0000 0.0000
# 2 31.4043 69.9224 42.7748 0.0000 0.0000 0.0000
# 3 52.6673 42.7748 109.8785 0.0000 0.0000 0.0000
# 4 0.0000 0.0000 0.0000 21.8391 0.0000 0.0000
# 5 0.0000 0.0000 0.0000 0.0000 24.6218 0.0000
# 6 0.0000 0.0000 0.0000 0.0000 0.0000 19.0010
#
#
#
# Elastic Compliance Matrix: (Units=1/GPa)
#
#
# Indices 1 2 3 4 5 6 
#
# 1 0.023375 -0.004784 -0.009342 0.000000 0.000000 0.000000
# 2 -0.004784 0.019751 -0.005396 0.000000 0.000000 0.000000
# 3 -0.009342 -0.005396 0.015679 0.000000 0.000000 0.000000
# 4 0.000000 0.000000 0.000000 0.045789 0.000000 0.000000
# 5 0.000000 0.000000 0.000000 0.000000 0.040614 0.000000
# 6 0.000000 0.000000 0.000000 0.000000 0.000000 0.052629
#
#
# Mechanical properties :
#
#
# Convention : Reuss Voigt Hill
#
# Bulk Modulus (GPa) = 50.60122 55.97217 53.28670
# Shear Modulus (GPa) = 20.53647 21.30640 20.92144
#
# Velocity S-wave (km/s) = 3.72491 3.79409 3.75966
# Velocity P-wave (km/s) = 7.25861 7.55048 7.40598
#
# Compressibility (1/GPa) = 0.01976237
#
# Stress axis : x y z
#
# Youngs Moduli (GPa) = 42.78035 50.63029 63.77757
#
# Poissons Ratio (x) = 0.24219 0.59582
# Poissons Ratio (y) = 0.20464 0.34415
# Poissons Ratio (z) = 0.39966 0.27320
#
# Static dielectric constant tensor:
#      x y z
#    x 2.745690 0.000000 0.000000 
#    y 0.000000 2.949750 0.000000 
#    z 0.000000 0.000000 3.058140 
# 
# 
# High freq. dielectric constant tensor:
#      x y z
#    x 1.532560 0.000000 0.000000 
#    y 0.000000 1.572780 0.000000 
#    z 0.000000 0.000000 1.560090 
# 
# From -- ./inp_files/25013.got.cif
#   From: 2010.03.12/outbox.cif.g09.slc.cpg/sg62_13_cif.got.tgz:25013.got - 2010.04.10 19:12:36.
