data_PCOD8250751
_publ_section_title
;
Structure prediction by ZEFSAII (Michael W. Deem and Ramdas Pophale) SiO2 
 PCOD8250751
Probable space group: P N M A
;
_chemical_formula_sum "Si O2"
_cell_formula_units_Z 64
_cell_length_a 18.079650
_cell_length_b 9.332741
_cell_length_c 26.704241
_cell_angle_alpha 90.000000
_cell_angle_beta 90.000000
_cell_angle_gamma 90.000000
_cell_volume 4505.878440
_symmetry_space_group_name_H-M "P N M A"
_symmetry_group_IT_number 62
_symmetry_cell_setting 'orthorhombic'
loop_
_space_group_symop_operation_xyz
x,y,z
1/2-x,-y,1/2+z
1/2+x,1/2-y,1/2-z
-x,1/2+y,-z
-x,-y,-z
1/2+x,y,1/2-z
1/2-x,1/2+y,1/2+z
x,1/2-y,z
loop_
_atom_site_type_symbol
_atom_site_label
_atom_site_fract_x
_atom_site_fract_y
_atom_site_fract_z
Si Si1 0.163962 0.583508 0.649987
Si Si2 0.587218 0.416821 0.046622
Si Si3 0.346974 0.585656 0.850486
Si Si4 0.278431 0.084886 0.703542
Si Si5 0.583714 0.582728 0.949616
Si Si6 0.934911 0.411667 0.253089
Si Si7 0.288175 0.089157 0.290235
Si Si8 0.579666 0.917132 0.239949
O O1 0.181607 0.750000 0.645940
O O2 0.242850 0.503623 0.657573
O O3 0.126950 0.526320 0.599113
O O4 0.108376 0.550824 0.695692
O O5 0.599002 0.250000 0.035925
O O6 0.635195 0.470614 0.093981
O O7 0.502225 0.453565 0.058494
O O8 0.615487 0.501574 0.998038
O O9 0.374010 0.750000 0.845639
O O10 0.257738 0.572898 0.842028
O O11 0.392045 0.496358 0.809647
O O12 0.260407 0.250000 0.694239
O O13 0.366107 0.058604 0.712187
O O14 0.240291 0.034849 0.754463
O O15 0.596234 0.750000 0.958081
O O16 0.966576 0.250000 0.255735
O O17 0.877255 0.427524 0.206094
O O18 0.000547 0.522035 0.243905
O O19 0.272296 0.250000 0.267787
O O20 0.573008 0.750000 0.227052
#
# Coordination Sequence:
#
# PCOD8250751 Si02
#       8
#     8   8   8   8   8   8   8   8
#     4   9  17  29  43  57  75 103 136 164 192 227
#     4   9  17  28  41  57  77 102 131 161 192 224
#     4   9  16  28  44  57  74 103 135 164 193 226
#     4   9  17  27  38  55  78 101 127 160 193 227
#     4   9  17  28  40  56  79 103 129 162 193 222
#     4   9  16  26  40  57  77 101 130 160 189 226
#     4   8  15  27  41  56  74  99 130 161 192 227
#     4  10  19  27  37  57  82 105 130 159 192 230
#
# _framework density 14.203668
#
# number of rings (size 3 to 8) (size 9 to 14) (size 15 to 20)
#    0.000    3.000    0.000    2.250    0.000    6.500 
#    0.000    2.500    0.000    0.000    0.000    0.000 
#    0.000    1.000    0.000    2.250    0.000    3.500 
#
# Total GULP energy -793082.194314 kJ/mol
# GULP energy per Si atom -12391.909286 kJ/mol
# Density = 1.417134 g / cm^3
# Si number density = 14.203668 Si / 1000 Ang^3
#
#
#
# Elastic Constant Matrix: (Units=GPa)
#
#
# Indices 1 2 3 4 5 6 
#
# 1 87.1592 44.8013 51.3259 0.0000 0.0000 0.0000
# 2 44.8013 55.7817 33.9909 0.0000 0.0000 0.0000
# 3 51.3259 33.9909 86.7077 0.0000 0.0000 0.0000
# 4 0.0000 0.0000 0.0000 20.7984 0.0000 0.0000
# 5 0.0000 0.0000 0.0000 0.0000 25.5322 0.0000
# 6 0.0000 0.0000 0.0000 0.0000 0.0000 20.3811
#
#
#
# Elastic Compliance Matrix: (Units=1/GPa)
#
#
# Indices 1 2 3 4 5 6 
#
# 1 0.023568 -0.013701 -0.008580 0.000000 0.000000 0.000000
# 2 -0.013701 0.031518 -0.004246 0.000000 0.000000 0.000000
# 3 -0.008580 -0.004246 0.018276 0.000000 0.000000 0.000000
# 4 0.000000 0.000000 0.000000 0.048081 0.000000 0.000000
# 5 0.000000 0.000000 0.000000 0.000000 0.039166 0.000000
# 6 0.000000 0.000000 0.000000 0.000000 0.000000 0.049065
#
#
# Mechanical properties :
#
#
# Convention : Reuss Voigt Hill
#
# Bulk Modulus (GPa) = 49.23756 54.43164 51.83460
# Shear Modulus (GPa) = 18.55312 19.97772 19.26542
#
# Velocity S-wave (km/s) = 3.61809 3.75443 3.68689
# Velocity P-wave (km/s) = 7.22459 7.56305 7.39576
#
# Compressibility (1/GPa) = 0.02030970
#
# Stress axis : x y z
#
# Youngs Moduli (GPa) = 42.43005 31.72821 54.71576
#
# Poissons Ratio (x) = 0.43469 0.46947
# Poissons Ratio (y) = 0.58131 0.23230
# Poissons Ratio (z) = 0.36406 0.13470
#
# Static dielectric constant tensor:
#      x y z
#    x 2.910110 0.000000 0.000000 
#    y 0.000000 2.813590 0.000000 
#    z 0.000000 0.000000 2.704460 
# 
# 
# High freq. dielectric constant tensor:
#      x y z
#    x 1.530040 0.000000 0.000000 
#    y 0.000000 1.548250 0.000000 
#    z 0.000000 0.000000 1.508950 
# 
# From -- ./inp_files/31336.got.cif
#   From: 2010.03.12/outbox.cif.g09.slc.cpg/sg62_16_cif.got.tgz:31336.got - 2010.04.10 19:12:36.
