data_PCOD8250404
_publ_section_title
;
Structure prediction by ZEFSAII (Michael W. Deem and Ramdas Pophale) SiO2 
 PCOD8250404
Probable space group: P N M A
;
_chemical_formula_sum "Si O2"
_cell_formula_units_Z 56
_cell_length_a 11.951923
_cell_length_b 13.083933
_cell_length_c 18.523098
_cell_angle_alpha 90.000000
_cell_angle_beta 90.000000
_cell_angle_gamma 90.000000
_cell_volume 2896.607978
_symmetry_space_group_name_H-M "P N M A"
_symmetry_group_IT_number 62
_symmetry_cell_setting 'orthorhombic'
loop_
_space_group_symop_operation_xyz
x,y,z
1/2-x,-y,1/2+z
1/2+x,1/2-y,1/2-z
-x,1/2+y,-z
-x,-y,-z
1/2+x,y,1/2-z
1/2-x,1/2+y,1/2+z
x,1/2-y,z
loop_
_atom_site_type_symbol
_atom_site_label
_atom_site_fract_x
_atom_site_fract_y
_atom_site_fract_z
Si Si1 0.049648 0.863416 0.292294
Si Si2 0.841844 0.559614 0.546497
Si Si3 0.962982 0.863212 0.130476
Si Si4 0.354178 0.496443 0.168508
Si Si5 0.086585 0.866670 0.538470
Si Si6 0.694097 0.868320 0.421969
Si Si7 0.263262 0.984335 0.320296
O O1 0.038395 0.750000 0.326480
O O2 0.010421 0.861720 0.210798
O O3 0.971328 0.941788 0.336596
O O4 0.178884 0.896064 0.294862
O O5 0.860830 0.441404 0.522041
O O6 0.743729 0.611044 0.500536
O O7 0.803887 0.565175 0.630289
O O8 0.952715 0.625836 0.535677
O O9 0.923153 0.750000 0.107696
O O10 0.063029 0.901022 0.077975
O O11 0.857746 0.938285 0.126655
O O12 0.368190 0.397258 0.118092
O O13 0.257388 0.568753 0.139211
O O14 0.320207 0.463068 0.249974
O O15 0.122502 0.750000 0.522437
O O16 0.703761 0.750000 0.400289
#
# Coordination Sequence:
#
# PCOD8250404 Si02
#       7
#     8   8   8   8   8   8   8
#     4  10  18  30  52  84 114 141 177 232 287 336
#     4  10  22  37  57  85 109 149 188 236 290 329
#     4   9  19  31  49  79 112 147 180 222 280 334
#     4  10  20  35  58  82 113 146 186 233 287 334
#     4  10  21  40  58  81 112 149 196 239 284 338
#     4  10  19  35  55  80 114 150 183 221 273 340
#     4  11  20  34  54  83 117 145 184 231 284 340
#
# _framework density 19.332958000000001
#
# number of rings (size 3 to 8) (size 9 to 14) (size 15 to 20)
#    0.000    2.000    2.857    1.286    0.000    2.857 
#    0.000    1.429    0.000    0.000    0.000    1.000 
#    0.000    0.000    0.000    0.000    0.000    0.000 
#
# Total GULP energy -694306.807196 kJ/mol
# GULP energy per Si atom -12398.335843 kJ/mol
# Density = 1.928896 g / cm^3
# Si number density = 19.332958 Si / 1000 Ang^3
#
#
#
# Elastic Constant Matrix: (Units=GPa)
#
#
# Indices 1 2 3 4 5 6 
#
# 1 73.0996 7.3977 8.3625 0.0000 0.0000 0.0000
# 2 7.3977 60.6180 4.6429 0.0000 0.0000 0.0000
# 3 8.3625 4.6429 68.0085 0.0000 0.0000 0.0000
# 4 0.0000 0.0000 0.0000 13.5392 0.0000 0.0000
# 5 0.0000 0.0000 0.0000 0.0000 32.6343 0.0000
# 6 0.0000 0.0000 0.0000 0.0000 0.0000 17.4729
#
#
#
# Elastic Compliance Matrix: (Units=1/GPa)
#
#
# Indices 1 2 3 4 5 6 
#
# 1 0.014026 -0.001588 -0.001616 0.000000 0.000000 0.000000
# 2 -0.001588 0.016763 -0.000949 0.000000 0.000000 0.000000
# 3 -0.001616 -0.000949 0.014968 0.000000 0.000000 0.000000
# 4 0.000000 0.000000 0.000000 0.073860 0.000000 0.000000
# 5 0.000000 0.000000 0.000000 0.000000 0.030643 0.000000
# 6 0.000000 0.000000 0.000000 0.000000 0.000000 0.057232
#
#
# Mechanical properties :
#
#
# Convention : Reuss Voigt Hill
#
# Bulk Modulus (GPa) = 26.70237 26.94804 26.82520
# Shear Modulus (GPa) = 21.90291 24.81746 23.36019
#
# Velocity S-wave (km/s) = 3.36956 3.58674 3.47985
# Velocity P-wave (km/s) = 5.38334 5.57872 5.48190
#
# Compressibility (1/GPa) = 0.03744987
#
# Stress axis : x y z
#
# Youngs Moduli (GPa) = 71.29842 59.65441 66.81110
#
# Poissons Ratio (x) = 0.09472 0.10798
# Poissons Ratio (y) = 0.11321 0.06341
# Poissons Ratio (z) = 0.11523 0.05662
#
# Static dielectric constant tensor:
#      x y z
#    x 3.772330 0.000000 0.000000 
#    y 0.000000 3.239030 0.000000 
#    z 0.000000 0.000000 3.466600 
# 
# 
# High freq. dielectric constant tensor:
#      x y z
#    x 1.763980 0.000000 0.000000 
#    y 0.000000 1.714890 0.000000 
#    z 0.000000 0.000000 1.747330 
# 
# From -- ./inp_files/26604.got.cif
#   From: 2010.03.12/outbox.cif.g09.slc.cpg/sg62_14_cif.got.tgz:26604.got - 2010.04.10 19:12:36.
