data_PCOD8250529
_publ_section_title
;
Structure prediction by ZEFSAII (Michael W. Deem and Ramdas Pophale) SiO2 
 PCOD8250529
Probable space group: P N M A
;
_chemical_formula_sum "Si O2"
_cell_formula_units_Z 64
_cell_length_a 20.494150
_cell_length_b 18.807896
_cell_length_c 9.366083
_cell_angle_alpha 90.000000
_cell_angle_beta 90.000000
_cell_angle_gamma 90.000000
_cell_volume 3610.173943
_symmetry_space_group_name_H-M "P N M A"
_symmetry_group_IT_number 62
_symmetry_cell_setting 'orthorhombic'
loop_
_space_group_symop_operation_xyz
x,y,z
1/2-x,-y,1/2+z
1/2+x,1/2-y,1/2-z
-x,1/2+y,-z
-x,-y,-z
1/2+x,y,1/2-z
1/2-x,1/2+y,1/2+z
x,1/2-y,z
loop_
_atom_site_type_symbol
_atom_site_label
_atom_site_fract_x
_atom_site_fract_y
_atom_site_fract_z
Si Si1 0.558878 0.472840 0.406971
Si Si2 0.705309 0.099044 0.852824
Si Si3 0.102783 0.330389 0.447781
Si Si4 0.760216 0.607049 0.037977
Si Si5 0.373441 0.830349 0.624355
Si Si6 0.001745 0.559810 0.613229
Si Si7 0.151709 0.560263 0.660524
Si Si8 0.319037 0.046887 0.474594
O O1 0.500000 0.500000 0.500000
O O2 0.579401 0.390870 0.445418
O O3 0.537899 0.473834 0.244001
O O4 0.615949 0.530048 0.434464
O O5 0.730458 0.131396 0.701885
O O6 0.668571 0.023272 0.847495
O O7 0.653265 0.150374 0.927422
O O8 0.772267 0.099693 0.940795
O O9 0.081850 0.250000 0.471029
O O10 0.135503 0.343340 0.293126
O O11 0.034829 0.372604 0.453279
O O12 0.782222 0.526575 0.039749
O O13 0.802156 0.660353 0.941739
O O14 0.688353 0.605430 0.964141
O O15 0.399903 0.750000 0.593364
O O16 0.075787 0.578833 0.648923
O O17 0.000000 0.500000 0.500000
O O18 0.169604 0.583947 0.821478
#
# Coordination Sequence:
#
# PCOD8250529 Si02
#       8
#     8   8   8   8   8   8   8   8
#     4  10  19  33  53  82 111 143 183 230 268 329
#     4  10  19  32  52  77 106 139 174 224 271 319
#     4  10  21  37  55  76 105 144 185 224 272 334
#     4   9  19  30  51  80 106 133 175 221 268 316
#     4   9  19  35  54  76 105 143 183 223 272 328
#     4  11  21  32  55  80 113 144 184 227 277 330
#     4  10  18  32  50  80 110 138 175 220 273 326
#     4   9  18  31  51  76 109 138 172 221 273 316
#
# _framework density 17.727677
#
# number of rings (size 3 to 8) (size 9 to 14) (size 15 to 20)
#    0.000    2.250    2.500    0.750    1.750    3.500 
#    0.000    0.625    0.000    1.500    0.000    0.000 
#    0.000    0.000    0.000    0.000    0.000    0.000 
#
# Total GULP energy -792985.518614 kJ/mol
# GULP energy per Si atom -12390.398728 kJ/mol
# Density = 1.768733 g / cm^3
# Si number density = 17.727677 Si / 1000 Ang^3
#
#
#
# Elastic Constant Matrix: (Units=GPa)
#
#
# Indices 1 2 3 4 5 6 
#
# 1 130.1526 36.7101 63.4256 0.0000 0.0000 0.0000
# 2 36.7101 73.4891 45.2420 0.0000 0.0000 0.0000
# 3 63.4256 45.2420 112.8888 0.0000 0.0000 0.0000
# 4 0.0000 0.0000 0.0000 20.3484 0.0000 0.0000
# 5 0.0000 0.0000 0.0000 0.0000 35.3360 0.0000
# 6 0.0000 0.0000 0.0000 0.0000 0.0000 19.5196
#
#
#
# Elastic Compliance Matrix: (Units=1/GPa)
#
#
# Indices 1 2 3 4 5 6 
#
# 1 0.010844 -0.002212 -0.005206 0.000000 0.000000 0.000000
# 2 -0.002212 0.018516 -0.006178 0.000000 0.000000 0.000000
# 3 -0.005206 -0.006178 0.014259 0.000000 0.000000 0.000000
# 4 0.000000 0.000000 0.000000 0.049144 0.000000 0.000000
# 5 0.000000 0.000000 0.000000 0.000000 0.028300 0.000000
# 6 0.000000 0.000000 0.000000 0.000000 0.000000 0.051231
#
#
# Mechanical properties :
#
#
# Convention : Reuss Voigt Hill
#
# Bulk Modulus (GPa) = 60.87441 67.47619 64.17530
# Shear Modulus (GPa) = 24.39491 26.45099 25.42295
#
# Velocity S-wave (km/s) = 3.71360 3.86693 3.79104
# Velocity P-wave (km/s) = 7.26642 7.62120 7.44593
#
# Compressibility (1/GPa) = 0.01642727
#
# Stress axis : x y z
#
# Youngs Moduli (GPa) = 92.21438 54.00874 70.13024
#
# Poissons Ratio (x) = 0.11946 0.36512
# Poissons Ratio (y) = 0.20397 0.43324
# Poissons Ratio (z) = 0.48010 0.33365
#
# Static dielectric constant tensor:
#      x y z
#    x 3.292970 0.000000 0.000000 
#    y 0.000000 3.079680 0.000000 
#    z 0.000000 0.000000 3.296440 
# 
# 
# High freq. dielectric constant tensor:
#      x y z
#    x 1.686030 0.000000 0.000000 
#    y 0.000000 1.650040 0.000000 
#    z 0.000000 0.000000 1.698040 
# 
# From -- ./inp_files/8902.got.cif
#   From: 2010.03.12/outbox.cif.g09.slc.cpg/sg62_5_cif.got.tgz:8902.got - 2010.04.10 19:12:36.
