data_PCOD8250147
_publ_section_title
;
Structure prediction by ZEFSAII (Michael W. Deem and Ramdas Pophale) SiO2 
 PCOD8250147
Probable space group: P N M A
;
_chemical_formula_sum "Si O2"
_cell_formula_units_Z 48
_cell_length_a 14.700533
_cell_length_b 8.878512
_cell_length_c 24.567330
_cell_angle_alpha 90.000000
_cell_angle_beta 90.000000
_cell_angle_gamma 90.000000
_cell_volume 3206.499872
_symmetry_space_group_name_H-M "P N M A"
_symmetry_group_IT_number 62
_symmetry_cell_setting 'orthorhombic'
loop_
_space_group_symop_operation_xyz
x,y,z
1/2-x,-y,1/2+z
1/2+x,1/2-y,1/2-z
-x,1/2+y,-z
-x,-y,-z
1/2+x,y,1/2-z
1/2-x,1/2+y,1/2+z
x,1/2-y,z
loop_
_atom_site_type_symbol
_atom_site_label
_atom_site_fract_x
_atom_site_fract_y
_atom_site_fract_z
Si Si1 0.194379 0.072686 0.254752
Si Si2 0.405902 0.424508 0.435057
Si Si3 0.179005 0.917529 0.148028
Si Si4 0.616644 0.424515 0.453806
Si Si5 0.842329 0.928997 0.174035
Si Si6 0.525026 0.916687 0.274568
O O1 0.205380 0.250000 0.254640
O O2 0.231555 0.005137 0.197062
O O3 0.249899 0.001778 0.304287
O O4 0.087250 0.027098 0.262825
O O5 0.381183 0.250000 0.429432
O O6 0.513683 0.450353 0.434468
O O7 0.363398 0.486868 0.490825
O O8 0.358818 0.513950 0.386532
O O9 0.221123 0.750000 0.140292
O O10 0.073242 0.904179 0.166093
O O11 0.184609 0.009818 0.091946
O O12 0.638406 0.250000 0.462805
O O13 0.834142 0.750000 0.173408
O O14 0.924251 0.981001 0.214447
O O15 0.521030 0.750000 0.247599
#
# Coordination Sequence:
#
# PCOD8250147 Si02
#       6
#     8   8   8   8   8   8
#     4  10  19  29  43  63  86 113 146 182 220 263
#     4  10  19  27  38  59  85 114 147 178 211 256
#     4   9  16  29  43  58  80 110 144 177 213 250
#     4  10  18  27  41  59  83 114 146 178 213 256
#     4  11  19  30  46  63  88 118 150 184 220 261
#     4   8  17  30  44  60  82 114 146 178 218 256
#
# _framework density 14.969594000000001
#
# number of rings (size 3 to 8) (size 9 to 14) (size 15 to 20)
#    1.000    1.333    1.667    3.000    0.000    2.667 
#    0.000    0.000    0.000    0.000    0.000    0.000 
#    0.000    1.333    0.000    5.000    0.000    7.667 
#
# Total GULP energy -594771.410581 kJ/mol
# GULP energy per Si atom -12391.071054 kJ/mol
# Density = 1.493552 g / cm^3
# Si number density = 14.969594 Si / 1000 Ang^3
#
#
#
# Elastic Constant Matrix: (Units=GPa)
#
#
# Indices 1 2 3 4 5 6 
#
# 1 7.8682 7.6378 10.1874 0.0000 0.0000 0.0000
# 2 7.6378 91.1945 31.9188 0.0000 0.0000 0.0000
# 3 10.1874 31.9188 62.1328 0.0000 0.0000 0.0000
# 4 0.0000 0.0000 0.0000 29.9135 0.0000 0.0000
# 5 0.0000 0.0000 0.0000 0.0000 23.6429 0.0000
# 6 0.0000 0.0000 0.0000 0.0000 0.0000 15.0812
#
#
#
# Elastic Compliance Matrix: (Units=1/GPa)
#
#
# Indices 1 2 3 4 5 6 
#
# 1 0.163383 -0.005252 -0.024090 0.000000 0.000000 0.000000
# 2 -0.005252 0.013538 -0.006094 0.000000 0.000000 0.000000
# 3 -0.024090 -0.006094 0.023175 0.000000 0.000000 0.000000
# 4 0.000000 0.000000 0.000000 0.033430 0.000000 0.000000
# 5 0.000000 0.000000 0.000000 0.000000 0.042296 0.000000
# 6 0.000000 0.000000 0.000000 0.000000 0.000000 0.066308
#
#
# Mechanical properties :
#
#
# Convention : Reuss Voigt Hill
#
# Bulk Modulus (GPa) = 7.73853 28.96486 18.35169
# Shear Modulus (GPa) = 10.96309 21.15764 16.06036
#
# Velocity S-wave (km/s) = 2.70915 3.76357 3.27902
# Velocity P-wave (km/s) = 3.86868 6.18684 5.15964
#
# Compressibility (1/GPa) = 0.12922351
#
# Stress axis : x y z
#
# Youngs Moduli (GPa) = 6.12060 73.86450 43.15004
#
# Poissons Ratio (x) = 0.38793 1.03950
# Poissons Ratio (y) = 0.03215 0.26295
# Poissons Ratio (z) = 0.14745 0.45011
#
# Static dielectric constant tensor:
#      x y z
#    x 2.517880 0.000000 0.000000 
#    y 0.000000 2.940860 0.000000 
#    z 0.000000 0.000000 2.724490 
# 
# 
# High freq. dielectric constant tensor:
#      x y z
#    x 1.518860 0.000000 0.000000 
#    y 0.000000 1.591190 0.000000 
#    z 0.000000 0.000000 1.556080 
# 
# From -- ./inp_files/29539.got.cif
#   From: 2010.03.12/outbox.cif.g09.slc.cpg/sg62_15_cif.got.tgz:29539.got - 2010.04.10 19:12:36.
