data_PCOD8250807
_publ_section_title
;
Structure prediction by ZEFSAII (Michael W. Deem and Ramdas Pophale) SiO2 
 PCOD8250807
Probable space group: P N M A
;
_chemical_formula_sum "Si O2"
_cell_formula_units_Z 64
_cell_length_a 19.120911
_cell_length_b 9.476378
_cell_length_c 19.119950
_cell_angle_alpha 90.000000
_cell_angle_beta 90.000000
_cell_angle_gamma 90.000000
_cell_volume 3464.477204
_symmetry_space_group_name_H-M "P N M A"
_symmetry_group_IT_number 62
_symmetry_cell_setting 'orthorhombic'
loop_
_space_group_symop_operation_xyz
x,y,z
1/2-x,-y,1/2+z
1/2+x,1/2-y,1/2-z
-x,1/2+y,-z
-x,-y,-z
1/2+x,y,1/2-z
1/2-x,1/2+y,1/2+z
x,1/2-y,z
loop_
_atom_site_type_symbol
_atom_site_label
_atom_site_fract_x
_atom_site_fract_y
_atom_site_fract_z
Si Si1 0.358860 0.911788 0.545263
Si Si2 0.987398 0.590979 0.749147
Si Si3 0.030010 0.585668 0.122039
Si Si4 0.785490 0.086443 0.385096
Si Si5 0.350252 0.411957 0.259506
Si Si6 0.976770 0.909362 0.595243
Si Si7 0.601924 0.087029 0.960153
Si Si8 0.367747 0.589101 0.389714
O O1 0.385062 0.750000 0.549765
O O2 0.295846 0.939271 0.599087
O O3 0.334122 0.943565 0.465558
O O4 0.422719 0.014070 0.563071
O O5 0.976013 0.750000 0.777395
O O6 0.952099 0.483307 0.802949
O O7 0.949750 0.569419 0.674399
O O8 0.069606 0.560222 0.738395
O O9 0.047601 0.750000 0.125247
O O10 0.949877 0.553957 0.103684
O O11 0.806288 0.250000 0.395012
O O12 0.802508 0.037674 0.305763
O O13 0.827878 0.994643 0.440966
O O14 0.335461 0.250000 0.276801
O O15 0.330514 0.496984 0.329727
O O16 0.007552 0.750000 0.586410
O O17 0.911353 0.931075 0.543274
O O18 0.036620 0.022688 0.581097
O O19 0.609398 0.250000 0.938501
O O20 0.356462 0.750000 0.367216
#
# Coordination Sequence:
#
# PCOD8250807 Si02
#       8
#     8   8   8   8   8   8   8   8
#     4  10  21  37  56  75 101 141 178 209 259 321
#     4   9  16  30  52  74 102 136 172 209 251 307
#     4  10  20  33  52  79 108 130 165 223 273 311
#     4  10  20  36  54  73 103 141 181 213 250 316
#     4   9  17  31  53  77  98 131 171 209 251 299
#     4   9  17  31  49  73 105 139 176 216 256 305
#     4  10  19  29  48  76 104 136 173 217 264 303
#     4   9  19  35  55  80 105 131 168 216 265 310
#
# _framework density 18.473206000000001
#
# number of rings (size 3 to 8) (size 9 to 14) (size 15 to 20)
#    0.000    2.500    1.250    1.125    0.000    3.000 
#    0.000    1.250    0.000    4.500    0.000    0.000 
#    0.000    0.000    0.000    0.000    0.000    0.000 
#
# Total GULP energy -793592.997391 kJ/mol
# GULP energy per Si atom -12399.890584 kJ/mol
# Density = 1.843116 g / cm^3
# Si number density = 18.473206 Si / 1000 Ang^3
#
#
#
# Elastic Constant Matrix: (Units=GPa)
#
#
# Indices 1 2 3 4 5 6 
#
# 1 39.0932 30.2016 31.1860 0.0000 0.0000 0.0000
# 2 30.2016 86.2875 52.6050 0.0000 0.0000 0.0000
# 3 31.1860 52.6050 125.7064 0.0000 0.0000 0.0000
# 4 0.0000 0.0000 0.0000 33.4020 0.0000 0.0000
# 5 0.0000 0.0000 0.0000 0.0000 26.5319 0.0000
# 6 0.0000 0.0000 0.0000 0.0000 0.0000 18.8966
#
#
#
# Elastic Compliance Matrix: (Units=1/GPa)
#
#
# Indices 1 2 3 4 5 6 
#
# 1 0.037342 -0.009964 -0.005094 0.000000 0.000000 0.000000
# 2 -0.009964 0.018217 -0.005152 0.000000 0.000000 0.000000
# 3 -0.005094 -0.005152 0.011375 0.000000 0.000000 0.000000
# 4 0.000000 0.000000 0.000000 0.029938 0.000000 0.000000
# 5 0.000000 0.000000 0.000000 0.000000 0.037691 0.000000
# 6 0.000000 0.000000 0.000000 0.000000 0.000000 0.052919
#
#
# Mechanical properties :
#
#
# Convention : Reuss Voigt Hill
#
# Bulk Modulus (GPa) = 37.71640 53.23024 45.47332
# Shear Modulus (GPa) = 21.12024 24.90574 23.01299
#
# Velocity S-wave (km/s) = 3.38493 3.67578 3.53335
# Velocity P-wave (km/s) = 5.97814 6.84781 6.42770
#
# Compressibility (1/GPa) = 0.02651366
#
# Stress axis : x y z
#
# Youngs Moduli (GPa) = 26.77980 54.89258 87.91534
#
# Poissons Ratio (x) = 0.54697 0.44785
# Poissons Ratio (y) = 0.26684 0.45290
# Poissons Ratio (z) = 0.13642 0.28278
#
# Static dielectric constant tensor:
#      x y z
#    x 3.020640 0.000000 0.000000 
#    y 0.000000 3.441650 0.000000 
#    z 0.000000 0.000000 3.562280 
# 
# 
# High freq. dielectric constant tensor:
#      x y z
#    x 1.674680 0.000000 0.000000 
#    y 0.000000 1.717750 0.000000 
#    z 0.000000 0.000000 1.727350 
# 
# From -- ./inp_files/27723.got.cif
#   From: 2010.03.12/outbox.cif.g09.slc.cpg/sg62_14_cif.got.tgz:27723.got - 2010.04.10 19:12:36.
