data_PCOD8250503
_publ_section_title
;
Structure prediction by ZEFSAII (Michael W. Deem and Ramdas Pophale) SiO2 
 PCOD8250503
Probable space group: P N M A
;
_chemical_formula_sum "Si O2"
_cell_formula_units_Z 56
_cell_length_a 19.327373
_cell_length_b 8.832737
_cell_length_c 16.126368
_cell_angle_alpha 90.000000
_cell_angle_beta 90.000000
_cell_angle_gamma 90.000000
_cell_volume 2752.990378
_symmetry_space_group_name_H-M "P N M A"
_symmetry_group_IT_number 62
_symmetry_cell_setting 'orthorhombic'
loop_
_space_group_symop_operation_xyz
x,y,z
1/2-x,-y,1/2+z
1/2+x,1/2-y,1/2-z
-x,1/2+y,-z
-x,-y,-z
1/2+x,y,1/2-z
1/2-x,1/2+y,1/2+z
x,1/2-y,z
loop_
_atom_site_type_symbol
_atom_site_label
_atom_site_fract_x
_atom_site_fract_y
_atom_site_fract_z
Si Si1 0.465696 0.083162 0.628372
Si Si2 0.737748 0.425286 0.320404
Si Si3 0.397852 0.572441 0.778449
Si Si4 0.620653 0.074231 0.791440
Si Si5 0.492808 0.427995 0.909551
Si Si6 0.327375 0.417040 0.534736
Si Si7 0.401751 0.074824 0.381177
O O1 0.478972 0.250000 0.667001
O O2 0.407302 0.092641 0.559968
O O3 0.449090 0.972515 0.704745
O O4 0.534345 0.022427 0.583883
O O5 0.758444 0.250000 0.310029
O O6 0.680798 0.472821 0.250192
O O7 0.802775 0.535637 0.322002
O O8 0.708052 0.450827 0.412944
O O9 0.401952 0.750000 0.794040
O O10 0.423912 0.490853 0.862605
O O11 0.616130 0.250000 0.768050
O O12 0.562812 0.031407 0.859437
O O13 0.611642 0.969835 0.712454
O O14 0.483269 0.250000 0.919937
O O15 0.500000 0.500000 0.000000
O O16 0.292685 0.250000 0.548422
O O17 0.332523 0.458119 0.436822
O O18 0.420843 0.250000 0.386066
#
# Coordination Sequence:
#
# PCOD8250503 Si02
#       7
#     8   8   8   8   8   8   8
#     4  10  18  31  54  84 119 154 190 234 287 346
#     4  10  22  40  63  90 120 160 205 251 309 369
#     4  10  20  37  62  90 120 156 200 249 302 365
#     4  11  24  42  63  88 121 161 203 253 311 366
#     4  11  24  42  66  94 122 159 208 261 315 372
#     4   9  20  36  55  83 119 158 196 239 292 353
#     4  11  21  34  56  86 119 156 196 239 294 353
#
# _framework density 20.341515999999999
#
# number of rings (size 3 to 8) (size 9 to 14) (size 15 to 20)
#    0.000    1.714    1.429    3.000    0.000    5.143 
#    2.571    0.000    0.000    0.000    0.000    0.000 
#    0.000    0.000    0.000    0.000    0.000    0.000 
#
# Total GULP energy -694074.900469 kJ/mol
# GULP energy per Si atom -12394.194651 kJ/mol
# Density = 2.029522 g / cm^3
# Si number density = 20.341516 Si / 1000 Ang^3
#
#
#
# Elastic Constant Matrix: (Units=GPa)
#
#
# Indices 1 2 3 4 5 6 
#
# 1 83.1262 31.9704 28.5794 0.0000 0.0000 0.0000
# 2 31.9704 73.2343 39.1954 0.0000 0.0000 0.0000
# 3 28.5794 39.1954 106.0265 0.0000 0.0000 0.0000
# 4 0.0000 0.0000 0.0000 34.0534 0.0000 0.0000
# 5 0.0000 0.0000 0.0000 0.0000 7.8262 0.0000
# 6 0.0000 0.0000 0.0000 0.0000 0.0000 31.6284
#
#
#
# Elastic Compliance Matrix: (Units=1/GPa)
#
#
# Indices 1 2 3 4 5 6 
#
# 1 0.014788 -0.005388 -0.001994 0.000000 0.000000 0.000000
# 2 -0.005388 0.018986 -0.005566 0.000000 0.000000 0.000000
# 3 -0.001994 -0.005566 0.012027 0.000000 0.000000 0.000000
# 4 0.000000 0.000000 0.000000 0.029366 0.000000 0.000000
# 5 0.000000 0.000000 0.000000 0.000000 0.127776 0.000000
# 6 0.000000 0.000000 0.000000 0.000000 0.000000 0.031617
#
#
# Mechanical properties :
#
#
# Convention : Reuss Voigt Hill
#
# Bulk Modulus (GPa) = 50.24281 51.31969 50.78125
# Shear Modulus (GPa) = 18.72016 25.54437 22.13227
#
# Velocity S-wave (km/s) = 3.03692 3.54754 3.30212
# Velocity P-wave (km/s) = 6.08691 6.48566 6.28945
#
# Compressibility (1/GPa) = 0.01990334
#
# Stress axis : x y z
#
# Youngs Moduli (GPa) = 67.62303 52.66978 83.14730
#
# Poissons Ratio (x) = 0.28380 0.16580
# Poissons Ratio (y) = 0.36438 0.46282
# Poissons Ratio (z) = 0.13485 0.29318
#
# Static dielectric constant tensor:
#      x y z
#    x 3.864360 0.000000 0.000000 
#    y 0.000000 3.719940 0.000000 
#    z 0.000000 0.000000 3.696580 
# 
# 
# High freq. dielectric constant tensor:
#      x y z
#    x 1.782650 0.000000 0.000000 
#    y 0.000000 1.802480 0.000000 
#    z 0.000000 0.000000 1.792810 
# 
# From -- ./inp_files/20365.got.cif
#   From: 2010.03.12/outbox.cif.g09.slc.cpg/sg62_11_cif.got.tgz:20365.got - 2010.04.10 19:12:36.
