data_PCOD8250630
_publ_section_title
;
Structure prediction by ZEFSAII (Michael W. Deem and Ramdas Pophale) SiO2 
 PCOD8250630
Probable space group: P N M A
;
_chemical_formula_sum "Si O2"
_cell_formula_units_Z 32
_cell_length_a 15.287972
_cell_length_b 8.846851
_cell_length_c 13.104989
_cell_angle_alpha 90.000000
_cell_angle_beta 90.000000
_cell_angle_gamma 90.000000
_cell_volume 1772.455140
_symmetry_space_group_name_H-M "P N M A"
_symmetry_group_IT_number 62
_symmetry_cell_setting 'orthorhombic'
loop_
_space_group_symop_operation_xyz
x,y,z
1/2-x,-y,1/2+z
1/2+x,1/2-y,1/2-z
-x,1/2+y,-z
-x,-y,-z
1/2+x,y,1/2-z
1/2-x,1/2+y,1/2+z
x,1/2-y,z
loop_
_atom_site_type_symbol
_atom_site_label
_atom_site_fract_x
_atom_site_fract_y
_atom_site_fract_z
Si Si1 0.406443 0.571478 0.517723
Si Si2 0.372589 0.921115 0.744641
Si Si3 0.923453 0.071842 0.564636
Si Si4 0.750365 0.921808 0.584187
O O1 0.500000 0.500000 0.500000
O O2 0.412721 0.750000 0.506415
O O3 0.371109 0.520217 0.628923
O O4 0.340086 0.508500 0.433185
O O5 0.409443 0.750000 0.747940
O O6 0.274524 0.926322 0.794251
O O7 0.435698 0.025014 0.815664
O O8 0.924235 0.250000 0.551625
O O9 0.830431 0.004642 0.524328
O O10 0.000000 0.000000 0.500000
O O11 0.741950 0.750000 0.544852
#
# Coordination Sequence:
#
# PCOD8250630 Si02
#       4
#     8   8   8   8
#     4  11  22  39  60  86 118 155 194 239 292 346
#     4   8  19  38  56  78 113 149 188 234 285 339
#     4  10  18  33  57  84 114 147 189 236 286 341
#     4   9  19  38  58  82 113 150 191 235 284 340
#
# _framework density 18.054055000000002
#
# number of rings (size 3 to 8) (size 9 to 14) (size 15 to 20)
#    1.500    1.000    0.000    3.000    0.000    2.000 
#    4.500    0.000    0.000    0.000    0.000    0.000 
#    0.000    0.000    0.000    0.000    0.000    0.000 
#
# Total GULP energy -396445.791823 kJ/mol
# GULP energy per Si atom -12388.930994 kJ/mol
# Density = 1.801296 g / cm^3
# Si number density = 18.054055 Si / 1000 Ang^3
#
#
#
# Elastic Constant Matrix: (Units=GPa)
#
#
# Indices 1 2 3 4 5 6 
#
# 1 131.6589 59.6730 46.4253 0.0000 0.0000 0.0000
# 2 59.6730 136.0984 45.3045 0.0000 0.0000 0.0000
# 3 46.4253 45.3045 89.5095 0.0000 0.0000 0.0000
# 4 0.0000 0.0000 0.0000 25.7033 0.0000 0.0000
# 5 0.0000 0.0000 0.0000 0.0000 26.1279 0.0000
# 6 0.0000 0.0000 0.0000 0.0000 0.0000 37.0004
#
#
#
# Elastic Compliance Matrix: (Units=1/GPa)
#
#
# Indices 1 2 3 4 5 6 
#
# 1 0.010415 -0.003329 -0.003717 0.000000 0.000000 0.000000
# 2 -0.003329 0.009901 -0.003284 0.000000 0.000000 0.000000
# 3 -0.003717 -0.003284 0.014762 0.000000 0.000000 0.000000
# 4 0.000000 0.000000 0.000000 0.038906 0.000000 0.000000
# 5 0.000000 0.000000 0.000000 0.000000 0.038273 0.000000
# 6 0.000000 0.000000 0.000000 0.000000 0.000000 0.027027
#
#
# Mechanical properties :
#
#
# Convention : Reuss Voigt Hill
#
# Bulk Modulus (GPa) = 69.36298 73.34136 71.35217
# Shear Modulus (GPa) = 30.34907 31.49058 30.91982
#
# Velocity S-wave (km/s) = 4.10446 4.18094 4.14288
# Velocity P-wave (km/s) = 7.80802 8.00115 7.90517
#
# Compressibility (1/GPa) = 0.01441691
#
# Stress axis : x y z
#
# Youngs Moduli (GPa) = 96.01602 101.00351 67.74098
#
# Poissons Ratio (x) = 0.33626 0.25178
# Poissons Ratio (y) = 0.31966 0.22249
# Poissons Ratio (z) = 0.35687 0.33173
#
# Static dielectric constant tensor:
#      x y z
#    x 3.208300 0.000000 0.000000 
#    y 0.000000 3.405070 0.000000 
#    z 0.000000 0.000000 2.995980 
# 
# 
# High freq. dielectric constant tensor:
#      x y z
#    x 1.682060 0.000000 0.000000 
#    y 0.000000 1.713280 0.000000 
#    z 0.000000 0.000000 1.680120 
# 
# From -- ./inp_files/13791.got.cif
#   From: 2010.03.12/outbox.cif.g09.slc.cpg/sg62_7_cif.got.tgz:13791.got - 2010.04.10 19:12:36.
