data_PCOD8250082
_publ_section_title
;
Structure prediction by ZEFSAII (Michael W. Deem and Ramdas Pophale) SiO2 
 PCOD8250082
Probable space group: P N M A
;
_chemical_formula_sum "Si O2"
_cell_formula_units_Z 48
_cell_length_a 17.715744
_cell_length_b 14.585997
_cell_length_c 9.061374
_cell_angle_alpha 90.000000
_cell_angle_beta 90.000000
_cell_angle_gamma 90.000000
_cell_volume 2341.475251
_symmetry_space_group_name_H-M "P N M A"
_symmetry_group_IT_number 62
_symmetry_cell_setting 'orthorhombic'
loop_
_space_group_symop_operation_xyz
x,y,z
1/2-x,-y,1/2+z
1/2+x,1/2-y,1/2-z
-x,1/2+y,-z
-x,-y,-z
1/2+x,y,1/2-z
1/2-x,1/2+y,1/2+z
x,1/2-y,z
loop_
_atom_site_type_symbol
_atom_site_label
_atom_site_fract_x
_atom_site_fract_y
_atom_site_fract_z
Si Si1 0.814987 0.250000 0.650165
Si Si2 0.596160 0.068831 0.408824
Si Si3 0.880129 0.250000 0.337565
Si Si4 0.480673 0.750000 0.643807
Si Si5 0.743084 0.435775 0.576105
Si Si6 0.984444 0.943555 0.217913
Si Si7 0.038382 0.750000 0.186482
Si Si8 0.656128 0.954641 0.821187
O O1 0.873493 0.250000 0.513855
O O2 0.759206 0.337107 0.649877
O O3 0.870820 0.250000 0.791214
O O4 0.573800 0.164731 0.339717
O O5 0.684960 0.069910 0.438230
O O6 0.555852 0.051046 0.562246
O O7 0.567444 0.990647 0.294378
O O8 0.965892 0.250000 0.285375
O O9 0.843729 0.154194 0.279883
O O10 0.527658 0.750000 0.490432
O O11 0.817220 0.471915 0.490353
O O12 0.713524 0.501934 0.703158
O O13 0.998410 0.837985 0.263124
O O14 0.927313 0.999047 0.324375
#
# Coordination Sequence:
#
# PCOD8250082 Si02
#       8
#     4   8   4   4   8   8   4   8
#     4  10  23  40  52  82 128 154 173 235 320 347
#     4   9  17  31  56  84 108 139 193 241 280 328
#     4  10  20  38  55  82 115 152 185 243 294 340
#     4  10  17  32  62  86  98 143 204 244 263 340
#     4  10  22  37  58  84 119 155 189 239 299 358
#     4   9  18  34  55  84 111 144 191 244 277 335
#     4  10  22  34  59  84 113 147 198 242 287 341
#     4  10  21  38  59  83 119 152 194 242 295 349
#
# _framework density 20.499896
#
# number of rings (size 3 to 8) (size 9 to 14) (size 15 to 20)
#    0.000    2.333    1.667    0.500    4.667    2.000 
#    0.000    5.833    0.000    0.000    0.000    0.000 
#    0.000    0.000    0.000    0.000    0.000    0.000 
#
# Total GULP energy -594769.196655 kJ/mol
# GULP energy per Si atom -12391.024930 kJ/mol
# Density = 2.045324 g / cm^3
# Si number density = 20.499896 Si / 1000 Ang^3
#
#
#
# Elastic Constant Matrix: (Units=GPa)
#
#
# Indices 1 2 3 4 5 6 
#
# 1 65.8474 43.4255 5.8774 0.0000 0.0000 0.0000
# 2 43.4255 152.4080 29.1667 0.0000 0.0000 0.0000
# 3 5.8774 29.1667 24.4191 0.0000 0.0000 0.0000
# 4 0.0000 0.0000 0.0000 -31.4529 0.0000 0.0000
# 5 0.0000 0.0000 0.0000 0.0000 30.3219 0.0000
# 6 0.0000 0.0000 0.0000 0.0000 0.0000 32.6898
#
#
#
# Elastic Compliance Matrix: (Units=1/GPa)
#
#
# Indices 1 2 3 4 5 6 
#
# 1 0.018811 -0.005825 0.002430 0.000000 0.000000 0.000000
# 2 -0.005825 0.010309 -0.010912 0.000000 0.000000 0.000000
# 3 0.002430 -0.010912 0.053400 0.000000 0.000000 0.000000
# 4 0.000000 0.000000 0.000000 -0.031794 0.000000 0.000000
# 5 0.000000 0.000000 0.000000 0.000000 0.032979 0.000000
# 6 0.000000 0.000000 0.000000 0.000000 0.000000 0.030591
#
#
# Mechanical properties :
#
#
# Convention : Reuss Voigt Hill
#
# Bulk Modulus (GPa) = 18.55058 44.40153 31.47605
# Shear Modulus (GPa) = 31.07929 17.25875 24.16902
#
# Velocity S-wave (km/s) = 3.89790 2.90469 3.43736
# Velocity P-wave (km/s) = 5.41543 5.74074 5.58045
#
# Compressibility (1/GPa) = 0.05390668
#
# Stress axis : x y z
#
# Youngs Moduli (GPa) = 53.15993 97.00113 18.72668
#
# Poissons Ratio (x) = 0.56501 -0.04550
# Poissons Ratio (y) = 0.30965 0.20434
# Poissons Ratio (z) = -0.12916 1.05843
#
# Static dielectric constant tensor:
#      x y z
#    x 4.017470 0.000000 0.000000 
#    y 0.000000 4.202400 0.000000 
#    z 0.000000 0.000000 3.345480 
# 
# 
# High freq. dielectric constant tensor:
#      x y z
#    x 1.799650 0.000000 0.000000 
#    y 0.000000 1.815530 0.000000 
#    z 0.000000 0.000000 1.767490 
# 
# From -- ./inp_files/7736.got.cif
#   From: 2010.03.12/outbox.cif.g09.slc.cpg/sg62_4_cif.got.tgz:7736.got - 2010.04.10 19:12:36.
