data_PCOD8250632
_publ_section_title
;
Structure prediction by ZEFSAII (Michael W. Deem and Ramdas Pophale) SiO2 
 PCOD8250632
Probable space group: P N M A
;
_chemical_formula_sum "Si O2"
_cell_formula_units_Z 64
_cell_length_a 11.962228
_cell_length_b 9.122863
_cell_length_c 30.374770
_cell_angle_alpha 90.000000
_cell_angle_beta 90.000000
_cell_angle_gamma 90.000000
_cell_volume 3314.791579
_symmetry_space_group_name_H-M "P N M A"
_symmetry_group_IT_number 62
_symmetry_cell_setting 'orthorhombic'
loop_
_space_group_symop_operation_xyz
x,y,z
1/2-x,-y,1/2+z
1/2+x,1/2-y,1/2-z
-x,1/2+y,-z
-x,-y,-z
1/2+x,y,1/2-z
1/2-x,1/2+y,1/2+z
x,1/2-y,z
loop_
_atom_site_type_symbol
_atom_site_label
_atom_site_fract_x
_atom_site_fract_y
_atom_site_fract_z
Si Si1 0.995505 0.582762 0.667341
Si Si2 0.648541 0.577831 0.369890
Si Si3 0.747101 0.919807 0.549542
Si Si4 0.389677 0.577750 0.377188
Si Si5 0.221807 0.923133 0.705308
Si Si6 0.711127 0.418733 0.952886
Si Si7 0.743126 0.423340 0.193711
Si Si8 0.003519 0.416998 0.434194
O O1 0.983258 0.750000 0.682315
O O2 0.876252 0.509818 0.678309
O O3 0.026592 0.566375 0.616749
O O4 0.098497 0.512597 0.694240
O O5 0.667371 0.750000 0.363934
O O6 0.520048 0.539986 0.378332
O O7 0.686172 0.498180 0.325420
O O8 0.718221 0.516947 0.411983
O O9 0.738934 0.750000 0.564501
O O10 0.717901 0.939335 0.497876
O O11 0.872669 0.979235 0.557684
O O12 0.662125 0.014682 0.577986
O O13 0.366884 0.750000 0.375202
O O14 0.338602 0.503008 0.333975
O O15 0.227471 0.750000 0.696516
O O16 0.245395 0.963875 0.755411
O O17 0.685003 0.250000 0.944296
O O18 0.591054 0.494632 0.960292
O O19 0.753713 0.250000 0.184968
O O20 0.998250 0.250000 0.450418
#
# Coordination Sequence:
#
# PCOD8250632 Si02
#       8
#     8   8   8   8   8   8   8   8
#     4   9  17  33  55  85 117 141 176 232 283 321
#     4  10  23  41  56  78 117 153 185 235 286 331
#     4  10  21  38  59  83 112 148 189 235 284 336
#     4  11  24  40  57  80 114 152 190 233 283 336
#     4  10  21  36  61  89 111 146 190 228 275 334
#     4  10  21  37  58  83 112 149 190 230 283 342
#     4  10  21  38  61  86 115 147 186 236 281 328
#     4  10  18  33  57  84 117 145 175 231 290 333
#
# _framework density 19.307397000000002
#
# number of rings (size 3 to 8) (size 9 to 14) (size 15 to 20)
#    0.000    2.000    2.500    0.750    1.750    3.000 
#    0.000    0.625    0.000    0.000    0.000    0.000 
#    0.000    0.000    0.000    0.000    0.000    0.000 
#
# Total GULP energy -793643.591919 kJ/mol
# GULP energy per Si atom -12400.681124 kJ/mol
# Density = 1.926345 g / cm^3
# Si number density = 19.307397 Si / 1000 Ang^3
#
#
#
# Elastic Constant Matrix: (Units=GPa)
#
#
# Indices 1 2 3 4 5 6 
#
# 1 113.2689 40.1902 40.7531 0.0000 0.0000 0.0000
# 2 40.1902 46.7710 32.2816 0.0000 0.0000 0.0000
# 3 40.7531 32.2816 93.0178 0.0000 0.0000 0.0000
# 4 0.0000 0.0000 0.0000 26.2676 0.0000 0.0000
# 5 0.0000 0.0000 0.0000 0.0000 28.4605 0.0000
# 6 0.0000 0.0000 0.0000 0.0000 0.0000 28.7455
#
#
#
# Elastic Compliance Matrix: (Units=1/GPa)
#
#
# Indices 1 2 3 4 5 6 
#
# 1 0.013099 -0.009593 -0.002410 0.000000 0.000000 0.000000
# 2 -0.009593 0.035141 -0.007993 0.000000 0.000000 0.000000
# 3 -0.002410 -0.007993 0.014580 0.000000 0.000000 0.000000
# 4 0.000000 0.000000 0.000000 0.038070 0.000000 0.000000
# 5 0.000000 0.000000 0.000000 0.000000 0.035136 0.000000
# 6 0.000000 0.000000 0.000000 0.000000 0.000000 0.034788
#
#
# Mechanical properties :
#
#
# Convention : Reuss Voigt Hill
#
# Bulk Modulus (GPa) = 43.80333 53.27863 48.54098
# Shear Modulus (GPa) = 22.89221 26.01691 24.45456
#
# Velocity S-wave (km/s) = 3.44709 3.67483 3.56278
# Velocity P-wave (km/s) = 6.21127 6.75727 6.49001
#
# Compressibility (1/GPa) = 0.02282931
#
# Stress axis : x y z
#
# Youngs Moduli (GPa) = 76.33938 28.45719 68.58591
#
# Poissons Ratio (x) = 0.27299 0.16529
# Poissons Ratio (y) = 0.73232 0.54818
# Poissons Ratio (z) = 0.18397 0.22745
#
# Static dielectric constant tensor:
#      x y z
#    x 3.624870 0.000000 0.000000 
#    y 0.000000 3.281040 0.000000 
#    z 0.000000 0.000000 3.583560 
# 
# 
# High freq. dielectric constant tensor:
#      x y z
#    x 1.757360 0.000000 0.000000 
#    y 0.000000 1.724090 0.000000 
#    z 0.000000 0.000000 1.764540 
# 
# From -- ./inp_files/32467.got.cif
#   From: 2010.03.12/outbox.cif.g09.slc.cpg/sg62_17_cif.got.tgz:32467.got - 2010.04.10 19:12:36.
