data_PCOD8250853
_publ_section_title
;
Structure prediction by ZEFSAII (Michael W. Deem and Ramdas Pophale) SiO2 
 PCOD8250853
Probable space group: P N M A
;
_chemical_formula_sum "Si O2"
_cell_formula_units_Z 64
_cell_length_a 29.894665
_cell_length_b 9.235991
_cell_length_c 14.241473
_cell_angle_alpha 90.000000
_cell_angle_beta 90.000000
_cell_angle_gamma 90.000000
_cell_volume 3932.168347
_symmetry_space_group_name_H-M "P N M A"
_symmetry_group_IT_number 62
_symmetry_cell_setting 'orthorhombic'
loop_
_space_group_symop_operation_xyz
x,y,z
1/2-x,-y,1/2+z
1/2+x,1/2-y,1/2-z
-x,1/2+y,-z
-x,-y,-z
1/2+x,y,1/2-z
1/2-x,1/2+y,1/2+z
x,1/2-y,z
loop_
_atom_site_type_symbol
_atom_site_label
_atom_site_fract_x
_atom_site_fract_y
_atom_site_fract_z
Si Si1 0.364263 0.585488 0.181770
Si Si2 0.041099 0.084017 0.607510
Si Si3 0.683039 0.913980 0.975749
Si Si4 0.215043 0.578347 0.226248
Si Si5 0.046662 0.081599 0.390499
Si Si6 0.228707 0.921951 0.014174
Si Si7 0.130172 0.585796 0.339123
Si Si8 0.199632 0.083444 0.844286
O O1 0.355400 0.750000 0.145726
O O2 0.416856 0.549936 0.174942
O O3 0.347148 0.568467 0.288298
O O4 0.335681 0.475869 0.120540
O O5 0.025567 0.250000 0.615686
O O6 0.054741 0.048541 0.500402
O O7 0.000665 0.983964 0.641946
O O8 0.699703 0.750000 0.959391
O O9 0.644410 0.918878 0.052696
O O10 0.723480 0.011660 0.012922
O O11 0.215240 0.750000 0.231875
O O12 0.169741 0.519325 0.274577
O O13 0.259393 0.523024 0.280127
O O14 0.215400 0.525813 0.118511
O O15 0.046279 0.250000 0.367919
O O16 0.085749 0.009980 0.328433
O O17 0.230179 0.750000 0.006395
O O18 0.194179 0.987151 0.938107
O O19 0.119112 0.750000 0.308370
O O20 0.208594 0.250000 0.872457
#
# Coordination Sequence:
#
# PCOD8250853 Si02
#       8
#     8   8   8   8   8   8   8   8
#     4  10  19  33  51  70  98 135 167 198 239 288
#     4   9  18  31  47  69  97 130 162 190 234 295
#     4  11  20  29  47  72  99 130 167 204 241 281
#     4   9  18  33  50  67  94 132 165 196 240 288
#     4  10  19  30  47  71  98 125 157 200 242 282
#     4  11  21  34  50  69  97 132 169 206 243 285
#     4  10  19  32  48  67  94 132 167 196 236 288
#     4  10  19  34  51  70  98 130 164 202 243 284
#
# _framework density 16.276007
#
# number of rings (size 3 to 8) (size 9 to 14) (size 15 to 20)
#    0.000    2.000    3.750    1.125    0.000    2.000 
#    0.000    1.250    0.000    0.000    0.000    0.875 
#    0.000    0.000    0.000    0.000    0.000    0.000 
#
# Total GULP energy -793600.598062 kJ/mol
# GULP energy per Si atom -12400.009345 kJ/mol
# Density = 1.623896 g / cm^3
# Si number density = 16.276007 Si / 1000 Ang^3
#
#
#
# Elastic Constant Matrix: (Units=GPa)
#
#
# Indices 1 2 3 4 5 6 
#
# 1 102.1675 39.3583 27.7869 0.0000 0.0000 0.0000
# 2 39.3583 70.6970 28.5026 0.0000 0.0000 0.0000
# 3 27.7869 28.5026 67.8754 0.0000 0.0000 0.0000
# 4 0.0000 0.0000 0.0000 23.2025 0.0000 0.0000
# 5 0.0000 0.0000 0.0000 0.0000 25.0830 0.0000
# 6 0.0000 0.0000 0.0000 0.0000 0.0000 24.7997
#
#
#
# Elastic Compliance Matrix: (Units=1/GPa)
#
#
# Indices 1 2 3 4 5 6 
#
# 1 0.012864 -0.006065 -0.002719 0.000000 0.000000 0.000000
# 2 -0.006065 0.019887 -0.005868 0.000000 0.000000 0.000000
# 3 -0.002719 -0.005868 0.018310 0.000000 0.000000 0.000000
# 4 0.000000 0.000000 0.000000 0.043099 0.000000 0.000000
# 5 0.000000 0.000000 0.000000 0.000000 0.039868 0.000000
# 6 0.000000 0.000000 0.000000 0.000000 0.000000 0.040323
#
#
# Mechanical properties :
#
#
# Convention : Reuss Voigt Hill
#
# Bulk Modulus (GPa) = 45.96411 48.00394 46.98402
# Shear Modulus (GPa) = 23.70693 24.28984 23.99839
#
# Velocity S-wave (km/s) = 3.82063 3.86731 3.84404
# Velocity P-wave (km/s) = 6.91120 7.03557 6.97366
#
# Compressibility (1/GPa) = 0.02175610
#
# Stress axis : x y z
#
# Youngs Moduli (GPa) = 77.73646 50.28320 54.61404
#
# Poissons Ratio (x) = 0.30498 0.14851
# Poissons Ratio (y) = 0.47149 0.32049
# Poissons Ratio (z) = 0.21139 0.29507
#
# Static dielectric constant tensor:
#      x y z
#    x 3.062620 0.000000 0.000000 
#    y 0.000000 3.044640 0.000000 
#    z 0.000000 0.000000 2.947240 
# 
# 
# High freq. dielectric constant tensor:
#      x y z
#    x 1.616130 0.000000 0.000000 
#    y 0.000000 1.623110 0.000000 
#    z 0.000000 0.000000 1.596440 
# 
# From -- ./inp_files/21236.got.cif
#   From: 2010.03.12/outbox.cif.g09.slc.cpg/sg62_11_cif.got.tgz:21236.got - 2010.04.10 19:12:36.
