data_PCOD8250118
_publ_section_title
;
Structure prediction by ZEFSAII (Michael W. Deem and Ramdas Pophale) SiO2 
 PCOD8250118
Probable space group: P N M A
;
_chemical_formula_sum "Si O2"
_cell_formula_units_Z 56
_cell_length_a 18.103626
_cell_length_b 9.400576
_cell_length_c 20.984989
_cell_angle_alpha 90.000000
_cell_angle_beta 90.000000
_cell_angle_gamma 90.000000
_cell_volume 3571.320114
_symmetry_space_group_name_H-M "P N M A"
_symmetry_group_IT_number 62
_symmetry_cell_setting 'orthorhombic'
loop_
_space_group_symop_operation_xyz
x,y,z
1/2-x,-y,1/2+z
1/2+x,1/2-y,1/2-z
-x,1/2+y,-z
-x,-y,-z
1/2+x,y,1/2-z
1/2-x,1/2+y,1/2+z
x,1/2-y,z
loop_
_atom_site_type_symbol
_atom_site_label
_atom_site_fract_x
_atom_site_fract_y
_atom_site_fract_z
Si Si1 0.426203 0.081853 0.249357
Si Si2 0.198354 0.409052 0.182853
Si Si3 0.076247 0.918621 0.496731
Si Si4 0.344434 0.081683 0.124318
Si Si5 0.219559 0.593852 0.816595
Si Si6 0.924799 0.082758 0.760166
Si Si7 0.341699 0.414757 0.869595
O O1 0.444447 0.250000 0.247246
O O2 0.397909 0.025152 0.180528
O O3 0.364779 0.047102 0.303249
O O4 0.497243 0.992644 0.268768
O O5 0.170562 0.250000 0.164028
O O6 0.259284 0.469959 0.132738
O O7 0.238956 0.401205 0.249910
O O8 0.129822 0.517354 0.186442
O O9 0.061608 0.750000 0.497743
O O10 0.125605 0.969260 0.556335
O O11 0.117844 0.968127 0.433077
O O12 0.000000 0.000000 0.500000
O O13 0.342925 0.250000 0.130650
O O14 0.220725 0.750000 0.848068
O O15 0.261754 0.488802 0.864463
O O16 0.932546 0.250000 0.772306
O O17 0.894366 0.048435 0.689738
O O18 0.323942 0.250000 0.873405
#
# Coordination Sequence:
#
# PCOD8250118 Si02
#       7
#     8   8   8   8   8   8   8
#     4   9  16  27  43  63  83 106 138 175 208 241
#     4   8  14  27  44  59  76 104 140 175 206 239
#     4  10  19  30  43  62  87 115 144 171 197 234
#     4   8  15  28  45  61  80 109 145 176 201 233
#     4   8  15  27  43  60  78 103 139 175 206 241
#     4  10  18  26  38  61  89 113 134 163 206 252
#     4   9  18  29  40  58  87 116 140 165 199 244
#
# _framework density 15.680474999999999
#
# number of rings (size 3 to 8) (size 9 to 14) (size 15 to 20)
#    0.000    3.143    0.000    3.000    0.000    1.714 
#    0.000    2.857    0.000    0.000    0.000    1.000 
#    0.000    0.000    0.000    0.000    0.000    0.000 
#
# Total GULP energy -694113.906543 kJ/mol
# GULP energy per Si atom -12394.891188 kJ/mol
# Density = 1.564479 g / cm^3
# Si number density = 15.680475 Si / 1000 Ang^3
#
#
#
# Elastic Constant Matrix: (Units=GPa)
#
#
# Indices 1 2 3 4 5 6 
#
# 1 142.9337 65.9391 56.4889 0.0000 0.0000 0.0000
# 2 65.9391 62.7415 32.5796 0.0000 0.0000 0.0000
# 3 56.4889 32.5796 69.0551 0.0000 0.0000 0.0000
# 4 0.0000 0.0000 0.0000 14.7557 0.0000 0.0000
# 5 0.0000 0.0000 0.0000 0.0000 24.9604 0.0000
# 6 0.0000 0.0000 0.0000 0.0000 0.0000 27.5010
#
#
#
# Elastic Compliance Matrix: (Units=1/GPa)
#
#
# Indices 1 2 3 4 5 6 
#
# 1 0.015591 -0.012931 -0.006653 0.000000 0.000000 0.000000
# 2 -0.012931 0.031835 -0.004442 0.000000 0.000000 0.000000
# 3 -0.006653 -0.004442 0.022019 0.000000 0.000000 0.000000
# 4 0.000000 0.000000 0.000000 0.067771 0.000000 0.000000
# 5 0.000000 0.000000 0.000000 0.000000 0.040063 0.000000
# 6 0.000000 0.000000 0.000000 0.000000 0.000000 0.036362
#
#
# Mechanical properties :
#
#
# Convention : Reuss Voigt Hill
#
# Bulk Modulus (GPa) = 46.74285 64.97173 55.85729
# Shear Modulus (GPa) = 18.59957 21.42492 20.01225
#
# Velocity S-wave (km/s) = 3.44781 3.70042 3.57634
# Velocity P-wave (km/s) = 6.76196 7.73190 7.26314
#
# Compressibility (1/GPa) = 0.02139365
#
# Stress axis : x y z
#
# Youngs Moduli (GPa) = 64.13961 31.41236 45.41497
#
# Poissons Ratio (x) = 0.40619 0.30215
# Poissons Ratio (y) = 0.82938 0.20171
# Poissons Ratio (z) = 0.42673 0.13952
#
# Static dielectric constant tensor:
#      x y z
#    x 3.127100 0.000000 0.000000 
#    y 0.000000 3.001790 0.000000 
#    z 0.000000 0.000000 3.017280 
# 
# 
# High freq. dielectric constant tensor:
#      x y z
#    x 1.604640 0.000000 0.000000 
#    y 0.000000 1.590730 0.000000 
#    z 0.000000 0.000000 1.565350 
# 
# From -- ./inp_files/27515.got.cif
#   From: 2010.03.12/outbox.cif.g09.slc.cpg/sg62_14_cif.got.tgz:27515.got - 2010.04.10 19:12:36.
