data_PCOD8250134
_publ_section_title
;
Structure prediction by ZEFSAII (Michael W. Deem and Ramdas Pophale) SiO2 
 PCOD8250134
Probable space group: P N M A
;
_chemical_formula_sum "Si O2"
_cell_formula_units_Z 64
_cell_length_a 25.981176
_cell_length_b 9.268258
_cell_length_c 18.516191
_cell_angle_alpha 90.000000
_cell_angle_beta 90.000000
_cell_angle_gamma 90.000000
_cell_volume 4458.703279
_symmetry_space_group_name_H-M "P N M A"
_symmetry_group_IT_number 62
_symmetry_cell_setting 'orthorhombic'
loop_
_space_group_symop_operation_xyz
x,y,z
1/2-x,-y,1/2+z
1/2+x,1/2-y,1/2-z
-x,1/2+y,-z
-x,-y,-z
1/2+x,y,1/2-z
1/2-x,1/2+y,1/2+z
x,1/2-y,z
loop_
_atom_site_type_symbol
_atom_site_label
_atom_site_fract_x
_atom_site_fract_y
_atom_site_fract_z
Si Si1 0.354275 0.420615 0.672389
Si Si2 0.697406 0.410605 0.776770
Si Si3 0.936899 0.917995 0.071125
Si Si4 0.750807 0.581718 0.572884
Si Si5 0.352843 0.418639 0.341809
Si Si6 0.697031 0.910405 0.189630
Si Si7 0.945116 0.083415 0.926162
Si Si8 0.742897 0.921052 0.412213
O O1 0.346084 0.250000 0.675672
O O2 0.346200 0.475999 0.755176
O O3 0.410669 0.461958 0.642852
O O4 0.310802 0.485530 0.618571
O O5 0.672692 0.250000 0.776598
O O6 0.658824 0.522618 0.738693
O O7 0.750766 0.405448 0.734715
O O8 0.709702 0.461853 0.858861
O O9 0.922238 0.750000 0.068532
O O10 0.995868 0.942260 0.095100
O O11 0.902637 0.998814 0.129650
O O12 0.927548 0.985247 0.992601
O O13 0.762368 0.750000 0.574045
O O14 0.694694 0.547578 0.605299
O O15 0.796294 0.509176 0.619297
O O16 0.752979 0.515873 0.492121
O O17 0.364904 0.250000 0.337027
O O18 0.682029 0.750000 0.163115
O O19 0.935149 0.250000 0.948006
O O20 0.737605 0.750000 0.418370
#
# Coordination Sequence:
#
# PCOD8250134 Si02
#       8
#     8   8   8   8   8   8   8   8
#     4   8  13  24  41  56  72  99 132 157 182 221
#     4   8  14  25  39  54  73  96 125 159 188 216
#     4  10  19  28  39  57  79 101 128 163 196 222
#     4   9  16  25  38  56  77 102 131 157 184 224
#     4  10  18  27  40  55  75 105 134 157 185 224
#     4   8  14  24  38  55  74  97 124 155 188 219
#     4   9  17  29  43  57  75 101 132 163 191 222
#     4   8  13  22  38  57  75  99 128 155 184 220
#
# _framework density 14.353949
#
# number of rings (size 3 to 8) (size 9 to 14) (size 15 to 20)
#    0.000    3.250    0.000    3.000    0.000    3.000 
#    0.000    1.250    0.000    4.500    0.000    0.000 
#    0.000    1.000    0.000    2.000    0.000    2.750 
#
# Total GULP energy -793170.292027 kJ/mol
# GULP energy per Si atom -12393.285813 kJ/mol
# Density = 1.432128 g / cm^3
# Si number density = 14.353949 Si / 1000 Ang^3
#
#
#
# Elastic Constant Matrix: (Units=GPa)
#
#
# Indices 1 2 3 4 5 6 
#
# 1 62.9334 34.4191 46.8516 0.0000 0.0000 0.0000
# 2 34.4191 53.8227 38.1038 0.0000 0.0000 0.0000
# 3 46.8516 38.1038 110.2917 0.0000 0.0000 0.0000
# 4 0.0000 0.0000 0.0000 21.2652 0.0000 0.0000
# 5 0.0000 0.0000 0.0000 0.0000 25.5770 0.0000
# 6 0.0000 0.0000 0.0000 0.0000 0.0000 14.2872
#
#
#
# Elastic Compliance Matrix: (Units=1/GPa)
#
#
# Indices 1 2 3 4 5 6 
#
# 1 0.028690 -0.012866 -0.007743 0.000000 0.000000 0.000000
# 2 -0.012866 0.030365 -0.005025 0.000000 0.000000 0.000000
# 3 -0.007743 -0.005025 0.014092 0.000000 0.000000 0.000000
# 4 0.000000 0.000000 0.000000 0.047025 0.000000 0.000000
# 5 0.000000 0.000000 0.000000 0.000000 0.039098 0.000000
# 6 0.000000 0.000000 0.000000 0.000000 0.000000 0.069993
#
#
# Mechanical properties :
#
#
# Convention : Reuss Voigt Hill
#
# Bulk Modulus (GPa) = 45.70410 51.75519 48.72964
# Shear Modulus (GPa) = 17.37178 19.40410 18.38794
#
# Velocity S-wave (km/s) = 3.48263 3.68071 3.58304
# Velocity P-wave (km/s) = 6.93408 7.36194 7.15121
#
# Compressibility (1/GPa) = 0.02187988
#
# Stress axis : x y z
#
# Youngs Moduli (GPa) = 34.85477 32.93316 70.96217
#
# Poissons Ratio (x) = 0.42371 0.54944
# Poissons Ratio (y) = 0.44843 0.35659
# Poissons Ratio (z) = 0.26987 0.16549
#
# Static dielectric constant tensor:
#      x y z
#    x 2.653850 0.000000 0.000000 
#    y 0.000000 2.717830 0.000000 
#    z 0.000000 0.000000 3.028320 
# 
# 
# High freq. dielectric constant tensor:
#      x y z
#    x 1.514800 0.000000 0.000000 
#    y 0.000000 1.533780 0.000000 
#    z 0.000000 0.000000 1.541310 
# 
# From -- ./inp_files/25007.got.cif
#   From: 2010.03.12/outbox.cif.g09.slc.cpg/sg62_13_cif.got.tgz:25007.got - 2010.04.10 19:12:36.
