data_PCOD8250744
_publ_section_title
;
Structure prediction by ZEFSAII (Michael W. Deem and Ramdas Pophale) SiO2 
 PCOD8250744
Probable space group: P N M A
;
_chemical_formula_sum "Si O2"
_cell_formula_units_Z 32
_cell_length_a 10.816507
_cell_length_b 11.824290
_cell_length_c 12.094899
_cell_angle_alpha 90.000000
_cell_angle_beta 90.000000
_cell_angle_gamma 90.000000
_cell_volume 1546.907533
_symmetry_space_group_name_H-M "P N M A"
_symmetry_group_IT_number 62
_symmetry_cell_setting 'orthorhombic'
loop_
_space_group_symop_operation_xyz
x,y,z
1/2-x,-y,1/2+z
1/2+x,1/2-y,1/2-z
-x,1/2+y,-z
-x,-y,-z
1/2+x,y,1/2-z
1/2-x,1/2+y,1/2+z
x,1/2-y,z
loop_
_atom_site_type_symbol
_atom_site_label
_atom_site_fract_x
_atom_site_fract_y
_atom_site_fract_z
Si Si1 0.517194 0.977447 0.838882
Si Si2 0.838315 0.117351 0.525527
Si Si3 0.408179 0.750000 0.789551
Si Si4 0.647765 0.750000 0.645341
Si Si5 0.895066 0.487743 0.089460
O O1 0.432819 0.865159 0.856964
O O2 0.552165 0.000821 0.712945
O O3 0.442515 0.084925 0.884290
O O4 0.639587 0.952886 0.911908
O O5 0.843748 0.250000 0.502469
O O6 0.704139 0.085671 0.571332
O O7 0.506247 0.750000 0.689114
O O8 0.259539 0.750000 0.761603
O O9 0.664379 0.637072 0.572878
O O10 0.000000 0.500000 0.000000
#
# Coordination Sequence:
#
# PCOD8250744 Si02
#       5
#     8   8   4   4   8
#     4  10  23  44  68  96 131 176 225 278 343 401
#     4  11  24  43  68  96 133 178 224 278 340 412
#     4  10  18  40  70  97 123 176 230 281 328 396
#     4  10  22  40  68  97 133 174 230 285 338 398
#     4  11  26  42  67 101 134 174 225 283 341 406
#
# _framework density 20.686433000000001
#
# number of rings (size 3 to 8) (size 9 to 14) (size 15 to 20)
#    0.000    1.500    3.750    0.000    5.250    3.000 
#    0.000    0.000    0.000    0.000    0.000    0.000 
#    0.000    0.000    0.000    0.000    0.000    0.000 
#
# Total GULP energy -396560.024676 kJ/mol
# GULP energy per Si atom -12392.500771 kJ/mol
# Density = 2.063935 g / cm^3
# Si number density = 20.686433 Si / 1000 Ang^3
#
#
#
# Elastic Constant Matrix: (Units=GPa)
#
#
# Indices 1 2 3 4 5 6 
#
# 1 134.2965 50.5493 64.9104 0.0000 0.0000 0.0000
# 2 50.5493 76.5882 28.2432 0.0000 0.0000 0.0000
# 3 64.9104 28.2432 148.7057 0.0000 0.0000 0.0000
# 4 0.0000 0.0000 0.0000 23.3431 0.0000 0.0000
# 5 0.0000 0.0000 0.0000 0.0000 30.5421 0.0000
# 6 0.0000 0.0000 0.0000 0.0000 0.0000 32.4980
#
#
#
# Elastic Compliance Matrix: (Units=1/GPa)
#
#
# Indices 1 2 3 4 5 6 
#
# 1 0.011702 -0.006280 -0.003915 0.000000 0.000000 0.000000
# 2 -0.006280 0.017410 -0.000565 0.000000 0.000000 0.000000
# 3 -0.003915 -0.000565 0.008541 0.000000 0.000000 0.000000
# 4 0.000000 0.000000 0.000000 0.042839 0.000000 0.000000
# 5 0.000000 0.000000 0.000000 0.000000 0.032742 0.000000
# 6 0.000000 0.000000 0.000000 0.000000 0.000000 0.030771
#
#
# Mechanical properties :
#
#
# Convention : Reuss Voigt Hill
#
# Bulk Modulus (GPa) = 61.98772 71.88845 66.93808
# Shear Modulus (GPa) = 29.25607 31.66915 30.46261
#
# Velocity S-wave (km/s) = 3.76475 3.91693 3.84160
# Velocity P-wave (km/s) = 6.99487 7.43528 7.21844
#
# Compressibility (1/GPa) = 0.01613223
#
# Stress axis : x y z
#
# Youngs Moduli (GPa) = 85.45228 57.43761 117.07983
#
# Poissons Ratio (x) = 0.36070 0.45842
# Poissons Ratio (y) = 0.53663 0.06621
# Poissons Ratio (z) = 0.33458 0.03248
#
# Static dielectric constant tensor:
#      x y z
#    x 3.827220 0.000000 0.000000 
#    y 0.000000 4.166290 0.000000 
#    z 0.000000 0.000000 3.520430 
# 
# 
# High freq. dielectric constant tensor:
#      x y z
#    x 1.818840 0.000000 0.000000 
#    y 0.000000 1.816910 0.000000 
#    z 0.000000 0.000000 1.788180 
# 
# From -- ./inp_files/11790.got.cif
#   From: 2010.03.12/outbox.cif.g09.slc.cpg/sg62_6_cif.got.tgz:11790.got - 2010.04.10 19:12:36.
