data_PCOD8250761
_publ_section_title
;
Structure prediction by ZEFSAII (Michael W. Deem and Ramdas Pophale) SiO2 
 PCOD8250761
Probable space group: P N M A
;
_chemical_formula_sum "Si O2"
_cell_formula_units_Z 64
_cell_length_a 25.759438
_cell_length_b 9.540531
_cell_length_c 18.323350
_cell_angle_alpha 90.000000
_cell_angle_beta 90.000000
_cell_angle_gamma 90.000000
_cell_volume 4503.122983
_symmetry_space_group_name_H-M "P N M A"
_symmetry_group_IT_number 62
_symmetry_cell_setting 'orthorhombic'
loop_
_space_group_symop_operation_xyz
x,y,z
1/2-x,-y,1/2+z
1/2+x,1/2-y,1/2-z
-x,1/2+y,-z
-x,-y,-z
1/2+x,y,1/2-z
1/2-x,1/2+y,1/2+z
x,1/2-y,z
loop_
_atom_site_type_symbol
_atom_site_label
_atom_site_fract_x
_atom_site_fract_y
_atom_site_fract_z
Si Si1 0.060302 0.087111 0.574371
Si Si2 0.257228 0.083236 0.075836
Si Si3 0.148630 0.589000 0.324363
Si Si4 0.859551 0.084796 0.342485
Si Si5 0.194817 0.093930 0.208818
Si Si6 0.199408 0.904632 0.798482
Si Si7 0.559559 0.589399 0.067350
Si Si8 0.248373 0.086473 0.912297
O O1 0.076426 0.250000 0.570572
O O2 0.999609 0.069548 0.591716
O O3 0.090186 0.007443 0.638912
O O4 0.074600 0.013799 0.498059
O O5 0.258676 0.250000 0.077629
O O6 0.312944 0.031098 0.105201
O O7 0.210071 0.032968 0.128731
O O8 0.247440 0.026025 0.994526
O O9 0.150537 0.750000 0.301347
O O10 0.152590 0.502506 0.249125
O O11 0.094900 0.549529 0.363558
O O12 0.195225 0.552617 0.379581
O O13 0.870661 0.250000 0.353874
O O14 0.845980 0.052519 0.257910
O O15 0.171200 0.250000 0.202580
O O16 0.247367 0.097159 0.254444
O O17 0.188358 0.750000 0.830373
O O18 0.202997 0.011848 0.865891
O O19 0.570496 0.750000 0.042402
O O20 0.235912 0.250000 0.911077
#
# Coordination Sequence:
#
# PCOD8250761 Si02
#       8
#     8   8   8   8   8   8   8   8
#     4  10  19  28  40  59  78  97 129 169 195 214
#     4   8  14  25  40  56  75 104 134 153 183 232
#     4   9  16  26  40  55  73 101 132 155 182 223
#     4   9  16  28  43  54  73 107 135 153 185 233
#     4   8  14  25  39  54  74  98 126 159 187 217
#     4   8  15  26  38  53  74 101 128 153 186 225
#     4   9  18  31  42  53  76 107 131 155 192 233
#     4   9  15  23  38  57  75  98 129 159 182 214
#
# _framework density 14.21236
#
# number of rings (size 3 to 8) (size 9 to 14) (size 15 to 20)
#    0.000    3.250    0.000    2.625    0.000    3.500 
#    0.000    5.625    0.000    0.000    0.000    0.000 
#    0.000    1.000    0.000    2.250    0.000    4.000 
#
# Total GULP energy -793298.674014 kJ/mol
# GULP energy per Si atom -12395.291781 kJ/mol
# Density = 1.418001 g / cm^3
# Si number density = 14.212360 Si / 1000 Ang^3
#
#
#
# Elastic Constant Matrix: (Units=GPa)
#
#
# Indices 1 2 3 4 5 6 
#
# 1 56.4953 36.8915 39.9819 0.0000 0.0000 0.0000
# 2 36.8915 62.6341 44.5180 0.0000 0.0000 0.0000
# 3 39.9819 44.5180 96.3628 0.0000 0.0000 0.0000
# 4 0.0000 0.0000 0.0000 23.7691 0.0000 0.0000
# 5 0.0000 0.0000 0.0000 0.0000 24.4341 0.0000
# 6 0.0000 0.0000 0.0000 0.0000 0.0000 20.3384
#
#
#
# Elastic Compliance Matrix: (Units=1/GPa)
#
#
# Indices 1 2 3 4 5 6 
#
# 1 0.031407 -0.013752 -0.006678 0.000000 0.000000 0.000000
# 2 -0.013752 0.029793 -0.008058 0.000000 0.000000 0.000000
# 3 -0.006678 -0.008058 0.016871 0.000000 0.000000 0.000000
# 4 0.000000 0.000000 0.000000 0.042071 0.000000 0.000000
# 5 0.000000 0.000000 0.000000 0.000000 0.040926 0.000000
# 6 0.000000 0.000000 0.000000 0.000000 0.000000 0.049168
#
#
# Mechanical properties :
#
#
# Convention : Reuss Voigt Hill
#
# Bulk Modulus (GPa) = 47.40521 50.91944 49.16232
# Shear Modulus (GPa) = 18.23197 19.98172 19.10685
#
# Velocity S-wave (km/s) = 3.58554 3.75365 3.67056
# Velocity P-wave (km/s) = 7.11117 7.39540 7.25468
#
# Compressibility (1/GPa) = 0.02109473
#
# Stress axis : x y z
#
# Youngs Moduli (GPa) = 31.84044 33.56478 59.27451
#
# Poissons Ratio (x) = 0.46159 0.39581
# Poissons Ratio (y) = 0.43788 0.47763
# Poissons Ratio (z) = 0.21262 0.27046
#
# Static dielectric constant tensor:
#      x y z
#    x 2.600040 0.000000 0.000000 
#    y 0.000000 2.809060 0.000000 
#    z 0.000000 0.000000 2.931420 
# 
# 
# High freq. dielectric constant tensor:
#      x y z
#    x 1.508860 0.000000 0.000000 
#    y 0.000000 1.537370 0.000000 
#    z 0.000000 0.000000 1.531930 
# 
# From -- ./inp_files/25008.got.cif
#   From: 2010.03.12/outbox.cif.g09.slc.cpg/sg62_13_cif.got.tgz:25008.got - 2010.04.10 19:12:36.
