data_PCOD8250784
_publ_section_title
;
Structure prediction by ZEFSAII (Michael W. Deem and Ramdas Pophale) SiO2 
 PCOD8250784
Probable space group: P N M A
;
_chemical_formula_sum "Si O2"
_cell_formula_units_Z 64
_cell_length_a 20.976560
_cell_length_b 9.459281
_cell_length_c 18.008472
_cell_angle_alpha 90.000000
_cell_angle_beta 90.000000
_cell_angle_gamma 90.000000
_cell_volume 3573.298199
_symmetry_space_group_name_H-M "P N M A"
_symmetry_group_IT_number 62
_symmetry_cell_setting 'orthorhombic'
loop_
_space_group_symop_operation_xyz
x,y,z
1/2-x,-y,1/2+z
1/2+x,1/2-y,1/2-z
-x,1/2+y,-z
-x,-y,-z
1/2+x,y,1/2-z
1/2-x,1/2+y,1/2+z
x,1/2-y,z
loop_
_atom_site_type_symbol
_atom_site_label
_atom_site_fract_x
_atom_site_fract_y
_atom_site_fract_z
Si Si1 0.849439 0.405863 0.414255
Si Si2 0.399832 0.917942 0.818632
Si Si3 0.004787 0.597976 0.568223
Si Si4 0.833588 0.584164 0.119966
Si Si5 0.035439 0.412329 0.938085
Si Si6 0.511943 0.911620 0.273272
Si Si7 0.128292 0.083591 0.721367
Si Si8 0.192694 0.583164 0.422451
O O1 0.817355 0.250000 0.404290
O O2 0.924187 0.389511 0.403919
O O3 0.832654 0.511272 0.347005
O O4 0.831619 0.466033 0.496061
O O5 0.387699 0.750000 0.808192
O O6 0.459862 0.960722 0.868468
O O7 0.425139 0.991081 0.743015
O O8 0.339012 0.992751 0.856205
O O9 0.978355 0.750000 0.542941
O O10 0.000000 0.500000 0.500000
O O11 0.845147 0.750000 0.127434
O O12 0.892306 0.526215 0.070500
O O13 0.836406 0.526306 0.204387
O O14 0.767388 0.546689 0.080578
O O15 0.036291 0.250000 0.963808
O O16 0.999497 0.429873 0.860386
O O17 0.000000 0.500000 0.000000
O O18 0.529258 0.750000 0.253724
O O19 0.447149 0.954424 0.228269
O O20 0.136641 0.250000 0.709815
O O21 0.178943 0.750000 0.410049
#
# Coordination Sequence:
#
# PCOD8250784 Si02
#       8
#     8   8   8   8   8   8   8   8
#     4  10  19  30  46  73 102 132 170 207 249 300
#     4  11  21  31  46  72 107 137 166 210 252 290
#     4  10  19  29  42  67 102 134 167 205 244 287
#     4   8  17  36  57  75  98 134 175 210 253 311
#     4   9  18  35  59  84 104 126 167 221 271 315
#     4   9  18  32  51  75 102 133 168 204 251 313
#     4   9  17  31  53  74  93 124 168 214 253 293
#     4  10  20  35  53  70 100 145 179 202 244 312
#
# _framework density 17.910623000000001
#
# number of rings (size 3 to 8) (size 9 to 14) (size 15 to 20)
#    0.000    2.500    2.500    1.875    0.000    2.000 
#    0.000    4.375    0.000    3.000    0.000    0.000 
#    0.000    0.000    0.000    0.000    0.000    0.000 
#
# Total GULP energy -792938.812863 kJ/mol
# GULP energy per Si atom -12389.668951 kJ/mol
# Density = 1.786986 g / cm^3
# Si number density = 17.910623 Si / 1000 Ang^3
#
#
#
# Elastic Constant Matrix: (Units=GPa)
#
#
# Indices 1 2 3 4 5 6 
#
# 1 86.6178 33.1069 41.4609 0.0000 0.0000 0.0000
# 2 33.1069 64.5670 40.9530 0.0000 0.0000 0.0000
# 3 41.4609 40.9530 76.7404 0.0000 0.0000 0.0000
# 4 0.0000 0.0000 0.0000 33.4666 0.0000 0.0000
# 5 0.0000 0.0000 0.0000 0.0000 22.0383 0.0000
# 6 0.0000 0.0000 0.0000 0.0000 0.0000 17.9754
#
#
#
# Elastic Compliance Matrix: (Units=1/GPa)
#
#
# Indices 1 2 3 4 5 6 
#
# 1 0.016288 -0.004188 -0.006565 0.000000 0.000000 0.000000
# 2 -0.004188 0.024489 -0.010806 0.000000 0.000000 0.000000
# 3 -0.006565 -0.010806 0.022345 0.000000 0.000000 0.000000
# 4 0.000000 0.000000 0.000000 0.029881 0.000000 0.000000
# 5 0.000000 0.000000 0.000000 0.000000 0.045376 0.000000
# 6 0.000000 0.000000 0.000000 0.000000 0.000000 0.055632
#
#
# Mechanical properties :
#
#
# Convention : Reuss Voigt Hill
#
# Bulk Modulus (GPa) = 49.99085 50.99631 50.49358
# Shear Modulus (GPa) = 20.50892 22.18968 21.34930
#
# Velocity S-wave (km/s) = 3.38756 3.52364 3.45627
# Velocity P-wave (km/s) = 6.57819 6.71485 6.64687
#
# Compressibility (1/GPa) = 0.02000366
#
# Stress axis : x y z
#
# Youngs Moduli (GPa) = 61.39435 40.83439 44.75292
#
# Poissons Ratio (x) = 0.17100 0.29382
# Poissons Ratio (y) = 0.25709 0.48362
# Poissons Ratio (z) = 0.40307 0.44127
#
# Static dielectric constant tensor:
#      x y z
#    x 3.176270 0.000000 0.000000 
#    y 0.000000 3.321490 0.000000 
#    z 0.000000 0.000000 3.230990 
# 
# 
# High freq. dielectric constant tensor:
#      x y z
#    x 1.672560 0.000000 0.000000 
#    y 0.000000 1.680810 0.000000 
#    z 0.000000 0.000000 1.689410 
# 
# From -- ./inp_files/24979.got.cif
#   From: 2010.03.12/outbox.cif.g09.slc.cpg/sg62_13_cif.got.tgz:24979.got - 2010.04.10 19:12:36.
