data_PCOD8250354
_publ_section_title
;
Structure prediction by ZEFSAII (Michael W. Deem and Ramdas Pophale) SiO2 
 PCOD8250354
Probable space group: P N M A
;
_chemical_formula_sum "Si O2"
_cell_formula_units_Z 64
_cell_length_a 30.127840
_cell_length_b 9.240866
_cell_length_c 14.395306
_cell_angle_alpha 90.000000
_cell_angle_beta 90.000000
_cell_angle_gamma 90.000000
_cell_volume 4007.758741
_symmetry_space_group_name_H-M "P N M A"
_symmetry_group_IT_number 62
_symmetry_cell_setting 'orthorhombic'
loop_
_space_group_symop_operation_xyz
x,y,z
1/2-x,-y,1/2+z
1/2+x,1/2-y,1/2-z
-x,1/2+y,-z
-x,-y,-z
1/2+x,y,1/2-z
1/2-x,1/2+y,1/2+z
x,1/2-y,z
loop_
_atom_site_type_symbol
_atom_site_label
_atom_site_fract_x
_atom_site_fract_y
_atom_site_fract_z
Si Si1 0.224242 0.079020 0.501636
Si Si2 0.450119 0.418074 0.591378
Si Si3 0.203584 0.580338 0.680105
Si Si4 0.365729 0.088777 0.689769
Si Si5 0.373024 0.079972 0.320489
Si Si6 0.948918 0.580920 0.098745
Si Si7 0.290936 0.920210 0.791189
Si Si8 0.678741 0.587850 0.506237
O O1 0.220533 0.250000 0.519167
O O2 0.208299 0.034816 0.399035
O O3 0.273929 0.014848 0.513027
O O4 0.196790 0.998709 0.581710
O O5 0.443749 0.250000 0.563173
O O6 0.417618 0.456782 0.678963
O O7 0.499961 0.449166 0.625444
O O8 0.437986 0.512587 0.501477
O O9 0.209364 0.750000 0.663707
O O10 0.157616 0.545743 0.732344
O O11 0.246592 0.521137 0.738452
O O12 0.360652 0.250000 0.732070
O O13 0.350392 0.085914 0.584210
O O14 0.336751 0.980861 0.750407
O O15 0.383291 0.250000 0.329371
O O16 0.347310 0.013595 0.409692
O O17 0.419655 0.993744 0.319644
O O18 0.938143 0.750000 0.094162
O O19 0.292120 0.750000 0.779951
O O20 0.689860 0.750000 0.541295
#
# Coordination Sequence:
#
# PCOD8250354 Si02
#       8
#     8   8   8   8   8   8   8   8
#     4  10  19  33  48  64  93 129 159 192 234 273
#     4   9  18  32  47  65  95 131 158 186 235 289
#     4  10  20  32  48  69  93 124 162 197 229 274
#     4  10  18  30  49  68  90 127 165 189 222 280
#     4  10  18  32  49  65  93 132 162 187 232 286
#     4  10  19  29  45  71  97 121 157 200 233 272
#     4  10  20  32  47  69  96 124 156 197 238 272
#     4   9  15  26  46  66  88 125 163 184 216 277
#
# _framework density 15.969025
#
# number of rings (size 3 to 8) (size 9 to 14) (size 15 to 20)
#    0.000    2.250    3.750    0.375    0.000    2.000 
#    0.000    0.625    0.000    0.000    0.000    0.875 
#    0.000    0.000    0.000    0.000    0.000    0.000 
#
# Total GULP energy -793232.275703 kJ/mol
# GULP energy per Si atom -12394.254308 kJ/mol
# Density = 1.593268 g / cm^3
# Si number density = 15.969025 Si / 1000 Ang^3
#
#
#
# Elastic Constant Matrix: (Units=GPa)
#
#
# Indices 1 2 3 4 5 6 
#
# 1 99.2103 34.2422 38.4493 0.0000 0.0000 0.0000
# 2 34.2422 43.1264 32.1363 0.0000 0.0000 0.0000
# 3 38.4493 32.1363 80.9147 0.0000 0.0000 0.0000
# 4 0.0000 0.0000 0.0000 23.0483 0.0000 0.0000
# 5 0.0000 0.0000 0.0000 0.0000 21.9874 0.0000
# 6 0.0000 0.0000 0.0000 0.0000 0.0000 26.2299
#
#
#
# Elastic Compliance Matrix: (Units=1/GPa)
#
#
# Indices 1 2 3 4 5 6 
#
# 1 0.014475 -0.009044 -0.003286 0.000000 0.000000 0.000000
# 2 -0.009044 0.038586 -0.011027 0.000000 0.000000 0.000000
# 3 -0.003286 -0.011027 0.018300 0.000000 0.000000 0.000000
# 4 0.000000 0.000000 0.000000 0.043387 0.000000 0.000000
# 5 0.000000 0.000000 0.000000 0.000000 0.045481 0.000000
# 6 0.000000 0.000000 0.000000 0.000000 0.000000 0.038124
#
#
# Mechanical properties :
#
#
# Convention : Reuss Voigt Hill
#
# Bulk Modulus (GPa) = 40.57571 48.10080 44.33826
# Shear Modulus (GPa) = 19.74080 22.14802 20.94441
#
# Velocity S-wave (km/s) = 3.51977 3.72820 3.62548
# Velocity P-wave (km/s) = 6.47939 6.97992 6.73431
#
# Compressibility (1/GPa) = 0.02464528
#
# Stress axis : x y z
#
# Youngs Moduli (GPa) = 69.08599 25.91632 54.64537
#
# Poissons Ratio (x) = 0.23439 0.17957
# Poissons Ratio (y) = 0.62482 0.60259
# Poissons Ratio (z) = 0.22703 0.28578
#
# Static dielectric constant tensor:
#      x y z
#    x 3.218930 0.000000 0.000000 
#    y 0.000000 2.911790 0.000000 
#    z 0.000000 0.000000 2.819140 
# 
# 
# High freq. dielectric constant tensor:
#      x y z
#    x 1.614440 0.000000 0.000000 
#    y 0.000000 1.600020 0.000000 
#    z 0.000000 0.000000 1.585030 
# 
# From -- ./inp_files/21227.got.cif
#   From: 2010.03.12/outbox.cif.g09.slc.cpg/sg62_11_cif.got.tgz:21227.got - 2010.04.10 19:12:36.
