data_PCOD8250116
_publ_section_title
;
Structure prediction by ZEFSAII (Michael W. Deem and Ramdas Pophale) SiO2 
 PCOD8250116
Probable space group: P N M A
;
_chemical_formula_sum "Si O2"
_cell_formula_units_Z 64
_cell_length_a 18.602679
_cell_length_b 8.907168
_cell_length_c 26.695469
_cell_angle_alpha 90.000000
_cell_angle_beta 90.000000
_cell_angle_gamma 90.000000
_cell_volume 4423.364122
_symmetry_space_group_name_H-M "P N M A"
_symmetry_group_IT_number 62
_symmetry_cell_setting 'orthorhombic'
loop_
_space_group_symop_operation_xyz
x,y,z
1/2-x,-y,1/2+z
1/2+x,1/2-y,1/2-z
-x,1/2+y,-z
-x,-y,-z
1/2+x,y,1/2-z
1/2-x,1/2+y,1/2+z
x,1/2-y,z
loop_
_atom_site_type_symbol
_atom_site_label
_atom_site_fract_x
_atom_site_fract_y
_atom_site_fract_z
Si Si1 0.926126 0.423459 0.255176
Si Si2 0.917196 0.572872 0.550866
Si Si3 0.343415 0.923492 0.851361
Si Si4 0.584872 0.071234 0.251487
Si Si5 0.288062 0.426138 0.700241
Si Si6 0.285453 0.422700 0.291128
Si Si7 0.162935 0.571578 0.649512
Si Si8 0.417951 0.426351 0.050766
O O1 0.941487 0.250000 0.264892
O O2 0.871815 0.448748 0.207532
O O3 0.889063 0.487236 0.305649
O O4 0.003781 0.495179 0.243564
O O5 0.908031 0.750000 0.546254
O O6 0.870939 0.502206 0.597014
O O7 0.887726 0.501868 0.499597
O O8 0.999675 0.526041 0.560272
O O9 0.362590 0.750000 0.856478
O O10 0.385601 0.983904 0.802601
O O11 0.256857 0.949978 0.843618
O O12 0.589542 0.250000 0.257349
O O13 0.632106 0.997524 0.295935
O O14 0.294689 0.250000 0.691718
O O15 0.246745 0.462858 0.751353
O O16 0.242046 0.498148 0.654765
O O17 0.270251 0.250000 0.273262
O O18 0.170919 0.750000 0.651859
O O19 0.129176 0.516362 0.597355
O O20 0.411186 0.250000 0.044324
#
# Coordination Sequence:
#
# PCOD8250116 Si02
#       8
#     8   8   8   8   8   8   8   8
#     4   8  13  22  40  60  73  92 126 162 187 215
#     4   9  16  26  39  56  78 102 128 159 193 224
#     4   8  13  22  38  55  72  99 130 154 178 216
#     4   9  15  25  40  56  75 100 129 156 184 220
#     4  10  18  26  36  54  78 101 126 156 191 227
#     4   8  14  26  41  56  74  98 129 160 188 221
#     4   9  16  28  43  56  73 101 135 164 191 224
#     4   9  17  27  39  55  75 100 131 164 192 220
#
# _framework density 14.468624999999999
#
# number of rings (size 3 to 8) (size 9 to 14) (size 15 to 20)
#    0.000    3.250    0.000    3.375    0.000    3.500 
#    0.000    5.000    0.000    3.000    0.000    0.000 
#    0.000    1.000    0.000    2.000    0.000    2.625 
#
# Total GULP energy -792861.381136 kJ/mol
# GULP energy per Si atom -12388.459080 kJ/mol
# Density = 1.443569 g / cm^3
# Si number density = 14.468625 Si / 1000 Ang^3
#
#
#
# Elastic Constant Matrix: (Units=GPa)
#
#
# Indices 1 2 3 4 5 6 
#
# 1 124.8158 23.9350 63.3397 0.0000 0.0000 0.0000
# 2 23.9350 29.3832 20.2836 0.0000 0.0000 0.0000
# 3 63.3397 20.2836 93.0940 0.0000 0.0000 0.0000
# 4 0.0000 0.0000 0.0000 16.6224 0.0000 0.0000
# 5 0.0000 0.0000 0.0000 0.0000 27.3531 0.0000
# 6 0.0000 0.0000 0.0000 0.0000 0.0000 10.4474
#
#
#
# Elastic Compliance Matrix: (Units=1/GPa)
#
#
# Indices 1 2 3 4 5 6 
#
# 1 0.012886 -0.005231 -0.007627 0.000000 0.000000 0.000000
# 2 -0.005231 0.042182 -0.005632 0.000000 0.000000 0.000000
# 3 -0.007627 -0.005632 0.017158 0.000000 0.000000 0.000000
# 4 0.000000 0.000000 0.000000 0.060160 0.000000 0.000000
# 5 0.000000 0.000000 0.000000 0.000000 0.036559 0.000000
# 6 0.000000 0.000000 0.000000 0.000000 0.000000 0.095718
#
#
# Mechanical properties :
#
#
# Convention : Reuss Voigt Hill
#
# Bulk Modulus (GPa) = 28.37225 51.37886 39.87555
# Shear Modulus (GPa) = 15.95454 20.20023 18.07739
#
# Velocity S-wave (km/s) = 3.32429 3.74055 3.53855
# Velocity P-wave (km/s) = 5.86401 7.36500 6.65695
#
# Compressibility (1/GPa) = 0.03524571
#
# Stress axis : x y z
#
# Youngs Moduli (GPa) = 77.60635 23.70692 58.28054
#
# Poissons Ratio (x) = 0.12401 0.44453
# Poissons Ratio (y) = 0.40596 0.32821
# Poissons Ratio (z) = 0.59193 0.13351
#
# Static dielectric constant tensor:
#      x y z
#    x 3.103220 0.000000 0.000000 
#    y 0.000000 2.539590 0.000000 
#    z 0.000000 0.000000 2.778010 
# 
# 
# High freq. dielectric constant tensor:
#      x y z
#    x 1.548860 0.000000 0.000000 
#    y 0.000000 1.527950 0.000000 
#    z 0.000000 0.000000 1.519030 
# 
# From -- ./inp_files/31352.got.cif
#   From: 2010.03.12/outbox.cif.g09.slc.cpg/sg62_16_cif.got.tgz:31352.got - 2010.04.10 19:12:36.
