data_PCOD8250040
_publ_section_title
;
Structure prediction by ZEFSAII (Michael W. Deem and Ramdas Pophale) SiO2 
 PCOD8250040
Probable space group: P N M A
;
_chemical_formula_sum "Si O2"
_cell_formula_units_Z 64
_cell_length_a 21.829799
_cell_length_b 9.453020
_cell_length_c 17.024029
_cell_angle_alpha 90.000000
_cell_angle_beta 90.000000
_cell_angle_gamma 90.000000
_cell_volume 3513.036516
_symmetry_space_group_name_H-M "P N M A"
_symmetry_group_IT_number 62
_symmetry_cell_setting 'orthorhombic'
loop_
_space_group_symop_operation_xyz
x,y,z
1/2-x,-y,1/2+z
1/2+x,1/2-y,1/2-z
-x,1/2+y,-z
-x,-y,-z
1/2+x,y,1/2-z
1/2-x,1/2+y,1/2+z
x,1/2-y,z
loop_
_atom_site_type_symbol
_atom_site_label
_atom_site_fract_x
_atom_site_fract_y
_atom_site_fract_z
Si Si1 0.870763 0.090138 0.421598
Si Si2 0.361544 0.410730 0.307345
Si Si3 0.027677 0.911945 0.699767
Si Si4 0.337507 0.092508 0.628937
Si Si5 0.294565 0.592239 0.188525
Si Si6 0.320381 0.412913 0.914783
Si Si7 0.299260 0.414970 0.463160
Si Si8 0.593460 0.581071 0.225216
O O1 0.852069 0.250000 0.398216
O O2 0.936254 0.056369 0.381669
O O3 0.870785 0.070970 0.515359
O O4 0.819677 0.985166 0.388465
O O5 0.345890 0.250000 0.283322
O O6 0.429136 0.447913 0.274983
O O7 0.311460 0.510900 0.267665
O O8 0.354953 0.431599 0.400908
O O9 0.005273 0.750000 0.703202
O O10 0.970479 0.014535 0.700973
O O11 0.359407 0.250000 0.607342
O O12 0.277998 0.097024 0.683548
O O13 0.324342 0.016130 0.545181
O O14 0.388732 0.024498 0.686758
O O15 0.322253 0.750000 0.191998
O O16 0.299210 0.250000 0.906659
O O17 0.260654 0.505565 0.932281
O O18 0.354325 0.466792 0.836539
O O19 0.281333 0.250000 0.475753
O O20 0.587198 0.750000 0.223858
#
# Coordination Sequence:
#
# PCOD8250040 Si02
#       8
#     8   8   8   8   8   8   8   8
#     4   9  18  33  52  75 106 140 167 205 259 307
#     4   9  19  34  53  74 101 136 171 211 259 306
#     4   9  19  36  52  70  99 136 180 219 252 300
#     4   9  18  32  50  74 105 134 165 209 260 308
#     4  10  17  29  52  78 103 130 166 209 253 309
#     4  10  20  34  53  79 111 138 166 210 264 313
#     4  10  19  34  55  79 105 136 172 208 255 316
#     4  10  21  36  52  73 103 140 174 212 262 306
#
# _framework density 18.217859000000001
#
# number of rings (size 3 to 8) (size 9 to 14) (size 15 to 20)
#    0.000    2.500    1.250    1.875    0.000    4.500 
#    0.000    2.500    0.000    0.000    0.000    0.000 
#    0.000    0.000    0.000    0.000    0.000    0.000 
#
# Total GULP energy -793169.797307 kJ/mol
# GULP energy per Si atom -12393.278083 kJ/mol
# Density = 1.817639 g / cm^3
# Si number density = 18.217859 Si / 1000 Ang^3
#
#
#
# Elastic Constant Matrix: (Units=GPa)
#
#
# Indices 1 2 3 4 5 6 
#
# 1 60.8294 23.6417 42.9692 0.0000 0.0000 0.0000
# 2 23.6417 54.1205 27.8470 0.0000 0.0000 0.0000
# 3 42.9692 27.8470 122.9026 0.0000 0.0000 0.0000
# 4 0.0000 0.0000 0.0000 17.8351 0.0000 0.0000
# 5 0.0000 0.0000 0.0000 0.0000 23.1061 0.0000
# 6 0.0000 0.0000 0.0000 0.0000 0.0000 22.8855
#
#
#
# Elastic Compliance Matrix: (Units=1/GPa)
#
#
# Indices 1 2 3 4 5 6 
#
# 1 0.023945 -0.006964 -0.006794 0.000000 0.000000 0.000000
# 2 -0.006964 0.022941 -0.002763 0.000000 0.000000 0.000000
# 3 -0.006794 -0.002763 0.011138 0.000000 0.000000 0.000000
# 4 0.000000 0.000000 0.000000 0.056069 0.000000 0.000000
# 5 0.000000 0.000000 0.000000 0.000000 0.043279 0.000000
# 6 0.000000 0.000000 0.000000 0.000000 0.000000 0.043696
#
#
# Mechanical properties :
#
#
# Convention : Reuss Voigt Hill
#
# Bulk Modulus (GPa) = 40.02920 47.41872 43.72396
# Shear Modulus (GPa) = 20.62387 22.32500 21.47443
#
# Velocity S-wave (km/s) = 3.36827 3.50443 3.43703
# Velocity P-wave (km/s) = 6.09485 6.51613 6.30901
#
# Compressibility (1/GPa) = 0.02498176
#
# Stress axis : x y z
#
# Youngs Moduli (GPa) = 41.76197 43.58947 89.78429
#
# Poissons Ratio (x) = 0.30358 0.60997
# Poissons Ratio (y) = 0.29085 0.24808
# Poissons Ratio (z) = 0.28372 0.12044
#
# Static dielectric constant tensor:
#      x y z
#    x 3.072600 0.000000 0.000000 
#    y 0.000000 3.281160 0.000000 
#    z 0.000000 0.000000 3.719770 
# 
# 
# High freq. dielectric constant tensor:
#      x y z
#    x 1.679920 0.000000 0.000000 
#    y 0.000000 1.691540 0.000000 
#    z 0.000000 0.000000 1.719660 
# 
# From -- ./inp_files/24704.got.cif
#   From: 2010.03.12/outbox.cif.g09.slc.cpg/sg62_13_cif.got.tgz:24704.got - 2010.04.10 19:12:36.
