data_PCOD8250022
_publ_section_title
;
Structure prediction by ZEFSAII (Michael W. Deem and Ramdas Pophale) SiO2 
 PCOD8250022
Probable space group: P N M A
;
_chemical_formula_sum "Si O2"
_cell_formula_units_Z 56
_cell_length_a 9.433888
_cell_length_b 16.161893
_cell_length_c 23.797746
_cell_angle_alpha 90.000000
_cell_angle_beta 90.000000
_cell_angle_gamma 90.000000
_cell_volume 3628.430158
_symmetry_space_group_name_H-M "P N M A"
_symmetry_group_IT_number 62
_symmetry_cell_setting 'orthorhombic'
loop_
_space_group_symop_operation_xyz
x,y,z
1/2-x,-y,1/2+z
1/2+x,1/2-y,1/2-z
-x,1/2+y,-z
-x,-y,-z
1/2+x,y,1/2-z
1/2-x,1/2+y,1/2+z
x,1/2-y,z
loop_
_atom_site_type_symbol
_atom_site_label
_atom_site_fract_x
_atom_site_fract_y
_atom_site_fract_z
Si Si1 0.646255 0.032605 0.974447
Si Si2 0.749665 0.844946 0.162123
Si Si3 0.781232 0.344274 0.787391
Si Si4 0.130753 0.843560 0.004460
Si Si5 0.026770 0.584818 0.120504
Si Si6 0.559357 0.342654 0.879453
Si Si7 0.418337 0.553691 0.546426
O O1 0.736961 0.096503 0.013664
O O2 0.617241 0.084057 0.917973
O O3 0.500000 0.000000 0.000000
O O4 0.747391 0.952246 0.962565
O O5 0.800033 0.750000 0.165866
O O6 0.734938 0.881535 0.225028
O O7 0.606711 0.854736 0.127453
O O8 0.861289 0.896681 0.126076
O O9 0.836122 0.250000 0.783593
O O10 0.898548 0.396060 0.820708
O O11 0.630202 0.350347 0.818264
O O12 0.180062 0.750000 0.996821
O O13 0.991262 0.856871 0.963650
O O14 0.094381 0.860660 0.070060
O O15 0.045824 0.487099 0.106875
O O16 0.591147 0.250000 0.904268
O O17 0.500000 0.500000 0.500000
#
# Coordination Sequence:
#
# PCOD8250022 Si02
#       7
#     8   8   8   8   8   8   8
#     4  10  19  30  46  64  91 119 150 187 229 268
#     4  10  20  26  39  65  91 122 160 188 207 247
#     4  10  17  29  42  59  89 126 159 183 211 252
#     4  10  19  33  50  66  87 119 156 188 226 277
#     4  10  17  30  46  61  89 124 152 184 221 256
#     4  10  19  29  42  62  90 125 155 179 217 262
#     4   8  18  31  46  65  82 115 155 184 225 266
#
# _framework density 15.433673000000001
#
# number of rings (size 3 to 8) (size 9 to 14) (size 15 to 20)
#    0.000    2.571    2.857    2.571    6.000    2.286 
#    0.000    0.714    0.000    0.000    0.000    0.000 
#    0.000    1.143    0.000    0.000    0.000    0.286 
#
# Total GULP energy -693789.102347 kJ/mol
# GULP energy per Si atom -12389.091113 kJ/mol
# Density = 1.539854 g / cm^3
# Si number density = 15.433673 Si / 1000 Ang^3
#
#
#
# Elastic Constant Matrix: (Units=GPa)
#
#
# Indices 1 2 3 4 5 6 
#
# 1 109.7122 30.3656 22.3876 0.0000 0.0000 0.0000
# 2 30.3656 51.2139 18.9031 0.0000 0.0000 0.0000
# 3 22.3876 18.9031 44.0353 0.0000 0.0000 0.0000
# 4 0.0000 0.0000 0.0000 18.9477 0.0000 0.0000
# 5 0.0000 0.0000 0.0000 0.0000 23.2198 0.0000
# 6 0.0000 0.0000 0.0000 0.0000 0.0000 23.0010
#
#
#
# Elastic Compliance Matrix: (Units=1/GPa)
#
#
# Indices 1 2 3 4 5 6 
#
# 1 0.011321 -0.005452 -0.003415 0.000000 0.000000 0.000000
# 2 -0.005452 0.025828 -0.008315 0.000000 0.000000 0.000000
# 3 -0.003415 -0.008315 0.028015 0.000000 0.000000 0.000000
# 4 0.000000 0.000000 0.000000 0.052777 0.000000 0.000000
# 5 0.000000 0.000000 0.000000 0.000000 0.043067 0.000000
# 6 0.000000 0.000000 0.000000 0.000000 0.000000 0.043476
#
#
# Mechanical properties :
#
#
# Convention : Reuss Voigt Hill
#
# Bulk Modulus (GPa) = 32.46897 38.69708 35.58302
# Shear Modulus (GPa) = 20.07119 21.92071 20.99595
#
# Velocity S-wave (km/s) = 3.61013 3.77280 3.69236
# Velocity P-wave (km/s) = 6.20168 6.64125 6.42523
#
# Compressibility (1/GPa) = 0.03079863
#
# Stress axis : x y z
#
# Youngs Moduli (GPa) = 88.33531 38.71840 35.69530
#
# Poissons Ratio (x) = 0.21108 0.12190
# Poissons Ratio (y) = 0.48157 0.29682
# Poissons Ratio (z) = 0.30168 0.32196
#
# Static dielectric constant tensor:
#      x y z
#    x 3.279120 0.000000 0.000000 
#    y 0.000000 3.182500 0.000000 
#    z 0.000000 0.000000 2.911590 
# 
# 
# High freq. dielectric constant tensor:
#      x y z
#    x 1.613940 0.000000 0.000000 
#    y 0.000000 1.549170 0.000000 
#    z 0.000000 0.000000 1.565920 
# 
# From -- ./inp_files/26102.got.cif
#   From: 2010.03.12/outbox.cif.g09.slc.cpg/sg62_14_cif.got.tgz:26102.got - 2010.04.10 19:12:36.
