data_PCOD8250074
_publ_section_title
;
Structure prediction by ZEFSAII (Michael W. Deem and Ramdas Pophale) SiO2 
 PCOD8250074
Probable space group: P N M A
;
_chemical_formula_sum "Si O2"
_cell_formula_units_Z 48
_cell_length_a 12.965503
_cell_length_b 13.924181
_cell_length_c 16.743452
_cell_angle_alpha 90.000000
_cell_angle_beta 90.000000
_cell_angle_gamma 90.000000
_cell_volume 3022.762540
_symmetry_space_group_name_H-M "P N M A"
_symmetry_group_IT_number 62
_symmetry_cell_setting 'orthorhombic'
loop_
_space_group_symop_operation_xyz
x,y,z
1/2-x,-y,1/2+z
1/2+x,1/2-y,1/2-z
-x,1/2+y,-z
-x,-y,-z
1/2+x,y,1/2-z
1/2-x,1/2+y,1/2+z
x,1/2-y,z
loop_
_atom_site_type_symbol
_atom_site_label
_atom_site_fract_x
_atom_site_fract_y
_atom_site_fract_z
Si Si1 0.066373 0.359224 0.805066
Si Si2 0.373652 0.139674 0.213786
Si Si3 0.091930 0.064443 0.969079
Si Si4 0.165777 0.141112 0.132295
Si Si5 0.779579 0.008956 0.162996
Si Si6 0.064225 0.483138 0.267216
O O1 0.075175 0.250000 0.775460
O O2 0.046560 0.364057 0.901005
O O3 0.172800 0.417728 0.787437
O O4 0.973764 0.410725 0.757191
O O5 0.406246 0.250000 0.221879
O O6 0.287562 0.123424 0.145612
O O7 0.325729 0.106109 0.298631
O O8 0.474179 0.078051 0.190501
O O9 0.181769 0.997475 0.928887
O O10 0.142562 0.124993 0.039623
O O11 0.000000 0.000000 0.000000
O O12 0.136814 0.250000 0.155978
O O13 0.098439 0.070143 0.186255
O O14 0.656157 0.006901 0.168934
#
# Coordination Sequence:
#
# PCOD8250074 Si02
#       6
#     8   8   8   8   8   8
#     4   9  18  30  46  67  92 122 160 197 231 274
#     4   9  17  30  49  73  96 125 157 191 239 288
#     4  10  17  32  48  70  97 122 159 196 237 282
#     4  10  18  29  50  73  98 125 154 196 239 283
#     4   8  19  30  47  70  98 123 158 195 233 279
#     4  10  17  32  48  72  97 124 160 198 234 281
#
# _framework density 15.879514
#
# number of rings (size 3 to 8) (size 9 to 14) (size 15 to 20)
#    1.000    1.667    1.667    1.000    0.000    1.333 
#    0.000    1.667    0.000    0.000    0.000    0.000 
#    0.000    0.000    0.000    0.000    0.000    0.000 
#
# Total GULP energy -594798.985116 kJ/mol
# GULP energy per Si atom -12391.645523 kJ/mol
# Density = 1.584337 g / cm^3
# Si number density = 15.879514 Si / 1000 Ang^3
#
#
#
# Elastic Constant Matrix: (Units=GPa)
#
#
# Indices 1 2 3 4 5 6 
#
# 1 102.4114 44.1515 21.9137 0.0000 0.0000 0.0000
# 2 44.1515 97.6771 18.2860 0.0000 0.0000 0.0000
# 3 21.9137 18.2860 41.3441 0.0000 0.0000 0.0000
# 4 0.0000 0.0000 0.0000 19.0912 0.0000 0.0000
# 5 0.0000 0.0000 0.0000 0.0000 26.2140 0.0000
# 6 0.0000 0.0000 0.0000 0.0000 0.0000 18.4329
#
#
#
# Elastic Compliance Matrix: (Units=1/GPa)
#
#
# Indices 1 2 3 4 5 6 
#
# 1 0.012896 -0.004960 -0.004641 0.000000 0.000000 0.000000
# 2 -0.004960 0.013070 -0.003152 0.000000 0.000000 0.000000
# 3 -0.004641 -0.003152 0.028041 0.000000 0.000000 0.000000
# 4 0.000000 0.000000 0.000000 0.052380 0.000000 0.000000
# 5 0.000000 0.000000 0.000000 0.000000 0.038147 0.000000
# 6 0.000000 0.000000 0.000000 0.000000 0.000000 0.054251
#
#
# Mechanical properties :
#
#
# Convention : Reuss Voigt Hill
#
# Bulk Modulus (GPa) = 35.08687 45.57054 40.32871
# Shear Modulus (GPa) = 21.38646 23.21973 22.30310
#
# Velocity S-wave (km/s) = 3.67385 3.82808 3.75176
# Velocity P-wave (km/s) = 6.33561 6.94974 6.64977
#
# Compressibility (1/GPa) = 0.02850069
#
# Stress axis : x y z
#
# Youngs Moduli (GPa) = 77.54219 76.51131 35.66168
#
# Poissons Ratio (x) = 0.37952 0.16552
# Poissons Ratio (y) = 0.38464 0.11239
# Poissons Ratio (z) = 0.35991 0.24113
#
# Static dielectric constant tensor:
#      x y z
#    x 3.043340 0.000000 0.000000 
#    y 0.000000 2.918550 0.000000 
#    z 0.000000 0.000000 2.783720 
# 
# 
# High freq. dielectric constant tensor:
#      x y z
#    x 1.611130 0.000000 0.000000 
#    y 0.000000 1.607350 0.000000 
#    z 0.000000 0.000000 1.578230 
# 
# From -- ./inp_files/23841.got.cif
#   From: 2010.03.12/outbox.cif.g09.slc.cpg/sg62_12_cif.got.tgz:23841.got - 2010.04.10 19:12:36.
