data_PCOD8250891
_publ_section_title
;
Structure prediction by ZEFSAII (Michael W. Deem and Ramdas Pophale) SiO2 
 PCOD8250891
Probable space group: P N M A
;
_chemical_formula_sum "Si O2"
_cell_formula_units_Z 48
_cell_length_a 4.918357
_cell_length_b 23.821525
_cell_length_c 21.225658
_cell_angle_alpha 90.000000
_cell_angle_beta 90.000000
_cell_angle_gamma 90.000000
_cell_volume 2486.856764
_symmetry_space_group_name_H-M "P N M A"
_symmetry_group_IT_number 62
_symmetry_cell_setting 'orthorhombic'
loop_
_space_group_symop_operation_xyz
x,y,z
1/2-x,-y,1/2+z
1/2+x,1/2-y,1/2-z
-x,1/2+y,-z
-x,-y,-z
1/2+x,y,1/2-z
1/2-x,1/2+y,1/2+z
x,1/2-y,z
loop_
_atom_site_type_symbol
_atom_site_label
_atom_site_fract_x
_atom_site_fract_y
_atom_site_fract_z
Si Si1 0.166728 0.357991 0.582485
Si Si2 0.797905 0.550431 0.512453
Si Si3 0.253935 0.457673 0.208134
Si Si4 0.148001 0.186903 0.984416
Si Si5 0.721062 0.585951 0.291333
Si Si6 0.298798 0.590314 0.576598
O O1 0.251634 0.417527 0.552529
O O2 0.370960 0.310861 0.555999
O O3 0.195888 0.367701 0.656970
O O4 0.864193 0.340796 0.563113
O O5 0.498052 0.541590 0.544710
O O6 0.000000 0.500000 0.500000
O O7 0.979254 0.587035 0.560858
O O8 0.555243 0.446031 0.233433
O O9 0.244925 0.521984 0.183205
O O10 0.177468 0.415119 0.151721
O O11 0.228884 0.250000 0.004081
O O12 0.103108 0.150404 0.048435
O O13 0.412739 0.595618 0.269289
#
# Coordination Sequence:
#
# PCOD8250891 Si02
#       6
#     8   8   8   8   8   8
#     4  10  20  34  54  77 101 134 173 214 263 315
#     4  10  19  30  49  77 106 132 163 212 263 312
#     4  10  20  33  51  76 109 145 172 199 243 308
#     4  10  21  37  57  77  99 132 174 226 275 307
#     4  10  20  33  51  75 106 141 170 200 245 308
#     4  10  20  33  51  76 104 136 173 211 258 310
#
# _framework density 19.301473000000001
#
# number of rings (size 3 to 8) (size 9 to 14) (size 15 to 20)
#    0.000    2.000    0.000    4.000    0.000    5.333 
#    0.000    0.000    0.000   11.000    0.000    0.000 
#    0.000    0.000    0.000    0.000    0.000    0.000 
#
# Total GULP energy -594899.213395 kJ/mol
# GULP energy per Si atom -12393.733612 kJ/mol
# Density = 1.925754 g / cm^3
# Si number density = 19.301473 Si / 1000 Ang^3
#
#
#
# Elastic Constant Matrix: (Units=GPa)
#
#
# Indices 1 2 3 4 5 6 
#
# 1 80.3094 -3.2650 6.9025 0.0000 0.0000 0.0000
# 2 -3.2650 66.9994 37.8472 0.0000 0.0000 0.0000
# 3 6.9025 37.8472 89.9027 0.0000 0.0000 0.0000
# 4 0.0000 0.0000 0.0000 16.0840 0.0000 0.0000
# 5 0.0000 0.0000 0.0000 0.0000 19.3624 0.0000
# 6 0.0000 0.0000 0.0000 0.0000 0.0000 19.4988
#
#
#
# Elastic Compliance Matrix: (Units=1/GPa)
#
#
# Indices 1 2 3 4 5 6 
#
# 1 0.012653 0.001529 -0.001615 0.000000 0.000000 0.000000
# 2 0.001529 0.019767 -0.008439 0.000000 0.000000 0.000000
# 3 -0.001615 -0.008439 0.014800 0.000000 0.000000 0.000000
# 4 0.000000 0.000000 0.000000 0.062174 0.000000 0.000000
# 5 0.000000 0.000000 0.000000 0.000000 0.051646 0.000000
# 6 0.000000 0.000000 0.000000 0.000000 0.000000 0.051285
#
#
# Mechanical properties :
#
#
# Convention : Reuss Voigt Hill
#
# Bulk Modulus (GPa) = 33.14606 35.57565 34.36086
# Shear Modulus (GPa) = 20.88279 24.03750 22.46015
#
# Velocity S-wave (km/s) = 3.29283 3.53281 3.41493
# Velocity P-wave (km/s) = 5.62735 5.92559 5.77839
#
# Compressibility (1/GPa) = 0.03016950
#
# Stress axis : x y z
#
# Youngs Moduli (GPa) = 79.03376 50.58911 67.56859
#
# Poissons Ratio (x) = -0.07735 0.10913
# Poissons Ratio (y) = -0.12084 0.57021
# Poissons Ratio (z) = 0.12765 0.42692
#
# Static dielectric constant tensor:
#      x y z
#    x 4.877560 0.000000 0.000000 
#    y 0.000000 3.229740 0.000000 
#    z 0.000000 0.000000 3.269360 
# 
# 
# High freq. dielectric constant tensor:
#      x y z
#    x 1.778060 0.000000 0.000000 
#    y 0.000000 1.707800 0.000000 
#    z 0.000000 0.000000 1.734120 
# 
# From -- ./inp_files/21586.got.cif
#   From: 2010.03.12/outbox.cif.g09.slc.cpg/sg62_11_cif.got.tgz:21586.got - 2010.04.10 19:12:36.
