data_PCOD8250908
_publ_section_title
;
Structure prediction by ZEFSAII (Michael W. Deem and Ramdas Pophale) SiO2 
 PCOD8250908
Probable space group: P N M A
;
_chemical_formula_sum "Si O2"
_cell_formula_units_Z 64
_cell_length_a 33.300458
_cell_length_b 8.637683
_cell_length_c 11.759077
_cell_angle_alpha 90.000000
_cell_angle_beta 90.000000
_cell_angle_gamma 90.000000
_cell_volume 3382.366797
_symmetry_space_group_name_H-M "P N M A"
_symmetry_group_IT_number 62
_symmetry_cell_setting 'orthorhombic'
loop_
_space_group_symop_operation_xyz
x,y,z
1/2-x,-y,1/2+z
1/2+x,1/2-y,1/2-z
-x,1/2+y,-z
-x,-y,-z
1/2+x,y,1/2-z
1/2-x,1/2+y,1/2+z
x,1/2-y,z
loop_
_atom_site_type_symbol
_atom_site_label
_atom_site_fract_x
_atom_site_fract_y
_atom_site_fract_z
Si Si1 0.322133 0.571151 0.107077
Si Si2 0.230256 0.930091 0.802204
Si Si3 0.549964 0.930072 0.386325
Si Si4 0.669745 0.068803 0.540513
Si Si5 0.687928 0.929395 0.133840
Si Si6 0.031952 0.929583 0.856449
Si Si7 0.892609 0.571875 0.229775
Si Si8 0.369129 0.930693 0.695073
O O1 0.316056 0.750000 0.073136
O O2 0.289164 0.528608 0.201061
O O3 0.366850 0.543162 0.156462
O O4 0.316809 0.463301 0.998913
O O5 0.224532 0.750000 0.776133
O O6 0.209451 0.975057 0.922351
O O7 0.277053 0.968585 0.810266
O O8 0.558842 0.750000 0.369917
O O9 0.547688 0.977257 0.518643
O O10 0.508036 0.974695 0.326140
O O11 0.584905 0.026760 0.326998
O O12 0.678810 0.250000 0.555566
O O13 0.633201 0.017452 0.621245
O O14 0.658557 0.024290 0.412512
O O15 0.697939 0.750000 0.149885
O O16 0.646708 0.973839 0.197065
O O17 0.021236 0.750000 0.849764
O O18 0.066656 0.971823 0.765917
O O19 0.904893 0.750000 0.216673
O O20 0.366442 0.750000 0.721947
#
# Coordination Sequence:
#
# PCOD8250908 Si02
#       8
#     8   8   8   8   8   8   8   8
#     4  10  22  42  62  84 113 148 193 239 287 341
#     4  11  23  39  61  86 114 148 188 238 290 338
#     4  10  20  33  51  80 119 155 191 234 284 340
#     4   9  19  35  56  82 114 149 187 231 282 340
#     4  12  26  42  60  83 114 152 195 238 287 343
#     4  10  19  30  51  83 117 153 190 231 280 337
#     4   9  17  33  57  83 112 146 183 230 282 335
#     4  11  22  38  59  83 116 154 193 236 289 345
#
# _framework density 18.921662000000001
#
# number of rings (size 3 to 8) (size 9 to 14) (size 15 to 20)
#    0.000    1.750    1.250    4.500    1.750    4.500 
#    0.000    0.000    0.000    0.750    0.000    0.000 
#    0.000    0.000    0.000    0.000    0.000    0.000 
#
# Total GULP energy -793919.106856 kJ/mol
# GULP energy per Si atom -12404.986045 kJ/mol
# Density = 1.887860 g / cm^3
# Si number density = 18.921662 Si / 1000 Ang^3
#
#
#
# Elastic Constant Matrix: (Units=GPa)
#
#
# Indices 1 2 3 4 5 6 
#
# 1 101.4865 25.6115 29.8118 0.0000 0.0000 0.0000
# 2 25.6115 66.9534 17.9597 0.0000 0.0000 0.0000
# 3 29.8118 17.9597 66.3770 0.0000 0.0000 0.0000
# 4 0.0000 0.0000 0.0000 27.4570 0.0000 0.0000
# 5 0.0000 0.0000 0.0000 0.0000 22.0120 0.0000
# 6 0.0000 0.0000 0.0000 0.0000 0.0000 35.7988
#
#
#
# Elastic Compliance Matrix: (Units=1/GPa)
#
#
# Indices 1 2 3 4 5 6 
#
# 1 0.012028 -0.003399 -0.004483 0.000000 0.000000 0.000000
# 2 -0.003399 0.017065 -0.003091 0.000000 0.000000 0.000000
# 3 -0.004483 -0.003091 0.017915 0.000000 0.000000 0.000000
# 4 0.000000 0.000000 0.000000 0.036421 0.000000 0.000000
# 5 0.000000 0.000000 0.000000 0.000000 0.045430 0.000000
# 6 0.000000 0.000000 0.000000 0.000000 0.000000 0.027934
#
#
# Mechanical properties :
#
#
# Convention : Reuss Voigt Hill
#
# Bulk Modulus (GPa) = 39.89811 42.39810 41.14811
# Shear Modulus (GPa) = 26.72499 27.81581 27.27040
#
# Velocity S-wave (km/s) = 3.76227 3.83828 3.80047
# Velocity P-wave (km/s) = 6.32492 6.48838 6.40717
#
# Compressibility (1/GPa) = 0.02506385
#
# Stress axis : x y z
#
# Youngs Moduli (GPa) = 83.13966 58.59975 55.81922
#
# Poissons Ratio (x) = 0.19916 0.25021
# Poissons Ratio (y) = 0.28256 0.17253
# Poissons Ratio (z) = 0.37268 0.18112
#
# Static dielectric constant tensor:
#      x y z
#    x 3.470610 0.000000 0.000000 
#    y 0.000000 3.404110 0.000000 
#    z 0.000000 0.000000 3.271570 
# 
# 
# High freq. dielectric constant tensor:
#      x y z
#    x 1.738330 0.000000 0.000000 
#    y 0.000000 1.742720 0.000000 
#    z 0.000000 0.000000 1.706150 
# 
# From -- ./inp_files/15801.got.cif
#   From: 2010.03.12/outbox.cif.g09.slc.cpg/sg62_8_cif.got.tgz:15801.got - 2010.04.10 19:12:36.
