data_PCOD8250716
_publ_section_title
;
Structure prediction by ZEFSAII (Michael W. Deem and Ramdas Pophale) SiO2 
 PCOD8250716
Probable space group: P N M A
;
_chemical_formula_sum "Si O2"
_cell_formula_units_Z 64
_cell_length_a 28.771003
_cell_length_b 12.656665
_cell_length_c 8.581926
_cell_angle_alpha 90.000000
_cell_angle_beta 90.000000
_cell_angle_gamma 90.000000
_cell_volume 3125.064986
_symmetry_space_group_name_H-M "P N M A"
_symmetry_group_IT_number 62
_symmetry_cell_setting 'orthorhombic'
loop_
_space_group_symop_operation_xyz
x,y,z
1/2-x,-y,1/2+z
1/2+x,1/2-y,1/2-z
-x,1/2+y,-z
-x,-y,-z
1/2+x,y,1/2-z
1/2-x,1/2+y,1/2+z
x,1/2-y,z
loop_
_atom_site_type_symbol
_atom_site_label
_atom_site_fract_x
_atom_site_fract_y
_atom_site_fract_z
Si Si1 0.510463 0.035465 0.250219
Si Si2 0.438559 0.557426 0.032284
Si Si3 0.844880 0.368729 0.900491
Si Si4 0.289103 0.985616 0.381086
Si Si5 0.779302 0.129273 0.403523
Si Si6 0.118595 0.130100 0.798399
Si Si7 0.433843 0.050798 0.471298
Si Si8 0.124575 0.870434 0.439229
O O1 0.483357 0.951289 0.142932
O O2 0.472235 0.100412 0.352097
O O3 0.543025 0.967357 0.362238
O O4 0.543242 0.105924 0.134037
O O5 0.399212 0.627341 0.117795
O O6 0.417805 0.440815 0.999150
O O7 0.825008 0.250000 0.895803
O O8 0.891134 0.369252 0.009008
O O9 0.856919 0.410493 0.728416
O O10 0.806617 0.444746 0.973822
O O11 0.248658 0.910689 0.445462
O O12 0.329219 0.913364 0.306609
O O13 0.267582 0.061108 0.249191
O O14 0.764828 0.250000 0.370435
O O15 0.834073 0.120851 0.435994
O O16 0.117650 0.250000 0.859261
O O17 0.084331 0.061585 0.906101
O O18 0.106797 0.750000 0.424722
#
# Coordination Sequence:
#
# PCOD8250716 Si02
#       8
#     8   8   8   8   8   8   8   8
#     4   9  18  33  56  81 114 155 190 242 304 336
#     4  10  18  36  57  81 116 153 193 242 291 352
#     4  10  20  36  61  88 118 155 196 237 293 355
#     4  11  22  40  64  87 124 153 191 246 294 351
#     4  11  23  40  64  94 123 154 197 244 298 358
#     4  10  21  38  58  79 111 160 199 235 292 349
#     4   9  18  35  55  82 117 153 192 245 291 347
#     4  10  20  36  59  87 116 151 192 239 294 351
#
# _framework density 20.479574
#
# number of rings (size 3 to 8) (size 9 to 14) (size 15 to 20)
#    0.000    2.000    2.500    1.500    0.000    0.000 
#    0.000   15.000    0.000    0.000    0.000    0.000 
#    0.000    0.000    0.000    0.000    0.000    0.000 
#
# Total GULP energy -793315.485030 kJ/mol
# GULP energy per Si atom -12395.554454 kJ/mol
# Density = 2.043296 g / cm^3
# Si number density = 20.479574 Si / 1000 Ang^3
#
#
#
# Elastic Constant Matrix: (Units=GPa)
#
#
# Indices 1 2 3 4 5 6 
#
# 1 74.1431 29.2696 26.5723 0.0000 0.0000 0.0000
# 2 29.2696 92.1795 33.6713 0.0000 0.0000 0.0000
# 3 26.5723 33.6713 107.8612 0.0000 0.0000 0.0000
# 4 0.0000 0.0000 0.0000 26.7094 0.0000 0.0000
# 5 0.0000 0.0000 0.0000 0.0000 39.6891 0.0000
# 6 0.0000 0.0000 0.0000 0.0000 0.0000 15.2735
#
#
#
# Elastic Compliance Matrix: (Units=1/GPa)
#
#
# Indices 1 2 3 4 5 6 
#
# 1 0.016075 -0.004128 -0.002671 0.000000 0.000000 0.000000
# 2 -0.004128 0.013305 -0.003136 0.000000 0.000000 0.000000
# 3 -0.002671 -0.003136 0.010908 0.000000 0.000000 0.000000
# 4 0.000000 0.000000 0.000000 0.037440 0.000000 0.000000
# 5 0.000000 0.000000 0.000000 0.000000 0.025196 0.000000
# 6 0.000000 0.000000 0.000000 0.000000 0.000000 0.065473
#
#
# Mechanical properties :
#
#
# Convention : Reuss Voigt Hill
#
# Bulk Modulus (GPa) = 48.98182 50.35671 49.66927
# Shear Modulus (GPa) = 25.63133 28.64577 27.13855
#
# Velocity S-wave (km/s) = 3.54157 3.74404 3.64421
# Velocity P-wave (km/s) = 6.37910 6.58275 6.48173
#
# Compressibility (1/GPa) = 0.02041574
#
# Stress axis : x y z
#
# Youngs Moduli (GPa) = 62.21008 75.16008 91.67271
#
# Poissons Ratio (x) = 0.31029 0.24489
# Poissons Ratio (y) = 0.25683 0.28752
# Poissons Ratio (z) = 0.16618 0.23573
#
# Static dielectric constant tensor:
#      x y z
#    x 3.757860 0.000000 0.000000 
#    y 0.000000 3.290220 0.000000 
#    z 0.000000 0.000000 3.975500 
# 
# 
# High freq. dielectric constant tensor:
#      x y z
#    x 1.805610 0.000000 0.000000 
#    y 0.000000 1.759260 0.000000 
#    z 0.000000 0.000000 1.817150 
# 
# From -- ./inp_files/10464.got.cif
#   From: 2010.03.12/outbox.cif.g09.slc.cpg/sg62_6_cif.got.tgz:10464.got - 2010.04.10 19:12:36.
