data_PCOD8250707
_publ_section_title
;
Structure prediction by ZEFSAII (Michael W. Deem and Ramdas Pophale) SiO2 
 PCOD8250707
Probable space group: P N M A
;
_chemical_formula_sum "Si O2"
_cell_formula_units_Z 48
_cell_length_a 9.332456
_cell_length_b 14.489373
_cell_length_c 17.827921
_cell_angle_alpha 90.000000
_cell_angle_beta 90.000000
_cell_angle_gamma 90.000000
_cell_volume 2410.717078
_symmetry_space_group_name_H-M "P N M A"
_symmetry_group_IT_number 62
_symmetry_cell_setting 'orthorhombic'
loop_
_space_group_symop_operation_xyz
x,y,z
1/2-x,-y,1/2+z
1/2+x,1/2-y,1/2-z
-x,1/2+y,-z
-x,-y,-z
1/2+x,y,1/2-z
1/2-x,1/2+y,1/2+z
x,1/2-y,z
loop_
_atom_site_type_symbol
_atom_site_label
_atom_site_fract_x
_atom_site_fract_y
_atom_site_fract_z
Si Si1 0.772983 0.555405 0.972069
Si Si2 0.976921 0.750000 0.120145
Si Si3 0.848253 0.250000 0.036983
Si Si4 0.972497 0.436137 0.788241
Si Si5 0.701144 0.750000 0.034112
Si Si6 0.169095 0.436010 0.654545
Si Si7 0.122911 0.250000 0.574970
Si Si8 0.911002 0.444098 0.091873
O O1 0.724179 0.660432 0.982274
O O2 0.661092 0.509871 0.913442
O O3 0.933206 0.542425 0.943504
O O4 0.781412 0.499343 0.050453
O O5 0.008231 0.839978 0.168491
O O6 0.808067 0.750000 0.103935
O O7 0.054489 0.750000 0.038738
O O8 0.875722 0.336200 0.091034
O O9 0.683557 0.250000 0.009906
O O10 0.022026 0.433792 0.701825
O O11 0.072560 0.515598 0.824712
O O12 0.803674 0.459210 0.791296
O O13 0.546874 0.750000 0.072192
O O14 0.189816 0.336190 0.618317
#
# Coordination Sequence:
#
# PCOD8250707 Si02
#       8
#     8   4   4   8   4   8   4   8
#     4  10  19  38  62  90 119 155 204 256 299 364
#     4  12  19  36  65  84 116 151 204 247 298 374
#     4  12  18  40  64  90 115 153 209 253 297 358
#     4  11  23  38  59  89 119 164 200 248 307 366
#     4  12  24  36  62  96 121 155 199 255 322 349
#     4  11  24  41  59  86 127 161 202 245 307 366
#     4  12  25  38  57  94 126 155 190 261 313 359
#     4  10  18  35  66  88 113 156 212 251 293 365
#
# _framework density 19.911087999999999
#
# number of rings (size 3 to 8) (size 9 to 14) (size 15 to 20)
#    0.000    1.000    6.667    1.500    2.333    0.667 
#    3.000    0.833    0.000    0.000    0.000    0.000 
#    0.000    0.000    0.000    0.000    0.000    0.000 
#
# Total GULP energy -595011.362612 kJ/mol
# GULP energy per Si atom -12396.070054 kJ/mol
# Density = 1.986577 g / cm^3
# Si number density = 19.911088 Si / 1000 Ang^3
#
#
#
# Elastic Constant Matrix: (Units=GPa)
#
#
# Indices 1 2 3 4 5 6 
#
# 1 60.2601 -9.8082 9.7071 0.0000 0.0000 0.0000
# 2 -9.8082 122.1639 29.4803 0.0000 0.0000 0.0000
# 3 9.7071 29.4803 43.7074 0.0000 0.0000 0.0000
# 4 0.0000 0.0000 0.0000 18.5383 0.0000 0.0000
# 5 0.0000 0.0000 0.0000 0.0000 36.2518 0.0000
# 6 0.0000 0.0000 0.0000 0.0000 0.0000 12.6365
#
#
#
# Elastic Compliance Matrix: (Units=1/GPa)
#
#
# Indices 1 2 3 4 5 6 
#
# 1 0.018022 0.002882 -0.005946 0.000000 0.000000 0.000000
# 2 0.002882 0.010238 -0.007545 0.000000 0.000000 0.000000
# 3 -0.005946 -0.007545 0.029289 0.000000 0.000000 0.000000
# 4 0.000000 0.000000 0.000000 0.053942 0.000000 0.000000
# 5 0.000000 0.000000 0.000000 0.000000 0.027585 0.000000
# 6 0.000000 0.000000 0.000000 0.000000 0.000000 0.079136
#
#
# Mechanical properties :
#
#
# Convention : Reuss Voigt Hill
#
# Bulk Modulus (GPa) = 27.52603 31.65442 29.59023
# Shear Modulus (GPa) = 19.87741 26.60213 23.23977
#
# Velocity S-wave (km/s) = 3.16303 3.65916 3.42010
# Velocity P-wave (km/s) = 5.21480 5.81249 5.52174
#
# Compressibility (1/GPa) = 0.03632925
#
# Stress axis : x y z
#
# Youngs Moduli (GPa) = 55.48885 97.67575 34.14207
#
# Poissons Ratio (x) = -0.28149 0.20302
# Poissons Ratio (y) = -0.15991 0.25762
# Poissons Ratio (z) = 0.32995 0.73701
#
# Static dielectric constant tensor:
#      x y z
#    x 3.557920 0.000000 0.000000 
#    y 0.000000 3.749840 0.000000 
#    z 0.000000 0.000000 3.503050 
# 
# 
# High freq. dielectric constant tensor:
#      x y z
#    x 1.771540 0.000000 0.000000 
#    y 0.000000 1.781310 0.000000 
#    z 0.000000 0.000000 1.749940 
# 
# From -- ./inp_files/22253.got.cif
#   From: 2010.03.12/outbox.cif.g09.slc.cpg/sg62_12_cif.got.tgz:22253.got - 2010.04.10 19:12:36.
