data_PCOD8250496
_publ_section_title
;
Structure prediction by ZEFSAII (Michael W. Deem and Ramdas Pophale) SiO2 
 PCOD8250496
Probable space group: P N M A
;
_chemical_formula_sum "Si O2"
_cell_formula_units_Z 40
_cell_length_a 25.617729
_cell_length_b 8.615876
_cell_length_c 8.971781
_cell_angle_alpha 90.000000
_cell_angle_beta 90.000000
_cell_angle_gamma 90.000000
_cell_volume 1980.244114
_symmetry_space_group_name_H-M "P N M A"
_symmetry_group_IT_number 62
_symmetry_cell_setting 'orthorhombic'
loop_
_space_group_symop_operation_xyz
x,y,z
1/2-x,-y,1/2+z
1/2+x,1/2-y,1/2-z
-x,1/2+y,-z
-x,-y,-z
1/2+x,y,1/2-z
1/2-x,1/2+y,1/2+z
x,1/2-y,z
loop_
_atom_site_type_symbol
_atom_site_label
_atom_site_fract_x
_atom_site_fract_y
_atom_site_fract_z
Si Si1 0.404168 0.931944 0.706629
Si Si2 0.612828 0.932749 0.616725
Si Si3 0.284165 0.068452 0.207923
Si Si4 0.991675 0.933638 0.163896
Si Si5 0.311328 0.069628 0.872328
O O1 0.408094 0.750000 0.680418
O O2 0.385797 0.009810 0.552727
O O3 0.460703 0.996693 0.761442
O O4 0.362762 0.971645 0.834113
O O5 0.604601 0.750000 0.619246
O O6 0.666493 0.982588 0.693815
O O7 0.565719 0.009235 0.713778
O O8 0.271845 0.250000 0.226512
O O9 0.234661 0.970043 0.258373
O O10 0.294423 0.023295 0.037733
O O11 0.994580 0.750000 0.166664
O O12 0.000000 0.000000 0.000000
O O13 0.325246 0.250000 0.859290
#
# Coordination Sequence:
#
# PCOD8250496 Si02
#       5
#     8   8   8   8   8
#     4  11  21  35  56  83 113 146 186 227 272 324
#     4  10  19  35  58  84 114 147 184 226 273 322
#     4  10  23  40  58  82 111 144 182 225 274 329
#     4  10  18  31  53  82 113 146 185 225 270 321
#     4  11  23  39  58  81 110 143 182 227 274 326
#
# _framework density 20.199529999999999
#
# number of rings (size 3 to 8) (size 9 to 14) (size 15 to 20)
#    0.000    1.600    0.000    8.400    0.000    6.400 
#    0.000    1.000    0.000    0.000    0.000    0.000 
#    0.000    0.000    0.000    0.000    0.000    0.000 
#
# Total GULP energy -496078.668762 kJ/mol
# GULP energy per Si atom -12401.966719 kJ/mol
# Density = 2.015355 g / cm^3
# Si number density = 20.199530 Si / 1000 Ang^3
#
#
#
# Elastic Constant Matrix: (Units=GPa)
#
#
# Indices 1 2 3 4 5 6 
#
# 1 56.6587 24.1190 -9.9571 0.0000 0.0000 0.0000
# 2 24.1190 72.9165 -0.3845 0.0000 0.0000 0.0000
# 3 -9.9571 -0.3845 41.8035 0.0000 0.0000 0.0000
# 4 0.0000 0.0000 0.0000 24.3698 0.0000 0.0000
# 5 0.0000 0.0000 0.0000 0.0000 28.5484 0.0000
# 6 0.0000 0.0000 0.0000 0.0000 0.0000 38.9028
#
#
#
# Elastic Compliance Matrix: (Units=1/GPa)
#
#
# Indices 1 2 3 4 5 6 
#
# 1 0.021566 -0.007107 0.005071 0.000000 0.000000 0.000000
# 2 -0.007107 0.016057 -0.001545 0.000000 0.000000 0.000000
# 3 0.005071 -0.001545 0.025115 0.000000 0.000000 0.000000
# 4 0.000000 0.000000 0.000000 0.041034 0.000000 0.000000
# 5 0.000000 0.000000 0.000000 0.000000 0.035028 0.000000
# 6 0.000000 0.000000 0.000000 0.000000 0.000000 0.025705
#
#
# Mechanical properties :
#
#
# Convention : Reuss Voigt Hill
#
# Bulk Modulus (GPa) = 17.99296 22.10374 20.04835
# Shear Modulus (GPa) = 26.28914 28.87094 27.58004
#
# Velocity S-wave (km/s) = 3.61151 3.78469 3.69911
# Velocity P-wave (km/s) = 5.13007 5.48316 5.30955
#
# Compressibility (1/GPa) = 0.05557728
#
# Stress axis : x y z
#
# Youngs Moduli (GPa) = 46.36915 62.27840 39.81653
#
# Poissons Ratio (x) = 0.44260 -0.20193
# Poissons Ratio (y) = 0.32954 0.06152
# Poissons Ratio (z) = -0.23516 0.09622
#
# Static dielectric constant tensor:
#      x y z
#    x 4.396310 0.000000 0.000000 
#    y 0.000000 3.676630 0.000000 
#    z 0.000000 0.000000 3.455350 
# 
# 
# High freq. dielectric constant tensor:
#      x y z
#    x 1.813430 0.000000 0.000000 
#    y 0.000000 1.799820 0.000000 
#    z 0.000000 0.000000 1.755850 
# 
# From -- ./inp_files/9111.got.cif
#   From: 2010.03.12/outbox.cif.g09.slc.cpg/sg62_5_cif.got.tgz:9111.got - 2010.04.10 19:12:36.
