data_PCOD8250843
_publ_section_title
;
Structure prediction by ZEFSAII (Michael W. Deem and Ramdas Pophale) SiO2 
 PCOD8250843
Probable space group: P N M A
;
_chemical_formula_sum "Si O2"
_cell_formula_units_Z 56
_cell_length_a 20.626834
_cell_length_b 9.701979
_cell_length_c 14.834587
_cell_angle_alpha 90.000000
_cell_angle_beta 90.000000
_cell_angle_gamma 90.000000
_cell_volume 2968.714021
_symmetry_space_group_name_H-M "P N M A"
_symmetry_group_IT_number 62
_symmetry_cell_setting 'orthorhombic'
loop_
_space_group_symop_operation_xyz
x,y,z
1/2-x,-y,1/2+z
1/2+x,1/2-y,1/2-z
-x,1/2+y,-z
-x,-y,-z
1/2+x,y,1/2-z
1/2-x,1/2+y,1/2+z
x,1/2-y,z
loop_
_atom_site_type_symbol
_atom_site_label
_atom_site_fract_x
_atom_site_fract_y
_atom_site_fract_z
Si Si1 0.761920 0.413449 0.308946
Si Si2 0.037157 0.902037 0.065508
Si Si3 0.142794 0.900312 0.931619
Si Si4 0.249447 0.593359 0.485411
Si Si5 0.592301 0.907472 0.754333
Si Si6 0.974803 0.089058 0.731065
Si Si7 0.167136 0.590723 0.318732
O O1 0.748721 0.250000 0.298470
O O2 0.757629 0.462903 0.413174
O O3 0.835206 0.451584 0.281890
O O4 0.710450 0.495910 0.247553
O O5 0.005484 0.750000 0.060424
O O6 0.038850 0.955079 0.166506
O O7 0.110899 0.898705 0.030166
O O8 0.000000 0.000000 0.000000
O O9 0.174132 0.750000 0.910526
O O10 0.088898 0.930149 0.854127
O O11 0.197481 0.013625 0.927619
O O12 0.272484 0.750000 0.489963
O O13 0.185200 0.576145 0.424514
O O14 0.578067 0.750000 0.782562
O O15 0.537412 0.001910 0.802395
O O16 0.990905 0.250000 0.718750
O O17 0.908560 0.046896 0.680785
O O18 0.174697 0.750000 0.286208
#
# Coordination Sequence:
#
# PCOD8250843 Si02
#       7
#     8   8   8   8   8   8   8
#     4  10  21  38  58  83 112 145 185 229 276 328
#     4  10  19  30  46  71 102 134 168 210 262 319
#     4  10  19  33  53  77 107 141 177 221 272 325
#     4  10  21  36  57  82 108 141 183 228 276 326
#     4  10  20  35  55  78 108 144 180 222 271 323
#     4  10  21  35  52  76 109 144 180 225 273 324
#     4  10  21  38  58  82 112 146 183 229 279 327
#
# _framework density 18.863385000000001
#
# number of rings (size 3 to 8) (size 9 to 14) (size 15 to 20)
#    0.000    2.000    2.857    0.857    0.000    4.000 
#    0.000    0.714    0.000    0.000    0.000    0.000 
#    0.000    0.000    0.000    0.000    0.000    0.000 
#
# Total GULP energy -694024.782245 kJ/mol
# GULP energy per Si atom -12393.299683 kJ/mol
# Density = 1.882045 g / cm^3
# Si number density = 18.863385 Si / 1000 Ang^3
#
#
#
# Elastic Constant Matrix: (Units=GPa)
#
#
# Indices 1 2 3 4 5 6 
#
# 1 111.0248 49.5773 12.7879 0.0000 0.0000 0.0000
# 2 49.5773 63.4025 20.1773 0.0000 0.0000 0.0000
# 3 12.7879 20.1773 54.8733 0.0000 0.0000 0.0000
# 4 0.0000 0.0000 0.0000 19.6294 0.0000 0.0000
# 5 0.0000 0.0000 0.0000 0.0000 24.3981 0.0000
# 6 0.0000 0.0000 0.0000 0.0000 0.0000 34.9793
#
#
#
# Elastic Compliance Matrix: (Units=1/GPa)
#
#
# Indices 1 2 3 4 5 6 
#
# 1 0.013875 -0.011122 0.000856 0.000000 0.000000 0.000000
# 2 -0.011122 0.026777 -0.007254 0.000000 0.000000 0.000000
# 3 0.000856 -0.007254 0.020692 0.000000 0.000000 0.000000
# 4 0.000000 0.000000 0.000000 0.050944 0.000000 0.000000
# 5 0.000000 0.000000 0.000000 0.000000 0.040987 0.000000
# 6 0.000000 0.000000 0.000000 0.000000 0.000000 0.028588
#
#
# Mechanical properties :
#
#
# Convention : Reuss Voigt Hill
#
# Bulk Modulus (GPa) = 38.01711 43.82062 40.91887
# Shear Modulus (GPa) = 22.15617 25.58525 23.87071
#
# Velocity S-wave (km/s) = 3.43090 3.68685 3.56118
# Velocity P-wave (km/s) = 5.99103 6.43466 6.21680
#
# Compressibility (1/GPa) = 0.02630394
#
# Stress axis : x y z
#
# Youngs Moduli (GPa) = 72.07369 37.34492 48.32838
#
# Poissons Ratio (x) = 0.41534 -0.04137
# Poissons Ratio (y) = 0.80158 0.35059
# Poissons Ratio (z) = -0.06170 0.27091
#
# Static dielectric constant tensor:
#      x y z
#    x 3.422060 0.000000 0.000000 
#    y 0.000000 3.456380 0.000000 
#    z 0.000000 0.000000 3.608460 
# 
# 
# High freq. dielectric constant tensor:
#      x y z
#    x 1.725220 0.000000 0.000000 
#    y 0.000000 1.729960 0.000000 
#    z 0.000000 0.000000 1.723700 
# 
# From -- ./inp_files/20385.got.cif
#   From: 2010.03.12/outbox.cif.g09.slc.cpg/sg62_11_cif.got.tgz:20385.got - 2010.04.10 19:12:36.
