data_PCOD8250971
_publ_section_title
;
Structure prediction by ZEFSAII (Michael W. Deem and Ramdas Pophale) SiO2 
 PCOD8250971
Probable space group: P N M A
;
_chemical_formula_sum "Si O2"
_cell_formula_units_Z 56
_cell_length_a 12.656003
_cell_length_b 9.490243
_cell_length_c 25.368989
_cell_angle_alpha 90.000000
_cell_angle_beta 90.000000
_cell_angle_gamma 90.000000
_cell_volume 3047.032328
_symmetry_space_group_name_H-M "P N M A"
_symmetry_group_IT_number 62
_symmetry_cell_setting 'orthorhombic'
loop_
_space_group_symop_operation_xyz
x,y,z
1/2-x,-y,1/2+z
1/2+x,1/2-y,1/2-z
-x,1/2+y,-z
-x,-y,-z
1/2+x,y,1/2-z
1/2-x,1/2+y,1/2+z
x,1/2-y,z
loop_
_atom_site_type_symbol
_atom_site_label
_atom_site_fract_x
_atom_site_fract_y
_atom_site_fract_z
Si Si1 0.245869 0.418223 0.206233
Si Si2 0.094451 0.086619 0.115722
Si Si3 0.684638 0.081897 0.179289
Si Si4 0.580335 0.588717 0.966607
Si Si5 0.680222 0.412629 0.494159
Si Si6 0.358689 0.413832 0.403116
Si Si7 0.453793 0.082926 0.150985
O O1 0.240024 0.250000 0.206821
O O2 0.161280 0.479921 0.163959
O O3 0.218788 0.478574 0.263885
O O4 0.363620 0.470775 0.191189
O O5 0.125256 0.250000 0.112861
O O6 0.970400 0.063214 0.126478
O O7 0.128545 0.023139 0.059089
O O8 0.685350 0.250000 0.180005
O O9 0.766756 0.027782 0.135071
O O10 0.568297 0.020992 0.166476
O O11 0.542807 0.750000 0.967782
O O12 0.579157 0.531392 0.906986
O O13 0.500000 0.500000 0.000000
O O14 0.694608 0.570026 0.991535
O O15 0.647491 0.250000 0.502489
O O16 0.637423 0.501821 0.542726
O O17 0.340868 0.250000 0.416497
O O18 0.458886 0.250000 0.153132
#
# Coordination Sequence:
#
# PCOD8250971 Si02
#       7
#     8   8   8   8   8   8   8
#     4   9  16  27  44  66  94 128 160 195 241 293
#     4   9  17  30  47  68  97 130 165 201 240 290
#     4   9  18  27  42  69  99 127 156 196 249 292
#     4  10  19  31  49  71  99 132 164 199 241 290
#     4  10  19  33  50  71  97 133 172 198 237 299
#     4  10  20  32  48  75 105 127 157 207 251 283
#     4   9  16  28  43  63  94 127 158 194 238 289
#
# _framework density 18.378539
#
# number of rings (size 3 to 8) (size 9 to 14) (size 15 to 20)
#    0.000    2.571    1.429    1.286    2.000    1.714 
#    0.000    0.000    0.000    0.000    0.000    3.000 
#    0.000    0.000    0.000    0.000    0.000    0.000 
#
# Total GULP energy -694296.301482 kJ/mol
# GULP energy per Si atom -12398.148241 kJ/mol
# Density = 1.833671 g / cm^3
# Si number density = 18.378539 Si / 1000 Ang^3
#
#
#
# Elastic Constant Matrix: (Units=GPa)
#
#
# Indices 1 2 3 4 5 6 
#
# 1 105.4326 13.6598 32.4662 0.0000 0.0000 0.0000
# 2 13.6598 19.2215 14.7382 0.0000 0.0000 0.0000
# 3 32.4662 14.7382 103.2798 0.0000 0.0000 0.0000
# 4 0.0000 0.0000 0.0000 17.0232 0.0000 0.0000
# 5 0.0000 0.0000 0.0000 0.0000 35.7248 0.0000
# 6 0.0000 0.0000 0.0000 0.0000 0.0000 13.5387
#
#
#
# Elastic Compliance Matrix: (Units=1/GPa)
#
#
# Indices 1 2 3 4 5 6 
#
# 1 0.011054 -0.005829 -0.002643 0.000000 0.000000 0.000000
# 2 -0.005829 0.061491 -0.006942 0.000000 0.000000 0.000000
# 3 -0.002643 -0.006942 0.011504 0.000000 0.000000 0.000000
# 4 0.000000 0.000000 0.000000 0.058743 0.000000 0.000000
# 5 0.000000 0.000000 0.000000 0.000000 0.027992 0.000000
# 6 0.000000 0.000000 0.000000 0.000000 0.000000 0.073862
#
#
# Mechanical properties :
#
#
# Convention : Reuss Voigt Hill
#
# Bulk Modulus (GPa) = 18.79005 38.85135 28.82070
# Shear Modulus (GPa) = 17.05239 24.39533 20.72386
#
# Velocity S-wave (km/s) = 3.04936 3.64728 3.36164
# Velocity P-wave (km/s) = 4.75859 6.23877 5.54826
#
# Compressibility (1/GPa) = 0.05321965
#
# Stress axis : x y z
#
# Youngs Moduli (GPa) = 90.46683 16.26267 86.92661
#
# Poissons Ratio (x) = 0.09479 0.22975
# Poissons Ratio (y) = 0.52732 0.60349
# Poissons Ratio (z) = 0.23910 0.11290
#
# Static dielectric constant tensor:
#      x y z
#    x 3.641250 0.000000 0.000000 
#    y 0.000000 2.731540 0.000000 
#    z 0.000000 0.000000 3.607860 
# 
# 
# High freq. dielectric constant tensor:
#      x y z
#    x 1.733050 0.000000 0.000000 
#    y 0.000000 1.632670 0.000000 
#    z 0.000000 0.000000 1.723750 
# 
# From -- ./inp_files/26624.got.cif
#   From: 2010.03.12/outbox.cif.g09.slc.cpg/sg62_14_cif.got.tgz:26624.got - 2010.04.10 19:12:36.
