data_PCOD8250214
_publ_section_title
;
Structure prediction by ZEFSAII (Michael W. Deem and Ramdas Pophale) SiO2 
 PCOD8250214
Probable space group: P N M A
;
_chemical_formula_sum "Si O2"
_cell_formula_units_Z 64
_cell_length_a 17.244570
_cell_length_b 9.262423
_cell_length_c 22.449778
_cell_angle_alpha 90.000000
_cell_angle_beta 90.000000
_cell_angle_gamma 90.000000
_cell_volume 3585.824506
_symmetry_space_group_name_H-M "P N M A"
_symmetry_group_IT_number 62
_symmetry_cell_setting 'orthorhombic'
loop_
_space_group_symop_operation_xyz
x,y,z
1/2-x,-y,1/2+z
1/2+x,1/2-y,1/2-z
-x,1/2+y,-z
-x,-y,-z
1/2+x,y,1/2-z
1/2-x,1/2+y,1/2+z
x,1/2-y,z
loop_
_atom_site_type_symbol
_atom_site_label
_atom_site_fract_x
_atom_site_fract_y
_atom_site_fract_z
Si Si1 0.425018 0.581795 0.931270
Si Si2 0.034511 0.078774 0.129318
Si Si3 0.721540 0.914878 0.888891
Si Si4 0.865333 0.078622 0.100143
Si Si5 0.663778 0.420753 0.285550
Si Si6 0.792109 0.921460 0.657310
Si Si7 0.078159 0.081701 0.568829
Si Si8 0.140252 0.083919 0.022906
O O1 0.442284 0.750000 0.921049
O O2 0.352041 0.527296 0.893092
O O3 0.499555 0.493813 0.909439
O O4 0.405970 0.547609 0.999676
O O5 0.042534 0.250000 0.130160
O O6 0.082999 0.017904 0.186244
O O7 0.073311 0.026021 0.067505
O O8 0.945115 0.028470 0.132303
O O9 0.692599 0.750000 0.884657
O O10 0.765873 0.961346 0.829053
O O11 0.776759 0.933966 0.945737
O O12 0.648397 0.019040 0.893137
O O13 0.862825 0.250000 0.092858
O O14 0.793665 0.021883 0.140042
O O15 0.860564 0.014095 0.034795
O O16 0.656724 0.250000 0.279661
O O17 0.681116 0.488691 0.220652
O O18 0.790247 0.750000 0.661261
O O19 0.070605 0.250000 0.581556
O O20 0.125622 0.250000 0.004956
#
# Coordination Sequence:
#
# PCOD8250214 Si02
#       8
#     8   8   8   8   8   8   8   8
#     4   9  18  32  48  69  98 128 157 196 243 290
#     4   8  15  28  45  67  97 128 156 191 234 278
#     4   9  17  30  49  71  96 126 162 198 232 281
#     4  10  18  28  46  74 100 120 152 199 239 277
#     4   8  15  30  48  68  96 126 158 198 239 277
#     4   9  17  30  47  70  98 123 156 202 243 277
#     4  10  19  31  49  73 100 125 156 199 244 287
#     4   9  17  29  46  69  99 132 157 184 231 288
#
# _framework density 17.848056
#
# number of rings (size 3 to 8) (size 9 to 14) (size 15 to 20)
#    0.000    3.000    0.000    3.000    0.000    2.000 
#    2.250    0.625    0.000    2.250    0.000    0.000 
#    0.000    0.000    0.000    0.000    0.000    0.000 
#
# Total GULP energy -793397.928501 kJ/mol
# GULP energy per Si atom -12396.842633 kJ/mol
# Density = 1.780743 g / cm^3
# Si number density = 17.848056 Si / 1000 Ang^3
#
#
#
# Elastic Constant Matrix: (Units=GPa)
#
#
# Indices 1 2 3 4 5 6 
#
# 1 156.0803 35.0711 71.7947 0.0000 0.0000 0.0000
# 2 35.0711 30.4609 16.1093 0.0000 0.0000 0.0000
# 3 71.7947 16.1093 108.6126 0.0000 0.0000 0.0000
# 4 0.0000 0.0000 0.0000 17.7724 0.0000 0.0000
# 5 0.0000 0.0000 0.0000 0.0000 14.0782 0.0000
# 6 0.0000 0.0000 0.0000 0.0000 0.0000 17.1881
#
#
#
# Elastic Compliance Matrix: (Units=1/GPa)
#
#
# Indices 1 2 3 4 5 6 
#
# 1 0.011445 -0.009957 -0.006088 0.000000 0.000000 0.000000
# 2 -0.009957 0.044286 0.000013 0.000000 0.000000 0.000000
# 3 -0.006088 0.000013 0.013230 0.000000 0.000000 0.000000
# 4 0.000000 0.000000 0.000000 0.056267 0.000000 0.000000
# 5 0.000000 0.000000 0.000000 0.000000 0.071032 0.000000
# 6 0.000000 0.000000 0.000000 0.000000 0.000000 0.058180
#
#
# Mechanical properties :
#
#
# Convention : Reuss Voigt Hill
#
# Bulk Modulus (GPa) = 27.10311 60.12268 43.61289
# Shear Modulus (GPa) = 16.73345 21.28631 19.00988
#
# Velocity S-wave (km/s) = 3.06527 3.45721 3.26712
# Velocity P-wave (km/s) = 5.26747 7.04949 6.22260
#
# Compressibility (1/GPa) = 0.03689614
#
# Stress axis : x y z
#
# Youngs Moduli (GPa) = 87.37489 22.58047 75.58806
#
# Poissons Ratio (x) = 0.22484 0.46021
# Poissons Ratio (y) = 0.87001 -0.00102
# Poissons Ratio (z) = 0.53198 -0.00030
#
# Static dielectric constant tensor:
#      x y z
#    x 3.582010 0.000000 0.000000 
#    y 0.000000 2.888630 0.000000 
#    z 0.000000 0.000000 3.393960 
# 
# 
# High freq. dielectric constant tensor:
#      x y z
#    x 1.702610 0.000000 0.000000 
#    y 0.000000 1.646480 0.000000 
#    z 0.000000 0.000000 1.681260 
# 
# From -- ./inp_files/30070.got.cif
#   From: 2010.03.12/outbox.cif.g09.slc.cpg/sg62_16_cif.got.tgz:30070.got - 2010.04.10 19:12:36.
