data_PCOD8250165
_publ_section_title
;
Structure prediction by ZEFSAII (Michael W. Deem and Ramdas Pophale) SiO2 
 PCOD8250165
Probable space group: P N M A
;
_chemical_formula_sum "Si O2"
_cell_formula_units_Z 64
_cell_length_a 29.684534
_cell_length_b 9.449237
_cell_length_c 14.520686
_cell_angle_alpha 90.000000
_cell_angle_beta 90.000000
_cell_angle_gamma 90.000000
_cell_volume 4072.997201
_symmetry_space_group_name_H-M "P N M A"
_symmetry_group_IT_number 62
_symmetry_cell_setting 'orthorhombic'
loop_
_space_group_symop_operation_xyz
x,y,z
1/2-x,-y,1/2+z
1/2+x,1/2-y,1/2-z
-x,1/2+y,-z
-x,-y,-z
1/2+x,y,1/2-z
1/2-x,1/2+y,1/2+z
x,1/2-y,z
loop_
_atom_site_type_symbol
_atom_site_label
_atom_site_fract_x
_atom_site_fract_y
_atom_site_fract_z
Si Si1 0.220146 0.590987 0.534017
Si Si2 0.546921 0.914937 0.606753
Si Si3 0.324444 0.906311 0.532410
Si Si4 0.129830 0.414864 0.844858
Si Si5 0.541073 0.586343 0.392921
Si Si6 0.797716 0.415922 0.664204
Si Si7 0.786739 0.583586 0.282611
Si Si8 0.365609 0.413911 0.685967
O O1 0.202278 0.750000 0.555703
O O2 0.272329 0.596926 0.509510
O O3 0.198332 0.525269 0.440187
O O4 0.209509 0.490816 0.619057
O O5 0.545084 0.750000 0.631725
O O6 0.555992 0.940090 0.498343
O O7 0.585397 0.989608 0.668026
O O8 0.499828 0.985920 0.635352
O O9 0.341669 0.750000 0.560286
O O10 0.349724 0.959790 0.442273
O O11 0.332787 0.011172 0.615181
O O12 0.116373 0.250000 0.842206
O O13 0.166274 0.450751 0.767200
O O14 0.527185 0.750000 0.378648
O O15 0.582405 0.540445 0.326319
O O16 0.788408 0.250000 0.655960
O O17 0.755524 0.478301 0.723445
O O18 0.845736 0.449467 0.713063
O O19 0.780322 0.750000 0.298941
O O20 0.361172 0.250000 0.662853
#
# Coordination Sequence:
#
# PCOD8250165 Si02
#       8
#     8   8   8   8   8   8   8   8
#     4  10  19  32  46  66  95 126 159 196 231 268
#     4  10  19  30  46  68  94 123 155 193 235 279
#     4  10  18  27  43  66  94 125 156 191 229 267
#     4  10  19  31  47  67  94 129 161 190 231 280
#     4   9  18  30  44  67  95 122 155 191 232 281
#     4   9  17  30  48  67  92 125 159 190 228 275
#     4  10  19  32  49  68  92 127 163 193 230 276
#     4  10  18  30  48  68  91 125 162 193 224 271
#
# _framework density 15.713245000000001
#
# number of rings (size 3 to 8) (size 9 to 14) (size 15 to 20)
#    0.000    2.250    3.750    0.375    0.000    1.500 
#    0.000    1.250    0.000    0.000    0.000    0.875 
#    0.000    0.000    0.000    0.000    0.000    0.000 
#
# Total GULP energy -793388.401912 kJ/mol
# GULP energy per Si atom -12396.693780 kJ/mol
# Density = 1.567748 g / cm^3
# Si number density = 15.713245 Si / 1000 Ang^3
#
#
#
# Elastic Constant Matrix: (Units=GPa)
#
#
# Indices 1 2 3 4 5 6 
#
# 1 92.5940 39.8773 37.2257 0.0000 0.0000 0.0000
# 2 39.8773 49.5833 31.5098 0.0000 0.0000 0.0000
# 3 37.2257 31.5098 83.7316 0.0000 0.0000 0.0000
# 4 0.0000 0.0000 0.0000 21.8713 0.0000 0.0000
# 5 0.0000 0.0000 0.0000 0.0000 21.3518 0.0000
# 6 0.0000 0.0000 0.0000 0.0000 0.0000 21.4216
#
#
#
# Elastic Compliance Matrix: (Units=1/GPa)
#
#
# Indices 1 2 3 4 5 6 
#
# 1 0.017151 -0.011760 -0.003199 0.000000 0.000000 0.000000
# 2 -0.011760 0.034571 -0.007781 0.000000 0.000000 0.000000
# 3 -0.003199 -0.007781 0.016294 0.000000 0.000000 0.000000
# 4 0.000000 0.000000 0.000000 0.045722 0.000000 0.000000
# 5 0.000000 0.000000 0.000000 0.000000 0.046834 0.000000
# 6 0.000000 0.000000 0.000000 0.000000 0.000000 0.046682
#
#
# Mechanical properties :
#
#
# Convention : Reuss Voigt Hill
#
# Bulk Modulus (GPa) = 44.37824 49.23718 46.80771
# Shear Modulus (GPa) = 19.21246 20.74868 19.98057
#
# Velocity S-wave (km/s) = 3.50050 3.63775 3.56978
# Velocity P-wave (km/s) = 6.68145 7.00337 6.84430
#
# Compressibility (1/GPa) = 0.02253357
#
# Stress axis : x y z
#
# Youngs Moduli (GPa) = 58.30589 28.92566 61.37392
#
# Poissons Ratio (x) = 0.34018 0.19636
# Poissons Ratio (y) = 0.68570 0.47757
# Poissons Ratio (z) = 0.18654 0.22508
#
# Static dielectric constant tensor:
#      x y z
#    x 3.004930 0.000000 0.000000 
#    y 0.000000 2.915790 0.000000 
#    z 0.000000 0.000000 2.899400 
# 
# 
# High freq. dielectric constant tensor:
#      x y z
#    x 1.596470 0.000000 0.000000 
#    y 0.000000 1.594490 0.000000 
#    z 0.000000 0.000000 1.578990 
# 
# From -- ./inp_files/15588.got.cif
#   From: 2010.03.12/outbox.cif.g09.slc.cpg/sg62_8_cif.got.tgz:15588.got - 2010.04.10 19:12:36.
