data_PCOD8250122
_publ_section_title
;
Structure prediction by ZEFSAII (Michael W. Deem and Ramdas Pophale) SiO2 
 PCOD8250122
Probable space group: P N M A
;
_chemical_formula_sum "Si O2"
_cell_formula_units_Z 64
_cell_length_a 34.073646
_cell_length_b 9.209934
_cell_length_c 13.561125
_cell_angle_alpha 90.000000
_cell_angle_beta 90.000000
_cell_angle_gamma 90.000000
_cell_volume 4255.698421
_symmetry_space_group_name_H-M "P N M A"
_symmetry_group_IT_number 62
_symmetry_cell_setting 'orthorhombic'
loop_
_space_group_symop_operation_xyz
x,y,z
1/2-x,-y,1/2+z
1/2+x,1/2-y,1/2-z
-x,1/2+y,-z
-x,-y,-z
1/2+x,y,1/2-z
1/2-x,1/2+y,1/2+z
x,1/2-y,z
loop_
_atom_site_type_symbol
_atom_site_label
_atom_site_fract_x
_atom_site_fract_y
_atom_site_fract_z
Si Si1 0.540084 0.085706 0.612332
Si Si2 0.964976 0.585972 0.877861
Si Si3 0.728957 0.580449 0.074832
Si Si4 0.733405 0.082802 0.879009
Si Si5 0.617031 0.580884 0.600781
Si Si6 0.690380 0.415796 0.678528
Si Si7 0.309443 0.422678 0.728777
Si Si8 0.111664 0.919239 0.128696
O O1 0.540988 0.250000 0.653101
O O2 0.536205 0.085451 0.495256
O O3 0.503053 0.001815 0.659567
O O4 0.579555 0.003410 0.644459
O O5 0.966944 0.750000 0.837123
O O6 0.926236 0.508119 0.835705
O O7 0.723593 0.750000 0.057395
O O8 0.718009 0.501135 0.974230
O O9 0.773150 0.544283 0.108481
O O10 0.698879 0.524860 0.159569
O O11 0.737953 0.250000 0.908243
O O12 0.701870 0.062838 0.792311
O O13 0.775441 0.017928 0.844021
O O14 0.611234 0.750000 0.622893
O O15 0.655461 0.525028 0.655490
O O16 0.621671 0.550714 0.484890
O O17 0.677084 0.250000 0.659191
O O18 0.306546 0.250000 0.725224
O O19 0.351802 0.477527 0.693011
O O20 0.103288 0.750000 0.147050
#
# Coordination Sequence:
#
# PCOD8250122 Si02
#       8
#     8   8   8   8   8   8   8   8
#     4   9  16  26  39  54  77 109 138 163 198 243
#     4   9  16  25  37  55  79 105 135 169 200 233
#     4   9  17  29  44  60  79 105 137 172 206 239
#     4   9  17  30  45  59  79 108 138 169 207 246
#     4  10  18  26  40  61  82 106 139 175 203 232
#     4   9  18  30  42  58  82 110 137 166 205 250
#     4   8  15  28  43  58  79 108 138 166 201 246
#     4   9  16  26  40  57  79 109 140 167 200 242
#
# _framework density 15.038659000000001
#
# number of rings (size 3 to 8) (size 9 to 14) (size 15 to 20)
#    0.000    3.000    0.000    3.375    0.000    5.500 
#    0.000    3.125    0.000    0.000    0.000    0.000 
#    0.000    1.000    0.000    3.000    0.000    4.625 
#
# Total GULP energy -793476.285036 kJ/mol
# GULP energy per Si atom -12398.066954 kJ/mol
# Density = 1.500443 g / cm^3
# Si number density = 15.038659 Si / 1000 Ang^3
#
#
#
# Elastic Constant Matrix: (Units=GPa)
#
#
# Indices 1 2 3 4 5 6 
#
# 1 104.8526 56.2273 27.5465 0.0000 0.0000 0.0000
# 2 56.2273 82.4969 29.3728 0.0000 0.0000 0.0000
# 3 27.5465 29.3728 57.1221 0.0000 0.0000 0.0000
# 4 0.0000 0.0000 0.0000 19.7665 0.0000 0.0000
# 5 0.0000 0.0000 0.0000 0.0000 16.4119 0.0000
# 6 0.0000 0.0000 0.0000 0.0000 0.0000 27.2676
#
#
#
# Elastic Compliance Matrix: (Units=1/GPa)
#
#
# Indices 1 2 3 4 5 6 
#
# 1 0.015310 -0.009556 -0.002470 0.000000 0.000000 0.000000
# 2 -0.009556 0.020802 -0.006089 0.000000 0.000000 0.000000
# 3 -0.002470 -0.006089 0.021828 0.000000 0.000000 0.000000
# 4 0.000000 0.000000 0.000000 0.050591 0.000000 0.000000
# 5 0.000000 0.000000 0.000000 0.000000 0.060931 0.000000
# 6 0.000000 0.000000 0.000000 0.000000 0.000000 0.036674
#
#
# Mechanical properties :
#
#
# Convention : Reuss Voigt Hill
#
# Bulk Modulus (GPa) = 46.05557 52.30721 49.18139
# Shear Modulus (GPa) = 20.03190 21.44421 20.73805
#
# Velocity S-wave (km/s) = 3.65365 3.78026 3.71749
# Velocity P-wave (km/s) = 6.96349 7.34242 7.15546
#
# Compressibility (1/GPa) = 0.02171290
#
# Stress axis : x y z
#
# Youngs Moduli (GPa) = 65.31573 48.07134 45.81241
#
# Poissons Ratio (x) = 0.45936 0.11314
# Poissons Ratio (y) = 0.62414 0.27894
# Poissons Ratio (z) = 0.16130 0.29269
#
# Static dielectric constant tensor:
#      x y z
#    x 2.978710 0.000000 0.000000 
#    y 0.000000 2.864850 0.000000 
#    z 0.000000 0.000000 2.591560 
# 
# 
# High freq. dielectric constant tensor:
#      x y z
#    x 1.576410 0.000000 0.000000 
#    y 0.000000 1.574910 0.000000 
#    z 0.000000 0.000000 1.529540 
# 
# From -- ./inp_files/21230.got.cif
#   From: 2010.03.12/outbox.cif.g09.slc.cpg/sg62_11_cif.got.tgz:21230.got - 2010.04.10 19:12:36.
