data_PCOD8250468
_publ_section_title
;
Structure prediction by ZEFSAII (Michael W. Deem and Ramdas Pophale) SiO2 
 PCOD8250468
Probable space group: P N M A
;
_chemical_formula_sum "Si O2"
_cell_formula_units_Z 48
_cell_length_a 9.215450
_cell_length_b 8.989924
_cell_length_c 30.873399
_cell_angle_alpha 90.000000
_cell_angle_beta 90.000000
_cell_angle_gamma 90.000000
_cell_volume 2557.743638
_symmetry_space_group_name_H-M "P N M A"
_symmetry_group_IT_number 62
_symmetry_cell_setting 'orthorhombic'
loop_
_space_group_symop_operation_xyz
x,y,z
1/2-x,-y,1/2+z
1/2+x,1/2-y,1/2-z
-x,1/2+y,-z
-x,-y,-z
1/2+x,y,1/2-z
1/2-x,1/2+y,1/2+z
x,1/2-y,z
loop_
_atom_site_type_symbol
_atom_site_label
_atom_site_fract_x
_atom_site_fract_y
_atom_site_fract_z
Si Si1 0.101140 0.073135 0.866156
Si Si2 0.348561 0.414972 0.451900
Si Si3 0.118454 0.427059 0.702240
Si Si4 0.206990 0.073074 0.128695
Si Si5 0.209559 0.574224 0.285715
Si Si6 0.310323 0.914158 0.533168
O O1 0.083945 0.250000 0.867349
O O2 0.201799 0.015997 0.827077
O O3 0.177239 0.019230 0.910402
O O4 0.944570 0.001698 0.858411
O O5 0.288321 0.250000 0.442153
O O6 0.517083 0.408247 0.462713
O O7 0.262987 0.478942 0.493770
O O8 0.128434 0.250000 0.695722
O O9 0.167181 0.509139 0.658746
O O10 0.218409 0.485091 0.741546
O O11 0.955493 0.480715 0.712081
O O12 0.190317 0.250000 0.133293
O O13 0.251585 0.029722 0.079353
O O14 0.216598 0.750000 0.285170
O O15 0.250472 0.750000 0.522495
#
# Coordination Sequence:
#
# PCOD8250468 Si02
#       6
#     8   8   8   8   8   8
#     4  10  18  31  52  76 103 137 172 207 250 297
#     4   9  16  26  43  71 103 131 165 209 252 294
#     4  10  19  35  56  76  99 129 167 208 250 298
#     4  10  20  33  49  75 106 134 168 209 253 299
#     4   9  19  34  55  79 100 128 169 210 247 298
#     4   8  15  27  43  65  97 133 167 204 246 294
#
# _framework density 18.766541
#
# number of rings (size 3 to 8) (size 9 to 14) (size 15 to 20)
#    0.000    2.667    0.000    3.500    0.000    7.333 
#    0.000    5.833    0.000    1.000    0.000    0.000 
#    0.000    0.000    0.000    0.000    0.000    0.000 
#
# Total GULP energy -595084.693998 kJ/mol
# GULP energy per Si atom -12397.597792 kJ/mol
# Density = 1.872383 g / cm^3
# Si number density = 18.766541 Si / 1000 Ang^3
#
#
#
# Elastic Constant Matrix: (Units=GPa)
#
#
# Indices 1 2 3 4 5 6 
#
# 1 52.7667 15.4369 12.8551 0.0000 0.0000 0.0000
# 2 15.4369 68.2111 22.6354 0.0000 0.0000 0.0000
# 3 12.8551 22.6354 77.0496 0.0000 0.0000 0.0000
# 4 0.0000 0.0000 0.0000 30.3860 0.0000 0.0000
# 5 0.0000 0.0000 0.0000 0.0000 24.5391 0.0000
# 6 0.0000 0.0000 0.0000 0.0000 0.0000 11.3758
#
#
#
# Elastic Compliance Matrix: (Units=1/GPa)
#
#
# Indices 1 2 3 4 5 6 
#
# 1 0.020655 -0.003912 -0.002297 0.000000 0.000000 0.000000
# 2 -0.003912 0.016985 -0.004337 0.000000 0.000000 0.000000
# 3 -0.002297 -0.004337 0.014636 0.000000 0.000000 0.000000
# 4 0.000000 0.000000 0.000000 0.032910 0.000000 0.000000
# 5 0.000000 0.000000 0.000000 0.000000 0.040751 0.000000
# 6 0.000000 0.000000 0.000000 0.000000 0.000000 0.087906
#
#
# Mechanical properties :
#
#
# Convention : Reuss Voigt Hill
#
# Bulk Modulus (GPa) = 32.06777 33.32023 32.69400
# Shear Modulus (GPa) = 20.38068 23.06686 21.72377
#
# Velocity S-wave (km/s) = 3.29904 3.50972 3.40601
# Velocity P-wave (km/s) = 5.62463 5.84961 5.73822
#
# Compressibility (1/GPa) = 0.03118396
#
# Stress axis : x y z
#
# Youngs Moduli (GPa) = 48.41334 58.87551 68.32476
#
# Poissons Ratio (x) = 0.23034 0.15693
# Poissons Ratio (y) = 0.18941 0.29633
# Poissons Ratio (z) = 0.11120 0.25535
#
# Static dielectric constant tensor:
#      x y z
#    x 3.133890 0.000000 0.000000 
#    y 0.000000 3.389630 0.000000 
#    z 0.000000 0.000000 3.785800 
# 
# 
# High freq. dielectric constant tensor:
#      x y z
#    x 1.686760 0.000000 0.000000 
#    y 0.000000 1.717040 0.000000 
#    z 0.000000 0.000000 1.747760 
# 
# From -- ./inp_files/31955.got.cif
#   From: 2010.03.12/outbox.cif.g09.slc.cpg/sg62_16_cif.got.tgz:31955.got - 2010.04.10 19:12:36.
