data_PCOD8250589
_publ_section_title
;
Structure prediction by ZEFSAII (Michael W. Deem and Ramdas Pophale) SiO2 
 PCOD8250589
Probable space group: P N M A
;
_chemical_formula_sum "Si O2"
_cell_formula_units_Z 64
_cell_length_a 24.435732
_cell_length_b 9.223744
_cell_length_c 14.742880
_cell_angle_alpha 90.000000
_cell_angle_beta 90.000000
_cell_angle_gamma 90.000000
_cell_volume 3322.882043
_symmetry_space_group_name_H-M "P N M A"
_symmetry_group_IT_number 62
_symmetry_cell_setting 'orthorhombic'
loop_
_space_group_symop_operation_xyz
x,y,z
1/2-x,-y,1/2+z
1/2+x,1/2-y,1/2-z
-x,1/2+y,-z
-x,-y,-z
1/2+x,y,1/2-z
1/2-x,1/2+y,1/2+z
x,1/2-y,z
loop_
_atom_site_type_symbol
_atom_site_label
_atom_site_fract_x
_atom_site_fract_y
_atom_site_fract_z
Si Si1 0.145319 0.085679 0.866076
Si Si2 0.630438 0.913847 0.468138
Si Si3 0.949100 0.916089 0.262103
Si Si4 0.740010 0.576946 0.374770
Si Si5 0.171484 0.921308 0.504827
Si Si6 0.235918 0.578203 0.329593
Si Si7 0.515453 0.585028 0.410281
Si Si8 0.547982 0.921283 0.946285
O O1 0.149757 0.250000 0.898656
O O2 0.113843 0.074894 0.770549
O O3 0.205180 0.014953 0.858414
O O4 0.111802 0.001753 0.943104
O O5 0.640056 0.750000 0.498723
O O6 0.686733 0.976976 0.428799
O O7 0.581138 0.924396 0.395649
O O8 0.963892 0.750000 0.289956
O O9 0.987889 0.974487 0.181223
O O10 0.956720 0.025718 0.343709
O O11 0.748575 0.750000 0.377754
O O12 0.793677 0.502176 0.417305
O O13 0.726502 0.522229 0.272633
O O14 0.180356 0.750000 0.517949
O O15 0.190950 0.972673 0.403877
O O16 0.107609 0.963286 0.513585
O O17 0.237957 0.750000 0.327041
O O18 0.500000 0.500000 0.500000
O O19 0.495453 0.750000 0.424078
O O20 0.538537 0.750000 0.950679
O O21 0.500000 0.000000 0.000000
#
# Coordination Sequence:
#
# PCOD8250589 Si02
#       8
#     8   8   8   8   8   8   8   8
#     4  10  18  32  56  82 111 151 194 233 282 344
#     4  10  20  32  51  82 116 148 185 237 290 337
#     4  10  21  37  60  88 115 154 201 243 288 348
#     4  10  20  35  56  84 116 151 188 231 286 343
#     4  10  21  39  62  86 113 149 192 238 286 341
#     4   9  18  33  56  82 111 149 189 228 279 344
#     4  10  20  34  54  82 116 154 194 237 287 343
#     4  11  25  43  64  88 114 151 195 248 299 345
#
# _framework density 19.260389
#
# number of rings (size 3 to 8) (size 9 to 14) (size 15 to 20)
#    0.000    2.000    2.500    1.125    0.000    4.000 
#    0.000    5.000    0.000    1.500    0.000    0.000 
#    0.000    0.000    0.000    0.000    0.000    0.000 
#
# Total GULP energy -793348.201674 kJ/mol
# GULP energy per Si atom -12396.065651 kJ/mol
# Density = 1.921655 g / cm^3
# Si number density = 19.260389 Si / 1000 Ang^3
#
#
#
# Elastic Constant Matrix: (Units=GPa)
#
#
# Indices 1 2 3 4 5 6 
#
# 1 132.0208 44.9464 64.1640 0.0000 0.0000 0.0000
# 2 44.9464 54.9899 48.3276 0.0000 0.0000 0.0000
# 3 64.1640 48.3276 142.1061 0.0000 0.0000 0.0000
# 4 0.0000 0.0000 0.0000 32.2204 0.0000 0.0000
# 5 0.0000 0.0000 0.0000 0.0000 29.3162 0.0000
# 6 0.0000 0.0000 0.0000 0.0000 0.0000 25.5091
#
#
#
# Elastic Compliance Matrix: (Units=1/GPa)
#
#
# Indices 1 2 3 4 5 6 
#
# 1 0.011213 -0.006726 -0.002776 0.000000 0.000000 0.000000
# 2 -0.006726 0.029972 -0.007156 0.000000 0.000000 0.000000
# 3 -0.002776 -0.007156 0.010724 0.000000 0.000000 0.000000
# 4 0.000000 0.000000 0.000000 0.031036 0.000000 0.000000
# 5 0.000000 0.000000 0.000000 0.000000 0.034111 0.000000
# 6 0.000000 0.000000 0.000000 0.000000 0.000000 0.039202
#
#
# Mechanical properties :
#
#
# Convention : Reuss Voigt Hill
#
# Bulk Modulus (GPa) = 53.78140 71.55474 62.66807
# Shear Modulus (GPa) = 25.54009 28.85440 27.19725
#
# Velocity S-wave (km/s) = 3.64544 3.87476 3.76184
# Velocity P-wave (km/s) = 6.76039 7.56639 7.17472
#
# Compressibility (1/GPa) = 0.01859379
#
# Stress axis : x y z
#
# Youngs Moduli (GPa) = 89.17841 33.36497 93.24992
#
# Poissons Ratio (x) = 0.22441 0.25884
# Poissons Ratio (y) = 0.59981 0.66728
# Poissons Ratio (z) = 0.24754 0.23875
#
# Static dielectric constant tensor:
#      x y z
#    x 3.799680 0.000000 0.000000 
#    y 0.000000 3.300010 0.000000 
#    z 0.000000 0.000000 3.582680 
# 
# 
# High freq. dielectric constant tensor:
#      x y z
#    x 1.762510 0.000000 0.000000 
#    y 0.000000 1.726410 0.000000 
#    z 0.000000 0.000000 1.747990 
# 
# From -- ./inp_files/20857.got.cif
#   From: 2010.03.12/outbox.cif.g09.slc.cpg/sg62_11_cif.got.tgz:20857.got - 2010.04.10 19:12:36.
