data_PCOD8250743
_publ_section_title
;
Structure prediction by ZEFSAII (Michael W. Deem and Ramdas Pophale) SiO2 
 PCOD8250743
Probable space group: P N M A
;
_chemical_formula_sum "Si O2"
_cell_formula_units_Z 48
_cell_length_a 16.547076
_cell_length_b 18.434902
_cell_length_c 7.092479
_cell_angle_alpha 90.000000
_cell_angle_beta 90.000000
_cell_angle_gamma 90.000000
_cell_volume 2163.516210
_symmetry_space_group_name_H-M "P N M A"
_symmetry_group_IT_number 62
_symmetry_cell_setting 'orthorhombic'
loop_
_space_group_symop_operation_xyz
x,y,z
1/2-x,-y,1/2+z
1/2+x,1/2-y,1/2-z
-x,1/2+y,-z
-x,-y,-z
1/2+x,y,1/2-z
1/2-x,1/2+y,1/2+z
x,1/2-y,z
loop_
_atom_site_type_symbol
_atom_site_label
_atom_site_fract_x
_atom_site_fract_y
_atom_site_fract_z
Si Si1 0.045017 0.250000 0.648483
Si Si2 0.808468 0.750000 0.155503
Si Si3 0.101151 0.107188 0.175427
Si Si4 0.451354 0.133589 0.075963
Si Si5 0.689878 0.090975 0.687497
Si Si6 0.677027 0.750000 0.828660
Si Si7 0.673437 0.250000 0.164213
Si Si8 0.842361 0.491301 0.542487
O O1 0.088881 0.250000 0.855558
O O2 0.129419 0.250000 0.533577
O O3 0.994825 0.321767 0.593762
O O4 0.786111 0.827279 0.255542
O O5 0.754874 0.750000 0.967295
O O6 0.149866 0.179750 0.215254
O O7 0.141830 0.038322 0.274018
O O8 0.009188 0.117522 0.246396
O O9 0.111189 0.093638 0.951045
O O10 0.376406 0.178602 0.156508
O O11 0.420491 0.058972 0.989657
O O12 0.666862 0.044430 0.866836
O O13 0.763463 0.056944 0.570688
O O14 0.728019 0.750000 0.632123
#
# Coordination Sequence:
#
# PCOD8250743 Si02
#       8
#     4   4   8   8   8   4   4   8
#     4   9  22  40  73  94 130 176 235 270 348 400
#     4  12  22  43  68  99 125 182 233 275 321 417
#     4  11  22  41  67  93 135 176 224 279 347 406
#     4  10  22  42  64  96 134 179 212 289 350 391
#     4  12  24  41  70 100 132 183 236 277 339 418
#     4  11  20  37  72  87 128 170 227 270 332 401
#     4  10  18  40  65  92 119 174 219 277 323 402
#     4  12  24  41  67  99 137 179 228 284 343 406
#
# _framework density 22.186105999999999
#
# number of rings (size 3 to 8) (size 9 to 14) (size 15 to 20)
#    0.000    1.000    5.000    3.000    0.000    0.667 
#    0.000    0.000   11.000    0.000    0.000    0.000 
#    0.000    0.000    0.000    0.000    0.000    0.000 
#
# Total GULP energy -594649.684387 kJ/mol
# GULP energy per Si atom -12388.535091 kJ/mol
# Density = 2.213561 g / cm^3
# Si number density = 22.186106 Si / 1000 Ang^3
#
#
#
# Elastic Constant Matrix: (Units=GPa)
#
#
# Indices 1 2 3 4 5 6 
#
# 1 125.8281 51.3702 28.0729 0.0000 0.0000 0.0000
# 2 51.3702 178.4305 40.0333 0.0000 0.0000 0.0000
# 3 28.0729 40.0333 64.2900 0.0000 0.0000 0.0000
# 4 0.0000 0.0000 0.0000 -46.1052 0.0000 0.0000
# 5 0.0000 0.0000 0.0000 0.0000 38.5666 0.0000
# 6 0.0000 0.0000 0.0000 0.0000 0.0000 40.7481
#
#
#
# Elastic Compliance Matrix: (Units=1/GPa)
#
#
# Indices 1 2 3 4 5 6 
#
# 1 0.009426 -0.002081 -0.002820 0.000000 0.000000 0.000000
# 2 -0.002081 0.006974 -0.003434 0.000000 0.000000 0.000000
# 3 -0.002820 -0.003434 0.018924 0.000000 0.000000 0.000000
# 4 0.000000 0.000000 0.000000 -0.021690 0.000000 0.000000
# 5 0.000000 0.000000 0.000000 0.000000 0.025929 0.000000
# 6 0.000000 0.000000 0.000000 0.000000 0.000000 0.024541
#
#
# Mechanical properties :
#
#
# Convention : Reuss Voigt Hill
#
# Bulk Modulus (GPa) = 53.60764 67.50015 60.55389
# Shear Modulus (GPa) = 57.47550 23.24671 40.36111
#
# Velocity S-wave (km/s) = 5.09532 3.24049 4.26984
# Velocity P-wave (km/s) = 7.67018 6.67020 7.18760
#
# Compressibility (1/GPa) = 0.01865406
#
# Stress axis : x y z
#
# Youngs Moduli (GPa) = 106.08788 143.38937 52.84211
#
# Poissons Ratio (x) = 0.29840 0.14902
# Poissons Ratio (y) = 0.22077 0.18146
# Poissons Ratio (z) = 0.29919 0.49240
#
# Static dielectric constant tensor:
#      x y z
#    x 4.222330 0.000000 0.000000 
#    y 0.000000 4.426110 0.000000 
#    z 0.000000 0.000000 3.965060 
# 
# 
# High freq. dielectric constant tensor:
#      x y z
#    x 1.873480 0.000000 0.000000 
#    y 0.000000 1.903860 0.000000 
#    z 0.000000 0.000000 1.853990 
# 
# From -- ./inp_files/6573.got.cif
#   From: 2010.03.12/outbox.cif.g09.slc.cpg/sg62_4_cif.got.tgz:6573.got - 2010.04.10 19:12:36.
