data_PCOD8250894
_publ_section_title
;
Structure prediction by ZEFSAII (Michael W. Deem and Ramdas Pophale) SiO2 
 PCOD8250894
Probable space group: P N M A
;
_chemical_formula_sum "Si O2"
_cell_formula_units_Z 56
_cell_length_a 8.469569
_cell_length_b 20.549305
_cell_length_c 17.132130
_cell_angle_alpha 90.000000
_cell_angle_beta 90.000000
_cell_angle_gamma 90.000000
_cell_volume 2981.740264
_symmetry_space_group_name_H-M "P N M A"
_symmetry_group_IT_number 62
_symmetry_cell_setting 'orthorhombic'
loop_
_space_group_symop_operation_xyz
x,y,z
1/2-x,-y,1/2+z
1/2+x,1/2-y,1/2-z
-x,1/2+y,-z
-x,-y,-z
1/2+x,y,1/2-z
1/2-x,1/2+y,1/2+z
x,1/2-y,z
loop_
_atom_site_type_symbol
_atom_site_label
_atom_site_fract_x
_atom_site_fract_y
_atom_site_fract_z
Si Si1 0.335382 0.403338 0.407834
Si Si2 0.386198 0.545920 0.347626
Si Si3 0.151665 0.461577 0.529574
Si Si4 0.147332 0.324720 0.294302
Si Si5 0.247490 0.532526 0.188252
Si Si6 0.161554 0.085032 0.013822
Si Si7 0.819698 0.383602 0.339151
O O1 0.338300 0.471829 0.363722
O O2 0.192292 0.402739 0.471456
O O3 0.298065 0.346131 0.346602
O O4 0.498065 0.389393 0.451555
O O5 0.293147 0.566749 0.269581
O O6 0.570529 0.552740 0.331713
O O7 0.333305 0.593934 0.419573
O O8 0.135979 0.439254 0.619670
O O9 0.309813 0.507903 0.528623
O O10 0.000000 0.500000 0.500000
O O11 0.104340 0.250000 0.309263
O O12 0.199029 0.334612 0.204409
O O13 0.999636 0.369236 0.317561
O O14 0.273623 0.454978 0.192053
O O15 0.296010 0.121941 0.066074
#
# Coordination Sequence:
#
# PCOD8250894 Si02
#       7
#     8   8   8   8   8   8   8
#     4  11  18  36  53  68 109 146 185 227 265 320
#     4  11  20  32  50  82 110 144 184 213 271 337
#     4  10  19  30  49  78 105 144 184 214 267 332
#     4  12  25  38  55  79 106 146 198 238 267 318
#     4  11  20  32  51  78 112 146 179 217 261 336
#     4  10  20  35  53  73 109 149 183 224 270 340
#     4  11  21  37  53  74 106 150 184 225 279 315
#
# _framework density 18.780978000000001
#
# number of rings (size 3 to 8) (size 9 to 14) (size 15 to 20)
#    0.000    1.143    5.714    4.714    4.000    0.000 
#    0.000    0.714    0.000    0.000    0.000    0.000 
#    0.000    5.714    0.000    0.000    0.000    0.000 
#
# Total GULP energy -693923.849975 kJ/mol
# GULP energy per Si atom -12391.497321 kJ/mol
# Density = 1.873823 g / cm^3
# Si number density = 18.780978 Si / 1000 Ang^3
#
#
#
# Elastic Constant Matrix: (Units=GPa)
#
#
# Indices 1 2 3 4 5 6 
#
# 1 81.3689 7.4233 47.5171 0.0000 0.0000 0.0000
# 2 7.4233 28.3606 17.5530 0.0000 0.0000 0.0000
# 3 47.5171 17.5530 178.4121 0.0000 0.0000 0.0000
# 4 0.0000 0.0000 0.0000 11.6193 0.0000 0.0000
# 5 0.0000 0.0000 0.0000 0.0000 37.7147 0.0000
# 6 0.0000 0.0000 0.0000 0.0000 0.0000 9.9726
#
#
#
# Elastic Compliance Matrix: (Units=1/GPa)
#
#
# Indices 1 2 3 4 5 6 
#
# 1 0.014613 -0.001508 -0.003744 0.000000 0.000000 0.000000
# 2 -0.001508 0.037702 -0.003308 0.000000 0.000000 0.000000
# 3 -0.003744 -0.003308 0.006928 0.000000 0.000000 0.000000
# 4 0.000000 0.000000 0.000000 0.086064 0.000000 0.000000
# 5 0.000000 0.000000 0.000000 0.000000 0.026515 0.000000
# 6 0.000000 0.000000 0.000000 0.000000 0.000000 0.100275
#
#
# Mechanical properties :
#
#
# Convention : Reuss Voigt Hill
#
# Bulk Modulus (GPa) = 23.73922 48.12537 35.93229
# Shear Modulus (GPa) = 16.48771 26.23787 21.36279
#
# Velocity S-wave (km/s) = 2.96614 3.74176 3.37630
# Velocity P-wave (km/s) = 4.93945 6.65942 5.86285
#
# Compressibility (1/GPa) = 0.04212439
#
# Stress axis : x y z
#
# Youngs Moduli (GPa) = 68.42990 26.52371 144.35220
#
# Poissons Ratio (x) = 0.04000 0.54041
# Poissons Ratio (y) = 0.10319 0.47747
# Poissons Ratio (z) = 0.25618 0.08773
#
# Static dielectric constant tensor:
#      x y z
#    x 3.513290 0.000000 0.000000 
#    y 0.000000 2.782320 0.000000 
#    z 0.000000 0.000000 4.174580 
# 
# 
# High freq. dielectric constant tensor:
#      x y z
#    x 1.745460 0.000000 0.000000 
#    y 0.000000 1.629240 0.000000 
#    z 0.000000 0.000000 1.756390 
# 
# From -- ./inp_files/22506.got.cif
#   From: 2010.03.12/outbox.cif.g09.slc.cpg/sg62_12_cif.got.tgz:22506.got - 2010.04.10 19:12:36.
