data_PCOD8250862
_publ_section_title
;
Structure prediction by ZEFSAII (Michael W. Deem and Ramdas Pophale) SiO2 
 PCOD8250862
Probable space group: P N M A
;
_chemical_formula_sum "Si O2"
_cell_formula_units_Z 64
_cell_length_a 14.478720
_cell_length_b 9.579362
_cell_length_c 24.594222
_cell_angle_alpha 90.000000
_cell_angle_beta 90.000000
_cell_angle_gamma 90.000000
_cell_volume 3411.142354
_symmetry_space_group_name_H-M "P N M A"
_symmetry_group_IT_number 62
_symmetry_cell_setting 'orthorhombic'
loop_
_space_group_symop_operation_xyz
x,y,z
1/2-x,-y,1/2+z
1/2+x,1/2-y,1/2-z
-x,1/2+y,-z
-x,-y,-z
1/2+x,y,1/2-z
1/2-x,1/2+y,1/2+z
x,1/2-y,z
loop_
_atom_site_type_symbol
_atom_site_label
_atom_site_fract_x
_atom_site_fract_y
_atom_site_fract_z
Si Si1 0.223990 0.905942 0.506046
Si Si2 0.197570 0.409848 0.117476
Si Si3 0.044738 0.409737 0.200708
Si Si4 0.310728 0.912871 0.794718
Si Si5 0.357269 0.906008 0.155421
Si Si6 0.840756 0.593719 0.581396
Si Si7 0.627618 0.408299 0.720949
Si Si8 0.454281 0.404734 0.075591
O O1 0.248632 0.750000 0.487757
O O2 0.294910 0.955403 0.553858
O O3 0.119032 0.917825 0.527236
O O4 0.232456 0.999798 0.451987
O O5 0.233511 0.250000 0.121799
O O6 0.095930 0.424008 0.142348
O O7 0.263420 0.505623 0.153800
O O8 0.012296 0.250000 0.209933
O O9 0.111766 0.455185 0.250387
O O10 0.957182 0.509719 0.193744
O O11 0.283938 0.750000 0.786799
O O12 0.348722 0.944263 0.855028
O O13 0.221850 0.009257 0.788164
O O14 0.338199 0.750000 0.133191
O O15 0.395417 0.900880 0.215826
O O16 0.436532 0.978018 0.120365
O O17 0.803664 0.750000 0.574518
O O18 0.941708 0.574293 0.554161
O O19 0.634953 0.250000 0.697318
O O20 0.446555 0.250000 0.102330
#
# Coordination Sequence:
#
# PCOD8250862 Si02
#       8
#     8   8   8   8   8   8   8   8
#     4   9  18  31  50  76 105 139 174 215 268 321
#     4   9  18  34  55  77 100 133 178 218 256 308
#     4  10  20  36  60  82 103 139 183 226 267 314
#     4  10  21  37  57  80 107 145 188 223 262 318
#     4  10  19  30  47  74 106 139 171 209 262 316
#     4  10  20  33  50  75 105 139 181 222 262 314
#     4  11  23  35  51  79 114 145 174 218 277 331
#     4   9  18  32  50  73 104 140 181 222 257 310
#
# _framework density 18.762043999999999
#
# number of rings (size 3 to 8) (size 9 to 14) (size 15 to 20)
#    0.000    2.250    1.250    2.625    0.000    6.500 
#    0.000    0.000    0.000    0.750    0.000    0.000 
#    0.000    0.000    0.000    0.000    0.000    0.000 
#
# Total GULP energy -793293.281071 kJ/mol
# GULP energy per Si atom -12395.207517 kJ/mol
# Density = 1.871934 g / cm^3
# Si number density = 18.762044 Si / 1000 Ang^3
#
#
#
# Elastic Constant Matrix: (Units=GPa)
#
#
# Indices 1 2 3 4 5 6 
#
# 1 58.9397 31.7323 -2.1270 0.0000 0.0000 0.0000
# 2 31.7323 88.7163 10.3836 0.0000 0.0000 0.0000
# 3 -2.1270 10.3836 42.1508 0.0000 0.0000 0.0000
# 4 0.0000 0.0000 0.0000 30.9428 0.0000 0.0000
# 5 0.0000 0.0000 0.0000 0.0000 14.9917 0.0000
# 6 0.0000 0.0000 0.0000 0.0000 0.0000 21.2095
#
#
#
# Elastic Compliance Matrix: (Units=1/GPa)
#
#
# Indices 1 2 3 4 5 6 
#
# 1 0.021388 -0.008007 0.003052 0.000000 0.000000 0.000000
# 2 -0.008007 0.014604 -0.004002 0.000000 0.000000 0.000000
# 3 0.003052 -0.004002 0.024864 0.000000 0.000000 0.000000
# 4 0.000000 0.000000 0.000000 0.032318 0.000000 0.000000
# 5 0.000000 0.000000 0.000000 0.000000 0.066704 0.000000
# 6 0.000000 0.000000 0.000000 0.000000 0.000000 0.047149
#
#
# Mechanical properties :
#
#
# Convention : Reuss Voigt Hill
#
# Bulk Modulus (GPa) = 23.28737 29.97608 26.63172
# Shear Modulus (GPa) = 20.89828 23.41665 22.15747
#
# Velocity S-wave (km/s) = 3.34107 3.53666 3.44026
# Velocity P-wave (km/s) = 5.22710 5.71742 5.47775
#
# Compressibility (1/GPa) = 0.04294174
#
# Stress axis : x y z
#
# Youngs Moduli (GPa) = 46.75614 68.47304 40.21853
#
# Poissons Ratio (x) = 0.54827 -0.12274
# Poissons Ratio (y) = 0.37438 0.16094
# Poissons Ratio (z) = -0.14269 0.27401
#
# Static dielectric constant tensor:
#      x y z
#    x 3.141020 0.000000 0.000000 
#    y 0.000000 3.598840 0.000000 
#    z 0.000000 0.000000 3.339100 
# 
# 
# High freq. dielectric constant tensor:
#      x y z
#    x 1.699000 0.000000 0.000000 
#    y 0.000000 1.733680 0.000000 
#    z 0.000000 0.000000 1.717290 
# 
# From -- ./inp_files/29733.got.cif
#   From: 2010.03.12/outbox.cif.g09.slc.cpg/sg62_15_cif.got.tgz:29733.got - 2010.04.10 19:12:36.
