data_PCOD8250904
_publ_section_title
;
Structure prediction by ZEFSAII (Michael W. Deem and Ramdas Pophale) SiO2 
 PCOD8250904
Probable space group: P N M A
;
_chemical_formula_sum "Si O2"
_cell_formula_units_Z 64
_cell_length_a 24.663334
_cell_length_b 9.395604
_cell_length_c 15.022320
_cell_angle_alpha 90.000000
_cell_angle_beta 90.000000
_cell_angle_gamma 90.000000
_cell_volume 3481.075939
_symmetry_space_group_name_H-M "P N M A"
_symmetry_group_IT_number 62
_symmetry_cell_setting 'orthorhombic'
loop_
_space_group_symop_operation_xyz
x,y,z
1/2-x,-y,1/2+z
1/2+x,1/2-y,1/2-z
-x,1/2+y,-z
-x,-y,-z
1/2+x,y,1/2-z
1/2-x,1/2+y,1/2+z
x,1/2-y,z
loop_
_atom_site_type_symbol
_atom_site_label
_atom_site_fract_x
_atom_site_fract_y
_atom_site_fract_z
Si Si1 0.923667 0.087201 0.650486
Si Si2 0.078493 0.414418 0.040747
Si Si3 0.320458 0.914038 0.802680
Si Si4 0.116302 0.588108 0.544155
Si Si5 0.463607 0.088517 0.388885
Si Si6 0.529954 0.586882 0.811816
Si Si7 0.719281 0.417038 0.005465
Si Si8 0.195764 0.413800 0.105866
O O1 0.924615 0.250000 0.682776
O O2 0.918841 0.075777 0.544648
O O3 0.873434 0.011032 0.697496
O O4 0.978882 0.013494 0.677781
O O5 0.076630 0.250000 0.016490
O O6 0.132326 0.451531 0.095757
O O7 0.026306 0.460973 0.099042
O O8 0.077803 0.496468 0.947054
O O9 0.339732 0.750000 0.806769
O O10 0.288609 0.942648 0.709738
O O11 0.282277 0.948931 0.887953
O O12 0.137084 0.750000 0.558311
O O13 0.077964 0.537051 0.623812
O O14 0.167137 0.483339 0.542455
O O15 0.457378 0.250000 0.421013
O O16 0.446589 0.070373 0.287006
O O17 0.512682 0.750000 0.831799
O O18 0.720276 0.250000 0.986227
O O19 0.772033 0.486954 0.962217
O O20 0.207695 0.250000 0.080775
#
# Coordination Sequence:
#
# PCOD8250904 Si02
#       8
#     8   8   8   8   8   8   8   8
#     4  10  19  30  50  80 109 136 172 222 268 307
#     4   9  18  33  53  76 102 133 169 212 262 307
#     4   9  19  37  58  78 103 140 180 217 264 324
#     4   9  19  35  52  72 104 143 178 213 263 320
#     4   9  18  33  52  75 104 137 172 210 253 307
#     4  10  19  32  51  75 104 143 181 209 251 321
#     4  10  21  37  56  80 107 136 176 228 272 311
#     4  10  20  37  60  80 103 141 181 218 266 324
#
# _framework density 18.385121000000002
#
# number of rings (size 3 to 8) (size 9 to 14) (size 15 to 20)
#    0.000    2.500    0.000    1.875    0.000    5.000 
#    2.250    2.500    0.000    0.000    0.000    0.000 
#    0.000    0.000    0.000    0.000    0.000    0.000 
#
# Total GULP energy -793630.349839 kJ/mol
# GULP energy per Si atom -12400.474216 kJ/mol
# Density = 1.834328 g / cm^3
# Si number density = 18.385121 Si / 1000 Ang^3
#
#
#
# Elastic Constant Matrix: (Units=GPa)
#
#
# Indices 1 2 3 4 5 6 
#
# 1 57.9345 42.2764 45.0014 0.0000 0.0000 0.0000
# 2 42.2764 82.3107 47.0268 0.0000 0.0000 0.0000
# 3 45.0014 47.0268 102.6401 0.0000 0.0000 0.0000
# 4 0.0000 0.0000 0.0000 26.1946 0.0000 0.0000
# 5 0.0000 0.0000 0.0000 0.0000 23.6761 0.0000
# 6 0.0000 0.0000 0.0000 0.0000 0.0000 34.1761
#
#
#
# Elastic Compliance Matrix: (Units=1/GPa)
#
#
# Indices 1 2 3 4 5 6 
#
# 1 0.032803 -0.011692 -0.009025 0.000000 0.000000 0.000000
# 2 -0.011692 0.020624 -0.004323 0.000000 0.000000 0.000000
# 3 -0.009025 -0.004323 0.015681 0.000000 0.000000 0.000000
# 4 0.000000 0.000000 0.000000 0.038176 0.000000 0.000000
# 5 0.000000 0.000000 0.000000 0.000000 0.042237 0.000000
# 6 0.000000 0.000000 0.000000 0.000000 0.000000 0.029260
#
#
# Mechanical properties :
#
#
# Convention : Reuss Voigt Hill
#
# Bulk Modulus (GPa) = 52.55641 56.83270 54.69456
# Shear Modulus (GPa) = 21.25809 24.04808 22.65309
#
# Velocity S-wave (km/s) = 3.40408 3.62058 3.51400
# Velocity P-wave (km/s) = 6.64069 6.96115 6.80281
#
# Compressibility (1/GPa) = 0.01902717
#
# Stress axis : x y z
#
# Youngs Moduli (GPa) = 30.48472 48.48639 63.77295
#
# Poissons Ratio (x) = 0.56690 0.57557
# Poissons Ratio (y) = 0.35643 0.27571
# Poissons Ratio (z) = 0.27513 0.20962
#
# Static dielectric constant tensor:
#      x y z
#    x 3.177930 0.000000 0.000000 
#    y 0.000000 3.431540 0.000000 
#    z 0.000000 0.000000 3.525780 
# 
# 
# High freq. dielectric constant tensor:
#      x y z
#    x 1.692590 0.000000 0.000000 
#    y 0.000000 1.713920 0.000000 
#    z 0.000000 0.000000 1.719440 
# 
# From -- ./inp_files/20891.got.cif
#   From: 2010.03.12/outbox.cif.g09.slc.cpg/sg62_11_cif.got.tgz:20891.got - 2010.04.10 19:12:36.
