data_PCOD8250830
_publ_section_title
;
Structure prediction by ZEFSAII (Michael W. Deem and Ramdas Pophale) SiO2 
 PCOD8250830
Probable space group: P N M A
;
_chemical_formula_sum "Si O2"
_cell_formula_units_Z 64
_cell_length_a 30.020900
_cell_length_b 8.995606
_cell_length_c 14.688395
_cell_angle_alpha 90.000000
_cell_angle_beta 90.000000
_cell_angle_gamma 90.000000
_cell_volume 3966.691964
_symmetry_space_group_name_H-M "P N M A"
_symmetry_group_IT_number 62
_symmetry_cell_setting 'orthorhombic'
loop_
_space_group_symop_operation_xyz
x,y,z
1/2-x,-y,1/2+z
1/2+x,1/2-y,1/2-z
-x,1/2+y,-z
-x,-y,-z
1/2+x,y,1/2-z
1/2-x,1/2+y,1/2+z
x,1/2-y,z
loop_
_atom_site_type_symbol
_atom_site_label
_atom_site_fract_x
_atom_site_fract_y
_atom_site_fract_z
Si Si1 0.215107 0.927418 0.279438
Si Si2 0.222829 0.916849 0.480051
Si Si3 0.048379 0.578738 0.911245
Si Si4 0.861867 0.080355 0.175606
Si Si5 0.449021 0.923872 0.599903
Si Si6 0.866945 0.075935 0.842118
Si Si7 0.173799 0.417153 0.991080
Si Si8 0.296137 0.075820 0.172817
O O1 0.221588 0.750000 0.278848
O O2 0.213891 0.995259 0.382546
O O3 0.168425 0.975830 0.233849
O O4 0.256397 0.995295 0.225593
O O5 0.205354 0.750000 0.467258
O O6 0.274092 0.922181 0.507504
O O7 0.198433 0.987689 0.569059
O O8 0.047483 0.750000 0.943540
O O9 0.084866 0.552127 0.831654
O O10 0.999747 0.533142 0.873076
O O11 0.061666 0.480142 0.997934
O O12 0.850879 0.250000 0.147167
O O13 0.843542 0.049061 0.277186
O O14 0.835518 0.968444 0.111125
O O15 0.440877 0.750000 0.603105
O O16 0.415221 0.999111 0.672301
O O17 0.874165 0.250000 0.839029
O O18 0.849675 0.030367 0.941139
O O19 0.155501 0.250000 0.006156
O O20 0.283754 0.250000 0.168429
#
# Coordination Sequence:
#
# PCOD8250830 Si02
#       8
#     8   8   8   8   8   8   8   8
#     4  10  20  33  47  64  90 124 157 189 227 268
#     4   9  18  32  46  64  92 122 154 192 223 263
#     4   9  18  31  45  66  95 122 151 188 229 277
#     4  10  19  30  46  69  95 122 152 187 228 271
#     4  10  19  30  46  66  91 123 155 187 230 281
#     4  11  21  31  45  66  93 123 158 195 230 271
#     4  11  19  28  46  67  93 125 157 188 222 268
#     4  10  19  31  48  69  92 119 153 190 227 270
#
# _framework density 16.134350000000001
#
# number of rings (size 3 to 8) (size 9 to 14) (size 15 to 20)
#    0.000    2.000    3.750    1.125    0.000    1.000 
#    0.000    0.625    0.000    0.000    0.000    0.875 
#    0.000    0.000    0.000    0.000    0.000    0.000 
#
# Total GULP energy -793213.365421 kJ/mol
# GULP energy per Si atom -12393.958835 kJ/mol
# Density = 1.609763 g / cm^3
# Si number density = 16.134350 Si / 1000 Ang^3
#
#
#
# Elastic Constant Matrix: (Units=GPa)
#
#
# Indices 1 2 3 4 5 6 
#
# 1 104.1167 32.2616 48.3680 0.0000 0.0000 0.0000
# 2 32.2616 39.8159 18.6338 0.0000 0.0000 0.0000
# 3 48.3680 18.6338 95.1542 0.0000 0.0000 0.0000
# 4 0.0000 0.0000 0.0000 14.7272 0.0000 0.0000
# 5 0.0000 0.0000 0.0000 0.0000 25.5206 0.0000
# 6 0.0000 0.0000 0.0000 0.0000 0.0000 23.0022
#
#
#
# Elastic Compliance Matrix: (Units=1/GPa)
#
#
# Indices 1 2 3 4 5 6 
#
# 1 0.015344 -0.009669 -0.005906 0.000000 0.000000 0.000000
# 2 -0.009669 0.033742 -0.001693 0.000000 0.000000 0.000000
# 3 -0.005906 -0.001693 0.013843 0.000000 0.000000 0.000000
# 4 0.000000 0.000000 0.000000 0.067902 0.000000 0.000000
# 5 0.000000 0.000000 0.000000 0.000000 0.039184 0.000000
# 6 0.000000 0.000000 0.000000 0.000000 0.000000 0.043474
#
#
# Mechanical properties :
#
#
# Convention : Reuss Voigt Hill
#
# Bulk Modulus (GPa) = 35.21923 48.62371 41.92147
# Shear Modulus (GPa) = 19.41822 21.97157 20.69490
#
# Velocity S-wave (km/s) = 3.47296 3.69425 3.58531
# Velocity P-wave (km/s) = 6.16101 6.95692 6.57103
#
# Compressibility (1/GPa) = 0.02839358
#
# Stress axis : x y z
#
# Youngs Moduli (GPa) = 65.17017 29.63637 72.23868
#
# Poissons Ratio (x) = 0.28655 0.42666
# Poissons Ratio (y) = 0.63013 0.12229
# Poissons Ratio (z) = 0.38492 0.05017
#
# Static dielectric constant tensor:
#      x y z
#    x 3.253490 0.000000 0.000000 
#    y 0.000000 3.039300 0.000000 
#    z 0.000000 0.000000 3.096790 
# 
# 
# High freq. dielectric constant tensor:
#      x y z
#    x 1.617010 0.000000 0.000000 
#    y 0.000000 1.615180 0.000000 
#    z 0.000000 0.000000 1.593800 
# 
# From -- ./inp_files/21253.got.cif
#   From: 2010.03.12/outbox.cif.g09.slc.cpg/sg62_11_cif.got.tgz:21253.got - 2010.04.10 19:12:36.
