data_PCOD8250274
_publ_section_title
;
Structure prediction by ZEFSAII (Michael W. Deem and Ramdas Pophale) SiO2 
 PCOD8250274
Probable space group: P N M A
;
_chemical_formula_sum "Si O2"
_cell_formula_units_Z 32
_cell_length_a 5.223702
_cell_length_b 17.761092
_cell_length_c 20.208963
_cell_angle_alpha 90.000000
_cell_angle_beta 90.000000
_cell_angle_gamma 90.000000
_cell_volume 1874.960341
_symmetry_space_group_name_H-M "P N M A"
_symmetry_group_IT_number 62
_symmetry_cell_setting 'orthorhombic'
loop_
_space_group_symop_operation_xyz
x,y,z
1/2-x,-y,1/2+z
1/2+x,1/2-y,1/2-z
-x,1/2+y,-z
-x,-y,-z
1/2+x,y,1/2-z
1/2-x,1/2+y,1/2+z
x,1/2-y,z
loop_
_atom_site_type_symbol
_atom_site_label
_atom_site_fract_x
_atom_site_fract_y
_atom_site_fract_z
Si Si1 0.982107 0.837306 0.791177
Si Si2 0.060234 0.921917 0.923119
Si Si3 0.201840 0.418700 0.946395
Si Si4 0.289296 0.661416 0.035469
O O1 0.748964 0.858265 0.743196
O O2 0.971188 0.750000 0.811146
O O3 0.950457 0.886001 0.856926
O O4 0.193325 0.002199 0.907144
O O5 0.262944 0.865241 0.958640
O O6 0.823624 0.936056 0.974335
O O7 0.465521 0.376914 0.930512
O O8 0.964270 0.364953 0.924335
O O9 0.324314 0.750000 0.038256
#
# Coordination Sequence:
#
# PCOD8250274 Si02
#       4
#     8   8   8   8
#     4  10  22  34  47  70  98 133 170 196 224 277
#     4   9  20  33  50  66 100 131 163 200 243 279
#     4   9  20  30  49  71  94 130 161 200 246 292
#     4  10  18  29  46  72  97 124 153 190 245 294
#
# _framework density 17.067025999999998
#
# number of rings (size 3 to 8) (size 9 to 14) (size 15 to 20)
#    1.500    1.000    0.000    2.250    3.500    0.000 
#    0.000    0.000    0.000    0.000    0.000    0.000 
#    0.000   20.000    0.000    0.000    0.000    0.000 
#
# Total GULP energy -396566.019765 kJ/mol
# GULP energy per Si atom -12392.688118 kJ/mol
# Density = 1.702818 g / cm^3
# Si number density = 17.067026 Si / 1000 Ang^3
#
#
#
# Elastic Constant Matrix: (Units=GPa)
#
#
# Indices 1 2 3 4 5 6 
#
# 1 90.7964 10.3771 5.3118 0.0000 0.0000 0.0000
# 2 10.3771 81.3152 17.1240 0.0000 0.0000 0.0000
# 3 5.3118 17.1240 46.0392 0.0000 0.0000 0.0000
# 4 0.0000 0.0000 0.0000 28.8646 0.0000 0.0000
# 5 0.0000 0.0000 0.0000 0.0000 10.7752 0.0000
# 6 0.0000 0.0000 0.0000 0.0000 0.0000 24.4505
#
#
#
# Elastic Compliance Matrix: (Units=1/GPa)
#
#
# Indices 1 2 3 4 5 6 
#
# 1 0.011206 -0.001256 -0.000826 0.000000 0.000000 0.000000
# 2 -0.001256 0.013484 -0.004870 0.000000 0.000000 0.000000
# 3 -0.000826 -0.004870 0.023627 0.000000 0.000000 0.000000
# 4 0.000000 0.000000 0.000000 0.034645 0.000000 0.000000
# 5 0.000000 0.000000 0.000000 0.000000 0.092805 0.000000
# 6 0.000000 0.000000 0.000000 0.000000 0.000000 0.040899
#
#
# Mechanical properties :
#
#
# Convention : Reuss Voigt Hill
#
# Bulk Modulus (GPa) = 29.05917 31.53074 30.29495
# Shear Modulus (GPa) = 20.65770 25.17391 22.91581
#
# Velocity S-wave (km/s) = 3.48284 3.84474 3.66826
# Velocity P-wave (km/s) = 5.76515 6.18257 5.97751
#
# Compressibility (1/GPa) = 0.03441254
#
# Stress axis : x y z
#
# Youngs Moduli (GPa) = 89.24176 74.16329 42.32381
#
# Poissons Ratio (x) = 0.09316 0.03494
# Poissons Ratio (y) = 0.11210 0.20613
# Poissons Ratio (z) = 0.07368 0.36120
#
# Static dielectric constant tensor:
#      x y z
#    x 3.155570 0.000000 0.000000 
#    y 0.000000 3.140760 0.000000 
#    z 0.000000 0.000000 2.608810 
# 
# 
# High freq. dielectric constant tensor:
#      x y z
#    x 1.665870 0.000000 0.000000 
#    y 0.000000 1.665660 0.000000 
#    z 0.000000 0.000000 1.591080 
# 
# From -- ./inp_files/25163.got.cif
#   From: 2010.03.12/outbox.cif.g09.slc.cpg/sg62_13_cif.got.tgz:25163.got - 2010.04.10 19:12:36.
