data_PCOD8250808
_publ_section_title
;
Structure prediction by ZEFSAII (Michael W. Deem and Ramdas Pophale) SiO2 
 PCOD8250808
Probable space group: P N M A
;
_chemical_formula_sum "Si O2"
_cell_formula_units_Z 64
_cell_length_a 29.275008
_cell_length_b 9.108355
_cell_length_c 12.352712
_cell_angle_alpha 90.000000
_cell_angle_beta 90.000000
_cell_angle_gamma 90.000000
_cell_volume 3293.815641
_symmetry_space_group_name_H-M "P N M A"
_symmetry_group_IT_number 62
_symmetry_cell_setting 'orthorhombic'
loop_
_space_group_symop_operation_xyz
x,y,z
1/2-x,-y,1/2+z
1/2+x,1/2-y,1/2-z
-x,1/2+y,-z
-x,-y,-z
1/2+x,y,1/2-z
1/2-x,1/2+y,1/2+z
x,1/2-y,z
loop_
_atom_site_type_symbol
_atom_site_label
_atom_site_fract_x
_atom_site_fract_y
_atom_site_fract_z
Si Si1 0.032033 0.578456 0.255197
Si Si2 0.687110 0.420883 0.984378
Si Si3 0.613673 0.078618 0.156674
Si Si4 0.836819 0.575289 0.247465
Si Si5 0.724104 0.425598 0.547177
Si Si6 0.561596 0.414503 0.454247
Si Si7 0.841080 0.587445 0.868619
Si Si8 0.435961 0.577107 0.307883
O O1 0.041762 0.750000 0.264310
O O2 0.063784 0.497404 0.343824
O O3 0.043414 0.526395 0.134521
O O4 0.978008 0.542538 0.274471
O O5 0.700129 0.250000 0.988112
O O6 0.682645 0.480958 0.862383
O O7 0.638501 0.448249 0.043168
O O8 0.725214 0.509987 0.050093
O O9 0.605155 0.250000 0.181160
O O10 0.644610 0.009880 0.255074
O O11 0.839269 0.750000 0.249544
O O12 0.803242 0.518432 0.153116
O O13 0.888083 0.508779 0.233183
O O14 0.725438 0.250000 0.546801
O O15 0.699567 0.488574 0.437727
O O16 0.541382 0.250000 0.435733
O O17 0.616377 0.406025 0.449898
O O18 0.549908 0.480913 0.572462
O O19 0.824006 0.750000 0.838064
O O20 0.428968 0.750000 0.320733
#
# Coordination Sequence:
#
# PCOD8250808 Si02
#       8
#     8   8   8   8   8   8   8   8
#     4  10  19  29  48  79 107 133 173 224 264 296
#     4  10  22  37  55  77 102 133 174 221 257 298
#     4   9  19  36  53  70 101 143 177 205 251 315
#     4   9  18  35  56  78 103 134 176 214 252 308
#     4  10  19  33  56  79 101 134 170 208 259 315
#     4   9  15  28  49  72 104 142 173 202 249 316
#     4   8  14  27  49  72  93 129 170 195 231 303
#     4   9  16  29  51  76 104 139 177 214 256 310
#
# _framework density 19.430351999999999
#
# number of rings (size 3 to 8) (size 9 to 14) (size 15 to 20)
#    0.000    2.750    1.250    1.500    1.750    0.500 
#    0.000    3.750    0.000    3.750    0.000    0.000 
#    0.000    0.000    0.000    0.000    0.000    0.000 
#
# Total GULP energy -793087.595008 kJ/mol
# GULP energy per Si atom -12391.993672 kJ/mol
# Density = 1.938613 g / cm^3
# Si number density = 19.430352 Si / 1000 Ang^3
#
#
#
# Elastic Constant Matrix: (Units=GPa)
#
#
# Indices 1 2 3 4 5 6 
#
# 1 116.8888 30.7025 39.7042 0.0000 0.0000 0.0000
# 2 30.7025 34.8040 16.0135 0.0000 0.0000 0.0000
# 3 39.7042 16.0135 81.8740 0.0000 0.0000 0.0000
# 4 0.0000 0.0000 0.0000 14.9452 0.0000 0.0000
# 5 0.0000 0.0000 0.0000 0.0000 19.7122 0.0000
# 6 0.0000 0.0000 0.0000 0.0000 0.0000 25.1510
#
#
#
# Elastic Compliance Matrix: (Units=1/GPa)
#
#
# Indices 1 2 3 4 5 6 
#
# 1 0.012342 -0.008938 -0.004237 0.000000 0.000000 0.000000
# 2 -0.008938 0.038047 -0.003107 0.000000 0.000000 0.000000
# 3 -0.004237 -0.003107 0.014876 0.000000 0.000000 0.000000
# 4 0.000000 0.000000 0.000000 0.066911 0.000000 0.000000
# 5 0.000000 0.000000 0.000000 0.000000 0.050730 0.000000
# 6 0.000000 0.000000 0.000000 0.000000 0.000000 0.039760
#
#
# Mechanical properties :
#
#
# Convention : Reuss Voigt Hill
#
# Bulk Modulus (GPa) = 30.58026 45.15636 37.86831
# Shear Modulus (GPa) = 18.78775 21.77143 20.27959
#
# Velocity S-wave (km/s) = 3.11292 3.35100 3.23415
# Velocity P-wave (km/s) = 5.35658 6.18569 5.78601
#
# Compressibility (1/GPa) = 0.03270083
#
# Stress axis : x y z
#
# Youngs Moduli (GPa) = 81.02357 26.28349 67.22112
#
# Poissons Ratio (x) = 0.23493 0.28482
# Poissons Ratio (y) = 0.72420 0.20885
# Poissons Ratio (z) = 0.34330 0.08166
#
# Static dielectric constant tensor:
#      x y z
#    x 3.673870 0.000000 0.000000 
#    y 0.000000 3.060260 0.000000 
#    z 0.000000 0.000000 3.504240 
# 
# 
# High freq. dielectric constant tensor:
#      x y z
#    x 1.762860 0.000000 0.000000 
#    y 0.000000 1.704370 0.000000 
#    z 0.000000 0.000000 1.744920 
# 
# From -- ./inp_files/15781.got.cif
#   From: 2010.03.12/outbox.cif.g09.slc.cpg/sg62_8_cif.got.tgz:15781.got - 2010.04.10 19:12:36.
