data_PCOD8250364
_publ_section_title
;
Structure prediction by ZEFSAII (Michael W. Deem and Ramdas Pophale) SiO2 
 PCOD8250364
Probable space group: P N M A
;
_chemical_formula_sum "Si O2"
_cell_formula_units_Z 48
_cell_length_a 20.430151
_cell_length_b 9.196373
_cell_length_c 14.510024
_cell_angle_alpha 90.000000
_cell_angle_beta 90.000000
_cell_angle_gamma 90.000000
_cell_volume 2726.191033
_symmetry_space_group_name_H-M "P N M A"
_symmetry_group_IT_number 62
_symmetry_cell_setting 'orthorhombic'
loop_
_space_group_symop_operation_xyz
x,y,z
1/2-x,-y,1/2+z
1/2+x,1/2-y,1/2-z
-x,1/2+y,-z
-x,-y,-z
1/2+x,y,1/2-z
1/2-x,1/2+y,1/2+z
x,1/2-y,z
loop_
_atom_site_type_symbol
_atom_site_label
_atom_site_fract_x
_atom_site_fract_y
_atom_site_fract_z
Si Si1 0.303248 0.077772 0.788877
Si Si2 0.682006 0.422849 0.832810
Si Si3 0.073796 0.921360 0.174077
Si Si4 0.427467 0.578940 0.303775
Si Si5 0.623025 0.420818 0.501436
Si Si6 0.225209 0.920768 0.492398
O O1 0.298774 0.250000 0.792485
O O2 0.244384 0.019993 0.725161
O O3 0.372098 0.023699 0.746972
O O4 0.295987 0.017790 0.892448
O O5 0.683475 0.250000 0.845272
O O6 0.616916 0.478876 0.780221
O O7 0.681593 0.496352 0.932683
O O8 0.080037 0.750000 0.157142
O O9 0.002784 0.963813 0.214485
O O10 0.082292 0.998511 0.076705
O O11 0.417395 0.750000 0.309253
O O12 0.402220 0.515933 0.401121
O O13 0.609719 0.250000 0.492608
O O14 0.699151 0.457936 0.490763
O O15 0.211683 0.750000 0.500421
#
# Coordination Sequence:
#
# PCOD8250364 Si02
#       6
#     8   8   8   8   8   8
#     4   9  17  31  51  70  95 130 164 195 234 289
#     4  10  18  33  53  72  96 129 166 201 236 284
#     4  10  19  32  51  75  98 127 167 203 236 286
#     4   9  18  32  51  73 100 132 162 195 244 297
#     4  10  18  30  49  73 101 129 155 197 254 298
#     4  10  19  32  50  73  98 127 163 202 244 288
#
# _framework density 17.606984000000001
#
# number of rings (size 3 to 8) (size 9 to 14) (size 15 to 20)
#    0.000    2.333    3.333    0.500    0.000    0.000 
#    0.000    4.167    0.000    0.000    0.000    0.000 
#    0.000    0.000    0.000    0.000    0.000    0.000 
#
# Total GULP energy -595188.369641 kJ/mol
# GULP energy per Si atom -12399.757701 kJ/mol
# Density = 1.756691 g / cm^3
# Si number density = 17.606984 Si / 1000 Ang^3
#
#
#
# Elastic Constant Matrix: (Units=GPa)
#
#
# Indices 1 2 3 4 5 6 
#
# 1 102.7718 19.6249 39.4463 0.0000 0.0000 0.0000
# 2 19.6249 19.8500 19.4157 0.0000 0.0000 0.0000
# 3 39.4463 19.4157 113.8923 0.0000 0.0000 0.0000
# 4 0.0000 0.0000 0.0000 27.9592 0.0000 0.0000
# 5 0.0000 0.0000 0.0000 0.0000 34.4298 0.0000
# 6 0.0000 0.0000 0.0000 0.0000 0.0000 13.6173
#
#
#
# Elastic Compliance Matrix: (Units=1/GPa)
#
#
# Indices 1 2 3 4 5 6 
#
# 1 0.012651 -0.009867 -0.002699 0.000000 0.000000 0.000000
# 2 -0.009867 0.068154 -0.008201 0.000000 0.000000 0.000000
# 3 -0.002699 -0.008201 0.011113 0.000000 0.000000 0.000000
# 4 0.000000 0.000000 0.000000 0.035766 0.000000 0.000000
# 5 0.000000 0.000000 0.000000 0.000000 0.029045 0.000000
# 6 0.000000 0.000000 0.000000 0.000000 0.000000 0.073436
#
#
# Mechanical properties :
#
#
# Convention : Reuss Voigt Hill
#
# Bulk Modulus (GPa) = 19.84781 43.72090 31.78436
# Shear Modulus (GPa) = 17.33136 25.73641 21.53388
#
# Velocity S-wave (km/s) = 3.14083 3.82739 3.50098
# Velocity P-wave (km/s) = 4.94472 6.66463 5.86803
#
# Compressibility (1/GPa) = 0.05038338
#
# Stress axis : x y z
#
# Youngs Moduli (GPa) = 79.04806 14.67256 89.98244
#
# Poissons Ratio (x) = 0.14477 0.24290
# Poissons Ratio (y) = 0.77994 0.73797
# Poissons Ratio (z) = 0.21339 0.12033
#
# Static dielectric constant tensor:
#      x y z
#    x 3.419250 0.000000 0.000000 
#    y 0.000000 2.850050 0.000000 
#    z 0.000000 0.000000 3.382460 
# 
# 
# High freq. dielectric constant tensor:
#      x y z
#    x 1.683830 0.000000 0.000000 
#    y 0.000000 1.639490 0.000000 
#    z 0.000000 0.000000 1.685490 
# 
# From -- ./inp_files/14112.got.cif
#   From: 2010.03.12/outbox.cif.g09.slc.cpg/sg62_8_cif.got.tgz:14112.got - 2010.04.10 19:12:36.
