data_PCOD8250573
_publ_section_title
;
Structure prediction by ZEFSAII (Michael W. Deem and Ramdas Pophale) SiO2 
 PCOD8250573
Probable space group: P N M A
;
_chemical_formula_sum "Si O2"
_cell_formula_units_Z 64
_cell_length_a 18.763422
_cell_length_b 9.515136
_cell_length_c 19.032850
_cell_angle_alpha 90.000000
_cell_angle_beta 90.000000
_cell_angle_gamma 90.000000
_cell_volume 3398.058655
_symmetry_space_group_name_H-M "P N M A"
_symmetry_group_IT_number 62
_symmetry_cell_setting 'orthorhombic'
loop_
_space_group_symop_operation_xyz
x,y,z
1/2-x,-y,1/2+z
1/2+x,1/2-y,1/2-z
-x,1/2+y,-z
-x,-y,-z
1/2+x,y,1/2-z
1/2-x,1/2+y,1/2+z
x,1/2-y,z
loop_
_atom_site_type_symbol
_atom_site_label
_atom_site_fract_x
_atom_site_fract_y
_atom_site_fract_z
Si Si1 0.534767 0.590077 0.842527
Si Si2 0.591507 0.590931 0.108494
Si Si3 0.638153 0.415167 0.325168
Si Si4 0.219991 0.590166 0.289657
Si Si5 0.860132 0.083200 0.458798
Si Si6 0.354441 0.583586 0.379579
Si Si7 0.975207 0.090034 0.185187
Si Si8 0.797092 0.584112 0.971720
O O1 0.518666 0.750000 0.864632
O O2 0.462058 0.506149 0.849658
O O3 0.596637 0.524923 0.891573
O O4 0.559776 0.580411 0.762276
O O5 0.562805 0.750000 0.111238
O O6 0.668612 0.579446 0.143421
O O7 0.597785 0.537136 0.028622
O O8 0.648742 0.250000 0.311787
O O9 0.693521 0.492544 0.273707
O O10 0.557047 0.462333 0.310904
O O11 0.654119 0.457246 0.405597
O O12 0.222785 0.750000 0.261607
O O13 0.297134 0.542496 0.319251
O O14 0.853632 0.250000 0.455049
O O15 0.781137 0.017236 0.458977
O O16 0.366707 0.750000 0.380783
O O17 0.429810 0.509381 0.365244
O O18 0.329861 0.525916 0.455757
O O19 0.972819 0.250000 0.156724
O O20 0.789733 0.750000 0.979312
#
# Coordination Sequence:
#
# PCOD8250573 Si02
#       8
#     8   8   8   8   8   8   8   8
#     4  10  20  33  51  79 114 145 177 218 264 321
#     4  10  18  32  55  78 105 142 179 219 266 319
#     4  10  21  37  59  82 109 144 183 223 266 322
#     4  10  20  35  56  81 110 139 175 225 273 319
#     4   9  17  31  52  78 107 141 180 221 265 319
#     4  10  21  38  59  81 105 140 185 228 268 319
#     4  10  22  37  52  81 115 142 179 226 271 320
#     4   9  18  35  58  80 101 137 188 227 263 317
#
# _framework density 18.834282999999999
#
# number of rings (size 3 to 8) (size 9 to 14) (size 15 to 20)
#    0.000    2.250    2.500    0.375    1.750    2.000 
#    0.000    0.625    0.000    1.500    0.000    0.000 
#    0.000    0.000    0.000    0.000    0.000    0.000 
#
# Total GULP energy -793572.190251 kJ/mol
# GULP energy per Si atom -12399.565473 kJ/mol
# Density = 1.879142 g / cm^3
# Si number density = 18.834283 Si / 1000 Ang^3
#
#
#
# Elastic Constant Matrix: (Units=GPa)
#
#
# Indices 1 2 3 4 5 6 
#
# 1 80.7055 33.3075 43.5138 0.0000 0.0000 0.0000
# 2 33.3075 44.1391 33.9816 0.0000 0.0000 0.0000
# 3 43.5138 33.9816 102.7471 0.0000 0.0000 0.0000
# 4 0.0000 0.0000 0.0000 20.2343 0.0000 0.0000
# 5 0.0000 0.0000 0.0000 0.0000 30.1181 0.0000
# 6 0.0000 0.0000 0.0000 0.0000 0.0000 24.0012
#
#
#
# Elastic Compliance Matrix: (Units=1/GPa)
#
#
# Indices 1 2 3 4 5 6 
#
# 1 0.019455 -0.011186 -0.004540 0.000000 0.000000 0.000000
# 2 -0.011186 0.036826 -0.007442 0.000000 0.000000 0.000000
# 3 -0.004540 -0.007442 0.014117 0.000000 0.000000 0.000000
# 4 0.000000 0.000000 0.000000 0.049421 0.000000 0.000000
# 5 0.000000 0.000000 0.000000 0.000000 0.033203 0.000000
# 6 0.000000 0.000000 0.000000 0.000000 0.000000 0.041665
#
#
# Mechanical properties :
#
#
# Convention : Reuss Voigt Hill
#
# Bulk Modulus (GPa) = 41.55920 49.91084 45.73502
# Shear Modulus (GPa) = 20.07697 22.65666 21.36682
#
# Velocity S-wave (km/s) = 3.26848 3.47212 3.37183
# Velocity P-wave (km/s) = 6.02972 6.52929 6.28447
#
# Compressibility (1/GPa) = 0.02406206
#
# Stress axis : x y z
#
# Youngs Moduli (GPa) = 51.40130 27.15470 70.83837
#
# Poissons Ratio (x) = 0.30374 0.32159
# Poissons Ratio (y) = 0.57495 0.52720
# Poissons Ratio (z) = 0.23335 0.20209
#
# Static dielectric constant tensor:
#      x y z
#    x 3.445020 0.000000 0.000000 
#    y 0.000000 3.116410 0.000000 
#    z 0.000000 0.000000 3.535660 
# 
# 
# High freq. dielectric constant tensor:
#      x y z
#    x 1.734170 0.000000 0.000000 
#    y 0.000000 1.694030 0.000000 
#    z 0.000000 0.000000 1.740120 
# 
# From -- ./inp_files/24760.got.cif
#   From: 2010.03.12/outbox.cif.g09.slc.cpg/sg62_13_cif.got.tgz:24760.got - 2010.04.10 19:12:36.
