data_PCOD8250591
_publ_section_title
;
Structure prediction by ZEFSAII (Michael W. Deem and Ramdas Pophale) SiO2 
 PCOD8250591
Probable space group: P N M A
;
_chemical_formula_sum "Si O2"
_cell_formula_units_Z 64
_cell_length_a 24.323611
_cell_length_b 8.482573
_cell_length_c 14.789242
_cell_angle_alpha 90.000000
_cell_angle_beta 90.000000
_cell_angle_gamma 90.000000
_cell_volume 3051.417064
_symmetry_space_group_name_H-M "P N M A"
_symmetry_group_IT_number 62
_symmetry_cell_setting 'orthorhombic'
loop_
_space_group_symop_operation_xyz
x,y,z
1/2-x,-y,1/2+z
1/2+x,1/2-y,1/2-z
-x,1/2+y,-z
-x,-y,-z
1/2+x,y,1/2-z
1/2-x,1/2+y,1/2+z
x,1/2-y,z
loop_
_atom_site_type_symbol
_atom_site_label
_atom_site_fract_x
_atom_site_fract_y
_atom_site_fract_z
Si Si1 0.435767 0.067813 0.264853
Si Si2 0.374199 0.434893 0.898632
Si Si3 0.119777 0.066544 0.598574
Si Si4 0.147989 0.063518 0.097685
Si Si5 0.846838 0.565814 0.105901
Si Si6 0.763539 0.933734 0.593006
Si Si7 0.732148 0.931776 0.898418
Si Si8 0.061189 0.435179 0.241077
O O1 0.422833 0.250000 0.281332
O O2 0.498882 0.027368 0.286300
O O3 0.423786 0.023122 0.161187
O O4 0.399083 0.965177 0.331977
O O5 0.365390 0.250000 0.905796
O O6 0.319673 0.518478 0.855024
O O7 0.425095 0.475673 0.834078
O O8 0.386851 0.502463 0.997706
O O9 0.106853 0.250000 0.600887
O O10 0.181464 0.035962 0.638405
O O11 0.143275 0.250000 0.093343
O O12 0.207943 0.016430 0.139987
O O13 0.100002 0.995498 0.161359
O O14 0.141010 0.998790 0.995265
O O15 0.834145 0.750000 0.104614
O O16 0.792694 0.475688 0.146615
O O17 0.765429 0.750000 0.567440
O O18 0.763693 0.045905 0.505759
O O19 0.719636 0.750000 0.875485
O O20 0.070556 0.250000 0.256057
#
# Coordination Sequence:
#
# PCOD8250591 Si02
#       8
#     8   8   8   8   8   8   8   8
#     4  11  24  40  58  82 113 151 196 243 287 339
#     4  11  22  38  60  87 118 149 187 236 291 345
#     4  11  22  38  60  84 114 151 190 234 287 346
#     4   8  17  35  60  86 114 149 184 228 281 333
#     4  10  20  37  60  86 117 151 189 235 288 341
#     4  10  18  32  56  86 118 150 187 228 280 344
#     4   9  16  31  56  86 118 147 182 229 284 342
#     4  10  22  41  60  81 112 152 199 240 282 342
#
# _framework density 20.973862
#
# number of rings (size 3 to 8) (size 9 to 14) (size 15 to 20)
#    0.000    2.000    0.000    6.750    0.000    3.000 
#    0.000    7.500    0.000    0.000    0.000    0.000 
#    0.000    0.000    0.000    0.000    0.000    0.000 
#
# Total GULP energy -793463.407651 kJ/mol
# GULP energy per Si atom -12397.865745 kJ/mol
# Density = 2.092612 g / cm^3
# Si number density = 20.973862 Si / 1000 Ang^3
#
#
#
# Elastic Constant Matrix: (Units=GPa)
#
#
# Indices 1 2 3 4 5 6 
#
# 1 79.0951 28.2526 10.9265 0.0000 0.0000 0.0000
# 2 28.2526 64.9037 7.9798 0.0000 0.0000 0.0000
# 3 10.9265 7.9798 47.0664 0.0000 0.0000 0.0000
# 4 0.0000 0.0000 0.0000 22.7105 0.0000 0.0000
# 5 0.0000 0.0000 0.0000 0.0000 33.7295 0.0000
# 6 0.0000 0.0000 0.0000 0.0000 0.0000 29.2309
#
#
#
# Elastic Compliance Matrix: (Units=1/GPa)
#
#
# Indices 1 2 3 4 5 6 
#
# 1 0.015246 -0.006333 -0.002466 0.000000 0.000000 0.000000
# 2 -0.006333 0.018366 -0.001644 0.000000 0.000000 0.000000
# 3 -0.002466 -0.001644 0.022098 0.000000 0.000000 0.000000
# 4 0.000000 0.000000 0.000000 0.044032 0.000000 0.000000
# 5 0.000000 0.000000 0.000000 0.000000 0.029648 0.000000
# 6 0.000000 0.000000 0.000000 0.000000 0.000000 0.034210
#
#
# Mechanical properties :
#
#
# Convention : Reuss Voigt Hill
#
# Bulk Modulus (GPa) = 28.71515 31.70922 30.21219
# Shear Modulus (GPa) = 25.49802 26.72796 26.11299
#
# Velocity S-wave (km/s) = 3.49048 3.57367 3.53232
# Velocity P-wave (km/s) = 5.47405 5.67269 5.57426
#
# Compressibility (1/GPa) = 0.03482482
#
# Stress axis : x y z
#
# Youngs Moduli (GPa) = 65.59151 54.44715 45.25378
#
# Poissons Ratio (x) = 0.34483 0.11158
# Poissons Ratio (y) = 0.41542 0.07438
# Poissons Ratio (z) = 0.16172 0.08949
#
# Static dielectric constant tensor:
#      x y z
#    x 4.180830 0.000000 0.000000 
#    y 0.000000 3.576540 0.000000 
#    z 0.000000 0.000000 3.679120 
# 
# 
# High freq. dielectric constant tensor:
#      x y z
#    x 1.828050 0.000000 0.000000 
#    y 0.000000 1.813910 0.000000 
#    z 0.000000 0.000000 1.804440 
# 
# From -- ./inp_files/21005.got.cif
#   From: 2010.03.12/outbox.cif.g09.slc.cpg/sg62_11_cif.got.tgz:21005.got - 2010.04.10 19:12:36.
