data_PCOD8250620
_publ_section_title
;
Structure prediction by ZEFSAII (Michael W. Deem and Ramdas Pophale) SiO2 
 PCOD8250620
Probable space group: P N M A
;
_chemical_formula_sum "Si O2"
_cell_formula_units_Z 40
_cell_length_a 18.393932
_cell_length_b 8.343251
_cell_length_c 13.625032
_cell_angle_alpha 90.000000
_cell_angle_beta 90.000000
_cell_angle_gamma 90.000000
_cell_volume 2090.968146
_symmetry_space_group_name_H-M "P N M A"
_symmetry_group_IT_number 62
_symmetry_cell_setting 'orthorhombic'
loop_
_space_group_symop_operation_xyz
x,y,z
1/2-x,-y,1/2+z
1/2+x,1/2-y,1/2-z
-x,1/2+y,-z
-x,-y,-z
1/2+x,y,1/2-z
1/2-x,1/2+y,1/2+z
x,1/2-y,z
loop_
_atom_site_type_symbol
_atom_site_label
_atom_site_fract_x
_atom_site_fract_y
_atom_site_fract_z
Si Si1 0.792375 0.436795 0.115304
Si Si2 0.216709 0.938369 0.100810
Si Si3 0.636579 0.436759 0.801562
Si Si4 0.493280 0.564532 0.890752
Si Si5 0.350103 0.436375 0.798540
O O1 0.811562 0.250000 0.124007
O O2 0.844868 0.535684 0.187210
O O3 0.707298 0.461960 0.138752
O O4 0.806374 0.506229 0.005390
O O5 0.224945 0.750000 0.090282
O O6 0.295796 0.002897 0.134359
O O7 0.157056 0.984580 0.183228
O O8 0.620534 0.250000 0.819698
O O9 0.567392 0.539924 0.831876
O O10 0.472622 0.750000 0.893731
O O11 0.430955 0.469529 0.833711
O O12 0.500000 0.500000 0.000000
O O13 0.330544 0.250000 0.811791
#
# Coordination Sequence:
#
# PCOD8250620 Si02
#       5
#     8   8   8   8   8
#     4  10  18  33  56  82 109 142 182 226 269 318
#     4   8  17  33  55  78 105 139 178 220 265 312
#     4  10  20  36  55  80 111 144 180 223 270 322
#     4  12  24  38  56  81 109 141 177 221 274 329
#     4  10  20  36  55  79 109 144 182 224 270 321
#
# _framework density 19.129895000000001
#
# number of rings (size 3 to 8) (size 9 to 14) (size 15 to 20)
#    0.000    2.000    0.000    6.000    0.000    1.600 
#    0.000   12.000    0.000    0.000    0.000    0.000 
#    0.000    0.000    0.000    0.000    0.000    0.000 
#
# Total GULP energy -496020.604764 kJ/mol
# GULP energy per Si atom -12400.515119 kJ/mol
# Density = 1.908635 g / cm^3
# Si number density = 19.129895 Si / 1000 Ang^3
#
#
#
# Elastic Constant Matrix: (Units=GPa)
#
#
# Indices 1 2 3 4 5 6 
#
# 1 95.0807 -1.6329 54.3106 0.0000 0.0000 0.0000
# 2 -1.6329 49.5000 13.5854 0.0000 0.0000 0.0000
# 3 54.3106 13.5854 159.3385 0.0000 0.0000 0.0000
# 4 0.0000 0.0000 0.0000 27.4060 0.0000 0.0000
# 5 0.0000 0.0000 0.0000 0.0000 23.0545 0.0000
# 6 0.0000 0.0000 0.0000 0.0000 0.0000 29.9263
#
#
#
# Elastic Compliance Matrix: (Units=1/GPa)
#
#
# Indices 1 2 3 4 5 6 
#
# 1 0.013200 0.001710 -0.004645 0.000000 0.000000 0.000000
# 2 0.001710 0.020908 -0.002366 0.000000 0.000000 0.000000
# 3 -0.004645 -0.002366 0.008061 0.000000 0.000000 0.000000
# 4 0.000000 0.000000 0.000000 0.036488 0.000000 0.000000
# 5 0.000000 0.000000 0.000000 0.000000 0.043375 0.000000
# 6 0.000000 0.000000 0.000000 0.000000 0.000000 0.033415
#
#
# Mechanical properties :
#
#
# Convention : Reuss Voigt Hill
#
# Bulk Modulus (GPa) = 31.67769 48.49393 40.08581
# Shear Modulus (GPa) = 28.31721 31.92112 30.11916
#
# Velocity S-wave (km/s) = 3.85159 4.08934 3.97225
# Velocity P-wave (km/s) = 6.03116 6.90665 6.48370
#
# Compressibility (1/GPa) = 0.03156796
#
# Stress axis : x y z
#
# Youngs Moduli (GPa) = 75.75732 47.82931 124.05549
#
# Poissons Ratio (x) = -0.08180 0.57625
# Poissons Ratio (y) = -0.12957 0.29346
# Poissons Ratio (z) = 0.35190 0.11314
#
# Static dielectric constant tensor:
#      x y z
#    x 3.213820 0.000000 0.000000 
#    y 0.000000 3.435730 0.000000 
#    z 0.000000 0.000000 3.853540 
# 
# 
# High freq. dielectric constant tensor:
#      x y z
#    x 1.726580 0.000000 0.000000 
#    y 0.000000 1.738450 0.000000 
#    z 0.000000 0.000000 1.756570 
# 
# From -- ./inp_files/13872.got.cif
#   From: 2010.03.12/outbox.cif.g09.slc.cpg/sg62_7_cif.got.tgz:13872.got - 2010.04.10 19:12:36.
