data_PCOD8250019
_publ_section_title
;
Structure prediction by ZEFSAII (Michael W. Deem and Ramdas Pophale) SiO2 
 PCOD8250019
Probable space group: P N M A
;
_chemical_formula_sum "Si O2"
_cell_formula_units_Z 64
_cell_length_a 22.858024
_cell_length_b 9.381978
_cell_length_c 19.057611
_cell_angle_alpha 90.000000
_cell_angle_beta 90.000000
_cell_angle_gamma 90.000000
_cell_volume 4086.970967
_symmetry_space_group_name_H-M "P N M A"
_symmetry_group_IT_number 62
_symmetry_cell_setting 'orthorhombic'
loop_
_space_group_symop_operation_xyz
x,y,z
1/2-x,-y,1/2+z
1/2+x,1/2-y,1/2-z
-x,1/2+y,-z
-x,-y,-z
1/2+x,y,1/2-z
1/2-x,1/2+y,1/2+z
x,1/2-y,z
loop_
_atom_site_type_symbol
_atom_site_label
_atom_site_fract_x
_atom_site_fract_y
_atom_site_fract_z
Si Si1 0.271806 0.918867 0.348083
Si Si2 0.571117 0.082875 0.142507
Si Si3 0.773925 0.413990 0.865831
Si Si4 0.254555 0.915575 0.501880
Si Si5 0.843084 0.416312 0.729652
Si Si6 0.118259 0.915709 0.490209
Si Si7 0.341475 0.917662 0.217940
Si Si8 0.435012 0.085537 0.137340
O O1 0.267217 0.750000 0.344592
O O2 0.281473 0.970974 0.427833
O O3 0.209465 0.974028 0.319549
O O4 0.324666 0.967892 0.297216
O O5 0.585230 0.250000 0.140630
O O6 0.502618 0.053196 0.148873
O O7 0.600455 0.010359 0.210649
O O8 0.595388 0.012127 0.072329
O O9 0.771367 0.250000 0.887433
O O10 0.787160 0.503264 0.935581
O O11 0.826157 0.441622 0.810765
O O12 0.712100 0.460801 0.832579
O O13 0.267338 0.750000 0.512195
O O14 0.185918 0.948472 0.503673
O O15 0.856304 0.250000 0.715564
O O16 0.108427 0.750000 0.471036
O O17 0.082614 0.961946 0.559120
O O18 0.353254 0.750000 0.214938
O O19 0.399882 0.997557 0.195452
O O20 0.419108 0.250000 0.148291
#
# Coordination Sequence:
#
# PCOD8250019 Si02
#       8
#     8   8   8   8   8   8   8   8
#     4   8  15  29  47  67  90 118 153 189 228 272
#     4  11  22  32  45  67  94 123 160 203 229 256
#     4   9  18  30  47  70  95 119 150 194 234 270
#     4  10  17  28  49  70  93 127 156 182 225 281
#     4   9  17  33  50  64  90 126 156 187 231 279
#     4  10  19  32  47  63  92 133 164 184 220 276
#     4   9  17  30  48  67  88 118 156 194 227 268
#     4  10  21  34  45  64  95 126 158 194 232 269
#
# _framework density 15.659519
#
# number of rings (size 3 to 8) (size 9 to 14) (size 15 to 20)
#    0.000    2.500    2.500    2.250    0.000    2.500 
#    0.000    2.500    0.000    0.000    0.000    0.875 
#    0.000    0.000    0.000    0.000    0.000    0.000 
#
# Total GULP energy -793503.140288 kJ/mol
# GULP energy per Si atom -12398.486567 kJ/mol
# Density = 1.562388 g / cm^3
# Si number density = 15.659519 Si / 1000 Ang^3
#
#
#
# Elastic Constant Matrix: (Units=GPa)
#
#
# Indices 1 2 3 4 5 6 
#
# 1 52.5232 34.4969 44.7329 0.0000 0.0000 0.0000
# 2 34.4969 55.1683 51.5826 0.0000 0.0000 0.0000
# 3 44.7329 51.5826 126.6789 0.0000 0.0000 0.0000
# 4 0.0000 0.0000 0.0000 29.3699 0.0000 0.0000
# 5 0.0000 0.0000 0.0000 0.0000 17.7897 0.0000
# 6 0.0000 0.0000 0.0000 0.0000 0.0000 24.2918
#
#
#
# Elastic Compliance Matrix: (Units=1/GPa)
#
#
# Indices 1 2 3 4 5 6 
#
# 1 0.034522 -0.016452 -0.005491 0.000000 0.000000 0.000000
# 2 -0.016452 0.037111 -0.009302 0.000000 0.000000 0.000000
# 3 -0.005491 -0.009302 0.013621 0.000000 0.000000 0.000000
# 4 0.000000 0.000000 0.000000 0.034048 0.000000 0.000000
# 5 0.000000 0.000000 0.000000 0.000000 0.056212 0.000000
# 6 0.000000 0.000000 0.000000 0.000000 0.000000 0.041166
#
#
# Mechanical properties :
#
#
# Convention : Reuss Voigt Hill
#
# Bulk Modulus (GPa) = 43.93054 55.11056 49.52055
# Shear Modulus (GPa) = 17.43631 21.19414 19.31522
#
# Velocity S-wave (km/s) = 3.34048 3.68290 3.51586
# Velocity P-wave (km/s) = 6.55690 7.30441 6.94072
#
# Compressibility (1/GPa) = 0.02276321
#
# Stress axis : x y z
#
# Youngs Moduli (GPa) = 28.96737 26.94609 73.41844
#
# Poissons Ratio (x) = 0.44332 0.40314
# Poissons Ratio (y) = 0.47658 0.68292
# Poissons Ratio (z) = 0.15906 0.25064
#
# Static dielectric constant tensor:
#      x y z
#    x 2.833880 0.000000 0.000000 
#    y 0.000000 2.859820 0.000000 
#    z 0.000000 0.000000 3.161200 
# 
# 
# High freq. dielectric constant tensor:
#      x y z
#    x 1.573780 0.000000 0.000000 
#    y 0.000000 1.591390 0.000000 
#    z 0.000000 0.000000 1.601830 
# 
# From -- ./inp_files/27916.got.cif
#   From: 2010.03.12/outbox.cif.g09.slc.cpg/sg62_14_cif.got.tgz:27916.got - 2010.04.10 19:12:36.
