data_PCOD8250452
_publ_section_title
;
Structure prediction by ZEFSAII (Michael W. Deem and Ramdas Pophale) SiO2 
 PCOD8250452
Probable space group: P N M A
;
_chemical_formula_sum "Si O2"
_cell_formula_units_Z 64
_cell_length_a 21.693203
_cell_length_b 9.247700
_cell_length_c 16.952416
_cell_angle_alpha 90.000000
_cell_angle_beta 90.000000
_cell_angle_gamma 90.000000
_cell_volume 3400.862035
_symmetry_space_group_name_H-M "P N M A"
_symmetry_group_IT_number 62
_symmetry_cell_setting 'orthorhombic'
loop_
_space_group_symop_operation_xyz
x,y,z
1/2-x,-y,1/2+z
1/2+x,1/2-y,1/2-z
-x,1/2+y,-z
-x,-y,-z
1/2+x,y,1/2-z
1/2-x,1/2+y,1/2+z
x,1/2-y,z
loop_
_atom_site_type_symbol
_atom_site_label
_atom_site_fract_x
_atom_site_fract_y
_atom_site_fract_z
Si Si1 0.106311 0.921358 0.272055
Si Si2 0.820208 0.422269 0.578841
Si Si3 0.285862 0.089548 0.182810
Si Si4 0.360727 0.914939 0.295467
Si Si5 0.683415 0.083073 0.536848
Si Si6 0.027850 0.419716 0.684976
Si Si7 0.673622 0.578278 0.383516
Si Si8 0.101534 0.910049 0.565816
O O1 0.104191 0.750000 0.276649
O O2 0.156441 0.979004 0.335797
O O3 0.125798 0.970429 0.184442
O O4 0.038626 0.983816 0.290954
O O5 0.818598 0.250000 0.576379
O O6 0.751236 0.478268 0.560401
O O7 0.869481 0.478455 0.513791
O O8 0.258348 0.250000 0.198851
O O9 0.345603 0.102749 0.129954
O O10 0.304969 0.014502 0.264674
O O11 0.239531 0.987452 0.136549
O O12 0.343825 0.750000 0.273233
O O13 0.363353 0.933702 0.389709
O O14 0.425954 0.958506 0.256836
O O15 0.688567 0.250000 0.509682
O O16 0.653141 0.988966 0.467037
O O17 0.024845 0.250000 0.670100
O O18 0.047832 0.489734 0.601623
O O19 0.678527 0.750000 0.390449
O O20 0.074350 0.750000 0.548670
#
# Coordination Sequence:
#
# PCOD8250452 Si02
#       8
#     8   8   8   8   8   8   8   8
#     4   9  19  34  52  73 101 139 175 210 254 308
#     4   9  16  30  51  73 100 135 169 199 250 319
#     4  10  18  31  51  76 106 136 166 207 262 315
#     4   9  18  32  54  78 101 135 176 215 254 309
#     4  10  19  34  53  75 103 135 172 212 265 320
#     4   9  18  34  53  75 102 134 176 216 249 294
#     4  11  21  33  51  75 103 135 175 218 263 311
#     4   9  17  30  50  75 101 134 167 201 250 308
#
# _framework density 18.818757999999999
#
# number of rings (size 3 to 8) (size 9 to 14) (size 15 to 20)
#    0.000    2.500    1.250    1.500    0.000    3.500 
#    0.000    1.875    0.000    2.250    0.000    0.000 
#    0.000    0.000    0.000    0.000    0.000    0.000 
#
# Total GULP energy -793379.685063 kJ/mol
# GULP energy per Si atom -12396.557579 kJ/mol
# Density = 1.877593 g / cm^3
# Si number density = 18.818758 Si / 1000 Ang^3
#
#
#
# Elastic Constant Matrix: (Units=GPa)
#
#
# Indices 1 2 3 4 5 6 
#
# 1 52.7732 11.5906 25.9998 0.0000 0.0000 0.0000
# 2 11.5906 51.0447 28.7436 0.0000 0.0000 0.0000
# 3 25.9998 28.7436 116.1625 0.0000 0.0000 0.0000
# 4 0.0000 0.0000 0.0000 26.9140 0.0000 0.0000
# 5 0.0000 0.0000 0.0000 0.0000 21.0003 0.0000
# 6 0.0000 0.0000 0.0000 0.0000 0.0000 16.3516
#
#
#
# Elastic Compliance Matrix: (Units=1/GPa)
#
#
# Indices 1 2 3 4 5 6 
#
# 1 0.021576 -0.002533 -0.004202 0.000000 0.000000 0.000000
# 2 -0.002533 0.023060 -0.005139 0.000000 0.000000 0.000000
# 3 -0.004202 -0.005139 0.010821 0.000000 0.000000 0.000000
# 4 0.000000 0.000000 0.000000 0.037155 0.000000 0.000000
# 5 0.000000 0.000000 0.000000 0.000000 0.047618 0.000000
# 6 0.000000 0.000000 0.000000 0.000000 0.000000 0.061156
#
#
# Mechanical properties :
#
#
# Convention : Reuss Voigt Hill
#
# Bulk Modulus (GPa) = 31.53807 39.18316 35.36061
# Shear Modulus (GPa) = 21.21309 23.09627 22.15468
#
# Velocity S-wave (km/s) = 3.36107 3.50709 3.43485
# Velocity P-wave (km/s) = 5.64425 6.10459 5.87893
#
# Compressibility (1/GPa) = 0.03170771
#
# Stress axis : x y z
#
# Youngs Moduli (GPa) = 46.34841 43.36590 92.41422
#
# Poissons Ratio (x) = 0.10984 0.38836
# Poissons Ratio (y) = 0.11739 0.47492
# Poissons Ratio (z) = 0.19478 0.22286
#
# Static dielectric constant tensor:
#      x y z
#    x 3.390650 0.000000 0.000000 
#    y 0.000000 3.419680 0.000000 
#    z 0.000000 0.000000 3.637000 
# 
# 
# High freq. dielectric constant tensor:
#      x y z
#    x 1.711620 0.000000 0.000000 
#    y 0.000000 1.702200 0.000000 
#    z 0.000000 0.000000 1.738910 
# 
# From -- ./inp_files/20859.got.cif
#   From: 2010.03.12/outbox.cif.g09.slc.cpg/sg62_11_cif.got.tgz:20859.got - 2010.04.10 19:12:36.
