data_PCOD8250539
_publ_section_title
;
Structure prediction by ZEFSAII (Michael W. Deem and Ramdas Pophale) SiO2 
 PCOD8250539
Probable space group: P N M A
;
_chemical_formula_sum "Si O2"
_cell_formula_units_Z 48
_cell_length_a 9.905088
_cell_length_b 13.059236
_cell_length_c 22.279952
_cell_angle_alpha 90.000000
_cell_angle_beta 90.000000
_cell_angle_gamma 90.000000
_cell_volume 2881.975997
_symmetry_space_group_name_H-M "P N M A"
_symmetry_group_IT_number 62
_symmetry_cell_setting 'orthorhombic'
loop_
_space_group_symop_operation_xyz
x,y,z
1/2-x,-y,1/2+z
1/2+x,1/2-y,1/2-z
-x,1/2+y,-z
-x,-y,-z
1/2+x,y,1/2-z
1/2-x,1/2+y,1/2+z
x,1/2-y,z
loop_
_atom_site_type_symbol
_atom_site_label
_atom_site_fract_x
_atom_site_fract_y
_atom_site_fract_z
Si Si1 0.631639 0.053645 0.563305
Si Si2 0.593651 0.061167 0.921877
Si Si3 0.861601 0.132641 0.982688
Si Si4 0.215368 0.131093 0.811912
Si Si5 0.023117 0.131345 0.704163
Si Si6 0.130209 0.864540 0.506884
O O1 0.480746 0.097606 0.561870
O O2 0.691350 0.061754 0.629774
O O3 0.717295 0.118783 0.515197
O O4 0.636726 0.934480 0.543619
O O5 0.725177 0.118584 0.945602
O O6 0.583716 0.065918 0.850404
O O7 0.464396 0.118083 0.949317
O O8 0.592013 0.941570 0.939683
O O9 0.877503 0.250000 0.002229
O O10 0.198866 0.250000 0.829933
O O11 0.104222 0.097967 0.763259
O O12 0.364514 0.109268 0.785839
O O13 0.049211 0.250000 0.689632
O O14 0.113317 0.750000 0.532002
#
# Coordination Sequence:
#
# PCOD8250539 Si02
#       6
#     8   8   8   8   8   8
#     4  10  20  33  51  74 101 135 164 198 248 295
#     4  10  20  31  49  76 101 126 160 202 247 289
#     4  10  20  32  50  77 104 129 162 202 246 295
#     4  10  20  33  50  70  96 131 166 201 244 291
#     4  10  20  33  49  70  97 130 164 201 245 292
#     4  10  18  32  52  73  98 129 162 200 245 294
#
# _framework density 16.655241
#
# number of rings (size 3 to 8) (size 9 to 14) (size 15 to 20)
#    0.000    2.000    1.667    3.000    2.333    0.000 
#    0.000    0.000    0.000    1.000    0.000    0.000 
#    0.000    0.000    0.000    0.000    0.000    0.000 
#
# Total GULP energy -595361.028706 kJ/mol
# GULP energy per Si atom -12403.354765 kJ/mol
# Density = 1.661733 g / cm^3
# Si number density = 16.655241 Si / 1000 Ang^3
#
#
#
# Elastic Constant Matrix: (Units=GPa)
#
#
# Indices 1 2 3 4 5 6 
#
# 1 83.4117 31.3792 39.4020 0.0000 0.0000 0.0000
# 2 31.3792 108.3987 38.8804 0.0000 0.0000 0.0000
# 3 39.4020 38.8804 89.0815 0.0000 0.0000 0.0000
# 4 0.0000 0.0000 0.0000 18.7851 0.0000 0.0000
# 5 0.0000 0.0000 0.0000 0.0000 24.8659 0.0000
# 6 0.0000 0.0000 0.0000 0.0000 0.0000 16.4845
#
#
#
# Elastic Compliance Matrix: (Units=1/GPa)
#
#
# Indices 1 2 3 4 5 6 
#
# 1 0.015678 -0.002432 -0.005873 0.000000 0.000000 0.000000
# 2 -0.002432 0.011315 -0.003863 0.000000 0.000000 0.000000
# 3 -0.005873 -0.003863 0.015509 0.000000 0.000000 0.000000
# 4 0.000000 0.000000 0.000000 0.053234 0.000000 0.000000
# 5 0.000000 0.000000 0.000000 0.000000 0.040216 0.000000
# 6 0.000000 0.000000 0.000000 0.000000 0.000000 0.060663
#
#
# Mechanical properties :
#
#
# Convention : Reuss Voigt Hill
#
# Bulk Modulus (GPa) = 55.04651 55.57947 55.31299
# Shear Modulus (GPa) = 22.02588 23.44244 22.73416
#
# Velocity S-wave (km/s) = 3.64051 3.75575 3.69858
# Velocity P-wave (km/s) = 7.12695 7.22846 7.17788
#
# Compressibility (1/GPa) = 0.01816646
#
# Stress axis : x y z
#
# Youngs Moduli (GPa) = 63.78383 88.38088 64.47711
#
# Poissons Ratio (x) = 0.21493 0.37869
# Poissons Ratio (y) = 0.15511 0.24906
# Poissons Ratio (z) = 0.37461 0.34139
#
# Static dielectric constant tensor:
#      x y z
#    x 3.386570 0.000000 0.000000 
#    y 0.000000 3.046660 0.000000 
#    z 0.000000 0.000000 2.889780 
# 
# 
# High freq. dielectric constant tensor:
#      x y z
#    x 1.666590 0.000000 0.000000 
#    y 0.000000 1.622230 0.000000 
#    z 0.000000 0.000000 1.618450 
# 
# From -- ./inp_files/28812.got.cif
#   From: 2010.03.12/outbox.cif.g09.slc.cpg/sg62_15_cif.got.tgz:28812.got - 2010.04.10 19:12:36.
