data_PCOD8250704
_publ_section_title
;
Structure prediction by ZEFSAII (Michael W. Deem and Ramdas Pophale) SiO2 
 PCOD8250704
Probable space group: P N M A
;
_chemical_formula_sum "Si O2"
_cell_formula_units_Z 32
_cell_length_a 13.535209
_cell_length_b 17.419437
_cell_length_c 7.296755
_cell_angle_alpha 90.000000
_cell_angle_beta 90.000000
_cell_angle_gamma 90.000000
_cell_volume 1720.397667
_symmetry_space_group_name_H-M "P N M A"
_symmetry_group_IT_number 62
_symmetry_cell_setting 'orthorhombic'
loop_
_space_group_symop_operation_xyz
x,y,z
1/2-x,-y,1/2+z
1/2+x,1/2-y,1/2-z
-x,1/2+y,-z
-x,-y,-z
1/2+x,y,1/2-z
1/2-x,1/2+y,1/2+z
x,1/2-y,z
loop_
_atom_site_type_symbol
_atom_site_label
_atom_site_fract_x
_atom_site_fract_y
_atom_site_fract_z
Si Si1 0.215789 0.838534 0.504664
Si Si2 0.157288 0.081868 0.728584
Si Si3 0.784806 0.553769 0.684715
Si Si4 0.948871 0.444535 0.642549
O O1 0.196264 0.750000 0.544870
O O2 0.288968 0.848273 0.331894
O O3 0.268604 0.874898 0.682000
O O4 0.110837 0.878078 0.463367
O O5 0.190081 0.085062 0.516341
O O6 0.038832 0.092427 0.758316
O O7 0.187718 0.000249 0.819325
O O8 0.872972 0.497437 0.759154
O O9 0.000000 0.500000 0.500000
#
# Coordination Sequence:
#
# PCOD8250704 Si02
#       4
#     8   8   8   8
#     4  11  23  37  54  86 121 144 185 243 284 324
#     4  10  19  37  61  84 107 147 194 229 277 346
#     4  10  18  35  61  84 104 149 189 230 278 337
#     4   9  18  36  62  82 107 151 194 227 275 342
#
# _framework density 18.600352000000001
#
# number of rings (size 3 to 8) (size 9 to 14) (size 15 to 20)
#    0.000    2.000    7.500    0.000    0.000    3.000 
#    0.000    3.750    0.000    0.000    0.000    0.000 
#    0.000    0.000    0.000    0.000    0.000    0.000 
#
# Total GULP energy -396546.917618 kJ/mol
# GULP energy per Si atom -12392.091176 kJ/mol
# Density = 1.855802 g / cm^3
# Si number density = 18.600352 Si / 1000 Ang^3
#
#
#
# Elastic Constant Matrix: (Units=GPa)
#
#
# Indices 1 2 3 4 5 6 
#
# 1 107.0051 56.7711 26.2066 0.0000 0.0000 0.0000
# 2 56.7711 135.4045 35.3422 0.0000 0.0000 0.0000
# 3 26.2066 35.3422 62.3982 0.0000 0.0000 0.0000
# 4 0.0000 0.0000 0.0000 25.5747 0.0000 0.0000
# 5 0.0000 0.0000 0.0000 0.0000 24.8056 0.0000
# 6 0.0000 0.0000 0.0000 0.0000 0.0000 18.1890
#
#
#
# Elastic Compliance Matrix: (Units=1/GPa)
#
#
# Indices 1 2 3 4 5 6 
#
# 1 0.012382 -0.004499 -0.002652 0.000000 0.000000 0.000000
# 2 -0.004499 0.010301 -0.003945 0.000000 0.000000 0.000000
# 3 -0.002652 -0.003945 0.019374 0.000000 0.000000 0.000000
# 4 0.000000 0.000000 0.000000 0.039101 0.000000 0.000000
# 5 0.000000 0.000000 0.000000 0.000000 0.040313 0.000000
# 6 0.000000 0.000000 0.000000 0.000000 0.000000 0.054978
#
#
# Mechanical properties :
#
#
# Convention : Reuss Voigt Hill
#
# Bulk Modulus (GPa) = 50.33916 60.16084 55.25000
# Shear Modulus (GPa) = 24.35881 26.14639 25.25260
#
# Velocity S-wave (km/s) = 3.62275 3.75333 3.68862
# Velocity P-wave (km/s) = 6.67992 7.15524 6.92166
#
# Compressibility (1/GPa) = 0.01986525
#
# Stress axis : x y z
#
# Youngs Moduli (GPa) = 80.76352 97.07466 51.61462
#
# Poissons Ratio (x) = 0.43675 0.13688
# Poissons Ratio (y) = 0.36337 0.20362
# Poissons Ratio (z) = 0.21418 0.38297
#
# Static dielectric constant tensor:
#      x y z
#    x 5.087650 0.000000 0.000000 
#    y 0.000000 3.114570 0.000000 
#    z 0.000000 0.000000 3.417650 
# 
# 
# High freq. dielectric constant tensor:
#      x y z
#    x 1.737040 0.000000 0.000000 
#    y 0.000000 1.691010 0.000000 
#    z 0.000000 0.000000 1.709910 
# 
# From -- ./inp_files/4808.got.cif
#   From: 2010.03.12/outbox.cif.g09.slc.cpg/sg62_3_cif.got.tgz:4808.got - 2010.04.10 19:12:36.
