data_PCOD8250645
_publ_section_title
;
Structure prediction by ZEFSAII (Michael W. Deem and Ramdas Pophale) SiO2 
 PCOD8250645
Probable space group: P N M A
;
_chemical_formula_sum "Si O2"
_cell_formula_units_Z 56
_cell_length_a 11.738038
_cell_length_b 13.644586
_cell_length_c 15.920619
_cell_angle_alpha 90.000000
_cell_angle_beta 90.000000
_cell_angle_gamma 90.000000
_cell_volume 2549.856989
_symmetry_space_group_name_H-M "P N M A"
_symmetry_group_IT_number 62
_symmetry_cell_setting 'orthorhombic'
loop_
_space_group_symop_operation_xyz
x,y,z
1/2-x,-y,1/2+z
1/2+x,1/2-y,1/2-z
-x,1/2+y,-z
-x,-y,-z
1/2+x,y,1/2-z
1/2-x,1/2+y,1/2+z
x,1/2-y,z
loop_
_atom_site_type_symbol
_atom_site_label
_atom_site_fract_x
_atom_site_fract_y
_atom_site_fract_z
Si Si1 0.312908 0.056623 0.918644
Si Si2 0.086131 0.511309 0.120217
Si Si3 0.931484 0.358913 0.418834
Si Si4 0.815353 0.852541 0.531570
Si Si5 0.905835 0.863331 0.025230
Si Si6 0.987840 0.985819 0.292363
Si Si7 0.204171 0.358914 0.659769
O O1 0.203154 0.127552 0.911104
O O2 0.395087 0.051389 0.838011
O O3 0.252037 0.950280 0.936933
O O4 0.387870 0.089108 0.997606
O O5 0.191022 0.566825 0.163034
O O6 0.019158 0.591098 0.064644
O O7 0.013362 0.473101 0.199479
O O8 0.123616 0.419007 0.062776
O O9 0.875807 0.250000 0.407116
O O10 0.913239 0.430631 0.339788
O O11 0.066107 0.348728 0.420736
O O12 0.747776 0.750000 0.551907
O O13 0.844230 0.856824 0.433996
O O14 0.929191 0.750000 0.005863
O O15 0.901199 0.894557 0.282608
O O16 0.241174 0.250000 0.689947
#
# Coordination Sequence:
#
# PCOD8250645 Si02
#       7
#     8   8   8   8   8   8   8
#     4  11  19  38  64  97 130 163 203 261 314 372
#     4  11  26  45  63  91 128 169 213 265 313 379
#     4  10  18  33  59  93 127 160 200 253 315 374
#     4   9  16  30  56  87 120 161 204 243 299 364
#     4  11  25  46  67  88 125 176 217 251 314 391
#     4  11  23  39  64  97 129 158 209 270 323 366
#     4  11  21  38  61  88 127 166 205 255 311 368
#
# _framework density 21.962016999999999
#
# number of rings (size 3 to 8) (size 9 to 14) (size 15 to 20)
#    0.000    1.429    4.286    1.714    2.000    2.286 
#    0.000    0.000    0.000    0.000    0.000    0.000 
#    0.000    0.000    0.000    0.000    0.000    0.000 
#
# Total GULP energy -693936.372132 kJ/mol
# GULP energy per Si atom -12391.720931 kJ/mol
# Density = 2.191203 g / cm^3
# Si number density = 21.962017 Si / 1000 Ang^3
#
#
#
# Elastic Constant Matrix: (Units=GPa)
#
#
# Indices 1 2 3 4 5 6 
#
# 1 57.7349 20.4236 13.2425 0.0000 0.0000 0.0000
# 2 20.4236 134.7131 32.2432 0.0000 0.0000 0.0000
# 3 13.2425 32.2432 75.3402 0.0000 0.0000 0.0000
# 4 0.0000 0.0000 0.0000 10.2976 0.0000 0.0000
# 5 0.0000 0.0000 0.0000 0.0000 13.6012 0.0000
# 6 0.0000 0.0000 0.0000 0.0000 0.0000 25.5766
#
#
#
# Elastic Compliance Matrix: (Units=1/GPa)
#
#
# Indices 1 2 3 4 5 6 
#
# 1 0.018654 -0.002277 -0.002305 0.000000 0.000000 0.000000
# 2 -0.002277 0.008548 -0.003258 0.000000 0.000000 0.000000
# 3 -0.002305 -0.003258 0.015073 0.000000 0.000000 0.000000
# 4 0.000000 0.000000 0.000000 0.097110 0.000000 0.000000
# 5 0.000000 0.000000 0.000000 0.000000 0.073523 0.000000
# 6 0.000000 0.000000 0.000000 0.000000 0.000000 0.039098
#
#
# Mechanical properties :
#
#
# Convention : Reuss Voigt Hill
#
# Bulk Modulus (GPa) = 37.59885 44.40074 40.99980
# Shear Modulus (GPa) = 18.07986 23.35368 20.71677
#
# Velocity S-wave (km/s) = 2.87232 3.26447 3.07465
# Velocity P-wave (km/s) = 5.30635 5.87111 5.59586
#
# Compressibility (1/GPa) = 0.02659656
#
# Stress axis : x y z
#
# Youngs Moduli (GPa) = 53.60649 116.98411 66.34551
#
# Poissons Ratio (x) = 0.26632 0.15290
# Poissons Ratio (y) = 0.12204 0.21617
# Poissons Ratio (z) = 0.12354 0.38116
#
# Static dielectric constant tensor:
#      x y z
#    x 3.767710 0.000000 0.000000 
#    y 0.000000 4.805140 0.000000 
#    z 0.000000 0.000000 3.678960 
# 
# 
# High freq. dielectric constant tensor:
#      x y z
#    x 1.853620 0.000000 0.000000 
#    y 0.000000 1.871810 0.000000 
#    z 0.000000 0.000000 1.836940 
# 
# From -- ./inp_files/18071.got.cif
#   From: 2010.03.12/outbox.cif.g09.slc.cpg/sg62_10_cif.got.tgz:18071.got - 2010.04.10 19:12:36.
