data_PCOD8250029
_publ_section_title
;
Structure prediction by ZEFSAII (Michael W. Deem and Ramdas Pophale) SiO2 
 PCOD8250029
Probable space group: P N M A
;
_chemical_formula_sum "Si O2"
_cell_formula_units_Z 56
_cell_length_a 19.519688
_cell_length_b 8.791854
_cell_length_c 19.333752
_cell_angle_alpha 90.000000
_cell_angle_beta 90.000000
_cell_angle_gamma 90.000000
_cell_volume 3317.947292
_symmetry_space_group_name_H-M "P N M A"
_symmetry_group_IT_number 62
_symmetry_cell_setting 'orthorhombic'
loop_
_space_group_symop_operation_xyz
x,y,z
1/2-x,-y,1/2+z
1/2+x,1/2-y,1/2-z
-x,1/2+y,-z
-x,-y,-z
1/2+x,y,1/2-z
1/2-x,1/2+y,1/2+z
x,1/2-y,z
loop_
_atom_site_type_symbol
_atom_site_label
_atom_site_fract_x
_atom_site_fract_y
_atom_site_fract_z
Si Si1 0.202517 0.569983 0.980504
Si Si2 0.163181 0.070132 0.738768
Si Si3 0.950063 0.430602 0.056464
Si Si4 0.729774 0.931289 0.367306
Si Si5 0.477774 0.569010 0.295781
Si Si6 0.767637 0.070429 0.646064
Si Si7 0.625000 0.930030 0.254031
O O1 0.205330 0.750000 0.981444
O O2 0.127027 0.512701 0.959272
O O3 0.259819 0.509740 0.927681
O O4 0.221686 0.501773 0.055811
O O5 0.167008 0.250000 0.738930
O O6 0.198381 0.012061 0.667431
O O7 0.206127 0.011987 0.804773
O O8 0.084866 0.014676 0.746576
O O9 0.955025 0.250000 0.053700
O O10 0.973164 0.489698 0.130622
O O11 0.000000 0.500000 0.000000
O O12 0.727446 0.750000 0.370138
O O13 0.667468 0.993219 0.319821
O O14 0.477067 0.750000 0.307311
O O15 0.546881 0.512286 0.257829
O O16 0.764748 0.250000 0.634878
O O17 0.839404 0.019290 0.681899
O O18 0.627531 0.750000 0.258086
#
# Coordination Sequence:
#
# PCOD8250029 Si02
#       7
#     8   8   8   8   8   8   8
#     4  10  19  30  46  67  92 122 154 191 233 274
#     4   8  14  25  45  67  85 112 153 192 223 263
#     4  11  22  32  44  67  98 130 156 185 230 285
#     4   8  14  26  42  63  89 117 150 186 222 269
#     4  10  17  29  49  71  91 117 152 195 237 273
#     4   9  16  29  47  67  89 117 153 191 227 274
#     4   8  15  27  46  68  91 117 149 188 230 273
#
# _framework density 16.877907
#
# number of rings (size 3 to 8) (size 9 to 14) (size 15 to 20)
#    0.000    2.857    1.429    3.000    0.000    2.857 
#    0.000    0.714    0.000    5.143    0.000    0.000 
#    0.000    0.000    0.000    0.000    0.000    0.000 
#
# Total GULP energy -694020.242761 kJ/mol
# GULP energy per Si atom -12393.218621 kJ/mol
# Density = 1.683949 g / cm^3
# Si number density = 16.877907 Si / 1000 Ang^3
#
#
#
# Elastic Constant Matrix: (Units=GPa)
#
#
# Indices 1 2 3 4 5 6 
#
# 1 147.9615 17.7362 71.5713 0.0000 0.0000 0.0000
# 2 17.7362 17.4697 12.9860 0.0000 0.0000 0.0000
# 3 71.5713 12.9860 96.3113 0.0000 0.0000 0.0000
# 4 0.0000 0.0000 0.0000 23.2659 0.0000 0.0000
# 5 0.0000 0.0000 0.0000 0.0000 29.4444 0.0000
# 6 0.0000 0.0000 0.0000 0.0000 0.0000 12.3413
#
#
#
# Elastic Compliance Matrix: (Units=1/GPa)
#
#
# Indices 1 2 3 4 5 6 
#
# 1 0.011036 -0.005677 -0.007435 0.000000 0.000000 0.000000
# 2 -0.005677 0.066539 -0.004753 0.000000 0.000000 0.000000
# 3 -0.007435 -0.004753 0.016549 0.000000 0.000000 0.000000
# 4 0.000000 0.000000 0.000000 0.042981 0.000000 0.000000
# 5 0.000000 0.000000 0.000000 0.000000 0.033962 0.000000
# 6 0.000000 0.000000 0.000000 0.000000 0.000000 0.081029
#
#
# Mechanical properties :
#
#
# Convention : Reuss Voigt Hill
#
# Bulk Modulus (GPa) = 17.12538 51.81439 34.46989
# Shear Modulus (GPa) = 16.27122 23.64025 19.95573
#
# Velocity S-wave (km/s) = 3.10829 3.74660 3.44227
# Velocity P-wave (km/s) = 4.80111 7.03436 6.02216
#
# Compressibility (1/GPa) = 0.05839286
#
# Stress axis : x y z
#
# Youngs Moduli (GPa) = 90.61556 15.02888 60.42551
#
# Poissons Ratio (x) = 0.08532 0.44929
# Poissons Ratio (y) = 0.51442 0.28720
# Poissons Ratio (z) = 0.67376 0.07143
#
# Static dielectric constant tensor:
#      x y z
#    x 3.051660 0.000000 0.000000 
#    y 0.000000 2.734890 0.000000 
#    z 0.000000 0.000000 2.984000 
# 
# 
# High freq. dielectric constant tensor:
#      x y z
#    x 1.649860 0.000000 0.000000 
#    y 0.000000 1.608840 0.000000 
#    z 0.000000 0.000000 1.645110 
# 
# From -- ./inp_files/24446.got.cif
#   From: 2010.03.12/outbox.cif.g09.slc.cpg/sg62_13_cif.got.tgz:24446.got - 2010.04.10 19:12:36.
