data_PCOD8250631
_publ_section_title
;
Structure prediction by ZEFSAII (Michael W. Deem and Ramdas Pophale) SiO2 
 PCOD8250631
Probable space group: P N M A
;
_chemical_formula_sum "Si O2"
_cell_formula_units_Z 56
_cell_length_a 14.268481
_cell_length_b 13.219199
_cell_length_c 14.803587
_cell_angle_alpha 90.000000
_cell_angle_beta 90.000000
_cell_angle_gamma 90.000000
_cell_volume 2792.221341
_symmetry_space_group_name_H-M "P N M A"
_symmetry_group_IT_number 62
_symmetry_cell_setting 'orthorhombic'
loop_
_space_group_symop_operation_xyz
x,y,z
1/2-x,-y,1/2+z
1/2+x,1/2-y,1/2-z
-x,1/2+y,-z
-x,-y,-z
1/2+x,y,1/2-z
1/2-x,1/2+y,1/2+z
x,1/2-y,z
loop_
_atom_site_type_symbol
_atom_site_label
_atom_site_fract_x
_atom_site_fract_y
_atom_site_fract_z
Si Si1 0.592245 0.458558 0.396141
Si Si2 0.566332 0.638857 0.921724
Si Si3 0.002404 0.511058 0.283180
Si Si4 0.681961 0.000400 0.673842
Si Si5 0.919891 0.130533 0.021771
Si Si6 0.647488 0.631531 0.113336
Si Si7 0.250411 0.140883 0.185505
O O1 0.552842 0.447766 0.295097
O O2 0.529976 0.389693 0.462809
O O3 0.601400 0.576472 0.425911
O O4 0.694005 0.408433 0.397620
O O5 0.518183 0.750000 0.937234
O O6 0.498801 0.556870 0.874797
O O7 0.644486 0.654376 0.846158
O O8 0.608541 0.596723 0.015377
O O9 0.899961 0.544363 0.241653
O O10 0.068539 0.605132 0.311107
O O11 0.748482 0.086191 0.631528
O O12 0.637794 0.929349 0.597316
O O13 0.754469 0.930737 0.727914
O O14 0.895952 0.250000 0.019068
O O15 0.663562 0.750000 0.114859
O O16 0.207573 0.250000 0.211602
#
# Coordination Sequence:
#
# PCOD8250631 Si02
#       7
#     8   8   8   8   8   8   8
#     4  10  20  35  56  87 116 155 199 241 300 360
#     4   9  20  36  59  86 115 153 197 247 299 354
#     4  10  21  38  60  85 119 154 196 250 292 362
#     4  10  21  38  59  89 119 157 206 251 299 361
#     4  10  21  37  57  84 121 156 197 253 304 354
#     4  11  22  39  60  84 120 162 200 248 309 364
#     4  10  18  33  57  84 115 154 198 246 297 348
#
# _framework density 20.055716
#
# number of rings (size 3 to 8) (size 9 to 14) (size 15 to 20)
#    0.000    2.000    1.429    2.143    0.000    5.143 
#    0.000    7.143    0.000    4.286    0.000    0.000 
#    0.000    0.000    0.000    0.000    0.000    0.000 
#
# Total GULP energy -693845.531635 kJ/mol
# GULP energy per Si atom -12390.098779 kJ/mol
# Density = 2.001007 g / cm^3
# Si number density = 20.055716 Si / 1000 Ang^3
#
#
#
# Elastic Constant Matrix: (Units=GPa)
#
#
# Indices 1 2 3 4 5 6 
#
# 1 61.2840 37.7305 13.5230 0.0000 0.0000 0.0000
# 2 37.7305 105.5185 24.8092 0.0000 0.0000 0.0000
# 3 13.5230 24.8092 57.5261 0.0000 0.0000 0.0000
# 4 0.0000 0.0000 0.0000 24.8261 0.0000 0.0000
# 5 0.0000 0.0000 0.0000 0.0000 26.1920 0.0000
# 6 0.0000 0.0000 0.0000 0.0000 0.0000 26.0602
#
#
#
# Elastic Compliance Matrix: (Units=1/GPa)
#
#
# Indices 1 2 3 4 5 6 
#
# 1 0.021109 -0.007101 -0.001900 0.000000 0.000000 0.000000
# 2 -0.007101 0.012935 -0.003909 0.000000 0.000000 0.000000
# 3 -0.001900 -0.003909 0.019516 0.000000 0.000000 0.000000
# 4 0.000000 0.000000 0.000000 0.040280 0.000000 0.000000
# 5 0.000000 0.000000 0.000000 0.000000 0.038180 0.000000
# 6 0.000000 0.000000 0.000000 0.000000 0.000000 0.038373
#
#
# Mechanical properties :
#
#
# Convention : Reuss Voigt Hill
#
# Bulk Modulus (GPa) = 36.04943 41.82823 38.93883
# Shear Modulus (GPa) = 24.33575 25.30007 24.81791
#
# Velocity S-wave (km/s) = 3.48718 3.55560 3.52155
# Velocity P-wave (km/s) = 5.85043 6.14473 5.99938
#
# Compressibility (1/GPa) = 0.02773969
#
# Stress axis : x y z
#
# Youngs Moduli (GPa) = 47.37400 77.30741 51.24021
#
# Poissons Ratio (x) = 0.54898 0.09733
# Poissons Ratio (y) = 0.33641 0.20031
# Poissons Ratio (z) = 0.08999 0.30222
#
# Static dielectric constant tensor:
#      x y z
#    x 3.647820 0.000000 0.000000 
#    y 0.000000 3.724770 0.000000 
#    z 0.000000 0.000000 3.733250 
# 
# 
# High freq. dielectric constant tensor:
#      x y z
#    x 1.778330 0.000000 0.000000 
#    y 0.000000 1.768160 0.000000 
#    z 0.000000 0.000000 1.787390 
# 
# From -- ./inp_files/18972.got.cif
#   From: 2010.03.12/outbox.cif.g09.slc.cpg/sg62_10_cif.got.tgz:18972.got - 2010.04.10 19:12:36.
