data_PCOD8250369
_publ_section_title
;
Structure prediction by ZEFSAII (Michael W. Deem and Ramdas Pophale) SiO2 
 PCOD8250369
Probable space group: P N M A
;
_chemical_formula_sum "Si O2"
_cell_formula_units_Z 48
_cell_length_a 20.196249
_cell_length_b 13.238660
_cell_length_c 11.877051
_cell_angle_alpha 90.000000
_cell_angle_beta 90.000000
_cell_angle_gamma 90.000000
_cell_volume 3175.582255
_symmetry_space_group_name_H-M "P N M A"
_symmetry_group_IT_number 62
_symmetry_cell_setting 'orthorhombic'
loop_
_space_group_symop_operation_xyz
x,y,z
1/2-x,-y,1/2+z
1/2+x,1/2-y,1/2-z
-x,1/2+y,-z
-x,-y,-z
1/2+x,y,1/2-z
1/2-x,1/2+y,1/2+z
x,1/2-y,z
loop_
_atom_site_type_symbol
_atom_site_label
_atom_site_fract_x
_atom_site_fract_y
_atom_site_fract_z
Si Si1 0.927656 0.367832 0.677870
Si Si2 0.422309 0.633582 0.176794
Si Si3 0.686311 0.502066 0.231385
Si Si4 0.804172 0.865221 0.167737
Si Si5 0.140080 0.983484 0.502937
Si Si6 0.763344 0.632232 0.919549
O O1 0.913196 0.250000 0.690407
O O2 0.877813 0.428153 0.761703
O O3 0.912014 0.402159 0.548881
O O4 0.002880 0.395608 0.709369
O O5 0.418327 0.750000 0.138045
O O6 0.377905 0.612924 0.286991
O O7 0.398096 0.567194 0.072845
O O8 0.752586 0.568931 0.238818
O O9 0.691596 0.410244 0.318355
O O10 0.677589 0.461789 0.102630
O O11 0.783194 0.750000 0.188944
O O12 0.802552 0.889185 0.035174
O O13 0.192397 0.922953 0.579485
O O14 0.751475 0.750000 0.898458
#
# Coordination Sequence:
#
# PCOD8250369 Si02
#       6
#     8   8   8   8   8   8
#     4   9  18  31  49  72  96 127 158 193 240 288
#     4  10  18  30  49  74  99 122 157 199 240 280
#     4   9  18  29  48  68  95 121 159 195 234 277
#     4   9  17  30  48  69  93 124 160 192 228 282
#     4   9  18  30  48  71  98 122 153 196 243 280
#     4  10  18  31  49  68  93 128 163 194 232 286
#
# _framework density 15.115337999999999
#
# number of rings (size 3 to 8) (size 9 to 14) (size 15 to 20)
#    1.000    1.667    1.667    1.500    0.000    0.667 
#    0.000    0.833    0.000    0.000    0.000    0.000 
#    0.000    0.000    0.000    0.000    0.000    0.000 
#
# Total GULP energy -594808.435472 kJ/mol
# GULP energy per Si atom -12391.842406 kJ/mol
# Density = 1.508093 g / cm^3
# Si number density = 15.115338 Si / 1000 Ang^3
#
#
#
# Elastic Constant Matrix: (Units=GPa)
#
#
# Indices 1 2 3 4 5 6 
#
# 1 113.0764 49.5119 37.2832 0.0000 0.0000 0.0000
# 2 49.5119 65.1128 36.0150 0.0000 0.0000 0.0000
# 3 37.2832 36.0150 52.4641 0.0000 0.0000 0.0000
# 4 0.0000 0.0000 0.0000 29.1515 0.0000 0.0000
# 5 0.0000 0.0000 0.0000 0.0000 21.7075 0.0000
# 6 0.0000 0.0000 0.0000 0.0000 0.0000 18.7942
#
#
#
# Elastic Compliance Matrix: (Units=1/GPa)
#
#
# Indices 1 2 3 4 5 6 
#
# 1 0.013809 -0.008177 -0.004200 0.000000 0.000000 0.000000
# 2 -0.008177 0.029601 -0.014509 0.000000 0.000000 0.000000
# 3 -0.004200 -0.014509 0.032005 0.000000 0.000000 0.000000
# 4 0.000000 0.000000 0.000000 0.034304 0.000000 0.000000
# 5 0.000000 0.000000 0.000000 0.000000 0.046067 0.000000
# 6 0.000000 0.000000 0.000000 0.000000 0.000000 0.053208
#
#
# Mechanical properties :
#
#
# Convention : Reuss Voigt Hill
#
# Bulk Modulus (GPa) = 46.20441 52.91926 49.56184
# Shear Modulus (GPa) = 18.51984 21.12018 19.82001
#
# Velocity S-wave (km/s) = 3.50413 3.74206 3.62505
# Velocity P-wave (km/s) = 6.85611 7.33192 7.09800
#
# Compressibility (1/GPa) = 0.02164296
#
# Stress axis : x y z
#
# Youngs Moduli (GPa) = 72.41738 33.78226 31.24492
#
# Poissons Ratio (x) = 0.27625 0.13122
# Poissons Ratio (y) = 0.59218 0.45334
# Poissons Ratio (z) = 0.30413 0.49015
#
# Static dielectric constant tensor:
#      x y z
#    x 2.955660 0.000000 0.000000 
#    y 0.000000 2.788470 0.000000 
#    z 0.000000 0.000000 2.702980 
# 
# 
# High freq. dielectric constant tensor:
#      x y z
#    x 1.581990 0.000000 0.000000 
#    y 0.000000 1.572800 0.000000 
#    z 0.000000 0.000000 1.556760 
# 
# From -- ./inp_files/14731.got.cif
#   From: 2010.03.12/outbox.cif.g09.slc.cpg/sg62_8_cif.got.tgz:14731.got - 2010.04.10 19:12:36.
