data_PCOD8250103
_publ_section_title
;
Structure prediction by ZEFSAII (Michael W. Deem and Ramdas Pophale) SiO2 
 PCOD8250103
Probable space group: P N M A
;
_chemical_formula_sum "Si O2"
_cell_formula_units_Z 64
_cell_length_a 17.050926
_cell_length_b 21.889074
_cell_length_c 9.198191
_cell_angle_alpha 90.000000
_cell_angle_beta 90.000000
_cell_angle_gamma 90.000000
_cell_volume 3433.031454
_symmetry_space_group_name_H-M "P N M A"
_symmetry_group_IT_number 62
_symmetry_cell_setting 'orthorhombic'
loop_
_space_group_symop_operation_xyz
x,y,z
1/2-x,-y,1/2+z
1/2+x,1/2-y,1/2-z
-x,1/2+y,-z
-x,-y,-z
1/2+x,y,1/2-z
1/2-x,1/2+y,1/2+z
x,1/2-y,z
loop_
_atom_site_type_symbol
_atom_site_label
_atom_site_fract_x
_atom_site_fract_y
_atom_site_fract_z
Si Si1 0.571176 0.011278 0.787051
Si Si2 0.906803 0.382178 0.977762
Si Si3 0.815068 0.430029 0.444275
Si Si4 0.537392 0.090124 0.310140
Si Si5 0.489314 0.684131 0.900472
Si Si6 0.552520 0.612851 0.153251
Si Si7 0.148219 0.481796 0.005889
Si Si8 0.154674 0.818576 0.756242
O O1 0.509736 0.057775 0.855481
O O2 0.647767 0.992475 0.878579
O O3 0.528989 0.946300 0.776359
O O4 0.597850 0.039036 0.633299
O O5 0.853704 0.334931 0.071380
O O6 0.994215 0.385262 0.045491
O O7 0.922696 0.362184 0.811677
O O8 0.858096 0.445495 0.978107
O O9 0.866997 0.406502 0.577151
O O10 0.734276 0.454397 0.510883
O O11 0.800223 0.373808 0.329263
O O12 0.568221 0.140499 0.193886
O O13 0.610146 0.047594 0.350421
O O14 0.448540 0.750000 0.906184
O O15 0.568725 0.684949 0.809249
O O16 0.507890 0.665884 0.065831
O O17 0.193737 0.750000 0.741461
#
# Coordination Sequence:
#
# PCOD8250103 Si02
#       8
#     8   8   8   8   8   8   8   8
#     4  11  19  36  54  83 115 144 183 230 294 348
#     4  10  18  32  56  82 109 147 185 231 277 341
#     4  11  23  34  54  88 114 149 189 229 287 344
#     4  10  17  36  56  75 106 151 180 226 288 333
#     4   9  19  34  54  81 108 142 196 234 262 335
#     4  11  20  33  57  82 117 147 184 236 295 332
#     4  11  21  33  55  84 120 141 182 242 287 333
#     4   9  18  37  57  77 111 152 190 226 267 335
#
# _framework density 18.642416000000001
#
# number of rings (size 3 to 8) (size 9 to 14) (size 15 to 20)
#    0.000    1.750    7.500    1.125    1.750    0.500 
#    0.000    0.625    0.000    0.750    0.000    0.000 
#    0.000    0.000    0.000    0.000    0.000    0.000 
#
# Total GULP energy -792912.446839 kJ/mol
# GULP energy per Si atom -12389.256982 kJ/mol
# Density = 1.859998 g / cm^3
# Si number density = 18.642416 Si / 1000 Ang^3
#
#
#
# Elastic Constant Matrix: (Units=GPa)
#
#
# Indices 1 2 3 4 5 6 
#
# 1 46.3250 30.0596 11.8572 0.0000 0.0000 0.0000
# 2 30.0596 90.9036 58.6781 0.0000 0.0000 0.0000
# 3 11.8572 58.6781 112.4612 0.0000 0.0000 0.0000
# 4 0.0000 0.0000 0.0000 20.6211 0.0000 0.0000
# 5 0.0000 0.0000 0.0000 0.0000 13.7416 0.0000
# 6 0.0000 0.0000 0.0000 0.0000 0.0000 10.6618
#
#
#
# Elastic Compliance Matrix: (Units=1/GPa)
#
#
# Indices 1 2 3 4 5 6 
#
# 1 0.028073 -0.011116 0.002840 0.000000 0.000000 0.000000
# 2 -0.011116 0.020989 -0.009779 0.000000 0.000000 0.000000
# 3 0.002840 -0.009779 0.013695 0.000000 0.000000 0.000000
# 4 0.000000 0.000000 0.000000 0.048494 0.000000 0.000000
# 5 0.000000 0.000000 0.000000 0.000000 0.072772 0.000000
# 6 0.000000 0.000000 0.000000 0.000000 0.000000 0.093793
#
#
# Mechanical properties :
#
#
# Convention : Reuss Voigt Hill
#
# Bulk Modulus (GPa) = 37.52885 50.09773 43.81329
# Shear Modulus (GPa) = 15.48905 18.94455 17.21680
#
# Velocity S-wave (km/s) = 2.88557 3.19126 3.04226
# Velocity P-wave (km/s) = 5.59255 6.36476 5.99111
#
# Compressibility (1/GPa) = 0.02664617
#
# Stress axis : x y z
#
# Youngs Moduli (GPa) = 35.62150 47.64372 73.01945
#
# Poissons Ratio (x) = 0.52963 -0.20740
# Poissons Ratio (y) = 0.39598 0.71408
# Poissons Ratio (z) = -0.10118 0.46592
#
# Static dielectric constant tensor:
#      x y z
#    x 3.118570 0.000000 0.000000 
#    y 0.000000 3.767100 0.000000 
#    z 0.000000 0.000000 3.604640 
# 
# 
# High freq. dielectric constant tensor:
#      x y z
#    x 1.682810 0.000000 0.000000 
#    y 0.000000 1.711810 0.000000 
#    z 0.000000 0.000000 1.733560 
# 
# From -- ./inp_files/6945.got.cif
#   From: 2010.03.12/outbox.cif.g09.slc.cpg/sg62_4_cif.got.tgz:6945.got - 2010.04.10 19:12:36.
