data_PCOD8250329
_publ_section_title
;
Structure prediction by ZEFSAII (Michael W. Deem and Ramdas Pophale) SiO2 
 PCOD8250329
Probable space group: P N M A
;
_chemical_formula_sum "Si O2"
_cell_formula_units_Z 64
_cell_length_a 23.554428
_cell_length_b 8.974497
_cell_length_c 19.183145
_cell_angle_alpha 90.000000
_cell_angle_beta 90.000000
_cell_angle_gamma 90.000000
_cell_volume 4055.108590
_symmetry_space_group_name_H-M "P N M A"
_symmetry_group_IT_number 62
_symmetry_cell_setting 'orthorhombic'
loop_
_space_group_symop_operation_xyz
x,y,z
1/2-x,-y,1/2+z
1/2+x,1/2-y,1/2-z
-x,1/2+y,-z
-x,-y,-z
1/2+x,y,1/2-z
1/2-x,1/2+y,1/2+z
x,1/2-y,z
loop_
_atom_site_type_symbol
_atom_site_label
_atom_site_fract_x
_atom_site_fract_y
_atom_site_fract_z
Si Si1 0.228375 0.422178 0.352656
Si Si2 0.061484 0.073634 0.864777
Si Si3 0.231219 0.425340 0.651210
Si Si4 0.162533 0.576314 0.241599
Si Si5 0.833121 0.927501 0.219497
Si Si6 0.565388 0.574613 0.359653
Si Si7 0.761240 0.423176 0.997089
Si Si8 0.880993 0.573467 0.993915
O O1 0.234935 0.250000 0.332978
O O2 0.172910 0.488017 0.313734
O O3 0.285055 0.507256 0.330410
O O4 0.220724 0.444561 0.435872
O O5 0.061431 0.250000 0.861964
O O6 0.105483 0.013315 0.806017
O O7 0.998449 0.013615 0.848158
O O8 0.080380 0.019620 0.941289
O O9 0.228891 0.250000 0.648893
O O10 0.290710 0.476852 0.685202
O O11 0.179111 0.480916 0.700520
O O12 0.227937 0.484805 0.571693
O O13 0.169038 0.750000 0.258114
O O14 0.100688 0.538270 0.210511
O O15 0.829091 0.750000 0.212750
O O16 0.566726 0.750000 0.375782
O O17 0.593006 0.492654 0.424358
O O18 0.778137 0.250000 0.987315
O O19 0.818086 0.515883 0.007399
O O20 0.879485 0.750000 0.987869
#
# Coordination Sequence:
#
# PCOD8250329 Si02
#       8
#     8   8   8   8   8   8   8   8
#     4  10  19  28  44  66  90 114 144 188 226 267
#     4   9  18  30  46  66  89 118 155 192 222 258
#     4   8  14  26  45  63  81 111 147 177 213 262
#     4   9  17  30  47  62  83 117 151 185 222 265
#     4   9  16  30  47  64  87 114 147 185 224 266
#     4  10  19  33  48  62  86 124 160 186 219 266
#     4  10  18  30  45  65  90 122 153 177 218 275
#     4  11  20  29  42  66  96 122 150 189 221 254
#
# _framework density 15.782562
#
# number of rings (size 3 to 8) (size 9 to 14) (size 15 to 20)
#    0.000    2.500    2.500    1.875    0.000    1.000 
#    0.000    1.250    0.000    0.000    0.000    0.875 
#    0.000    0.000    0.000    0.000    0.000    0.000 
#
# Total GULP energy -793178.859135 kJ/mol
# GULP energy per Si atom -12393.419674 kJ/mol
# Density = 1.574664 g / cm^3
# Si number density = 15.782562 Si / 1000 Ang^3
#
#
#
# Elastic Constant Matrix: (Units=GPa)
#
#
# Indices 1 2 3 4 5 6 
#
# 1 71.0400 25.1204 45.8419 0.0000 0.0000 0.0000
# 2 25.1204 36.8896 29.7508 0.0000 0.0000 0.0000
# 3 45.8419 29.7508 109.5452 0.0000 0.0000 0.0000
# 4 0.0000 0.0000 0.0000 18.8212 0.0000 0.0000
# 5 0.0000 0.0000 0.0000 0.0000 24.4753 0.0000
# 6 0.0000 0.0000 0.0000 0.0000 0.0000 14.4299
#
#
#
# Elastic Compliance Matrix: (Units=1/GPa)
#
#
# Indices 1 2 3 4 5 6 
#
# 1 0.021606 -0.009502 -0.006461 0.000000 0.000000 0.000000
# 2 -0.009502 0.038889 -0.006585 0.000000 0.000000 0.000000
# 3 -0.006461 -0.006585 0.013621 0.000000 0.000000 0.000000
# 4 0.000000 0.000000 0.000000 0.053132 0.000000 0.000000
# 5 0.000000 0.000000 0.000000 0.000000 0.040858 0.000000
# 6 0.000000 0.000000 0.000000 0.000000 0.000000 0.069300
#
#
# Mechanical properties :
#
#
# Convention : Reuss Voigt Hill
#
# Bulk Modulus (GPa) = 34.45977 46.54458 40.50217
# Shear Modulus (GPa) = 17.11299 19.32938 18.22118
#
# Velocity S-wave (km/s) = 3.29644 3.50341 3.40150
# Velocity P-wave (km/s) = 6.03077 6.77646 6.41446
#
# Compressibility (1/GPa) = 0.02901935
#
# Stress axis : x y z
#
# Youngs Moduli (GPa) = 46.28389 25.71389 73.41687
#
# Poissons Ratio (x) = 0.24434 0.47433
# Poissons Ratio (y) = 0.43980 0.48348
# Poissons Ratio (z) = 0.29903 0.16934
#
# Static dielectric constant tensor:
#      x y z
#    x 3.169990 0.000000 0.000000 
#    y 0.000000 2.851750 0.000000 
#    z 0.000000 0.000000 3.379440 
# 
# 
# High freq. dielectric constant tensor:
#      x y z
#    x 1.580090 0.000000 0.000000 
#    y 0.000000 1.588710 0.000000 
#    z 0.000000 0.000000 1.606820 
# 
# From -- ./inp_files/24997.got.cif
#   From: 2010.03.12/outbox.cif.g09.slc.cpg/sg62_13_cif.got.tgz:24997.got - 2010.04.10 19:12:36.
