data_PCOD8250072
_publ_section_title
;
Structure prediction by ZEFSAII (Michael W. Deem and Ramdas Pophale) SiO2 
 PCOD8250072
Probable space group: P N M A
;
_chemical_formula_sum "Si O2"
_cell_formula_units_Z 64
_cell_length_a 12.037771
_cell_length_b 8.825604
_cell_length_c 31.017040
_cell_angle_alpha 90.000000
_cell_angle_beta 90.000000
_cell_angle_gamma 90.000000
_cell_volume 3295.268936
_symmetry_space_group_name_H-M "P N M A"
_symmetry_group_IT_number 62
_symmetry_cell_setting 'orthorhombic'
loop_
_space_group_symop_operation_xyz
x,y,z
1/2-x,-y,1/2+z
1/2+x,1/2-y,1/2-z
-x,1/2+y,-z
-x,-y,-z
1/2+x,y,1/2-z
1/2-x,1/2+y,1/2+z
x,1/2-y,z
loop_
_atom_site_type_symbol
_atom_site_label
_atom_site_fract_x
_atom_site_fract_y
_atom_site_fract_z
Si Si1 0.781890 0.573210 0.047825
Si Si2 0.995942 0.570654 0.931287
Si Si3 0.900345 0.069690 0.377073
Si Si4 0.221735 0.930179 0.794925
Si Si5 0.358784 0.069871 0.870945
Si Si6 0.762312 0.929955 0.801416
Si Si7 0.005852 0.070714 0.165773
Si Si8 0.754066 0.926967 0.953564
O O1 0.800533 0.750000 0.054075
O O2 0.712680 0.507439 0.088245
O O3 0.903035 0.499789 0.041936
O O4 0.716180 0.539877 0.002879
O O5 0.001445 0.750000 0.936434
O O6 0.013908 0.515453 0.882512
O O7 0.877363 0.504533 0.946545
O O8 0.917921 0.250000 0.378200
O O9 0.833290 0.017833 0.334449
O O10 0.834560 0.008039 0.419350
O O11 0.017244 0.987602 0.376762
O O12 0.235198 0.750000 0.798913
O O13 0.240051 0.990088 0.746596
O O14 0.098036 0.985492 0.806303
O O15 0.310628 0.005392 0.826574
O O16 0.357629 0.250000 0.869619
O O17 0.767305 0.750000 0.801458
O O18 0.880291 0.999977 0.815966
O O19 0.016151 0.250000 0.167301
O O20 0.763316 0.750000 0.943652
#
# Coordination Sequence:
#
# PCOD8250072 Si02
#       8
#     8   8   8   8   8   8   8   8
#     4  10  21  36  53  76 110 147 180 215 265 323
#     4  10  17  31  56  83 110 135 170 220 270 317
#     4  10  20  37  60  82 105 138 182 229 273 319
#     4  10  20  34  58  85 108 137 177 220 266 319
#     4  11  24  39  52  73 111 151 183 221 264 313
#     4   9  18  32  56  88 111 132 171 226 276 314
#     4   9  16  29  52  84 113 132 163 219 274 315
#     4   9  18  34  57  83 108 138 175 222 275 322
#
# _framework density 19.421783999999999
#
# number of rings (size 3 to 8) (size 9 to 14) (size 15 to 20)
#    0.000    2.250    2.500    0.750    1.750    1.000 
#    0.000    1.875    0.000    1.500    0.000    0.000 
#    0.000    0.000    0.000    0.000    0.000    0.000 
#
# Total GULP energy -793443.225900 kJ/mol
# GULP energy per Si atom -12397.550405 kJ/mol
# Density = 1.937758 g / cm^3
# Si number density = 19.421784 Si / 1000 Ang^3
#
#
#
# Elastic Constant Matrix: (Units=GPa)
#
#
# Indices 1 2 3 4 5 6 
#
# 1 134.0341 21.5906 49.3458 0.0000 0.0000 0.0000
# 2 21.5906 24.5759 20.3192 0.0000 0.0000 0.0000
# 3 49.3458 20.3192 125.8780 0.0000 0.0000 0.0000
# 4 0.0000 0.0000 0.0000 15.8984 0.0000 0.0000
# 5 0.0000 0.0000 0.0000 0.0000 30.2127 0.0000
# 6 0.0000 0.0000 0.0000 0.0000 0.0000 14.5315
#
#
#
# Elastic Compliance Matrix: (Units=1/GPa)
#
#
# Indices 1 2 3 4 5 6 
#
# 1 0.009436 -0.006037 -0.002725 0.000000 0.000000 0.000000
# 2 -0.006037 0.050820 -0.005837 0.000000 0.000000 0.000000
# 3 -0.002725 -0.005837 0.009954 0.000000 0.000000 0.000000
# 4 0.000000 0.000000 0.000000 0.062899 0.000000 0.000000
# 5 0.000000 0.000000 0.000000 0.000000 0.033099 0.000000
# 6 0.000000 0.000000 0.000000 0.000000 0.000000 0.068816
#
#
# Mechanical properties :
#
#
# Convention : Reuss Voigt Hill
#
# Bulk Modulus (GPa) = 24.38224 51.88882 38.13553
# Shear Modulus (GPa) = 17.99251 25.01068 21.50159
#
# Velocity S-wave (km/s) = 3.04700 3.59244 3.33090
# Velocity P-wave (km/s) = 4.99602 6.63191 5.87122
#
# Compressibility (1/GPa) = 0.04101346
#
# Stress axis : x y z
#
# Youngs Moduli (GPa) = 105.97246 19.67731 100.45778
#
# Poissons Ratio (x) = 0.11880 0.27371
# Poissons Ratio (y) = 0.63980 0.58633
# Poissons Ratio (z) = 0.28874 0.11485
#
# Static dielectric constant tensor:
#      x y z
#    x 3.684560 0.000000 0.000000 
#    y 0.000000 3.020760 0.000000 
#    z 0.000000 0.000000 3.831430 
# 
# 
# High freq. dielectric constant tensor:
#      x y z
#    x 1.763280 0.000000 0.000000 
#    y 0.000000 1.703660 0.000000 
#    z 0.000000 0.000000 1.774590 
# 
# From -- ./inp_files/32619.got.cif
#   From: 2010.03.12/outbox.cif.g09.slc.cpg/sg62_17_cif.got.tgz:32619.got - 2010.04.10 19:12:36.
