data_PCOD8250711
_publ_section_title
;
Structure prediction by ZEFSAII (Michael W. Deem and Ramdas Pophale) SiO2 
 PCOD8250711
Probable space group: P N M A
;
_chemical_formula_sum "Si O2"
_cell_formula_units_Z 64
_cell_length_a 13.347872
_cell_length_b 17.020021
_cell_length_c 15.235645
_cell_angle_alpha 90.000000
_cell_angle_beta 90.000000
_cell_angle_gamma 90.000000
_cell_volume 3461.250007
_symmetry_space_group_name_H-M "P N M A"
_symmetry_group_IT_number 62
_symmetry_cell_setting 'orthorhombic'
loop_
_space_group_symop_operation_xyz
x,y,z
1/2-x,-y,1/2+z
1/2+x,1/2-y,1/2-z
-x,1/2+y,-z
-x,-y,-z
1/2+x,y,1/2-z
1/2-x,1/2+y,1/2+z
x,1/2-y,z
loop_
_atom_site_type_symbol
_atom_site_label
_atom_site_fract_x
_atom_site_fract_y
_atom_site_fract_z
Si Si1 0.952440 0.949709 0.306030
Si Si2 0.434757 0.918463 0.911016
Si Si3 0.949211 0.341792 0.561805
Si Si4 0.615897 0.937457 0.546918
Si Si5 0.754106 0.158862 0.167332
Si Si6 0.443475 0.022737 0.637160
Si Si7 0.293768 0.044666 0.981869
Si Si8 0.237182 0.541606 0.679200
O O1 0.973959 0.873837 0.365297
O O2 0.992522 0.929161 0.208373
O O3 0.833931 0.966764 0.300765
O O4 0.004050 0.029315 0.341988
O O5 0.358825 0.862325 0.859234
O O6 0.376123 0.974597 0.979782
O O7 0.510003 0.863401 0.965301
O O8 0.937041 0.250000 0.574107
O O9 0.839267 0.382322 0.573477
O O10 0.669128 0.861400 0.588154
O O11 0.596244 0.922412 0.442975
O O12 0.511445 0.953508 0.595590
O O13 0.689788 0.013344 0.559367
O O14 0.762162 0.250000 0.189192
O O15 0.787345 0.111241 0.253457
O O16 0.351216 0.985748 0.690550
O O17 0.278508 0.073153 0.081000
#
# Coordination Sequence:
#
# PCOD8250711 Si02
#       8
#     8   8   8   8   8   8   8   8
#     4  11  19  35  58  82 112 144 195 240 275 342
#     4  10  18  36  53  79 112 153 182 225 285 342
#     4  11  21  33  55  87 116 146 183 240 298 334
#     4   9  20  37  58  82 108 155 195 229 272 348
#     4  11  22  34  54  88 121 147 184 235 290 338
#     4  10  20  36  60  82 106 146 206 231 269 333
#     4   9  18  34  58  79 109 147 193 224 275 344
#     4  11  19  34  56  83 111 147 192 232 276 337
#
# _framework density 18.490431000000001
#
# number of rings (size 3 to 8) (size 9 to 14) (size 15 to 20)
#    0.000    1.750    5.000    1.125    0.000    0.500 
#    0.000    2.500    0.000    7.500    0.000    0.000 
#    0.000    0.000    0.000    0.000    0.000    0.000 
#
# Total GULP energy -793528.999991 kJ/mol
# GULP energy per Si atom -12398.890625 kJ/mol
# Density = 1.844835 g / cm^3
# Si number density = 18.490431 Si / 1000 Ang^3
#
#
#
# Elastic Constant Matrix: (Units=GPa)
#
#
# Indices 1 2 3 4 5 6 
#
# 1 101.3727 29.4854 20.5103 0.0000 0.0000 0.0000
# 2 29.4854 99.4773 28.1680 0.0000 0.0000 0.0000
# 3 20.5103 28.1680 74.5226 0.0000 0.0000 0.0000
# 4 0.0000 0.0000 0.0000 20.9163 0.0000 0.0000
# 5 0.0000 0.0000 0.0000 0.0000 28.8189 0.0000
# 6 0.0000 0.0000 0.0000 0.0000 0.0000 16.3864
#
#
#
# Elastic Compliance Matrix: (Units=1/GPa)
#
#
# Indices 1 2 3 4 5 6 
#
# 1 0.011061 -0.002706 -0.002021 0.000000 0.000000 0.000000
# 2 -0.002706 0.011919 -0.003761 0.000000 0.000000 0.000000
# 3 -0.002021 -0.003761 0.015396 0.000000 0.000000 0.000000
# 4 0.000000 0.000000 0.000000 0.047810 0.000000 0.000000
# 5 0.000000 0.000000 0.000000 0.000000 0.034699 0.000000
# 6 0.000000 0.000000 0.000000 0.000000 0.000000 0.061026
#
#
# Mechanical properties :
#
#
# Convention : Reuss Voigt Hill
#
# Bulk Modulus (GPa) = 46.72730 47.96666 47.34698
# Shear Modulus (GPa) = 24.26937 26.37160 25.32049
#
# Velocity S-wave (km/s) = 3.62683 3.78064 3.70453
# Velocity P-wave (km/s) = 6.54709 6.71233 6.63022
#
# Compressibility (1/GPa) = 0.02140076
#
# Stress axis : x y z
#
# Youngs Moduli (GPa) = 90.41070 83.89638 64.94993
#
# Poissons Ratio (x) = 0.22703 0.13128
# Poissons Ratio (y) = 0.24466 0.24425
# Poissons Ratio (z) = 0.18275 0.31550
#
# Static dielectric constant tensor:
#      x y z
#    x 3.690680 0.000000 0.000000 
#    y 0.000000 2.914440 0.000000 
#    z 0.000000 0.000000 3.475740 
# 
# 
# High freq. dielectric constant tensor:
#      x y z
#    x 1.732480 0.000000 0.000000 
#    y 0.000000 1.658610 0.000000 
#    z 0.000000 0.000000 1.728060 
# 
# From -- ./inp_files/19233.got.cif
#   From: 2010.03.12/outbox.cif.g09.slc.cpg/sg62_10_cif.got.tgz:19233.got - 2010.04.10 19:12:36.
