data_PCOD8250348
_publ_section_title
;
Structure prediction by ZEFSAII (Michael W. Deem and Ramdas Pophale) SiO2 
 PCOD8250348
Probable space group: P N M A
;
_chemical_formula_sum "Si O2"
_cell_formula_units_Z 48
_cell_length_a 9.066629
_cell_length_b 10.982843
_cell_length_c 25.588777
_cell_angle_alpha 90.000000
_cell_angle_beta 90.000000
_cell_angle_gamma 90.000000
_cell_volume 2548.062932
_symmetry_space_group_name_H-M "P N M A"
_symmetry_group_IT_number 62
_symmetry_cell_setting 'orthorhombic'
loop_
_space_group_symop_operation_xyz
x,y,z
1/2-x,-y,1/2+z
1/2+x,1/2-y,1/2-z
-x,1/2+y,-z
-x,-y,-z
1/2+x,y,1/2-z
1/2-x,1/2+y,1/2+z
x,1/2-y,z
loop_
_atom_site_type_symbol
_atom_site_label
_atom_site_fract_x
_atom_site_fract_y
_atom_site_fract_z
Si Si1 0.117848 0.391535 0.497614
Si Si2 0.860648 0.250000 0.232316
Si Si3 0.339554 0.527087 0.888719
Si Si4 0.876927 0.991435 0.197830
Si Si5 0.864464 0.888173 0.389694
Si Si6 0.306828 0.391568 0.708479
Si Si7 0.065408 0.250000 0.320702
O O1 0.056296 0.250000 0.494550
O O2 0.212625 0.420184 0.445354
O O3 0.208901 0.404634 0.552282
O O4 0.000000 0.500000 0.500000
O O5 0.927074 0.131557 0.203384
O O6 0.683640 0.250000 0.226723
O O7 0.904987 0.250000 0.293483
O O8 0.197516 0.472143 0.859145
O O9 0.465170 0.426007 0.893557
O O10 0.417041 0.632760 0.856039
O O11 0.754670 0.962962 0.241717
O O12 0.017462 0.905697 0.204001
O O13 0.866186 0.750000 0.372480
O O14 0.768312 0.950592 0.343779
O O15 0.272408 0.250000 0.716453
#
# Coordination Sequence:
#
# PCOD8250348 Si02
#       7
#     8   4   8   8   8   8   4
#     4   9  17  33  56  83 112 146 188 236 281 339
#     4  10  20  32  48  72 104 138 174 214 268 316
#     4  10  19  32  53  80 104 141 179 227 276 328
#     4  11  22  35  54  78 111 143 185 223 279 337
#     4   9  19  34  55  78 106 141 181 225 277 325
#     4  11  22  37  54  79 110 146 185 227 279 335
#     4  10  18  30  48  72 102 136 174 216 266 322
#
# _framework density 18.83784
#
# number of rings (size 3 to 8) (size 9 to 14) (size 15 to 20)
#    0.000    2.000    0.833    4.500    0.000    2.667 
#    0.000    0.833    0.000    0.000    0.000    0.000 
#    0.000    0.000    0.000    0.000    0.000    0.000 
#
# Total GULP energy -594642.217881 kJ/mol
# GULP energy per Si atom -12388.379539 kJ/mol
# Density = 1.879496 g / cm^3
# Si number density = 18.837840 Si / 1000 Ang^3
#
#
#
# Elastic Constant Matrix: (Units=GPa)
#
#
# Indices 1 2 3 4 5 6 
#
# 1 48.4555 7.9083 26.4028 0.0000 0.0000 0.0000
# 2 7.9083 54.1083 28.2152 0.0000 0.0000 0.0000
# 3 26.4028 28.2152 117.5907 0.0000 0.0000 0.0000
# 4 0.0000 0.0000 0.0000 24.8923 0.0000 0.0000
# 5 0.0000 0.0000 0.0000 0.0000 28.2978 0.0000
# 6 0.0000 0.0000 0.0000 0.0000 0.0000 18.8469
#
#
#
# Elastic Compliance Matrix: (Units=1/GPa)
#
#
# Indices 1 2 3 4 5 6 
#
# 1 0.023543 -0.000782 -0.005098 0.000000 0.000000 0.000000
# 2 -0.000782 0.021151 -0.004899 0.000000 0.000000 0.000000
# 3 -0.005098 -0.004899 0.010824 0.000000 0.000000 0.000000
# 4 0.000000 0.000000 0.000000 0.040173 0.000000 0.000000
# 5 0.000000 0.000000 0.000000 0.000000 0.035338 0.000000
# 6 0.000000 0.000000 0.000000 0.000000 0.000000 0.053059
#
#
# Mechanical properties :
#
#
# Convention : Reuss Voigt Hill
#
# Bulk Modulus (GPa) = 29.44815 38.35634 33.90224
# Shear Modulus (GPa) = 23.04484 24.91596 23.98040
#
# Velocity S-wave (km/s) = 3.50140 3.64078 3.57177
# Velocity P-wave (km/s) = 5.65799 6.17084 5.91997
#
# Compressibility (1/GPa) = 0.03395799
#
# Stress axis : x y z
#
# Youngs Moduli (GPa) = 42.47495 47.28006 92.38380
#
# Poissons Ratio (x) = 0.03699 0.47102
# Poissons Ratio (y) = 0.03323 0.45262
# Poissons Ratio (z) = 0.21656 0.23164
#
# Static dielectric constant tensor:
#      x y z
#    x 3.086840 0.000000 0.000000 
#    y 0.000000 3.599960 0.000000 
#    z 0.000000 0.000000 4.042310 
# 
# 
# High freq. dielectric constant tensor:
#      x y z
#    x 1.684880 0.000000 0.000000 
#    y 0.000000 1.743980 0.000000 
#    z 0.000000 0.000000 1.749390 
# 
# From -- ./inp_files/28820.got.cif
#   From: 2010.03.12/outbox.cif.g09.slc.cpg/sg62_15_cif.got.tgz:28820.got - 2010.04.10 19:12:36.
