data_PCOD8250821
_publ_section_title
;
Structure prediction by ZEFSAII (Michael W. Deem and Ramdas Pophale) SiO2 
 PCOD8250821
Probable space group: P N M A
;
_chemical_formula_sum "Si O2"
_cell_formula_units_Z 56
_cell_length_a 29.529618
_cell_length_b 8.815978
_cell_length_c 13.668009
_cell_angle_alpha 90.000000
_cell_angle_beta 90.000000
_cell_angle_gamma 90.000000
_cell_volume 3558.226442
_symmetry_space_group_name_H-M "P N M A"
_symmetry_group_IT_number 62
_symmetry_cell_setting 'orthorhombic'
loop_
_space_group_symop_operation_xyz
x,y,z
1/2-x,-y,1/2+z
1/2+x,1/2-y,1/2-z
-x,1/2+y,-z
-x,-y,-z
1/2+x,y,1/2-z
1/2-x,1/2+y,1/2+z
x,1/2-y,z
loop_
_atom_site_type_symbol
_atom_site_label
_atom_site_fract_x
_atom_site_fract_y
_atom_site_fract_z
Si Si1 0.317548 0.572014 0.288865
Si Si2 0.766601 0.930705 0.399031
Si Si3 0.904418 0.571681 0.107190
Si Si4 0.908262 0.927844 0.886385
Si Si5 0.314671 0.570666 0.709919
Si Si6 0.997016 0.072728 0.894440
Si Si7 0.272951 0.428739 0.895987
O O1 0.323469 0.750000 0.280674
O O2 0.303128 0.512124 0.181748
O O3 0.364822 0.497338 0.325631
O O4 0.278522 0.531667 0.366817
O O5 0.761342 0.750000 0.398446
O O6 0.718253 0.003781 0.373087
O O7 0.784305 0.989368 0.502630
O O8 0.895473 0.750000 0.100543
O O9 0.953897 0.538314 0.155720
O O10 0.901128 0.507118 0.996463
O O11 0.916265 0.750000 0.890081
O O12 0.865685 0.971395 0.820044
O O13 0.953814 0.001072 0.838390
O O14 0.306971 0.750000 0.716591
O O15 0.306745 0.493685 0.814538
O O16 0.989130 0.250000 0.904538
O O17 0.000000 0.000000 0.000000
O O18 0.280722 0.250000 0.905844
#
# Coordination Sequence:
#
# PCOD8250821 Si02
#       7
#     8   8   8   8   8   8   8
#     4   8  15  27  43  62  84 112 146 176 209 256
#     4  10  19  30  45  66  90 117 148 183 220 261
#     4   8  13  24  41  61  84 112 143 172 207 256
#     4   9  17  28  43  62  87 118 147 176 218 267
#     4  10  19  31  47  66  88 117 151 185 221 263
#     4   9  16  25  40  61  86 114 144 178 216 259
#     4  10  19  31  46  64  89 120 149 182 220 260
#
# _framework density 15.738178
#
# number of rings (size 3 to 8) (size 9 to 14) (size 15 to 20)
#    0.000    2.857    0.000    4.286    0.000    3.429 
#    0.000    0.000    0.000   16.286    0.000    1.000 
#    0.000    0.000    0.000    0.000    0.000    0.000 
#
# Total GULP energy -693981.813972 kJ/mol
# GULP energy per Si atom -12392.532392 kJ/mol
# Density = 1.570236 g / cm^3
# Si number density = 15.738178 Si / 1000 Ang^3
#
#
#
# Elastic Constant Matrix: (Units=GPa)
#
#
# Indices 1 2 3 4 5 6 
#
# 1 139.8878 43.8868 44.9880 0.0000 0.0000 0.0000
# 2 43.8868 42.9780 20.8957 0.0000 0.0000 0.0000
# 3 44.9880 20.8957 72.0507 0.0000 0.0000 0.0000
# 4 0.0000 0.0000 0.0000 21.4370 0.0000 0.0000
# 5 0.0000 0.0000 0.0000 0.0000 19.7243 0.0000
# 6 0.0000 0.0000 0.0000 0.0000 0.0000 23.4217
#
#
#
# Elastic Compliance Matrix: (Units=1/GPa)
#
#
# Indices 1 2 3 4 5 6 
#
# 1 0.011623 -0.009709 -0.004442 0.000000 0.000000 0.000000
# 2 -0.009709 0.035198 -0.004145 0.000000 0.000000 0.000000
# 3 -0.004442 -0.004145 0.017855 0.000000 0.000000 0.000000
# 4 0.000000 0.000000 0.000000 0.046648 0.000000 0.000000
# 5 0.000000 0.000000 0.000000 0.000000 0.050699 0.000000
# 6 0.000000 0.000000 0.000000 0.000000 0.000000 0.042695
#
#
# Mechanical properties :
#
#
# Convention : Reuss Voigt Hill
#
# Bulk Modulus (GPa) = 35.60877 52.71751 44.16314
# Shear Modulus (GPa) = 19.94639 22.59301 21.26970
#
# Velocity S-wave (km/s) = 3.56390 3.79298 3.68022
# Velocity P-wave (km/s) = 6.29365 7.26303 6.79565
#
# Compressibility (1/GPa) = 0.02808297
#
# Stress axis : x y z
#
# Youngs Moduli (GPa) = 86.03546 28.41069 56.00797
#
# Poissons Ratio (x) = 0.27585 0.24876
# Poissons Ratio (y) = 0.83536 0.23218
# Poissons Ratio (z) = 0.38213 0.11777
#
# Static dielectric constant tensor:
#      x y z
#    x 3.453680 0.000000 0.000000 
#    y 0.000000 2.935220 0.000000 
#    z 0.000000 0.000000 2.907250 
# 
# 
# High freq. dielectric constant tensor:
#      x y z
#    x 1.607200 0.000000 0.000000 
#    y 0.000000 1.595620 0.000000 
#    z 0.000000 0.000000 1.572150 
# 
# From -- ./inp_files/21168.got.cif
#   From: 2010.03.12/outbox.cif.g09.slc.cpg/sg62_11_cif.got.tgz:21168.got - 2010.04.10 19:12:36.
