data_PCOD8250962
_publ_section_title
;
Structure prediction by ZEFSAII (Michael W. Deem and Ramdas Pophale) SiO2 
 PCOD8250962
Probable space group: P N M A
;
_chemical_formula_sum "Si O2"
_cell_formula_units_Z 64
_cell_length_a 18.916116
_cell_length_b 9.288883
_cell_length_c 23.218923
_cell_angle_alpha 90.000000
_cell_angle_beta 90.000000
_cell_angle_gamma 90.000000
_cell_volume 4079.787402
_symmetry_space_group_name_H-M "P N M A"
_symmetry_group_IT_number 62
_symmetry_cell_setting 'orthorhombic'
loop_
_space_group_symop_operation_xyz
x,y,z
1/2-x,-y,1/2+z
1/2+x,1/2-y,1/2-z
-x,1/2+y,-z
-x,-y,-z
1/2+x,y,1/2-z
1/2-x,1/2+y,1/2+z
x,1/2-y,z
loop_
_atom_site_type_symbol
_atom_site_label
_atom_site_fract_x
_atom_site_fract_y
_atom_site_fract_z
Si Si1 0.775462 0.919088 0.667366
Si Si2 0.635558 0.082102 0.273482
Si Si3 0.002893 0.918739 0.381180
Si Si4 0.499951 0.580182 0.252540
Si Si5 0.632083 0.080636 0.063216
Si Si6 0.359954 0.081363 0.270763
Si Si7 0.727715 0.914386 0.842671
Si Si8 0.646212 0.418946 0.932887
O O1 0.775314 0.750000 0.678397
O O2 0.830461 0.980579 0.714415
O O3 0.801330 0.962350 0.603670
O O4 0.695218 0.970500 0.679438
O O5 0.615085 0.250000 0.267987
O O6 0.691114 0.057361 0.325050
O O7 0.565812 0.989277 0.286375
O O8 0.014856 0.750000 0.390280
O O9 0.928288 0.969840 0.406850
O O10 0.005347 0.961950 0.314470
O O11 0.062186 0.001585 0.416287
O O12 0.498887 0.750000 0.262360
O O13 0.429357 0.513285 0.279467
O O14 0.616601 0.250000 0.066473
O O15 0.651420 0.031229 0.999069
O O16 0.378842 0.250000 0.275835
O O17 0.324365 0.045626 0.209586
O O18 0.716587 0.750000 0.860304
O O19 0.710219 0.009567 0.898170
O O20 0.655479 0.250000 0.926631
#
# Coordination Sequence:
#
# PCOD8250962 Si02
#       8
#     8   8   8   8   8   8   8   8
#     4   8  15  29  47  67  87 111 153 198 225 260
#     4   9  17  31  49  67  89 118 155 193 227 269
#     4  10  20  31  40  61  98 129 155 187 218 261
#     4  11  20  29  44  69  97 124 150 182 229 278
#     4  10  19  31  49  67  87 124 164 193 224 263
#     4   9  17  30  48  66  87 117 152 190 229 268
#     4   9  18  31  48  68  88 118 158 194 228 267
#     4  10  20  32  45  65  95 127 157 190 228 268
#
# _framework density 15.687092
#
# number of rings (size 3 to 8) (size 9 to 14) (size 15 to 20)
#    0.000    2.500    2.500    2.250    0.000    2.000 
#    0.000    2.500    0.000    0.000    0.000    0.875 
#    0.000    0.000    0.000    0.000    0.000    0.000 
#
# Total GULP energy -793533.108078 kJ/mol
# GULP energy per Si atom -12398.954814 kJ/mol
# Density = 1.565139 g / cm^3
# Si number density = 15.687092 Si / 1000 Ang^3
#
#
#
# Elastic Constant Matrix: (Units=GPa)
#
#
# Indices 1 2 3 4 5 6 
#
# 1 123.0792 47.8179 50.1263 0.0000 0.0000 0.0000
# 2 47.8179 46.8286 30.3085 0.0000 0.0000 0.0000
# 3 50.1263 30.3085 78.4367 0.0000 0.0000 0.0000
# 4 0.0000 0.0000 0.0000 19.4779 0.0000 0.0000
# 5 0.0000 0.0000 0.0000 0.0000 22.2410 0.0000
# 6 0.0000 0.0000 0.0000 0.0000 0.0000 21.8621
#
#
#
# Elastic Compliance Matrix: (Units=1/GPa)
#
#
# Indices 1 2 3 4 5 6 
#
# 1 0.014706 -0.011914 -0.004795 0.000000 0.000000 0.000000
# 2 -0.011914 0.038127 -0.007119 0.000000 0.000000 0.000000
# 3 -0.004795 -0.007119 0.018564 0.000000 0.000000 0.000000
# 4 0.000000 0.000000 0.000000 0.051340 0.000000 0.000000
# 5 0.000000 0.000000 0.000000 0.000000 0.044962 0.000000
# 6 0.000000 0.000000 0.000000 0.000000 0.000000 0.045741
#
#
# Mechanical properties :
#
#
# Convention : Reuss Voigt Hill
#
# Bulk Modulus (GPa) = 42.11791 56.09441 49.10616
# Shear Modulus (GPa) = 18.58664 20.72232 19.65448
#
# Velocity S-wave (km/s) = 3.44588 3.63847 3.54348
# Velocity P-wave (km/s) = 6.53752 7.31350 6.93637
#
# Compressibility (1/GPa) = 0.02374287
#
# Stress axis : x y z
#
# Youngs Moduli (GPa) = 67.99860 26.22783 53.86718
#
# Poissons Ratio (x) = 0.31247 0.25828
# Poissons Ratio (y) = 0.81011 0.38349
# Poissons Ratio (z) = 0.32604 0.18672
#
# Static dielectric constant tensor:
#      x y z
#    x 3.000850 0.000000 0.000000 
#    y 0.000000 2.823920 0.000000 
#    z 0.000000 0.000000 2.924390 
# 
# 
# High freq. dielectric constant tensor:
#      x y z
#    x 1.600060 0.000000 0.000000 
#    y 0.000000 1.591950 0.000000 
#    z 0.000000 0.000000 1.577290 
# 
# From -- ./inp_files/27876.got.cif
#   From: 2010.03.12/outbox.cif.g09.slc.cpg/sg62_14_cif.got.tgz:27876.got - 2010.04.10 19:12:36.
