data_PCOD8250215
_publ_section_title
;
Structure prediction by ZEFSAII (Michael W. Deem and Ramdas Pophale) SiO2 
 PCOD8250215
Probable space group: P N M A
;
_chemical_formula_sum "Si O2"
_cell_formula_units_Z 64
_cell_length_a 29.439601
_cell_length_b 9.380787
_cell_length_c 12.208968
_cell_angle_alpha 90.000000
_cell_angle_beta 90.000000
_cell_angle_gamma 90.000000
_cell_volume 3371.709504
_symmetry_space_group_name_H-M "P N M A"
_symmetry_group_IT_number 62
_symmetry_cell_setting 'orthorhombic'
loop_
_space_group_symop_operation_xyz
x,y,z
1/2-x,-y,1/2+z
1/2+x,1/2-y,1/2-z
-x,1/2+y,-z
-x,-y,-z
1/2+x,y,1/2-z
1/2-x,1/2+y,1/2+z
x,1/2-y,z
loop_
_atom_site_type_symbol
_atom_site_label
_atom_site_fract_x
_atom_site_fract_y
_atom_site_fract_z
Si Si1 0.151021 0.411019 0.891303
Si Si2 0.571563 0.909717 0.289592
Si Si3 0.661234 0.082480 0.251137
Si Si4 0.931000 0.088047 0.041054
Si Si5 0.973263 0.581863 0.228513
Si Si6 0.313980 0.580940 0.990839
Si Si7 0.884657 0.586375 0.340937
Si Si8 0.272992 0.586043 0.553803
O O1 0.134294 0.250000 0.918522
O O2 0.149559 0.437691 0.761311
O O3 0.119278 0.522682 0.952713
O O4 0.201678 0.432619 0.937322
O O5 0.588123 0.750000 0.260663
O O6 0.555206 0.918622 0.414805
O O7 0.524242 0.947551 0.225650
O O8 0.611314 0.016389 0.259380
O O9 0.653595 0.250000 0.257856
O O10 0.694292 0.030627 0.348201
O O11 0.683419 0.036514 0.135935
O O12 0.930146 0.250000 0.084428
O O13 0.966084 0.997375 0.113019
O O14 0.965619 0.750000 0.207443
O O15 0.934777 0.521938 0.313764
O O16 0.308849 0.750000 0.005601
O O17 0.359573 0.521934 0.052228
O O18 0.271485 0.509318 0.050328
O O19 0.892706 0.750000 0.366297
O O20 0.259258 0.750000 0.574762
#
# Coordination Sequence:
#
# PCOD8250215 Si02
#       8
#     8   8   8   8   8   8   8   8
#     4   9  17  32  53  74 101 139 175 208 258 319
#     4  10  20  33  52  79 108 143 184 225 268 316
#     4  10  22  39  56  78 110 143 175 219 273 323
#     4  10  18  28  46  78 112 138 171 217 268 313
#     4   9  18  33  53  76 107 146 185 221 265 323
#     4  10  22  38  57  79 104 138 180 222 267 315
#     4   8  16  33  55  76 101 138 180 216 255 315
#     4  10  21  36  55  79 105 137 175 213 267 326
#
# _framework density 18.981469000000001
#
# number of rings (size 3 to 8) (size 9 to 14) (size 15 to 20)
#    0.000    2.500    1.250    1.500    1.750    2.500 
#    0.000    3.125    0.000    0.000    0.000    0.000 
#    0.000    0.000    0.000    0.000    0.000    0.000 
#
# Total GULP energy -793198.608905 kJ/mol
# GULP energy per Si atom -12393.728264 kJ/mol
# Density = 1.893827 g / cm^3
# Si number density = 18.981469 Si / 1000 Ang^3
#
#
#
# Elastic Constant Matrix: (Units=GPa)
#
#
# Indices 1 2 3 4 5 6 
#
# 1 132.0580 42.6462 46.1037 0.0000 0.0000 0.0000
# 2 42.6462 54.9028 23.5612 0.0000 0.0000 0.0000
# 3 46.1037 23.5612 72.8596 0.0000 0.0000 0.0000
# 4 0.0000 0.0000 0.0000 14.1629 0.0000 0.0000
# 5 0.0000 0.0000 0.0000 0.0000 21.8631 0.0000
# 6 0.0000 0.0000 0.0000 0.0000 0.0000 30.2949
#
#
#
# Elastic Compliance Matrix: (Units=1/GPa)
#
#
# Indices 1 2 3 4 5 6 
#
# 1 0.011546 -0.006773 -0.005116 0.000000 0.000000 0.000000
# 2 -0.006773 0.025122 -0.003838 0.000000 0.000000 0.000000
# 3 -0.005116 -0.003838 0.018203 0.000000 0.000000 0.000000
# 4 0.000000 0.000000 0.000000 0.070607 0.000000 0.000000
# 5 0.000000 0.000000 0.000000 0.000000 0.045739 0.000000
# 6 0.000000 0.000000 0.000000 0.000000 0.000000 0.033009
#
#
# Mechanical properties :
#
#
# Convention : Reuss Voigt Hill
#
# Bulk Modulus (GPa) = 42.70301 53.82697 48.26499
# Shear Modulus (GPa) = 20.53518 23.09814 21.81666
#
# Velocity S-wave (km/s) = 3.29272 3.49216 3.39391
# Velocity P-wave (km/s) = 6.08293 6.68427 6.39068
#
# Compressibility (1/GPa) = 0.02341755
#
# Stress axis : x y z
#
# Youngs Moduli (GPa) = 86.61360 39.80579 54.93530
#
# Poissons Ratio (x) = 0.26960 0.28102
# Poissons Ratio (y) = 0.58661 0.21086
# Poissons Ratio (z) = 0.44308 0.15279
#
# Static dielectric constant tensor:
#      x y z
#    x 3.542890 0.000000 0.000000 
#    y 0.000000 3.305650 0.000000 
#    z 0.000000 0.000000 3.493370 
# 
# 
# High freq. dielectric constant tensor:
#      x y z
#    x 1.741490 0.000000 0.000000 
#    y 0.000000 1.718020 0.000000 
#    z 0.000000 0.000000 1.720530 
# 
# From -- ./inp_files/15774.got.cif
#   From: 2010.03.12/outbox.cif.g09.slc.cpg/sg62_8_cif.got.tgz:15774.got - 2010.04.10 19:12:36.
