data_PCOD8250316
_publ_section_title
;
Structure prediction by ZEFSAII (Michael W. Deem and Ramdas Pophale) SiO2 
 PCOD8250316
Probable space group: P N M A
;
_chemical_formula_sum "Si O2"
_cell_formula_units_Z 48
_cell_length_a 12.966460
_cell_length_b 9.551031
_cell_length_c 18.920049
_cell_angle_alpha 90.000000
_cell_angle_beta 90.000000
_cell_angle_gamma 90.000000
_cell_volume 2343.116790
_symmetry_space_group_name_H-M "P N M A"
_symmetry_group_IT_number 62
_symmetry_cell_setting 'orthorhombic'
loop_
_space_group_symop_operation_xyz
x,y,z
1/2-x,-y,1/2+z
1/2+x,1/2-y,1/2-z
-x,1/2+y,-z
-x,-y,-z
1/2+x,y,1/2-z
1/2-x,1/2+y,1/2+z
x,1/2-y,z
loop_
_atom_site_type_symbol
_atom_site_label
_atom_site_fract_x
_atom_site_fract_y
_atom_site_fract_z
Si Si1 0.428868 0.597916 0.044462
Si Si2 0.271975 0.408454 0.107838
Si Si3 0.058399 0.903011 0.318597
Si Si4 0.099881 0.407188 0.007528
Si Si5 0.892373 0.414412 0.251816
Si Si6 0.214836 0.087536 0.865721
O O1 0.410359 0.750000 0.007929
O O2 0.322306 0.518149 0.054495
O O3 0.479765 0.623091 0.119125
O O4 0.500000 0.500000 0.000000
O O5 0.309396 0.250000 0.090215
O O6 0.302706 0.441991 0.188937
O O7 0.151198 0.424115 0.086246
O O8 0.072015 0.750000 0.280171
O O9 0.167023 0.956802 0.350173
O O10 0.005219 0.021423 0.270014
O O11 0.060185 0.250000 0.997501
O O12 0.185613 0.440973 0.947315
O O13 0.000000 0.500000 0.000000
O O14 0.907753 0.250000 0.238685
O O15 0.857899 0.489652 0.180855
O O16 0.197538 0.250000 0.845515
#
# Coordination Sequence:
#
# PCOD8250316 Si02
#       6
#     8   8   8   8   8   8
#     4  10  18  29  50  79 108 137 172 217 270 328
#     4   9  19  37  56  76 107 144 184 233 286 336
#     4   9  19  36  56  78 107 145 187 229 276 335
#     4  10  22  40  60  83 114 152 194 240 289 342
#     4  10  21  36  57  86 117 148 187 241 299 348
#     4  10  21  38  59  82 113 154 195 234 281 343
#
# _framework density 20.485534999999999
#
# number of rings (size 3 to 8) (size 9 to 14) (size 15 to 20)
#    0.000    2.333    0.000    2.000    0.000    7.333 
#    0.000    5.000    0.000    0.000    0.000    0.000 
#    0.000    0.000    0.000    0.000    0.000    0.000 
#
# Total GULP energy -594715.389736 kJ/mol
# GULP energy per Si atom -12389.903953 kJ/mol
# Density = 2.043891 g / cm^3
# Si number density = 20.485535 Si / 1000 Ang^3
#
#
#
# Elastic Constant Matrix: (Units=GPa)
#
#
# Indices 1 2 3 4 5 6 
#
# 1 87.4786 25.8522 10.7148 0.0000 0.0000 0.0000
# 2 25.8522 99.5948 23.4240 0.0000 0.0000 0.0000
# 3 10.7148 23.4240 46.7784 0.0000 0.0000 0.0000
# 4 0.0000 0.0000 0.0000 27.8644 0.0000 0.0000
# 5 0.0000 0.0000 0.0000 0.0000 29.0043 0.0000
# 6 0.0000 0.0000 0.0000 0.0000 0.0000 36.5904
#
#
#
# Elastic Compliance Matrix: (Units=1/GPa)
#
#
# Indices 1 2 3 4 5 6 
#
# 1 0.012461 -0.002906 -0.001399 0.000000 0.000000 0.000000
# 2 -0.002906 0.012058 -0.005373 0.000000 0.000000 0.000000
# 3 -0.001399 -0.005373 0.024388 0.000000 0.000000 0.000000
# 4 0.000000 0.000000 0.000000 0.035888 0.000000 0.000000
# 5 0.000000 0.000000 0.000000 0.000000 0.034478 0.000000
# 6 0.000000 0.000000 0.000000 0.000000 0.000000 0.027330
#
#
# Mechanical properties :
#
#
# Convention : Reuss Voigt Hill
#
# Bulk Modulus (GPa) = 33.83760 39.31485 36.57623
# Shear Modulus (GPa) = 28.43984 30.28254 29.36119
#
# Velocity S-wave (km/s) = 3.73002 3.84896 3.78996
# Velocity P-wave (km/s) = 5.92489 6.24386 6.08647
#
# Compressibility (1/GPa) = 0.02955292
#
# Stress axis : x y z
#
# Youngs Moduli (GPa) = 80.24763 82.92907 41.00337
#
# Poissons Ratio (x) = 0.24095 0.05738
# Poissons Ratio (y) = 0.23316 0.22030
# Poissons Ratio (z) = 0.11230 0.44555
#
# Static dielectric constant tensor:
#      x y z
#    x 3.625460 0.000000 0.000000 
#    y 0.000000 4.180520 0.000000 
#    z 0.000000 0.000000 3.654970 
# 
# 
# High freq. dielectric constant tensor:
#      x y z
#    x 1.791720 0.000000 0.000000 
#    y 0.000000 1.810770 0.000000 
#    z 0.000000 0.000000 1.781270 
# 
# From -- ./inp_files/29234.got.cif
#   From: 2010.03.12/outbox.cif.g09.slc.cpg/sg62_15_cif.got.tgz:29234.got - 2010.04.10 19:12:36.
