data_PCOD8250380
_publ_section_title
;
Structure prediction by ZEFSAII (Michael W. Deem and Ramdas Pophale) SiO2 
 PCOD8250380
Probable space group: P N M A
;
_chemical_formula_sum "Si O2"
_cell_formula_units_Z 40
_cell_length_a 12.436231
_cell_length_b 8.955577
_cell_length_c 20.944751
_cell_angle_alpha 90.000000
_cell_angle_beta 90.000000
_cell_angle_gamma 90.000000
_cell_volume 2332.692829
_symmetry_space_group_name_H-M "P N M A"
_symmetry_group_IT_number 62
_symmetry_cell_setting 'orthorhombic'
loop_
_space_group_symop_operation_xyz
x,y,z
1/2-x,-y,1/2+z
1/2+x,1/2-y,1/2-z
-x,1/2+y,-z
-x,-y,-z
1/2+x,y,1/2-z
1/2-x,1/2+y,1/2+z
x,1/2-y,z
loop_
_atom_site_type_symbol
_atom_site_label
_atom_site_fract_x
_atom_site_fract_y
_atom_site_fract_z
Si Si1 0.653959 0.920583 0.326826
Si Si2 0.671743 0.574490 0.662095
Si Si3 0.093688 0.076987 0.300394
Si Si4 0.112746 0.077507 0.706869
Si Si5 0.515449 0.075459 0.567505
O O1 0.633494 0.750000 0.304724
O O2 0.781695 0.948354 0.336690
O O3 0.593129 0.955605 0.392452
O O4 0.609596 0.029553 0.272895
O O5 0.648296 0.750000 0.661470
O O6 0.799494 0.540741 0.658982
O O7 0.622078 0.506773 0.726026
O O8 0.618754 0.497303 0.601081
O O9 0.065895 0.250000 0.302116
O O10 0.991714 0.987890 0.329784
O O11 0.094406 0.250000 0.722345
O O12 0.537214 0.250000 0.558849
O O13 0.500000 0.000000 0.500000
#
# Coordination Sequence:
#
# PCOD8250380 Si02
#       5
#     8   8   8   8   8
#     4   9  19  33  49  72 101 134 171 207 251 303
#     4  10  20  33  49  74 104 134 171 211 253 302
#     4  10  19  30  49  76 106 134 163 208 259 304
#     4  10  18  30  50  75 104 134 165 207 255 307
#     4  11  22  36  54  75 102 138 174 213 255 303
#
# _framework density 17.147565
#
# number of rings (size 3 to 8) (size 9 to 14) (size 15 to 20)
#    0.000    2.000    2.000    2.400    0.000    4.000 
#    0.000    0.000    0.000    1.200    0.000    0.000 
#    0.000    0.000    0.000    0.000    0.000    0.000 
#
# Total GULP energy -495990.205260 kJ/mol
# GULP energy per Si atom -12399.755132 kJ/mol
# Density = 1.710854 g / cm^3
# Si number density = 17.147565 Si / 1000 Ang^3
#
#
#
# Elastic Constant Matrix: (Units=GPa)
#
#
# Indices 1 2 3 4 5 6 
#
# 1 150.8250 69.0619 49.8742 0.0000 0.0000 0.0000
# 2 69.0619 104.2813 43.6311 0.0000 0.0000 0.0000
# 3 49.8742 43.6311 82.2591 0.0000 0.0000 0.0000
# 4 0.0000 0.0000 0.0000 24.5267 0.0000 0.0000
# 5 0.0000 0.0000 0.0000 0.0000 22.4550 0.0000
# 6 0.0000 0.0000 0.0000 0.0000 0.0000 33.0057
#
#
#
# Elastic Compliance Matrix: (Units=1/GPa)
#
#
# Indices 1 2 3 4 5 6 
#
# 1 0.010182 -0.005347 -0.003337 0.000000 0.000000 0.000000
# 2 -0.005347 0.015132 -0.004784 0.000000 0.000000 0.000000
# 3 -0.003337 -0.004784 0.016718 0.000000 0.000000 0.000000
# 4 0.000000 0.000000 0.000000 0.040772 0.000000 0.000000
# 5 0.000000 0.000000 0.000000 0.000000 0.044534 0.000000
# 6 0.000000 0.000000 0.000000 0.000000 0.000000 0.030298
#
#
# Mechanical properties :
#
#
# Convention : Reuss Voigt Hill
#
# Bulk Modulus (GPa) = 66.24809 73.61108 69.92958
# Shear Modulus (GPa) = 26.37061 27.65068 27.01064
#
# Velocity S-wave (km/s) = 3.92581 4.01997 3.97317
# Velocity P-wave (km/s) = 7.69853 8.03542 7.86878
#
# Compressibility (1/GPa) = 0.01509478
#
# Stress axis : x y z
#
# Youngs Moduli (GPa) = 98.21133 66.08362 59.81597
#
# Poissons Ratio (x) = 0.35334 0.19963
# Poissons Ratio (y) = 0.52513 0.28619
# Poissons Ratio (z) = 0.32777 0.31618
#
# Static dielectric constant tensor:
#      x y z
#    x 3.803470 0.000000 0.000000 
#    y 0.000000 3.359020 0.000000 
#    z 0.000000 0.000000 2.825730 
# 
# 
# High freq. dielectric constant tensor:
#      x y z
#    x 1.683740 0.000000 0.000000 
#    y 0.000000 1.680020 0.000000 
#    z 0.000000 0.000000 1.605720 
# 
# From -- ./inp_files/22757.got.cif
#   From: 2010.03.12/outbox.cif.g09.slc.cpg/sg62_12_cif.got.tgz:22757.got - 2010.04.10 19:12:36.
