data_PCOD8250188
_publ_section_title
;
Structure prediction by ZEFSAII (Michael W. Deem and Ramdas Pophale) SiO2 
 PCOD8250188
Probable space group: P N M A
;
_chemical_formula_sum "Si O2"
_cell_formula_units_Z 64
_cell_length_a 26.200749
_cell_length_b 8.970143
_cell_length_c 18.157943
_cell_angle_alpha 90.000000
_cell_angle_beta 90.000000
_cell_angle_gamma 90.000000
_cell_volume 4267.560843
_symmetry_space_group_name_H-M "P N M A"
_symmetry_group_IT_number 62
_symmetry_cell_setting 'orthorhombic'
loop_
_space_group_symop_operation_xyz
x,y,z
1/2-x,-y,1/2+z
1/2+x,1/2-y,1/2-z
-x,1/2+y,-z
-x,-y,-z
1/2+x,y,1/2-z
1/2-x,1/2+y,1/2+z
x,1/2-y,z
loop_
_atom_site_type_symbol
_atom_site_label
_atom_site_fract_x
_atom_site_fract_y
_atom_site_fract_z
Si Si1 0.252268 0.925133 0.923662
Si Si2 0.548935 0.922621 0.915817
Si Si3 0.197726 0.918282 0.206534
Si Si4 0.146945 0.424908 0.334321
Si Si5 0.698930 0.082145 0.701873
Si Si6 0.748840 0.574412 0.919131
Si Si7 0.554941 0.922928 0.085578
Si Si8 0.149358 0.576098 0.671297
O O1 0.245451 0.750000 0.933791
O O2 0.307040 0.966706 0.889239
O O3 0.206876 0.985397 0.871665
O O4 0.247350 0.004924 0.000984
O O5 0.533945 0.750000 0.905852
O O6 0.595892 0.969605 0.864629
O O7 0.501572 0.024405 0.892136
O O8 0.565014 0.954254 0.999726
O O9 0.180516 0.750000 0.188713
O O10 0.249794 0.921264 0.251432
O O11 0.154295 0.997641 0.255072
O O12 0.205699 0.007419 0.130620
O O13 0.144081 0.250000 0.320854
O O14 0.094668 0.481706 0.368375
O O15 0.683601 0.250000 0.679978
O O16 0.654246 0.011193 0.751638
O O17 0.756365 0.750000 0.924468
O O18 0.693985 0.531193 0.885356
O O19 0.561441 0.750000 0.105207
O O20 0.152491 0.750000 0.689246
#
# Coordination Sequence:
#
# PCOD8250188 Si02
#       8
#     8   8   8   8   8   8   8   8
#     4  10  19  29  42  61  85 113 144 175 209 251
#     4   9  18  31  44  60  84 113 144 178 215 252
#     4   9  17  29  43  60  83 110 141 175 210 250
#     4  10  19  30  44  61  83 113 146 178 214 254
#     4   9  17  28  42  60  82 108 139 175 211 248
#     4  10  18  28  43  63  87 113 142 175 211 251
#     4  10  19  30  44  62  84 111 144 181 217 251
#     4   9  17  29  44  60  82 113 144 174 211 253
#
# _framework density 14.996857
#
# number of rings (size 3 to 8) (size 9 to 14) (size 15 to 20)
#    0.000    2.500    0.000    3.000    0.000    7.000 
#    0.000    0.000    0.000    0.000    0.000    0.000 
#    0.000    1.000    0.000    3.750    0.000    5.750 
#
# Total GULP energy -793690.642858 kJ/mol
# GULP energy per Si atom -12401.416295 kJ/mol
# Density = 1.496272 g / cm^3
# Si number density = 14.996857 Si / 1000 Ang^3
#
#
#
# Elastic Constant Matrix: (Units=GPa)
#
#
# Indices 1 2 3 4 5 6 
#
# 1 63.7519 32.3795 44.9848 0.0000 0.0000 0.0000
# 2 32.3795 80.6276 55.6895 0.0000 0.0000 0.0000
# 3 44.9848 55.6895 100.6509 0.0000 0.0000 0.0000
# 4 0.0000 0.0000 0.0000 30.5314 0.0000 0.0000
# 5 0.0000 0.0000 0.0000 0.0000 23.5701 0.0000
# 6 0.0000 0.0000 0.0000 0.0000 0.0000 23.1016
#
#
#
# Elastic Compliance Matrix: (Units=1/GPa)
#
#
# Indices 1 2 3 4 5 6 
#
# 1 0.023518 -0.003536 -0.008555 0.000000 0.000000 0.000000
# 2 -0.003536 0.020606 -0.009821 0.000000 0.000000 0.000000
# 3 -0.008555 -0.009821 0.019193 0.000000 0.000000 0.000000
# 4 0.000000 0.000000 0.000000 0.032753 0.000000 0.000000
# 5 0.000000 0.000000 0.000000 0.000000 0.042427 0.000000
# 6 0.000000 0.000000 0.000000 0.000000 0.000000 0.043287
#
#
# Mechanical properties :
#
#
# Convention : Reuss Voigt Hill
#
# Bulk Modulus (GPa) = 51.29875 56.79312 54.04593
# Shear Modulus (GPa) = 21.54204 22.90574 22.22389
#
# Velocity S-wave (km/s) = 3.79415 3.91240 3.85373
# Velocity P-wave (km/s) = 7.31264 7.63946 7.47783
#
# Compressibility (1/GPa) = 0.01949365
#
# Stress axis : x y z
#
# Youngs Moduli (GPa) = 42.52038 48.52968 52.10352
#
# Poissons Ratio (x) = 0.17160 0.44573
# Poissons Ratio (y) = 0.15035 0.51170
# Poissons Ratio (z) = 0.36375 0.47660
#
# Static dielectric constant tensor:
#      x y z
#    x 2.690190 0.000000 0.000000 
#    y 0.000000 3.038670 0.000000 
#    z 0.000000 0.000000 2.870610 
# 
# 
# High freq. dielectric constant tensor:
#      x y z
#    x 1.539160 0.000000 0.000000 
#    y 0.000000 1.591650 0.000000 
#    z 0.000000 0.000000 1.563220 
# 
# From -- ./inp_files/24909.got.cif
#   From: 2010.03.12/outbox.cif.g09.slc.cpg/sg62_13_cif.got.tgz:24909.got - 2010.04.10 19:12:36.
