data_PCOD8250685
_publ_section_title
;
Structure prediction by ZEFSAII (Michael W. Deem and Ramdas Pophale) SiO2 
 PCOD8250685
Probable space group: P N M A
;
_chemical_formula_sum "Si O2"
_cell_formula_units_Z 28
_cell_length_a 5.268890
_cell_length_b 14.257985
_cell_length_c 22.742200
_cell_angle_alpha 90.000000
_cell_angle_beta 90.000000
_cell_angle_gamma 90.000000
_cell_volume 1708.479452
_symmetry_space_group_name_H-M "P N M A"
_symmetry_group_IT_number 62
_symmetry_cell_setting 'orthorhombic'
loop_
_space_group_symop_operation_xyz
x,y,z
1/2-x,-y,1/2+z
1/2+x,1/2-y,1/2-z
-x,1/2+y,-z
-x,-y,-z
1/2+x,y,1/2-z
1/2-x,1/2+y,1/2+z
x,1/2-y,z
loop_
_atom_site_type_symbol
_atom_site_label
_atom_site_fract_x
_atom_site_fract_y
_atom_site_fract_z
Si Si1 0.184039 0.493867 0.582149
Si Si2 0.922947 0.355972 0.505288
Si Si3 0.176101 0.250000 0.788903
Si Si4 0.690897 0.086300 0.618623
O O1 0.185611 0.598078 0.554566
O O2 0.440111 0.478035 0.618738
O O3 0.163721 0.417732 0.528296
O O4 0.941113 0.479718 0.625454
O O5 0.008657 0.250000 0.491810
O O6 0.709455 0.357367 0.556724
O O7 0.424713 0.250000 0.749514
O O8 0.176074 0.342695 0.827860
#
# Coordination Sequence:
#
# PCOD8250685 Si02
#       4
#     8   8   4   8
#     4   9  19  30  47  71  96 140 161 186 250 311
#     4   9  18  29  49  73  99 136 162 190 244 306
#     4  12  24  34  52  76  94 136 186 204 244 298
#     4  10  18  35  45  64 104 130 156 210 243 278
#
# _framework density 16.388842
#
# number of rings (size 3 to 8) (size 9 to 14) (size 15 to 20)
#    1.714    0.571    1.429    2.571    2.000    0.000 
#    0.000    0.000    0.000    0.000    0.000    0.000 
#    0.000   22.857    0.000    0.000    0.000    0.000 
#
# Total GULP energy -346896.878665 kJ/mol
# GULP energy per Si atom -12389.174238 kJ/mol
# Density = 1.635154 g / cm^3
# Si number density = 16.388842 Si / 1000 Ang^3
#
#
#
# Elastic Constant Matrix: (Units=GPa)
#
#
# Indices 1 2 3 4 5 6 
#
# 1 118.0971 18.8395 34.6129 0.0000 0.0000 0.0000
# 2 18.8395 84.2865 24.8411 0.0000 0.0000 0.0000
# 3 34.6129 24.8411 66.3250 0.0000 0.0000 0.0000
# 4 0.0000 0.0000 0.0000 33.8298 0.0000 0.0000
# 5 0.0000 0.0000 0.0000 0.0000 22.6613 0.0000
# 6 0.0000 0.0000 0.0000 0.0000 0.0000 10.6949
#
#
#
# Elastic Compliance Matrix: (Units=1/GPa)
#
#
# Indices 1 2 3 4 5 6 
#
# 1 0.010043 -0.000787 -0.004946 0.000000 0.000000 0.000000
# 2 -0.000787 0.013398 -0.004607 0.000000 0.000000 0.000000
# 3 -0.004946 -0.004607 0.019384 0.000000 0.000000 0.000000
# 4 0.000000 0.000000 0.000000 0.029560 0.000000 0.000000
# 5 0.000000 0.000000 0.000000 0.000000 0.044128 0.000000
# 6 0.000000 0.000000 0.000000 0.000000 0.000000 0.093503
#
#
# Mechanical properties :
#
#
# Convention : Reuss Voigt Hill
#
# Bulk Modulus (GPa) = 45.15922 47.25508 46.20715
# Shear Modulus (GPa) = 21.00152 26.13155 23.56654
#
# Velocity S-wave (km/s) = 3.58362 3.99742 3.79616
# Velocity P-wave (km/s) = 6.68863 7.08534 6.88984
#
# Compressibility (1/GPa) = 0.02214387
#
# Stress axis : x y z
#
# Youngs Moduli (GPa) = 99.57334 74.63751 51.58838
#
# Poissons Ratio (x) = 0.05874 0.25517
# Poissons Ratio (y) = 0.07836 0.23769
# Poissons Ratio (z) = 0.49252 0.34388
#
# Static dielectric constant tensor:
#      x y z
#    x 3.026660 0.000000 0.000000 
#    y 0.000000 2.841730 0.000000 
#    z 0.000000 0.000000 2.773090 
# 
# 
# High freq. dielectric constant tensor:
#      x y z
#    x 1.635010 0.000000 0.000000 
#    y 0.000000 1.608470 0.000000 
#    z 0.000000 0.000000 1.588160 
# 
# From -- ./inp_files/25155.got.cif
#   From: 2010.03.12/outbox.cif.g09.slc.cpg/sg62_13_cif.got.tgz:25155.got - 2010.04.10 19:12:36.
