data_PCOD8250100
_publ_section_title
;
Structure prediction by ZEFSAII (Michael W. Deem and Ramdas Pophale) SiO2 
 PCOD8250100
Probable space group: P N M A
;
_chemical_formula_sum "Si O2"
_cell_formula_units_Z 64
_cell_length_a 8.737906
_cell_length_b 17.883968
_cell_length_c 21.694053
_cell_angle_alpha 90.000000
_cell_angle_beta 90.000000
_cell_angle_gamma 90.000000
_cell_volume 3390.095631
_symmetry_space_group_name_H-M "P N M A"
_symmetry_group_IT_number 62
_symmetry_cell_setting 'orthorhombic'
loop_
_space_group_symop_operation_xyz
x,y,z
1/2-x,-y,1/2+z
1/2+x,1/2-y,1/2-z
-x,1/2+y,-z
-x,-y,-z
1/2+x,y,1/2-z
1/2-x,1/2+y,1/2+z
x,1/2-y,z
loop_
_atom_site_type_symbol
_atom_site_label
_atom_site_fract_x
_atom_site_fract_y
_atom_site_fract_z
Si Si1 0.216704 0.586384 0.703048
Si Si2 0.429974 0.519406 0.434246
Si Si3 0.299775 0.404336 0.008307
Si Si4 0.757360 0.968537 0.390395
Si Si5 0.381894 0.827545 0.606513
Si Si6 0.605365 0.163717 0.193642
Si Si7 0.113164 0.162328 0.540476
Si Si8 0.207260 0.635683 0.920790
O O1 0.190502 0.501005 0.677949
O O2 0.350596 0.608376 0.655354
O O3 0.288153 0.603319 0.769939
O O4 0.068210 0.637233 0.697073
O O5 0.500000 0.500000 0.500000
O O6 0.296833 0.580307 0.445503
O O7 0.571965 0.543605 0.390902
O O8 0.340821 0.449015 0.406584
O O9 0.461776 0.371529 0.989796
O O10 0.315130 0.476890 0.053663
O O11 0.204101 0.341302 0.042803
O O12 0.839098 0.887846 0.400027
O O13 0.318871 0.750000 0.634354
O O14 0.560403 0.815238 0.594670
O O15 0.618656 0.250000 0.218045
O O16 0.652747 0.160443 0.122487
O O17 0.094193 0.250000 0.558759
O O18 0.247977 0.151676 0.491018
#
# Coordination Sequence:
#
# PCOD8250100 Si02
#       8
#     8   8   8   8   8   8   8   8
#     4  11  24  40  57  79 110 155 195 233 276 330
#     4  10  17  35  55  78 105 150 198 230 272 332
#     4  10  19  32  53  76 111 150 187 232 276 339
#     4  10  20  38  58  78 110 155 195 237 278 341
#     4  11  19  32  51  76 110 151 190 229 275 329
#     4  12  25  39  55  82 118 152 191 237 278 331
#     4  12  23  34  53  88 120 150 189 237 295 342
#     4  12  21  34  55  81 116 155 191 228 280 339
#
# _framework density 18.878523999999999
#
# number of rings (size 3 to 8) (size 9 to 14) (size 15 to 20)
#    0.000    1.000    6.250    5.250    1.750    0.000 
#    0.000    0.625    0.000    0.000    0.000    0.875 
#    0.000    0.000    0.000    0.000    0.000    0.000 
#
# Total GULP energy -792846.934110 kJ/mol
# GULP energy per Si atom -12388.233345 kJ/mol
# Density = 1.883556 g / cm^3
# Si number density = 18.878524 Si / 1000 Ang^3
#
#
#
# Elastic Constant Matrix: (Units=GPa)
#
#
# Indices 1 2 3 4 5 6 
#
# 1 79.4904 22.0427 7.6503 0.0000 0.0000 0.0000
# 2 22.0427 83.5193 24.4869 0.0000 0.0000 0.0000
# 3 7.6503 24.4869 48.0552 0.0000 0.0000 0.0000
# 4 0.0000 0.0000 0.0000 -5.6507 0.0000 0.0000
# 5 0.0000 0.0000 0.0000 0.0000 20.6089 0.0000
# 6 0.0000 0.0000 0.0000 0.0000 0.0000 238.0247
#
#
#
# Elastic Compliance Matrix: (Units=1/GPa)
#
#
# Indices 1 2 3 4 5 6 
#
# 1 0.013580 -0.003468 -0.000395 0.000000 0.000000 0.000000
# 2 -0.003468 0.014962 -0.007072 0.000000 0.000000 0.000000
# 3 -0.000395 -0.007072 0.024476 0.000000 0.000000 0.000000
# 4 0.000000 0.000000 0.000000 -0.176971 0.000000 0.000000
# 5 0.000000 0.000000 0.000000 0.000000 0.048523 0.000000
# 6 0.000000 0.000000 0.000000 0.000000 0.000000 0.004201
#
#
# Mechanical properties :
#
#
# Convention : Reuss Voigt Hill
#
# Bulk Modulus (GPa) = 32.10472 35.49164 33.79818
# Shear Modulus (GPa) = -128.28123 61.05560 -33.61281
#
# Velocity S-wave (km/s) = -8.25217 5.69311 -4.22415
# Velocity P-wave (km/s) = 8.58807 7.87757 2.41856
#
# Compressibility (1/GPa) = 0.03114806
#
# Stress axis : x y z
#
# Youngs Moduli (GPa) = 73.63827 66.83571 40.85683
#
# Poissons Ratio (x) = 0.23181 0.01612
# Poissons Ratio (y) = 0.25541 0.28893
# Poissons Ratio (z) = 0.02905 0.47265
#
# Static dielectric constant tensor:
#      x y z
#    x 3.654440 0.000000 0.000000 
#    y 0.000000 3.468750 0.000000 
#    z 0.000000 0.000000 3.359050 
# 
# 
# High freq. dielectric constant tensor:
#      x y z
#    x 1.752660 0.000000 0.000000 
#    y 0.000000 1.717800 0.000000 
#    z 0.000000 0.000000 1.684870 
# 
# From -- ./inp_files/26175.got.cif
#   From: 2010.03.12/outbox.cif.g09.slc.cpg/sg62_14_cif.got.tgz:26175.got - 2010.04.10 19:12:36.
