data_PCOD8250110
_publ_section_title
;
Structure prediction by ZEFSAII (Michael W. Deem and Ramdas Pophale) SiO2 
 PCOD8250110
Probable space group: P N M A
;
_chemical_formula_sum "Si O2"
_cell_formula_units_Z 64
_cell_length_a 18.134236
_cell_length_b 14.727718
_cell_length_c 11.502389
_cell_angle_alpha 90.000000
_cell_angle_beta 90.000000
_cell_angle_gamma 90.000000
_cell_volume 3072.011055
_symmetry_space_group_name_H-M "P N M A"
_symmetry_group_IT_number 62
_symmetry_cell_setting 'orthorhombic'
loop_
_space_group_symop_operation_xyz
x,y,z
1/2-x,-y,1/2+z
1/2+x,1/2-y,1/2-z
-x,1/2+y,-z
-x,-y,-z
1/2+x,y,1/2-z
1/2-x,1/2+y,1/2+z
x,1/2-y,z
loop_
_atom_site_type_symbol
_atom_site_label
_atom_site_fract_x
_atom_site_fract_y
_atom_site_fract_z
Si Si1 0.149539 0.645177 0.805938
Si Si2 0.411198 0.474229 0.697460
Si Si3 0.092001 0.151451 0.658109
Si Si4 0.055068 0.096450 0.909800
Si Si5 0.568100 0.854680 0.082429
Si Si6 0.688285 0.979212 0.506905
Si Si7 0.978251 0.649919 0.837448
Si Si8 0.663927 0.533434 0.913202
O O1 0.164705 0.750000 0.784140
O O2 0.192558 0.615495 0.923114
O O3 0.063019 0.622225 0.816947
O O4 0.185667 0.589085 0.700947
O O5 0.481121 0.462780 0.610139
O O6 0.404005 0.404419 0.801521
O O7 0.336514 0.460640 0.625349
O O8 0.424330 0.580196 0.733013
O O9 0.129415 0.250000 0.632953
O O10 0.066784 0.154478 0.792909
O O11 0.019860 0.141980 0.577236
O O12 0.144738 0.069160 0.624317
O O13 0.129760 0.039805 0.923782
O O14 0.040851 0.155604 0.024832
O O15 0.596720 0.750000 0.080373
O O16 0.597463 0.911436 0.972987
O O17 0.767417 0.028792 0.501961
O O18 0.963757 0.750000 0.785410
#
# Coordination Sequence:
#
# PCOD8250110 Si02
#       8
#     8   8   8   8   8   8   8   8
#     4  11  22  40  64  92 122 164 207 253 308 369
#     4  10  19  37  63  95 125 154 209 260 309 356
#     4  10  21  39  66  93 124 162 210 260 311 371
#     4  10  17  38  62  92 124 158 210 256 306 356
#     4  10  23  42  66  91 118 165 213 257 309 379
#     4  11  22  38  64  87 124 170 200 256 312 367
#     4  10  18  32  61  96 126 157 201 252 308 360
#     4  12  25  41  62  88 134 166 208 246 322 377
#
# _framework density 20.833259000000002
#
# number of rings (size 3 to 8) (size 9 to 14) (size 15 to 20)
#    0.000    1.500    3.750    2.625    1.750    1.500 
#    0.000    9.375    0.000    0.000    0.000    0.000 
#    0.000    0.000    0.000    0.000    0.000    0.000 
#
# Total GULP energy -793379.587359 kJ/mol
# GULP energy per Si atom -12396.556052 kJ/mol
# Density = 2.078584 g / cm^3
# Si number density = 20.833259 Si / 1000 Ang^3
#
#
#
# Elastic Constant Matrix: (Units=GPa)
#
#
# Indices 1 2 3 4 5 6 
#
# 1 61.9319 36.0642 18.7510 0.0000 0.0000 0.0000
# 2 36.0642 145.8981 40.9186 0.0000 0.0000 0.0000
# 3 18.7510 40.9186 55.6337 0.0000 0.0000 0.0000
# 4 0.0000 0.0000 0.0000 23.2180 0.0000 0.0000
# 5 0.0000 0.0000 0.0000 0.0000 22.8334 0.0000
# 6 0.0000 0.0000 0.0000 0.0000 0.0000 17.4037
#
#
#
# Elastic Compliance Matrix: (Units=1/GPa)
#
#
# Indices 1 2 3 4 5 6 
#
# 1 0.019482 -0.003747 -0.003810 0.000000 0.000000 0.000000
# 2 -0.003747 0.009356 -0.005618 0.000000 0.000000 0.000000
# 3 -0.003810 -0.005618 0.023391 0.000000 0.000000 0.000000
# 4 0.000000 0.000000 0.000000 0.043070 0.000000 0.000000
# 5 0.000000 0.000000 0.000000 0.000000 0.043795 0.000000
# 6 0.000000 0.000000 0.000000 0.000000 0.000000 0.057459
#
#
# Mechanical properties :
#
#
# Convention : Reuss Voigt Hill
#
# Bulk Modulus (GPa) = 38.64303 50.54795 44.59549
# Shear Modulus (GPa) = 21.59524 23.87302 22.73413
#
# Velocity S-wave (km/s) = 3.22308 3.38880 3.30698
# Velocity P-wave (km/s) = 5.69561 6.29506 6.00282
#
# Compressibility (1/GPa) = 0.02587789
#
# Stress axis : x y z
#
# Youngs Moduli (GPa) = 51.32816 106.88208 42.75076
#
# Poissons Ratio (x) = 0.40050 0.16290
# Poissons Ratio (y) = 0.19233 0.24019
# Poissons Ratio (z) = 0.19558 0.60051
#
# Static dielectric constant tensor:
#      x y z
#    x 3.483170 0.000000 0.000000 
#    y 0.000000 3.835810 0.000000 
#    z 0.000000 0.000000 3.681020 
# 
# 
# High freq. dielectric constant tensor:
#      x y z
#    x 1.786190 0.000000 0.000000 
#    y 0.000000 1.824190 0.000000 
#    z 0.000000 0.000000 1.811740 
# 
# From -- ./inp_files/14365.got.cif
#   From: 2010.03.12/outbox.cif.g09.slc.cpg/sg62_8_cif.got.tgz:14365.got - 2010.04.10 19:12:36.
