data_PCOD8250031
_publ_section_title
;
Structure prediction by ZEFSAII (Michael W. Deem and Ramdas Pophale) SiO2 
 PCOD8250031
Probable space group: P N M A
;
_chemical_formula_sum "Si O2"
_cell_formula_units_Z 32
_cell_length_a 40.366558
_cell_length_b 7.479415
_cell_length_c 5.234061
_cell_angle_alpha 90.000000
_cell_angle_beta 90.000000
_cell_angle_gamma 90.000000
_cell_volume 1580.258482
_symmetry_space_group_name_H-M "P N M A"
_symmetry_group_IT_number 62
_symmetry_cell_setting 'orthorhombic'
loop_
_space_group_symop_operation_xyz
x,y,z
1/2-x,-y,1/2+z
1/2+x,1/2-y,1/2-z
-x,1/2+y,-z
-x,-y,-z
1/2+x,y,1/2-z
1/2-x,1/2+y,1/2+z
x,1/2-y,z
loop_
_atom_site_type_symbol
_atom_site_label
_atom_site_fract_x
_atom_site_fract_y
_atom_site_fract_z
Si Si1 0.430554 0.948298 0.504333
Si Si2 0.824380 0.750000 0.527494
Si Si3 0.367287 0.750000 0.471897
Si Si4 0.538491 0.040300 0.995606
Si Si5 0.270368 0.043880 0.956947
O O1 0.446979 0.750000 0.505513
O O2 0.390396 0.927943 0.499620
O O3 0.443542 0.048847 0.758166
O O4 0.444514 0.049506 0.253820
O O5 0.852141 0.750000 0.310357
O O6 0.802733 0.572743 0.489767
O O7 0.839702 0.750000 0.810038
O O8 0.546345 0.250000 0.993707
O O9 0.500000 0.000000 0.000000
O O10 0.281025 0.250000 0.947126
O O11 0.255452 0.986518 0.685221
#
# Coordination Sequence:
#
# PCOD8250031 Si02
#       5
#     8   4   4   8   8
#     4   8  17  31  49  72 102 140 184 231 273 336
#     4  12  22  36  66  90 116 166 213 234 311 376
#     4  10  20  36  58  84 108 160 215 232 285 380
#     4  10  17  29  49  75 102 134 177 231 289 341
#     4  12  23  41  63  93 132 161 202 263 315 364
#
# _framework density 20.249851
#
# number of rings (size 3 to 8) (size 9 to 14) (size 15 to 20)
#    0.750    1.000    2.500    3.750    0.000    0.000 
#    0.000    0.000    0.000    9.000    0.000    0.000 
#    0.000    0.000    0.000    0.000    0.000    0.000 
#
# Total GULP energy -396580.006691 kJ/mol
# GULP energy per Si atom -12393.125209 kJ/mol
# Density = 2.020376 g / cm^3
# Si number density = 20.249851 Si / 1000 Ang^3
#
#
#
# Elastic Constant Matrix: (Units=GPa)
#
#
# Indices 1 2 3 4 5 6 
#
# 1 101.3002 18.2737 32.6883 0.0000 0.0000 0.0000
# 2 18.2737 76.0284 13.7728 0.0000 0.0000 0.0000
# 3 32.6883 13.7728 155.2165 0.0000 0.0000 0.0000
# 4 0.0000 0.0000 0.0000 9.6109 0.0000 0.0000
# 5 0.0000 0.0000 0.0000 0.0000 54.5093 0.0000
# 6 0.0000 0.0000 0.0000 0.0000 0.0000 31.0373
#
#
#
# Elastic Compliance Matrix: (Units=1/GPa)
#
#
# Indices 1 2 3 4 5 6 
#
# 1 0.010958 -0.002252 -0.002108 0.000000 0.000000 0.000000
# 2 -0.002252 0.013831 -0.000753 0.000000 0.000000 0.000000
# 3 -0.002108 -0.000753 0.006953 0.000000 0.000000 0.000000
# 4 0.000000 0.000000 0.000000 0.104049 0.000000 0.000000
# 5 0.000000 0.000000 0.000000 0.000000 0.018346 0.000000
# 6 0.000000 0.000000 0.000000 0.000000 0.000000 0.032219
#
#
# Mechanical properties :
#
#
# Convention : Reuss Voigt Hill
#
# Bulk Modulus (GPa) = 46.47625 51.33498 48.90562
# Shear Modulus (GPa) = 24.53947 36.88551 30.71249
#
# Velocity S-wave (km/s) = 3.48492 4.27256 3.89868
# Velocity P-wave (km/s) = 6.26052 7.05305 6.66857
#
# Compressibility (1/GPa) = 0.02151636
#
# Stress axis : x y z
#
# Youngs Moduli (GPa) = 91.25684 72.30322 143.81548
#
# Poissons Ratio (x) = 0.16282 0.30315
# Poissons Ratio (y) = 0.20551 0.10829
# Poissons Ratio (z) = 0.19236 0.05444
#
# Static dielectric constant tensor:
#      x y z
#    x 3.471640 0.000000 0.000000 
#    y 0.000000 3.422560 0.000000 
#    z 0.000000 0.000000 4.256220 
# 
# 
# High freq. dielectric constant tensor:
#      x y z
#    x 1.780800 0.000000 0.000000 
#    y 0.000000 1.751360 0.000000 
#    z 0.000000 0.000000 1.824650 
# 
# From -- ./inp_files/3469.got.cif
#   From: 2010.03.12/outbox.cif.g09.slc.cpg/sg62_2_cif.got.tgz:3469.got - 2010.04.10 19:12:36.
