data_PCOD8250788
_publ_section_title
;
Structure prediction by ZEFSAII (Michael W. Deem and Ramdas Pophale) SiO2 
 PCOD8250788
Probable space group: P N M A
;
_chemical_formula_sum "Si O2"
_cell_formula_units_Z 44
_cell_length_a 5.139897
_cell_length_b 18.596756
_cell_length_c 28.471250
_cell_angle_alpha 90.000000
_cell_angle_beta 90.000000
_cell_angle_gamma 90.000000
_cell_volume 2721.436115
_symmetry_space_group_name_H-M "P N M A"
_symmetry_group_IT_number 62
_symmetry_cell_setting 'orthorhombic'
loop_
_space_group_symop_operation_xyz
x,y,z
1/2-x,-y,1/2+z
1/2+x,1/2-y,1/2-z
-x,1/2+y,-z
-x,-y,-z
1/2+x,y,1/2-z
1/2-x,1/2+y,1/2+z
x,1/2-y,z
loop_
_atom_site_type_symbol
_atom_site_label
_atom_site_fract_x
_atom_site_fract_y
_atom_site_fract_z
Si Si1 0.981116 0.533455 0.879473
Si Si2 0.008223 0.384005 0.491605
Si Si3 0.988059 0.480587 0.574613
Si Si4 0.550941 0.595289 0.718543
Si Si5 0.484555 0.830371 0.554665
Si Si6 0.956121 0.750000 0.778385
O O1 0.717828 0.488636 0.887457
O O2 0.974877 0.612436 0.903052
O O3 0.212458 0.485299 0.899844
O O4 0.018582 0.539711 0.823702
O O5 0.974957 0.456243 0.462321
O O6 0.272427 0.343538 0.479332
O O7 0.006366 0.404797 0.546899
O O8 0.766856 0.333411 0.478762
O O9 0.332112 0.583826 0.758191
O O10 0.526300 0.675576 0.695323
O O11 0.501804 0.750000 0.576492
O O12 0.147764 0.750000 0.732616
#
# Coordination Sequence:
#
# PCOD8250788 Si02
#       6
#     8   8   8   8   8   4
#     4  10  19  29  45  63  83 110 149 192 212 249
#     4   9  17  30  45  60  85 111 138 178 214 260
#     4   9  17  30  45  63  79 107 147 179 216 250
#     4  10  19  31  43  58  81 112 146 181 225 258
#     4  10  19  29  43  65  88 113 143 179 219 251
#     4   8  16  28  40  52  70 104 142 172 208 258
#
# _framework density 16.167935
#
# number of rings (size 3 to 8) (size 9 to 14) (size 15 to 20)
#    0.000    2.545    0.000    2.727    1.273    4.364 
#    0.000    0.000    0.000    0.000    0.000    0.000 
#    0.000    0.000    0.000    0.000    0.000  229.091 
#
# Total GULP energy -545366.482069 kJ/mol
# GULP energy per Si atom -12394.692774 kJ/mol
# Density = 1.613114 g / cm^3
# Si number density = 16.167935 Si / 1000 Ang^3
#
#
#
# Elastic Constant Matrix: (Units=GPa)
#
#
# Indices 1 2 3 4 5 6 
#
# 1 74.3696 10.8306 3.2836 0.0000 0.0000 0.0000
# 2 10.8306 19.9238 13.1579 0.0000 0.0000 0.0000
# 3 3.2836 13.1579 52.2063 0.0000 0.0000 0.0000
# 4 0.0000 0.0000 0.0000 7.7055 0.0000 0.0000
# 5 0.0000 0.0000 0.0000 0.0000 15.4658 0.0000
# 6 0.0000 0.0000 0.0000 0.0000 0.0000 -29.8550
#
#
#
# Elastic Compliance Matrix: (Units=1/GPa)
#
#
# Indices 1 2 3 4 5 6 
#
# 1 0.014676 -0.008840 0.001305 0.000000 0.000000 0.000000
# 2 -0.008840 0.065538 -0.015962 0.000000 0.000000 0.000000
# 3 0.001305 -0.015962 0.023096 0.000000 0.000000 0.000000
# 4 0.000000 0.000000 0.000000 0.129777 0.000000 0.000000
# 5 0.000000 0.000000 0.000000 0.000000 0.064659 0.000000
# 6 0.000000 0.000000 0.000000 0.000000 0.000000 -0.033495
#
#
# Mechanical properties :
#
#
# Convention : Reuss Voigt Hill
#
# Bulk Modulus (GPa) = 17.75693 22.33822 20.04758
# Shear Modulus (GPa) = 15.15079 6.61176 10.88127
#
# Velocity S-wave (km/s) = 3.06451 2.02443 2.59707
# Velocity P-wave (km/s) = 4.85060 4.39440 4.62812
#
# Compressibility (1/GPa) = 0.05631604
#
# Stress axis : x y z
#
# Youngs Moduli (GPa) = 68.13809 15.25835 43.29803
#
# Poissons Ratio (x) = 0.13488 -0.05650
# Poissons Ratio (y) = 0.60232 0.69112
# Poissons Ratio (z) = -0.08891 0.24355
#
# Static dielectric constant tensor:
#      x y z
#    x 3.252910 0.000000 0.000000 
#    y 0.000000 2.847120 0.000000 
#    z 0.000000 0.000000 2.780010 
# 
# 
# High freq. dielectric constant tensor:
#      x y z
#    x 1.646940 0.000000 0.000000 
#    y 0.000000 1.575490 0.000000 
#    z 0.000000 0.000000 1.590390 
# 
# From -- ./inp_files/28292.got.cif
#   From: 2010.03.12/outbox.cif.g09.slc.cpg/sg62_15_cif.got.tgz:28292.got - 2010.04.10 19:12:36.
