data_PCOD8250747
_publ_section_title
;
Structure prediction by ZEFSAII (Michael W. Deem and Ramdas Pophale) SiO2 
 PCOD8250747
Probable space group: P N M A
;
_chemical_formula_sum "Si O2"
_cell_formula_units_Z 44
_cell_length_a 13.222348
_cell_length_b 14.292516
_cell_length_c 11.947476
_cell_angle_alpha 90.000000
_cell_angle_beta 90.000000
_cell_angle_gamma 90.000000
_cell_volume 2257.841426
_symmetry_space_group_name_H-M "P N M A"
_symmetry_group_IT_number 62
_symmetry_cell_setting 'orthorhombic'
loop_
_space_group_symop_operation_xyz
x,y,z
1/2-x,-y,1/2+z
1/2+x,1/2-y,1/2-z
-x,1/2+y,-z
-x,-y,-z
1/2+x,y,1/2-z
1/2-x,1/2+y,1/2+z
x,1/2-y,z
loop_
_atom_site_type_symbol
_atom_site_label
_atom_site_fract_x
_atom_site_fract_y
_atom_site_fract_z
Si Si1 0.787039 0.063850 0.075543
Si Si2 0.943494 0.916275 0.559058
Si Si3 0.420906 0.582174 0.511786
Si Si4 0.407718 0.750000 0.107548
Si Si5 0.974043 0.750000 0.143685
Si Si6 0.810555 0.250000 0.937128
Si Si7 0.543047 0.642148 0.713404
O O1 0.861618 0.073499 0.183918
O O2 0.812558 0.970152 0.002417
O O3 0.668563 0.057553 0.105264
O O4 0.815418 0.157686 0.011049
O O5 0.936878 0.839309 0.463917
O O6 0.009806 0.880652 0.661603
O O7 0.000000 0.000000 0.500000
O O8 0.500000 0.500000 0.500000
O O9 0.427651 0.658328 0.413551
O O10 0.444764 0.628737 0.631997
O O11 0.461018 0.750000 0.224935
O O12 0.289220 0.750000 0.137760
O O13 0.094222 0.750000 0.142027
O O14 0.577817 0.750000 0.705672
#
# Coordination Sequence:
#
# PCOD8250747 Si02
#       7
#     8   8   8   4   4   4   8
#     4  10  21  41  64  93 124 166 211 257 320 375
#     4  11  26  44  62  93 133 171 205 254 323 388
#     4  10  20  36  64  98 117 158 216 268 307 368
#     4  10  26  42  60  92 130 171 200 251 329 376
#     4  12  20  41  64  91 129 157 214 269 308 374
#     4  10  18  41  68  83 119 168 208 250 317 376
#     4  11  20  40  70  96 121 165 221 271 313 369
#
# _framework density 19.487639000000001
#
# number of rings (size 3 to 8) (size 9 to 14) (size 15 to 20)
#    0.000    1.455    6.364    0.000    5.091    1.455 
#    6.545    0.000    0.000    0.000    0.000    0.000 
#    0.000    0.000    0.000    0.000    0.000    0.000 
#
# Total GULP energy -545300.054209 kJ/mol
# GULP energy per Si atom -12393.183050 kJ/mol
# Density = 1.944328 g / cm^3
# Si number density = 19.487639 Si / 1000 Ang^3
#
#
#
# Elastic Constant Matrix: (Units=GPa)
#
#
# Indices 1 2 3 4 5 6 
#
# 1 111.9587 49.4637 41.9667 0.0000 0.0000 0.0000
# 2 49.4637 117.5328 37.6054 0.0000 0.0000 0.0000
# 3 41.9667 37.6054 108.6233 0.0000 0.0000 0.0000
# 4 0.0000 0.0000 0.0000 35.9201 0.0000 0.0000
# 5 0.0000 0.0000 0.0000 0.0000 28.2429 0.0000
# 6 0.0000 0.0000 0.0000 0.0000 0.0000 24.3266
#
#
#
# Elastic Compliance Matrix: (Units=1/GPa)
#
#
# Indices 1 2 3 4 5 6 
#
# 1 0.011895 -0.003976 -0.003219 0.000000 0.000000 0.000000
# 2 -0.003976 0.010897 -0.002236 0.000000 0.000000 0.000000
# 3 -0.003219 -0.002236 0.011224 0.000000 0.000000 0.000000
# 4 0.000000 0.000000 0.000000 0.027840 0.000000 0.000000
# 5 0.000000 0.000000 0.000000 0.000000 0.035407 0.000000
# 6 0.000000 0.000000 0.000000 0.000000 0.000000 0.041107
#
#
# Mechanical properties :
#
#
# Convention : Reuss Voigt Hill
#
# Bulk Modulus (GPa) = 65.99336 66.24293 66.11815
# Shear Modulus (GPa) = 30.81002 31.63653 31.22328
#
# Velocity S-wave (km/s) = 3.98050 4.03353 4.00710
# Velocity P-wave (km/s) = 7.42048 7.46717 7.44386
#
# Compressibility (1/GPa) = 0.01515304
#
# Stress axis : x y z
#
# Youngs Moduli (GPa) = 84.06755 91.76700 89.09389
#
# Poissons Ratio (x) = 0.36487 0.28681
# Poissons Ratio (y) = 0.33426 0.19925
# Poissons Ratio (z) = 0.27063 0.20523
#
# Static dielectric constant tensor:
#      x y z
#    x 3.937080 0.000000 0.000000 
#    y 0.000000 3.941370 0.000000 
#    z 0.000000 0.000000 3.625340 
# 
# 
# High freq. dielectric constant tensor:
#      x y z
#    x 1.753520 0.000000 0.000000 
#    y 0.000000 1.775580 0.000000 
#    z 0.000000 0.000000 1.746620 
# 
# From -- ./inp_files/13213.got.cif
#   From: 2010.03.12/outbox.cif.g09.slc.cpg/sg62_7_cif.got.tgz:13213.got - 2010.04.10 19:12:36.
