data_PCOD8250710
_publ_section_title
;
Structure prediction by ZEFSAII (Michael W. Deem and Ramdas Pophale) SiO2 
 PCOD8250710
Probable space group: P N M A
;
_chemical_formula_sum "Si O2"
_cell_formula_units_Z 36
_cell_length_a 11.511403
_cell_length_b 14.482364
_cell_length_c 11.795758
_cell_angle_alpha 90.000000
_cell_angle_beta 90.000000
_cell_angle_gamma 90.000000
_cell_volume 1966.498281
_symmetry_space_group_name_H-M "P N M A"
_symmetry_group_IT_number 62
_symmetry_cell_setting 'orthorhombic'
loop_
_space_group_symop_operation_xyz
x,y,z
1/2-x,-y,1/2+z
1/2+x,1/2-y,1/2-z
-x,1/2+y,-z
-x,-y,-z
1/2+x,y,1/2-z
1/2-x,1/2+y,1/2+z
x,1/2-y,z
loop_
_atom_site_type_symbol
_atom_site_label
_atom_site_fract_x
_atom_site_fract_y
_atom_site_fract_z
Si Si1 0.321055 0.949247 0.457777
Si Si2 0.018308 0.049930 0.160064
Si Si3 0.983340 0.750000 0.572901
Si Si4 0.965714 0.750000 0.837225
Si Si5 0.587219 0.054210 0.077829
Si Si6 0.246790 0.250000 0.010216
O O1 0.366891 0.969691 0.585001
O O2 0.283891 0.842425 0.438653
O O3 0.420333 0.974359 0.366471
O O4 0.215495 0.017234 0.436487
O O5 0.973866 0.153919 0.122830
O O6 0.049107 0.045323 0.291627
O O7 0.118579 0.750000 0.540928
O O8 0.967474 0.750000 0.704983
O O9 0.918652 0.841438 0.529273
O O10 0.830438 0.750000 0.875864
O O11 0.500000 0.000000 0.000000
#
# Coordination Sequence:
#
# PCOD8250710 Si02
#       6
#     8   8   4   4   8   4
#     4  10  21  38  58  81 117 152 184 235 282 339
#     4   9  21  37  59  87 111 147 190 229 293 334
#     4  10  20  34  53  88 107 141 193 238 286 322
#     4   8  18  32  58  82 106 137 182 250 276 323
#     4  11  22  35  60  83 114 146 190 237 280 337
#     4  10  18  36  53  76 117 150 185 222 288 337
#
# _framework density 18.306652
#
# number of rings (size 3 to 8) (size 9 to 14) (size 15 to 20)
#    0.000    2.222    2.222    0.000    3.111    6.222 
#    0.000    3.333    0.000    0.000    0.000    0.000 
#    0.000    0.000    0.000    0.000    0.000    0.000 
#
# Total GULP energy -446056.758532 kJ/mol
# GULP energy per Si atom -12390.465515 kJ/mol
# Density = 1.826499 g / cm^3
# Si number density = 18.306652 Si / 1000 Ang^3
#
#
#
# Elastic Constant Matrix: (Units=GPa)
#
#
# Indices 1 2 3 4 5 6 
#
# 1 98.2589 80.8315 38.4905 0.0000 0.0000 0.0000
# 2 80.8315 179.0315 52.6638 0.0000 0.0000 0.0000
# 3 38.4905 52.6638 85.2956 0.0000 0.0000 0.0000
# 4 0.0000 0.0000 0.0000 24.5737 0.0000 0.0000
# 5 0.0000 0.0000 0.0000 0.0000 25.4096 0.0000
# 6 0.0000 0.0000 0.0000 0.0000 0.0000 37.7403
#
#
#
# Elastic Compliance Matrix: (Units=1/GPa)
#
#
# Indices 1 2 3 4 5 6 
#
# 1 0.017047 -0.006639 -0.003593 0.000000 0.000000 0.000000
# 2 -0.006639 0.009411 -0.002815 0.000000 0.000000 0.000000
# 3 -0.003593 -0.002815 0.015083 0.000000 0.000000 0.000000
# 4 0.000000 0.000000 0.000000 0.040694 0.000000 0.000000
# 5 0.000000 0.000000 0.000000 0.000000 0.039355 0.000000
# 6 0.000000 0.000000 0.000000 0.000000 0.000000 0.026497
#
#
# Mechanical properties :
#
#
# Convention : Reuss Voigt Hill
#
# Bulk Modulus (GPa) = 64.73883 78.50638 71.62261
# Shear Modulus (GPa) = 27.88156 30.25142 29.06649
#
# Velocity S-wave (km/s) = 3.90683 4.06948 3.98899
# Velocity P-wave (km/s) = 7.46937 8.06586 7.77334
#
# Compressibility (1/GPa) = 0.01544668
#
# Stress axis : x y z
#
# Youngs Moduli (GPa) = 58.66291 106.25608 66.29915
#
# Poissons Ratio (x) = 0.70548 0.23822
# Poissons Ratio (y) = 0.38949 0.18661
# Poissons Ratio (z) = 0.21078 0.29907
#
# Static dielectric constant tensor:
#      x y z
#    x 2.727970 0.000000 0.000000 
#    y 0.000000 4.464620 0.000000 
#    z 0.000000 0.000000 3.230200 
# 
# 
# High freq. dielectric constant tensor:
#      x y z
#    x 1.705120 0.000000 0.000000 
#    y 0.000000 1.732450 0.000000 
#    z 0.000000 0.000000 1.688570 
# 
# From -- ./inp_files/11894.got.cif
#   From: 2010.03.12/outbox.cif.g09.slc.cpg/sg62_6_cif.got.tgz:11894.got - 2010.04.10 19:12:36.
