data_PCOD8250465
_publ_section_title
;
Structure prediction by ZEFSAII (Michael W. Deem and Ramdas Pophale) SiO2 
 PCOD8250465
Probable space group: P N M A
;
_chemical_formula_sum "Si O2"
_cell_formula_units_Z 64
_cell_length_a 14.637519
_cell_length_b 8.672245
_cell_length_c 27.770746
_cell_angle_alpha 90.000000
_cell_angle_beta 90.000000
_cell_angle_gamma 90.000000
_cell_volume 3525.222690
_symmetry_space_group_name_H-M "P N M A"
_symmetry_group_IT_number 62
_symmetry_cell_setting 'orthorhombic'
loop_
_space_group_symop_operation_xyz
x,y,z
1/2-x,-y,1/2+z
1/2+x,1/2-y,1/2-z
-x,1/2+y,-z
-x,-y,-z
1/2+x,y,1/2-z
1/2-x,1/2+y,1/2+z
x,1/2-y,z
loop_
_atom_site_type_symbol
_atom_site_label
_atom_site_fract_x
_atom_site_fract_y
_atom_site_fract_z
Si Si1 0.278446 0.431538 0.359529
Si Si2 0.097827 0.931564 0.052679
Si Si3 0.099849 0.931625 0.218907
Si Si4 0.269067 0.066647 0.635901
Si Si5 0.092599 0.568404 0.944684
Si Si6 0.896172 0.568177 0.223912
Si Si7 0.593655 0.568582 0.826310
Si Si8 0.100833 0.932503 0.327770
O O1 0.287595 0.250000 0.351375
O O2 0.327463 0.484983 0.408705
O O3 0.322401 0.521379 0.315129
O O4 0.172913 0.482998 0.362714
O O5 0.086265 0.750000 0.054219
O O6 0.181311 0.982997 0.086495
O O7 0.116948 0.991734 0.998423
O O8 0.003478 0.999992 0.073083
O O9 0.106033 0.750000 0.215895
O O10 0.170537 0.000519 0.180363
O O11 0.123110 0.985996 0.273011
O O12 0.996639 0.983182 0.205783
O O13 0.256061 0.250000 0.639449
O O14 0.171365 0.983249 0.636018
O O15 0.082706 0.750000 0.944661
O O16 0.890964 0.750000 0.233973
O O17 0.873082 0.483775 0.273679
O O18 0.578538 0.750000 0.828021
O O19 0.500339 0.485533 0.842153
O O20 0.108146 0.750000 0.333903
#
# Coordination Sequence:
#
# PCOD8250465 Si02
#       8
#     8   8   8   8   8   8   8   8
#     4  11  21  32  49  75 105 135 168 209 259 305
#     4   9  18  33  54  78 104 136 171 205 244 297
#     4   8  16  29  47  71  97 126 162 206 244 280
#     4  10  18  31  52  75  99 131 173 211 246 296
#     4   9  19  34  51  76 110 138 161 201 256 304
#     4  10  19  33  51  73 103 138 176 210 243 293
#     4  11  22  35  50  72 103 135 168 210 260 303
#     4  10  20  35  52  70  97 134 173 210 250 300
#
# _framework density 18.154881
#
# number of rings (size 3 to 8) (size 9 to 14) (size 15 to 20)
#    0.000    2.250    0.000    4.500    0.000    3.500 
#    0.000    3.125    0.000    0.750    0.000    0.000 
#    0.000    0.000    0.000    0.000    0.000    0.000 
#
# Total GULP energy -793635.266750 kJ/mol
# GULP energy per Si atom -12400.551043 kJ/mol
# Density = 1.811356 g / cm^3
# Si number density = 18.154881 Si / 1000 Ang^3
#
#
#
# Elastic Constant Matrix: (Units=GPa)
#
#
# Indices 1 2 3 4 5 6 
#
# 1 121.1306 20.2500 64.5885 0.0000 0.0000 0.0000
# 2 20.2500 39.7368 19.3599 0.0000 0.0000 0.0000
# 3 64.5885 19.3599 78.7087 0.0000 0.0000 0.0000
# 4 0.0000 0.0000 0.0000 17.5312 0.0000 0.0000
# 5 0.0000 0.0000 0.0000 0.0000 26.9627 0.0000
# 6 0.0000 0.0000 0.0000 0.0000 0.0000 30.1118
#
#
#
# Elastic Compliance Matrix: (Units=1/GPa)
#
#
# Indices 1 2 3 4 5 6 
#
# 1 0.014796 -0.001846 -0.011688 0.000000 0.000000 0.000000
# 2 -0.001846 0.028822 -0.005575 0.000000 0.000000 0.000000
# 3 -0.011688 -0.005575 0.023667 0.000000 0.000000 0.000000
# 4 0.000000 0.000000 0.000000 0.057041 0.000000 0.000000
# 5 0.000000 0.000000 0.000000 0.000000 0.037088 0.000000
# 6 0.000000 0.000000 0.000000 0.000000 0.000000 0.033210
#
#
# Mechanical properties :
#
#
# Convention : Reuss Voigt Hill
#
# Bulk Modulus (GPa) = 34.40075 49.77477 42.08776
# Shear Modulus (GPa) = 20.61594 23.94634 22.28114
#
# Velocity S-wave (km/s) = 3.37346 3.63575 3.50706
# Velocity P-wave (km/s) = 5.84494 6.71574 6.29541
#
# Compressibility (1/GPa) = 0.02906913
#
# Stress axis : x y z
#
# Youngs Moduli (GPa) = 67.58494 34.69544 42.25250
#
# Poissons Ratio (x) = 0.06404 0.49384
# Poissons Ratio (y) = 0.12475 0.23554
# Poissons Ratio (z) = 0.78992 0.19342
#
# Static dielectric constant tensor:
#      x y z
#    x 3.529940 0.000000 0.000000 
#    y 0.000000 3.182870 0.000000 
#    z 0.000000 0.000000 3.470780 
# 
# 
# High freq. dielectric constant tensor:
#      x y z
#    x 1.709160 0.000000 0.000000 
#    y 0.000000 1.693990 0.000000 
#    z 0.000000 0.000000 1.680450 
# 
# From -- ./inp_files/32717.got.cif
#   From: 2010.03.12/outbox.cif.g09.slc.cpg/sg62_17_cif.got.tgz:32717.got - 2010.04.10 19:12:36.
