data_PCOD8250307
_publ_section_title
;
Structure prediction by ZEFSAII (Michael W. Deem and Ramdas Pophale) SiO2 
 PCOD8250307
Probable space group: P N M A
;
_chemical_formula_sum "Si O2"
_cell_formula_units_Z 64
_cell_length_a 11.945777
_cell_length_b 9.100230
_cell_length_c 33.671258
_cell_angle_alpha 90.000000
_cell_angle_beta 90.000000
_cell_angle_gamma 90.000000
_cell_volume 3660.379501
_symmetry_space_group_name_H-M "P N M A"
_symmetry_group_IT_number 62
_symmetry_cell_setting 'orthorhombic'
loop_
_space_group_symop_operation_xyz
x,y,z
1/2-x,-y,1/2+z
1/2+x,1/2-y,1/2-z
-x,1/2+y,-z
-x,-y,-z
1/2+x,y,1/2-z
1/2-x,1/2+y,1/2+z
x,1/2-y,z
loop_
_atom_site_type_symbol
_atom_site_label
_atom_site_fract_x
_atom_site_fract_y
_atom_site_fract_z
Si Si1 0.957979 0.920582 0.665413
Si Si2 0.668998 0.078490 0.868487
Si Si3 0.813141 0.422583 0.726957
Si Si4 0.385063 0.576409 0.330267
Si Si5 0.852822 0.078688 0.534396
Si Si6 0.742409 0.421251 0.106596
Si Si7 0.110750 0.419378 0.543579
Si Si8 0.632196 0.922989 0.313716
O O1 0.971365 0.750000 0.674403
O O2 0.872556 0.951255 0.629721
O O3 0.076776 0.985846 0.654189
O O4 0.915364 0.998290 0.705129
O O5 0.642626 0.250000 0.861551
O O6 0.671192 0.041612 0.915151
O O7 0.788484 0.031598 0.850320
O O8 0.835413 0.250000 0.723821
O O9 0.694687 0.464560 0.706930
O O10 0.813695 0.479170 0.772395
O O11 0.384591 0.750000 0.338375
O O12 0.344271 0.496357 0.370095
O O13 0.508009 0.512721 0.320454
O O14 0.825037 0.250000 0.535861
O O15 0.979507 0.044386 0.547816
O O16 0.768076 0.994732 0.563462
O O17 0.832677 0.020032 0.489899
O O18 0.768183 0.250000 0.101658
O O19 0.127579 0.250000 0.531547
O O20 0.620343 0.750000 0.311136
#
# Coordination Sequence:
#
# PCOD8250307 Si02
#       8
#     8   8   8   8   8   8   8   8
#     4  10  20  32  48  73 103 134 168 206 252 302
#     4  10  19  33  53  76 105 138 172 209 253 306
#     4   9  18  32  53  75  98 129 167 211 254 297
#     4   9  18  33  51  75 102 130 169 213 254 300
#     4  10  18  29  49  77 104 134 168 207 254 304
#     4  10  19  32  51  73 101 135 169 208 254 303
#     4   9  18  30  46  73 108 139 165 201 253 310
#     4   9  19  33  54  79  99 130 174 216 254 296
#
# _framework density 17.484525000000001
#
# number of rings (size 3 to 8) (size 9 to 14) (size 15 to 20)
#    0.000    2.500    1.250    1.125    1.750    2.000 
#    0.000    1.875    0.000    0.750    0.000    0.000 
#    0.000    0.000    0.000    0.000    0.000    0.000 
#
# Total GULP energy -793684.391651 kJ/mol
# GULP energy per Si atom -12401.318620 kJ/mol
# Density = 1.744473 g / cm^3
# Si number density = 17.484525 Si / 1000 Ang^3
#
#
#
# Elastic Constant Matrix: (Units=GPa)
#
#
# Indices 1 2 3 4 5 6 
#
# 1 103.1067 31.3773 59.9988 0.0000 0.0000 0.0000
# 2 31.3773 51.4968 44.8355 0.0000 0.0000 0.0000
# 3 59.9988 44.8355 138.2932 0.0000 0.0000 0.0000
# 4 0.0000 0.0000 0.0000 24.8747 0.0000 0.0000
# 5 0.0000 0.0000 0.0000 0.0000 24.8210 0.0000
# 6 0.0000 0.0000 0.0000 0.0000 0.0000 13.1564
#
#
#
# Elastic Compliance Matrix: (Units=1/GPa)
#
#
# Indices 1 2 3 4 5 6 
#
# 1 0.013656 -0.004406 -0.004496 0.000000 0.000000 0.000000
# 2 -0.004406 0.028477 -0.007321 0.000000 0.000000 0.000000
# 3 -0.004496 -0.007321 0.011555 0.000000 0.000000 0.000000
# 4 0.000000 0.000000 0.000000 0.040201 0.000000 0.000000
# 5 0.000000 0.000000 0.000000 0.000000 0.040289 0.000000
# 6 0.000000 0.000000 0.000000 0.000000 0.000000 0.076009
#
#
# Mechanical properties :
#
#
# Convention : Reuss Voigt Hill
#
# Bulk Modulus (GPa) = 47.07646 62.81334 54.94490
# Shear Modulus (GPa) = 20.02291 23.01609 21.51950
#
# Velocity S-wave (km/s) = 3.38772 3.63212 3.51204
# Velocity P-wave (km/s) = 6.50271 7.32071 6.92380
#
# Compressibility (1/GPa) = 0.02124204
#
# Stress axis : x y z
#
# Youngs Moduli (GPa) = 73.22844 35.11574 86.54126
#
# Poissons Ratio (x) = 0.15472 0.38910
# Poissons Ratio (y) = 0.32265 0.63356
# Poissons Ratio (z) = 0.32925 0.25708
#
# Static dielectric constant tensor:
#      x y z
#    x 3.134550 0.000000 0.000000 
#    y 0.000000 3.118740 0.000000 
#    z 0.000000 0.000000 3.348450 
# 
# 
# High freq. dielectric constant tensor:
#      x y z
#    x 1.650680 0.000000 0.000000 
#    y 0.000000 1.664840 0.000000 
#    z 0.000000 0.000000 1.680060 
# 
# From -- ./inp_files/32516.got.cif
#   From: 2010.03.12/outbox.cif.g09.slc.cpg/sg62_17_cif.got.tgz:32516.got - 2010.04.10 19:12:36.
