data_PCOD8250141
_publ_section_title
;
Structure prediction by ZEFSAII (Michael W. Deem and Ramdas Pophale) SiO2 
 PCOD8250141
Probable space group: P N M A
;
_chemical_formula_sum "Si O2"
_cell_formula_units_Z 56
_cell_length_a 29.531717
_cell_length_b 9.169381
_cell_length_c 13.641595
_cell_angle_alpha 90.000000
_cell_angle_beta 90.000000
_cell_angle_gamma 90.000000
_cell_volume 3693.974289
_symmetry_space_group_name_H-M "P N M A"
_symmetry_group_IT_number 62
_symmetry_cell_setting 'orthorhombic'
loop_
_space_group_symop_operation_xyz
x,y,z
1/2-x,-y,1/2+z
1/2+x,1/2-y,1/2-z
-x,1/2+y,-z
-x,-y,-z
1/2+x,y,1/2-z
1/2-x,1/2+y,1/2+z
x,1/2-y,z
loop_
_atom_site_type_symbol
_atom_site_label
_atom_site_fract_x
_atom_site_fract_y
_atom_site_fract_z
Si Si1 0.736462 0.919097 0.395035
Si Si2 0.903615 0.079595 0.601122
Si Si3 0.318170 0.421919 0.197129
Si Si4 0.185107 0.580077 0.293895
Si Si5 0.001435 0.416400 0.599350
Si Si6 0.400482 0.921838 0.106547
Si Si7 0.734947 0.917715 0.613920
O O1 0.750242 0.750000 0.382210
O O2 0.697065 0.963723 0.318186
O O3 0.717358 0.949824 0.503938
O O4 0.780917 0.016007 0.377780
O O5 0.898301 0.250000 0.572989
O O6 0.866125 0.031822 0.680962
O O7 0.953154 0.050649 0.652819
O O8 0.896815 0.985685 0.503027
O O9 0.322863 0.250000 0.180077
O O10 0.365951 0.498567 0.178766
O O11 0.303859 0.462036 0.308540
O O12 0.191537 0.750000 0.310097
O O13 0.219007 0.504828 0.369443
O O14 0.003514 0.250000 0.568327
O O15 0.000000 0.500000 0.500000
O O16 0.049058 0.453850 0.653288
O O17 0.389646 0.750000 0.102693
O O18 0.747699 0.750000 0.628594
#
# Coordination Sequence:
#
# PCOD8250141 Si02
#       7
#     8   8   8   8   8   8   8
#     4   9  17  30  44  59  80 105 132 164 197 233
#     4   9  16  27  42  61  84 108 132 162 197 236
#     4  10  19  29  41  59  80 105 135 164 195 233
#     4   9  17  27  42  62  81 102 131 162 195 233
#     4   8  15  26  39  56  80 106 132 160 194 234
#     4  10  18  27  40  59  82 109 136 163 195 234
#     4   9  18  30  42  56  79 107 133 161 194 231
#
# _framework density 15.159824
#
# number of rings (size 3 to 8) (size 9 to 14) (size 15 to 20)
#    0.000    2.857    0.000    1.714    0.000    4.571 
#    0.000    0.000    0.000    0.000    0.000    1.000 
#    0.000    0.000    0.000    0.000    0.000    0.000 
#
# Total GULP energy -693802.423279 kJ/mol
# GULP energy per Si atom -12389.328987 kJ/mol
# Density = 1.512532 g / cm^3
# Si number density = 15.159824 Si / 1000 Ang^3
#
#
#
# Elastic Constant Matrix: (Units=GPa)
#
#
# Indices 1 2 3 4 5 6 
#
# 1 151.9233 46.3024 58.1368 0.0000 0.0000 0.0000
# 2 46.3024 48.2905 27.1947 0.0000 0.0000 0.0000
# 3 58.1368 27.1947 83.7586 0.0000 0.0000 0.0000
# 4 0.0000 0.0000 0.0000 16.5075 0.0000 0.0000
# 5 0.0000 0.0000 0.0000 0.0000 19.9429 0.0000
# 6 0.0000 0.0000 0.0000 0.0000 0.0000 18.1934
#
#
#
# Elastic Compliance Matrix: (Units=1/GPa)
#
#
# Indices 1 2 3 4 5 6 
#
# 1 0.010810 -0.007513 -0.005064 0.000000 0.000000 0.000000
# 2 -0.007513 0.030563 -0.004708 0.000000 0.000000 0.000000
# 3 -0.005064 -0.004708 0.016983 0.000000 0.000000 0.000000
# 4 0.000000 0.000000 0.000000 0.060579 0.000000 0.000000
# 5 0.000000 0.000000 0.000000 0.000000 0.050143 0.000000
# 6 0.000000 0.000000 0.000000 0.000000 0.000000 0.054965
#
#
# Mechanical properties :
#
#
# Convention : Reuss Voigt Hill
#
# Bulk Modulus (GPa) = 42.04307 60.80447 51.42377
# Shear Modulus (GPa) = 18.75880 21.08465 19.92173
#
# Velocity S-wave (km/s) = 3.52149 3.73342 3.62900
# Velocity P-wave (km/s) = 6.65792 7.66685 7.18013
#
# Compressibility (1/GPa) = 0.02378513
#
# Stress axis : x y z
#
# Youngs Moduli (GPa) = 92.50827 32.71891 58.88403
#
# Poissons Ratio (x) = 0.24582 0.29817
# Poissons Ratio (y) = 0.69503 0.27725
# Poissons Ratio (z) = 0.46844 0.15405
#
# Static dielectric constant tensor:
#      x y z
#    x 3.456650 0.000000 0.000000 
#    y 0.000000 2.960120 0.000000 
#    z 0.000000 0.000000 2.795410 
# 
# 
# High freq. dielectric constant tensor:
#      x y z
#    x 1.583620 0.000000 0.000000 
#    y 0.000000 1.589640 0.000000 
#    z 0.000000 0.000000 1.545330 
# 
# From -- ./inp_files/21178.got.cif
#   From: 2010.03.12/outbox.cif.g09.slc.cpg/sg62_11_cif.got.tgz:21178.got - 2010.04.10 19:12:36.
