data_PCOD8250126
_publ_section_title
;
Structure prediction by ZEFSAII (Michael W. Deem and Ramdas Pophale) SiO2 
 PCOD8250126
Probable space group: P N M A
;
_chemical_formula_sum "Si O2"
_cell_formula_units_Z 40
_cell_length_a 12.651644
_cell_length_b 13.245347
_cell_length_c 15.010853
_cell_angle_alpha 90.000000
_cell_angle_beta 90.000000
_cell_angle_gamma 90.000000
_cell_volume 2515.449919
_symmetry_space_group_name_H-M "P N M A"
_symmetry_group_IT_number 62
_symmetry_cell_setting 'orthorhombic'
loop_
_space_group_symop_operation_xyz
x,y,z
1/2-x,-y,1/2+z
1/2+x,1/2-y,1/2-z
-x,1/2+y,-z
-x,-y,-z
1/2+x,y,1/2-z
1/2-x,1/2+y,1/2+z
x,1/2-y,z
loop_
_atom_site_type_symbol
_atom_site_label
_atom_site_fract_x
_atom_site_fract_y
_atom_site_fract_z
Si Si1 0.747963 0.632368 0.371446
Si Si2 0.200123 0.868072 0.324815
Si Si3 0.088489 0.050935 0.878407
Si Si4 0.531755 0.132508 0.810242
Si Si5 0.922045 0.133799 0.007194
O O1 0.723690 0.750000 0.374431
O O2 0.708224 0.590894 0.276403
O O3 0.678512 0.587603 0.451977
O O4 0.873723 0.608508 0.380283
O O5 0.226915 0.750000 0.328507
O O6 0.286268 0.924485 0.385402
O O7 0.080395 0.891588 0.357520
O O8 0.045846 0.067296 0.778890
O O9 0.069612 0.933770 0.903972
O O10 0.026821 0.123037 0.947204
O O11 0.536806 0.250000 0.781129
O O12 0.907995 0.250000 0.036230
#
# Coordination Sequence:
#
# PCOD8250126 Si02
#       5
#     8   8   8   8   8
#     4   8  14  24  40  60  84 110 135 170 214 251
#     4   9  15  25  43  65  87 106 133 177 215 246
#     4  10  18  26  43  67  86 111 139 172 214 257
#     4   9  15  26  45  68  87 105 134 178 220 249
#     4  10  18  29  42  62  90 114 139 172 213 255
#
# _framework density 15.901726999999999
#
# number of rings (size 3 to 8) (size 9 to 14) (size 15 to 20)
#    0.000    2.800    2.000    3.000    0.000    0.000 
#    0.000    1.000    0.000    1.200    0.000    0.000 
#    0.000    0.000    0.000    0.000    0.000    0.000 
#
# Total GULP energy -495650.103022 kJ/mol
# GULP energy per Si atom -12391.252576 kJ/mol
# Density = 1.586553 g / cm^3
# Si number density = 15.901727 Si / 1000 Ang^3
#
#
#
# Elastic Constant Matrix: (Units=GPa)
#
#
# Indices 1 2 3 4 5 6 
#
# 1 134.1319 25.7350 25.6892 0.0000 0.0000 0.0000
# 2 25.7350 59.9441 25.9765 0.0000 0.0000 0.0000
# 3 25.6892 25.9765 40.3302 0.0000 0.0000 0.0000
# 4 0.0000 0.0000 0.0000 17.1686 0.0000 0.0000
# 5 0.0000 0.0000 0.0000 0.0000 20.1841 0.0000
# 6 0.0000 0.0000 0.0000 0.0000 0.0000 14.1040
#
#
#
# Elastic Compliance Matrix: (Units=1/GPa)
#
#
# Indices 1 2 3 4 5 6 
#
# 1 0.008634 -0.001836 -0.004317 0.000000 0.000000 0.000000
# 2 -0.001836 0.023532 -0.013987 0.000000 0.000000 0.000000
# 3 -0.004317 -0.013987 0.036554 0.000000 0.000000 0.000000
# 4 0.000000 0.000000 0.000000 0.058246 0.000000 0.000000
# 5 0.000000 0.000000 0.000000 0.000000 0.049544 0.000000
# 6 0.000000 0.000000 0.000000 0.000000 0.000000 0.070902
#
#
# Mechanical properties :
#
#
# Convention : Reuss Voigt Hill
#
# Bulk Modulus (GPa) = 35.16233 43.24528 39.20381
# Shear Modulus (GPa) = 16.82521 20.75838 18.79179
#
# Velocity S-wave (km/s) = 3.25633 3.61697 3.44138
# Velocity P-wave (km/s) = 6.02483 6.68563 6.36381
#
# Compressibility (1/GPa) = 0.02843953
#
# Stress axis : x y z
#
# Youngs Moduli (GPa) = 115.81465 42.49581 27.35646
#
# Poissons Ratio (x) = 0.07802 0.11811
# Poissons Ratio (y) = 0.21264 0.38264
# Poissons Ratio (z) = 0.50001 0.59440
#
# Static dielectric constant tensor:
#      x y z
#    x 3.456810 0.000000 0.000000 
#    y 0.000000 2.668870 0.000000 
#    z 0.000000 0.000000 2.692810 
# 
# 
# High freq. dielectric constant tensor:
#      x y z
#    x 1.636420 0.000000 0.000000 
#    y 0.000000 1.569490 0.000000 
#    z 0.000000 0.000000 1.567690 
# 
# From -- ./inp_files/13105.got.cif
#   From: 2010.03.12/outbox.cif.g09.slc.cpg/sg62_7_cif.got.tgz:13105.got - 2010.04.10 19:12:36.
