data_PCOD8250224
_publ_section_title
;
Structure prediction by ZEFSAII (Michael W. Deem and Ramdas Pophale) SiO2 
 PCOD8250224
Probable space group: P N M A
;
_chemical_formula_sum "Si O2"
_cell_formula_units_Z 64
_cell_length_a 29.334358
_cell_length_b 9.139523
_cell_length_c 12.034071
_cell_angle_alpha 90.000000
_cell_angle_beta 90.000000
_cell_angle_gamma 90.000000
_cell_volume 3226.358980
_symmetry_space_group_name_H-M "P N M A"
_symmetry_group_IT_number 62
_symmetry_cell_setting 'orthorhombic'
loop_
_space_group_symop_operation_xyz
x,y,z
1/2-x,-y,1/2+z
1/2+x,1/2-y,1/2-z
-x,1/2+y,-z
-x,-y,-z
1/2+x,y,1/2-z
1/2-x,1/2+y,1/2+z
x,1/2-y,z
loop_
_atom_site_type_symbol
_atom_site_label
_atom_site_fract_x
_atom_site_fract_y
_atom_site_fract_z
Si Si1 0.150885 0.418380 0.876672
Si Si2 0.561535 0.080469 0.313471
Si Si3 0.663293 0.075612 0.253103
Si Si4 0.930292 0.082712 0.028044
Si Si5 0.968293 0.415831 0.268639
Si Si6 0.321618 0.424990 0.975246
Si Si7 0.885648 0.578333 0.359569
Si Si8 0.275645 0.580132 0.544118
O O1 0.136540 0.250000 0.892845
O O2 0.145434 0.461830 0.747576
O O3 0.119211 0.513457 0.955415
O O4 0.201684 0.448805 0.922525
O O5 0.562691 0.250000 0.345858
O O6 0.610668 0.028574 0.270098
O O7 0.522619 0.052430 0.218341
O O8 0.546085 0.995270 0.423947
O O9 0.667269 0.250000 0.236192
O O10 0.693980 0.014982 0.355566
O O11 0.681617 0.990240 0.147072
O O12 0.923582 0.250000 0.996845
O O13 0.959652 0.060258 0.138265
O O14 0.955882 0.250000 0.304294
O O15 0.937805 0.526343 0.341079
O O16 0.325197 0.250000 0.970213
O O17 0.365380 0.491262 0.036837
O O18 0.275982 0.479813 0.039891
O O19 0.885870 0.750000 0.385953
O O20 0.273432 0.750000 0.568102
#
# Coordination Sequence:
#
# PCOD8250224 Si02
#       8
#     8   8   8   8   8   8   8   8
#     4   9  17  34  57  80 109 149 189 226 277 339
#     4  10  19  34  57  80 112 157 196 236 288 345
#     4  10  21  40  62  84 113 150 195 237 281 343
#     4  10  18  28  47  81 121 150 181 231 285 339
#     4   9  19  34  54  83 116 152 194 239 290 343
#     4  11  24  40  60  84 116 152 190 240 293 341
#     4  10  21  37  60  85 114 153 196 239 283 343
#     4   9  19  37  60  84 112 148 186 230 286 342
#
# _framework density 19.836603
#
# number of rings (size 3 to 8) (size 9 to 14) (size 15 to 20)
#    0.000    2.250    1.250    1.500    1.750    2.000 
#    0.000    2.500    0.000    0.000    0.000    0.000 
#    0.000    0.000    0.000    0.000    0.000    0.000 
#
# Total GULP energy -793381.502406 kJ/mol
# GULP energy per Si atom -12396.585975 kJ/mol
# Density = 1.979145 g / cm^3
# Si number density = 19.836603 Si / 1000 Ang^3
#
#
#
# Elastic Constant Matrix: (Units=GPa)
#
#
# Indices 1 2 3 4 5 6 
#
# 1 100.9380 27.4301 29.0122 0.0000 0.0000 0.0000
# 2 27.4301 57.9867 24.7099 0.0000 0.0000 0.0000
# 3 29.0122 24.7099 72.6787 0.0000 0.0000 0.0000
# 4 0.0000 0.0000 0.0000 30.3024 0.0000 0.0000
# 5 0.0000 0.0000 0.0000 0.0000 20.0571 0.0000
# 6 0.0000 0.0000 0.0000 0.0000 0.0000 21.6691
#
#
#
# Elastic Compliance Matrix: (Units=1/GPa)
#
#
# Indices 1 2 3 4 5 6 
#
# 1 0.012029 -0.004261 -0.003353 0.000000 0.000000 0.000000
# 2 -0.004261 0.021677 -0.005669 0.000000 0.000000 0.000000
# 3 -0.003353 -0.005669 0.017025 0.000000 0.000000 0.000000
# 4 0.000000 0.000000 0.000000 0.033001 0.000000 0.000000
# 5 0.000000 0.000000 0.000000 0.000000 0.049858 0.000000
# 6 0.000000 0.000000 0.000000 0.000000 0.000000 0.046149
#
#
# Mechanical properties :
#
#
# Convention : Reuss Voigt Hill
#
# Bulk Modulus (GPa) = 41.38312 43.76754 42.57533
# Shear Modulus (GPa) = 23.32542 24.43581 23.88061
#
# Velocity S-wave (km/s) = 3.43283 3.51359 3.47344
# Velocity P-wave (km/s) = 6.05142 6.21066 6.13156
#
# Compressibility (1/GPa) = 0.02416444
#
# Stress axis : x y z
#
# Youngs Moduli (GPa) = 83.13372 46.13230 58.73740
#
# Poissons Ratio (x) = 0.19659 0.19694
# Poissons Ratio (y) = 0.35426 0.33297
# Poissons Ratio (z) = 0.27874 0.26151
#
# Static dielectric constant tensor:
#      x y z
#    x 3.843860 0.000000 0.000000 
#    y 0.000000 3.460350 0.000000 
#    z 0.000000 0.000000 3.431740 
# 
# 
# High freq. dielectric constant tensor:
#      x y z
#    x 1.779740 0.000000 0.000000 
#    y 0.000000 1.758600 0.000000 
#    z 0.000000 0.000000 1.756020 
# 
# From -- ./inp_files/15775.got.cif
#   From: 2010.03.12/outbox.cif.g09.slc.cpg/sg62_8_cif.got.tgz:15775.got - 2010.04.10 19:12:36.
