data_PCOD8250972
_publ_section_title
;
Structure prediction by ZEFSAII (Michael W. Deem and Ramdas Pophale) SiO2 
 PCOD8250972
Probable space group: P N M A
;
_chemical_formula_sum "Si O2"
_cell_formula_units_Z 64
_cell_length_a 20.373868
_cell_length_b 8.808602
_cell_length_c 20.168911
_cell_angle_alpha 90.000000
_cell_angle_beta 90.000000
_cell_angle_gamma 90.000000
_cell_volume 3619.619551
_symmetry_space_group_name_H-M "P N M A"
_symmetry_group_IT_number 62
_symmetry_cell_setting 'orthorhombic'
loop_
_space_group_symop_operation_xyz
x,y,z
1/2-x,-y,1/2+z
1/2+x,1/2-y,1/2-z
-x,1/2+y,-z
-x,-y,-z
1/2+x,y,1/2-z
1/2-x,1/2+y,1/2+z
x,1/2-y,z
loop_
_atom_site_type_symbol
_atom_site_label
_atom_site_fract_x
_atom_site_fract_y
_atom_site_fract_z
Si Si1 0.454257 0.429079 0.555972
Si Si2 0.711740 0.422615 0.159198
Si Si3 0.665392 0.072372 0.506402
Si Si4 0.353223 0.076859 0.353819
Si Si5 0.506719 0.928826 0.688928
Si Si6 0.059866 0.071342 0.461533
Si Si7 0.427162 0.574779 0.811664
Si Si8 0.809638 0.075607 0.525035
O O1 0.500000 0.500000 0.500000
O O2 0.460572 0.250000 0.551980
O O3 0.379207 0.479448 0.544675
O O4 0.475634 0.485472 0.627472
O O5 0.704319 0.250000 0.130446
O O6 0.785361 0.443088 0.189239
O O7 0.650190 0.450068 0.208895
O O8 0.705089 0.544848 0.101668
O O9 0.650791 0.250000 0.499095
O O10 0.741423 0.035389 0.487394
O O11 0.647384 0.027542 0.581542
O O12 0.359721 0.250000 0.379086
O O13 0.415214 0.036334 0.307507
O O14 0.492260 0.750000 0.681622
O O15 0.473622 0.998875 0.755539
O O16 0.053328 0.250000 0.463941
O O17 0.059922 0.008460 0.385514
O O18 0.127902 0.023565 0.498141
O O19 0.000000 0.000000 0.500000
O O20 0.445665 0.750000 0.814200
O O21 0.828427 0.250000 0.514593
#
# Coordination Sequence:
#
# PCOD8250972 Si02
#       8
#     8   8   8   8   8   8   8   8
#     4  12  23  34  49  72 102 138 175 212 251 300
#     4   8  14  27  46  69  94 124 164 207 248 296
#     4  10  19  31  49  72 101 131 167 213 256 297
#     4   9  16  26  46  72  95 124 167 210 250 296
#     4  10  19  32  50  72  99 134 169 209 256 303
#     4  10  19  33  55  80 106 137 171 212 258 308
#     4   8  16  31  51  72  99 131 167 209 252 304
#     4   9  17  29  48  76 102 127 163 209 256 301
#
# _framework density 17.681415999999999
#
# number of rings (size 3 to 8) (size 9 to 14) (size 15 to 20)
#    0.000    2.500    1.250    3.000    0.000    1.500 
#    0.000    3.125    2.750    0.000    0.000    0.000 
#    0.000    0.000    0.000    0.000    0.000    0.000 
#
# Total GULP energy -792913.567013 kJ/mol
# GULP energy per Si atom -12389.274485 kJ/mol
# Density = 1.764117 g / cm^3
# Si number density = 17.681416 Si / 1000 Ang^3
#
#
#
# Elastic Constant Matrix: (Units=GPa)
#
#
# Indices 1 2 3 4 5 6 
#
# 1 184.0616 48.2102 66.6804 0.0000 0.0000 0.0000
# 2 48.2102 68.1827 27.8302 0.0000 0.0000 0.0000
# 3 66.6804 27.8302 70.8074 0.0000 0.0000 0.0000
# 4 0.0000 0.0000 0.0000 16.5834 0.0000 0.0000
# 5 0.0000 0.0000 0.0000 0.0000 27.5416 0.0000
# 6 0.0000 0.0000 0.0000 0.0000 0.0000 26.4116
#
#
#
# Elastic Compliance Matrix: (Units=1/GPa)
#
#
# Indices 1 2 3 4 5 6 
#
# 1 0.008864 -0.003407 -0.007009 0.000000 0.000000 0.000000
# 2 -0.003407 0.018778 -0.004172 0.000000 0.000000 0.000000
# 3 -0.007009 -0.004172 0.022363 0.000000 0.000000 0.000000
# 4 0.000000 0.000000 0.000000 0.060301 0.000000 0.000000
# 5 0.000000 0.000000 0.000000 0.000000 0.036309 0.000000
# 6 0.000000 0.000000 0.000000 0.000000 0.000000 0.037862
#
#
# Mechanical properties :
#
#
# Convention : Reuss Voigt Hill
#
# Bulk Modulus (GPa) = 48.00797 67.61035 57.80916
# Shear Modulus (GPa) = 22.66579 26.12940 24.39759
#
# Velocity S-wave (km/s) = 3.58425 3.84837 3.71865
# Velocity P-wave (km/s) = 6.65881 7.62022 7.15568
#
# Compressibility (1/GPa) = 0.02082988
#
# Stress axis : x y z
#
# Youngs Moduli (GPa) = 112.81097 53.25242 44.71709
#
# Poissons Ratio (x) = 0.18143 0.31341
# Poissons Ratio (y) = 0.38435 0.18657
# Poissons Ratio (z) = 0.79065 0.22218
#
# Static dielectric constant tensor:
#      x y z
#    x 3.932550 0.000000 0.000000 
#    y 0.000000 3.215760 0.000000 
#    z 0.000000 0.000000 3.090000 
# 
# 
# High freq. dielectric constant tensor:
#      x y z
#    x 1.711180 0.000000 0.000000 
#    y 0.000000 1.676860 0.000000 
#    z 0.000000 0.000000 1.624730 
# 
# From -- ./inp_files/24740.got.cif
#   From: 2010.03.12/outbox.cif.g09.slc.cpg/sg62_13_cif.got.tgz:24740.got - 2010.04.10 19:12:36.
