data_PCOD8250527
_publ_section_title
;
Structure prediction by ZEFSAII (Michael W. Deem and Ramdas Pophale) SiO2 
 PCOD8250527
Probable space group: P N M A
;
_chemical_formula_sum "Si O2"
_cell_formula_units_Z 40
_cell_length_a 10.361628
_cell_length_b 17.672579
_cell_length_c 14.174788
_cell_angle_alpha 90.000000
_cell_angle_beta 90.000000
_cell_angle_gamma 90.000000
_cell_volume 2595.640251
_symmetry_space_group_name_H-M "P N M A"
_symmetry_group_IT_number 62
_symmetry_cell_setting 'orthorhombic'
loop_
_space_group_symop_operation_xyz
x,y,z
1/2-x,-y,1/2+z
1/2+x,1/2-y,1/2-z
-x,1/2+y,-z
-x,-y,-z
1/2+x,y,1/2-z
1/2-x,1/2+y,1/2+z
x,1/2-y,z
loop_
_atom_site_type_symbol
_atom_site_label
_atom_site_fract_x
_atom_site_fract_y
_atom_site_fract_z
Si Si1 0.627632 0.531974 0.954216
Si Si2 0.782451 0.665420 0.991042
Si Si3 0.123656 0.478457 0.941147
Si Si4 0.128640 0.164658 0.219028
Si Si5 0.875446 0.070066 0.247189
O O1 0.644326 0.623181 0.972942
O O2 0.626475 0.519208 0.841836
O O3 0.500000 0.500000 0.000000
O O4 0.750970 0.489816 0.001625
O O5 0.760552 0.750000 0.030587
O O6 0.861879 0.665996 0.893801
O O7 0.864698 0.613854 0.064578
O O8 0.114445 0.510639 0.836998
O O9 0.000000 0.500000 0.000000
O O10 0.130750 0.250000 0.259104
O O11 0.246244 0.118887 0.265366
O O12 0.996041 0.126213 0.249824
#
# Coordination Sequence:
#
# PCOD8250527 Si02
#       5
#     8   8   8   8   8
#     4   9  19  31  50  76  99 127 171 208 253 299
#     4   8  17  32  50  69 100 135 166 205 252 302
#     4  10  18  32  50  74  99 132 175 203 244 307
#     4  10  19  30  48  75 106 131 161 205 266 313
#     4  11  18  32  50  75 102 135 163 206 253 299
#
# _framework density 15.410456
#
# number of rings (size 3 to 8) (size 9 to 14) (size 15 to 20)
#    1.200    1.200    2.000    1.800    0.000    0.800 
#    0.000    0.000    0.000    2.400    0.000    0.000 
#    0.000    0.000    0.000    0.000    0.000    0.000 
#
# Total GULP energy -495553.480597 kJ/mol
# GULP energy per Si atom -12388.837015 kJ/mol
# Density = 1.537538 g / cm^3
# Si number density = 15.410456 Si / 1000 Ang^3
#
#
#
# Elastic Constant Matrix: (Units=GPa)
#
#
# Indices 1 2 3 4 5 6 
#
# 1 107.5950 37.9997 38.8203 0.0000 0.0000 0.0000
# 2 37.9997 95.2523 48.5822 0.0000 0.0000 0.0000
# 3 38.8203 48.5822 94.9024 0.0000 0.0000 0.0000
# 4 0.0000 0.0000 0.0000 21.2179 0.0000 0.0000
# 5 0.0000 0.0000 0.0000 0.0000 20.8372 0.0000
# 6 0.0000 0.0000 0.0000 0.0000 0.0000 24.5044
#
#
#
# Elastic Compliance Matrix: (Units=1/GPa)
#
#
# Indices 1 2 3 4 5 6 
#
# 1 0.011488 -0.002959 -0.003185 0.000000 0.000000 0.000000
# 2 -0.002959 0.014970 -0.006453 0.000000 0.000000 0.000000
# 3 -0.003185 -0.006453 0.015143 0.000000 0.000000 0.000000
# 4 0.000000 0.000000 0.000000 0.047130 0.000000 0.000000
# 5 0.000000 0.000000 0.000000 0.000000 0.047991 0.000000
# 6 0.000000 0.000000 0.000000 0.000000 0.000000 0.040809
#
#
# Mechanical properties :
#
#
# Convention : Reuss Voigt Hill
#
# Bulk Modulus (GPa) = 60.94427 60.95047 60.94737
# Shear Modulus (GPa) = 24.01603 24.80173 24.40888
#
# Velocity S-wave (km/s) = 3.95197 4.01610 3.98416
# Velocity P-wave (km/s) = 7.77543 7.81937 7.79743
#
# Compressibility (1/GPa) = 0.01640843
#
# Stress axis : x y z
#
# Youngs Moduli (GPa) = 87.04676 66.79955 66.03564
#
# Poissons Ratio (x) = 0.19764 0.21030
# Poissons Ratio (y) = 0.25755 0.42614
# Poissons Ratio (z) = 0.27721 0.43107
#
# Static dielectric constant tensor:
#      x y z
#    x 2.946260 0.000000 0.000000 
#    y 0.000000 2.923310 0.000000 
#    z 0.000000 0.000000 3.395810 
# 
# 
# High freq. dielectric constant tensor:
#      x y z
#    x 1.595810 0.000000 0.000000 
#    y 0.000000 1.576940 0.000000 
#    z 0.000000 0.000000 1.575570 
# 
# From -- ./inp_files/17051.got.cif
#   From: 2010.03.12/outbox.cif.g09.slc.cpg/sg62_9_cif.got.tgz:17051.got - 2010.04.10 19:12:36.
