data_PCOD8250928
_publ_section_title
;
Structure prediction by ZEFSAII (Michael W. Deem and Ramdas Pophale) SiO2 
 PCOD8250928
Probable space group: P N M A
;
_chemical_formula_sum "Si O2"
_cell_formula_units_Z 64
_cell_length_a 34.462989
_cell_length_b 8.966987
_cell_length_c 13.584906
_cell_angle_alpha 90.000000
_cell_angle_beta 90.000000
_cell_angle_gamma 90.000000
_cell_volume 4198.132285
_symmetry_space_group_name_H-M "P N M A"
_symmetry_group_IT_number 62
_symmetry_cell_setting 'orthorhombic'
loop_
_space_group_symop_operation_xyz
x,y,z
1/2-x,-y,1/2+z
1/2+x,1/2-y,1/2-z
-x,1/2+y,-z
-x,-y,-z
1/2+x,y,1/2-z
1/2-x,1/2+y,1/2+z
x,1/2-y,z
loop_
_atom_site_type_symbol
_atom_site_label
_atom_site_fract_x
_atom_site_fract_y
_atom_site_fract_z
Si Si1 0.114949 0.425809 0.117154
Si Si2 0.729740 0.928379 0.890934
Si Si3 0.114596 0.077667 0.891404
Si Si4 0.307429 0.575955 0.710348
Si Si5 0.961773 0.082155 0.116295
Si Si6 0.235312 0.426342 0.404748
Si Si7 0.037558 0.918141 0.118227
Si Si8 0.695574 0.073929 0.706917
O O1 0.110431 0.250000 0.131005
O O2 0.122476 0.469688 0.003925
O O3 0.151281 0.493591 0.178820
O O4 0.075839 0.499976 0.158863
O O5 0.725785 0.750000 0.892181
O O6 0.772721 0.982960 0.859189
O O7 0.719966 0.997601 0.996339
O O8 0.699555 0.996569 0.812979
O O9 0.103505 0.250000 0.886717
O O10 0.152182 0.039845 0.827803
O O11 0.078192 0.989812 0.845371
O O12 0.310318 0.750000 0.691384
O O13 0.297795 0.539777 0.823639
O O14 0.963774 0.250000 0.155144
O O15 0.962674 0.073597 0.999018
O O16 0.998933 0.996328 0.160477
O O17 0.241734 0.250000 0.418110
O O18 0.275581 0.500624 0.372123
O O19 0.037958 0.750000 0.157058
O O20 0.704066 0.250000 0.712911
#
# Coordination Sequence:
#
# PCOD8250928 Si02
#       8
#     8   8   8   8   8   8   8   8
#     4   9  15  26  42  58  79 110 143 172 205 247
#     4  10  19  32  47  63  85 114 146 181 220 257
#     4   9  17  27  41  60  84 113 142 174 212 251
#     4   8  16  29  44  61  82 109 142 177 212 252
#     4   9  16  25  38  55  77 108 142 171 202 244
#     4  10  19  31  46  64  86 114 146 180 218 257
#     4   9  16  25  36  54  80 107 136 170 206 244
#     4  10  19  31  46  65  87 113 145 179 217 259
#
# _framework density 15.244876
#
# number of rings (size 3 to 8) (size 9 to 14) (size 15 to 20)
#    0.000    2.750    0.000    3.375    0.000    6.000 
#    0.000    6.250    0.000    0.000    0.000    0.000 
#    0.000    1.000    0.000    3.000    0.000    4.000 
#
# Total GULP energy -793472.549986 kJ/mol
# GULP energy per Si atom -12398.008594 kJ/mol
# Density = 1.521018 g / cm^3
# Si number density = 15.244876 Si / 1000 Ang^3
#
#
#
# Elastic Constant Matrix: (Units=GPa)
#
#
# Indices 1 2 3 4 5 6 
#
# 1 135.6872 60.8020 45.0643 0.0000 0.0000 0.0000
# 2 60.8020 86.4305 36.9814 0.0000 0.0000 0.0000
# 3 45.0643 36.9814 71.1524 0.0000 0.0000 0.0000
# 4 0.0000 0.0000 0.0000 20.0192 0.0000 0.0000
# 5 0.0000 0.0000 0.0000 0.0000 16.8513 0.0000
# 6 0.0000 0.0000 0.0000 0.0000 0.0000 27.6402
#
#
#
# Elastic Compliance Matrix: (Units=1/GPa)
#
#
# Indices 1 2 3 4 5 6 
#
# 1 0.011580 -0.006440 -0.003987 0.000000 0.000000 0.000000
# 2 -0.006440 0.018461 -0.005516 0.000000 0.000000 0.000000
# 3 -0.003987 -0.005516 0.019446 0.000000 0.000000 0.000000
# 4 0.000000 0.000000 0.000000 0.049952 0.000000 0.000000
# 5 0.000000 0.000000 0.000000 0.000000 0.059342 0.000000
# 6 0.000000 0.000000 0.000000 0.000000 0.000000 0.036179
#
#
# Mechanical properties :
#
#
# Convention : Reuss Voigt Hill
#
# Bulk Modulus (GPa) = 56.81568 64.32949 60.57259
# Shear Modulus (GPa) = 21.48562 22.93032 22.20797
#
# Velocity S-wave (km/s) = 3.75823 3.88252 3.82088
# Velocity P-wave (km/s) = 7.49546 7.89859 7.69966
#
# Compressibility (1/GPa) = 0.01760077
#
# Stress axis : x y z
#
# Youngs Moduli (GPa) = 86.35622 54.16886 51.42380
#
# Poissons Ratio (x) = 0.34887 0.20501
# Poissons Ratio (y) = 0.55617 0.28365
# Poissons Ratio (z) = 0.34428 0.29879
#
# Static dielectric constant tensor:
#      x y z
#    x 3.074230 0.000000 0.000000 
#    y 0.000000 2.961940 0.000000 
#    z 0.000000 0.000000 2.644370 
# 
# 
# High freq. dielectric constant tensor:
#      x y z
#    x 1.585910 0.000000 0.000000 
#    y 0.000000 1.589710 0.000000 
#    z 0.000000 0.000000 1.537700 
# 
# From -- ./inp_files/21219.got.cif
#   From: 2010.03.12/outbox.cif.g09.slc.cpg/sg62_11_cif.got.tgz:21219.got - 2010.04.10 19:12:36.
