data_PCOD8250322
_publ_section_title
;
Structure prediction by ZEFSAII (Michael W. Deem and Ramdas Pophale) SiO2 
 PCOD8250322
Probable space group: P N M A
;
_chemical_formula_sum "Si O2"
_cell_formula_units_Z 64
_cell_length_a 11.921973
_cell_length_b 8.967253
_cell_length_c 28.938681
_cell_angle_alpha 90.000000
_cell_angle_beta 90.000000
_cell_angle_gamma 90.000000
_cell_volume 3093.757645
_symmetry_space_group_name_H-M "P N M A"
_symmetry_group_IT_number 62
_symmetry_cell_setting 'orthorhombic'
loop_
_space_group_symop_operation_xyz
x,y,z
1/2-x,-y,1/2+z
1/2+x,1/2-y,1/2-z
-x,1/2+y,-z
-x,-y,-z
1/2+x,y,1/2-z
1/2-x,1/2+y,1/2+z
x,1/2-y,z
loop_
_atom_site_type_symbol
_atom_site_label
_atom_site_fract_x
_atom_site_fract_y
_atom_site_fract_z
Si Si1 0.035069 0.078075 0.820979
Si Si2 0.764239 0.574321 0.667064
Si Si3 0.533041 0.578043 0.220016
Si Si4 0.316171 0.576831 0.937166
Si Si5 0.636026 0.424729 0.384636
Si Si6 0.629925 0.924883 0.840638
Si Si7 0.228416 0.917816 0.030982
Si Si8 0.534245 0.420184 0.925412
O O1 0.058128 0.250000 0.831935
O O2 0.959387 0.058524 0.775183
O O3 0.971717 0.006382 0.864384
O O4 0.152545 0.997406 0.812441
O O5 0.759655 0.750000 0.674382
O O6 0.868849 0.513706 0.695836
O O7 0.770523 0.530986 0.613023
O O8 0.542435 0.750000 0.205529
O O9 0.411239 0.513697 0.204562
O O10 0.351705 0.750000 0.938832
O O11 0.422754 0.475943 0.951087
O O12 0.219309 0.546553 0.976031
O O13 0.614405 0.250000 0.383127
O O14 0.743913 0.471838 0.354182
O O15 0.653655 0.471849 0.438062
O O16 0.619824 0.750000 0.831753
O O17 0.545758 0.972190 0.881286
O O18 0.188432 0.750000 0.042254
O O19 0.360047 0.937124 0.041336
O O20 0.520128 0.250000 0.908699
#
# Coordination Sequence:
#
# PCOD8250322 Si02
#       8
#     8   8   8   8   8   8   8   8
#     4  11  26  45  65  88 120 161 205 255 307 365
#     4  11  24  42  65  92 125 161 203 254 306 363
#     4  11  24  41  63  91 121 156 200 248 305 369
#     4  10  20  35  56  85 122 162 203 253 308 365
#     4  10  22  40  62  90 122 158 206 256 304 362
#     4  10  20  35  57  87 121 157 194 242 300 358
#     4   9  19  35  56  85 122 163 205 249 307 366
#     4  10  18  29  51  83 120 161 199 244 297 359
#
# _framework density 20.686817999999999
#
# number of rings (size 3 to 8) (size 9 to 14) (size 15 to 20)
#    0.000    1.750    1.250    2.625    1.750    5.000 
#    0.000    0.625    0.000    0.000    0.000    0.000 
#    0.000    0.000    0.000    0.000    0.000    0.000 
#
# Total GULP energy -793701.236657 kJ/mol
# GULP energy per Si atom -12401.581823 kJ/mol
# Density = 2.063973 g / cm^3
# Si number density = 20.686818 Si / 1000 Ang^3
#
#
#
# Elastic Constant Matrix: (Units=GPa)
#
#
# Indices 1 2 3 4 5 6 
#
# 1 66.5702 37.0238 22.3927 0.0000 0.0000 0.0000
# 2 37.0238 98.8722 37.8248 0.0000 0.0000 0.0000
# 3 22.3927 37.8248 86.9828 0.0000 0.0000 0.0000
# 4 0.0000 0.0000 0.0000 30.1374 0.0000 0.0000
# 5 0.0000 0.0000 0.0000 0.0000 20.5247 0.0000
# 6 0.0000 0.0000 0.0000 0.0000 0.0000 31.8470
#
#
#
# Elastic Compliance Matrix: (Units=1/GPa)
#
#
# Indices 1 2 3 4 5 6 
#
# 1 0.019315 -0.006394 -0.002192 0.000000 0.000000 0.000000
# 2 -0.006394 0.014249 -0.004550 0.000000 0.000000 0.000000
# 3 -0.002192 -0.004550 0.014039 0.000000 0.000000 0.000000
# 4 0.000000 0.000000 0.000000 0.033181 0.000000 0.000000
# 5 0.000000 0.000000 0.000000 0.000000 0.048722 0.000000
# 6 0.000000 0.000000 0.000000 0.000000 0.000000 0.031400
#
#
# Mechanical properties :
#
#
# Convention : Reuss Voigt Hill
#
# Bulk Modulus (GPa) = 46.87965 49.65641 48.26803
# Shear Modulus (GPa) = 25.73467 26.84742 26.29104
#
# Velocity S-wave (km/s) = 3.53088 3.60641 3.56885
# Velocity P-wave (km/s) = 6.27165 6.43410 6.35339
#
# Compressibility (1/GPa) = 0.02133122
#
# Stress axis : x y z
#
# Youngs Moduli (GPa) = 51.77239 70.17930 71.22767
#
# Poissons Ratio (x) = 0.44875 0.15612
# Poissons Ratio (y) = 0.33105 0.32410
# Poissons Ratio (z) = 0.11348 0.31933
#
# Static dielectric constant tensor:
#      x y z
#    x 3.521300 0.000000 0.000000 
#    y 0.000000 3.746080 0.000000 
#    z 0.000000 0.000000 3.837560 
# 
# 
# High freq. dielectric constant tensor:
#      x y z
#    x 1.789150 0.000000 0.000000 
#    y 0.000000 1.815410 0.000000 
#    z 0.000000 0.000000 1.813170 
# 
# From -- ./inp_files/32470.got.cif
#   From: 2010.03.12/outbox.cif.g09.slc.cpg/sg62_17_cif.got.tgz:32470.got - 2010.04.10 19:12:36.
