data_PCOD8250889
_publ_section_title
;
Structure prediction by ZEFSAII (Michael W. Deem and Ramdas Pophale) SiO2 
 PCOD8250889
Probable space group: P N M A
;
_chemical_formula_sum "Si O2"
_cell_formula_units_Z 64
_cell_length_a 33.428152
_cell_length_b 9.059132
_cell_length_c 12.042575
_cell_angle_alpha 90.000000
_cell_angle_beta 90.000000
_cell_angle_gamma 90.000000
_cell_volume 3646.853487
_symmetry_space_group_name_H-M "P N M A"
_symmetry_group_IT_number 62
_symmetry_cell_setting 'orthorhombic'
loop_
_space_group_symop_operation_xyz
x,y,z
1/2-x,-y,1/2+z
1/2+x,1/2-y,1/2-z
-x,1/2+y,-z
-x,-y,-z
1/2+x,y,1/2-z
1/2-x,1/2+y,1/2+z
x,1/2-y,z
loop_
_atom_site_type_symbol
_atom_site_label
_atom_site_fract_x
_atom_site_fract_y
_atom_site_fract_z
Si Si1 0.667739 0.417574 0.549257
Si Si2 0.127268 0.423496 0.176502
Si Si3 0.314108 0.924725 0.866257
Si Si4 0.176289 0.075145 0.615126
Si Si5 0.272986 0.424766 0.298808
Si Si6 0.896052 0.917322 0.235736
Si Si7 0.467454 0.077745 0.356840
Si Si8 0.547397 0.923059 0.389455
O O1 0.683998 0.250000 0.556271
O O2 0.657038 0.462880 0.424284
O O3 0.701771 0.526752 0.593473
O O4 0.627755 0.433818 0.621087
O O5 0.117308 0.250000 0.176069
O O6 0.149481 0.476282 0.288291
O O7 0.086418 0.512743 0.169110
O O8 0.312962 0.750000 0.871572
O O9 0.272189 0.981322 0.816740
O O10 0.321079 0.986561 0.990196
O O11 0.183078 0.250000 0.624119
O O12 0.132549 0.033424 0.662867
O O13 0.210848 0.998684 0.686810
O O14 0.275780 0.250000 0.286126
O O15 0.910957 0.750000 0.252033
O O16 0.934603 0.022560 0.231606
O O17 0.474493 0.250000 0.340900
O O18 0.452118 0.038073 0.480160
O O19 0.508927 0.995883 0.331669
O O20 0.545639 0.750000 0.368616
#
# Coordination Sequence:
#
# PCOD8250889 Si02
#       8
#     8   8   8   8   8   8   8   8
#     4   9  18  31  50  74 102 136 170 206 257 313
#     4  10  19  34  54  74 102 140 176 211 256 313
#     4   9  20  36  54  75 101 137 177 216 260 309
#     4   9  19  37  54  72 101 138 175 212 259 310
#     4  10  20  33  52  77 102 131 172 221 261 299
#     4   9  16  29  50  73  98 130 167 208 253 302
#     4  10  19  30  49  76 105 137 167 203 253 307
#     4  10  20  32  48  75 110 138 166 207 256 309
#
# _framework density 17.549375999999999
#
# number of rings (size 3 to 8) (size 9 to 14) (size 15 to 20)
#    0.000    2.500    1.250    1.875    1.750    3.500 
#    0.000    2.500    0.000    0.750    0.000    0.000 
#    0.000    0.000    0.000    0.000    0.000    0.000 
#
# Total GULP energy -793652.195583 kJ/mol
# GULP energy per Si atom -12400.815556 kJ/mol
# Density = 1.750943 g / cm^3
# Si number density = 17.549376 Si / 1000 Ang^3
#
#
#
# Elastic Constant Matrix: (Units=GPa)
#
#
# Indices 1 2 3 4 5 6 
#
# 1 142.2511 57.8019 67.2668 0.0000 0.0000 0.0000
# 2 57.8019 61.8597 36.7799 0.0000 0.0000 0.0000
# 3 67.2668 36.7799 120.8036 0.0000 0.0000 0.0000
# 4 0.0000 0.0000 0.0000 18.2525 0.0000 0.0000
# 5 0.0000 0.0000 0.0000 0.0000 21.3334 0.0000
# 6 0.0000 0.0000 0.0000 0.0000 0.0000 32.0549
#
#
#
# Elastic Compliance Matrix: (Units=1/GPa)
#
#
# Indices 1 2 3 4 5 6 
#
# 1 0.012937 -0.009530 -0.004302 0.000000 0.000000 0.000000
# 2 -0.009530 0.026760 -0.002841 0.000000 0.000000 0.000000
# 3 -0.004302 -0.002841 0.011538 0.000000 0.000000 0.000000
# 4 0.000000 0.000000 0.000000 0.054787 0.000000 0.000000
# 5 0.000000 0.000000 0.000000 0.000000 0.046875 0.000000
# 6 0.000000 0.000000 0.000000 0.000000 0.000000 0.031197
#
#
# Mechanical properties :
#
#
# Convention : Reuss Voigt Hill
#
# Bulk Modulus (GPa) = 55.90017 72.06794 63.98405
# Shear Modulus (GPa) = 22.38130 25.19920 23.79025
#
# Velocity S-wave (km/s) = 3.57505 3.79344 3.68587
# Velocity P-wave (km/s) = 6.99740 7.76800 7.39275
#
# Compressibility (1/GPa) = 0.01788903
#
# Stress axis : x y z
#
# Youngs Moduli (GPa) = 77.30058 37.36985 86.66917
#
# Poissons Ratio (x) = 0.35614 0.37284
# Poissons Ratio (y) = 0.73669 0.24619
# Poissons Ratio (z) = 0.33254 0.10615
#
# Static dielectric constant tensor:
#      x y z
#    x 3.244850 0.000000 0.000000 
#    y 0.000000 3.113640 0.000000 
#    z 0.000000 0.000000 3.258000 
# 
# 
# High freq. dielectric constant tensor:
#      x y z
#    x 1.680090 0.000000 0.000000 
#    y 0.000000 1.668330 0.000000 
#    z 0.000000 0.000000 1.657250 
# 
# From -- ./inp_files/15840.got.cif
#   From: 2010.03.12/outbox.cif.g09.slc.cpg/sg62_8_cif.got.tgz:15840.got - 2010.04.10 19:12:36.
