data_PCOD8250956
_publ_section_title
;
Structure prediction by ZEFSAII (Michael W. Deem and Ramdas Pophale) SiO2 
 PCOD8250956
Probable space group: P N M A
;
_chemical_formula_sum "Si O2"
_cell_formula_units_Z 64
_cell_length_a 14.344928
_cell_length_b 8.779613
_cell_length_c 30.164273
_cell_angle_alpha 90.000000
_cell_angle_beta 90.000000
_cell_angle_gamma 90.000000
_cell_volume 3798.976511
_symmetry_space_group_name_H-M "P N M A"
_symmetry_group_IT_number 62
_symmetry_cell_setting 'orthorhombic'
loop_
_space_group_symop_operation_xyz
x,y,z
1/2-x,-y,1/2+z
1/2+x,1/2-y,1/2-z
-x,1/2+y,-z
-x,-y,-z
1/2+x,y,1/2-z
1/2-x,1/2+y,1/2+z
x,1/2-y,z
loop_
_atom_site_type_symbol
_atom_site_label
_atom_site_fract_x
_atom_site_fract_y
_atom_site_fract_z
Si Si1 0.108004 0.569539 0.044257
Si Si2 0.238669 0.072309 0.281690
Si Si3 0.140401 0.926958 0.866008
Si Si4 0.983690 0.076387 0.815008
Si Si5 0.108709 0.428255 0.952989
Si Si6 0.300084 0.424576 0.632221
Si Si7 0.528119 0.072524 0.224881
Si Si8 0.346845 0.569197 0.199498
O O1 0.119521 0.750000 0.039015
O O2 0.168701 0.500949 0.085452
O O3 0.000047 0.528820 0.052467
O O4 0.145633 0.486916 0.000360
O O5 0.239546 0.250000 0.269496
O O6 0.277963 0.040738 0.330775
O O7 0.132534 0.009716 0.282824
O O8 0.300249 0.988215 0.245027
O O9 0.113538 0.750000 0.866735
O O10 0.168507 0.984027 0.915137
O O11 0.051074 0.029569 0.854660
O O12 0.003805 0.250000 0.800131
O O13 0.878785 0.056931 0.830733
O O14 0.002904 0.961207 0.775027
O O15 0.127299 0.250000 0.948944
O O16 0.282567 0.250000 0.620929
O O17 0.208160 0.494253 0.655866
O O18 0.521382 0.250000 0.214802
O O19 0.453121 0.987364 0.193798
O O20 0.342713 0.750000 0.200658
#
# Coordination Sequence:
#
# PCOD8250956 Si02
#       8
#     8   8   8   8   8   8   8   8
#     4   9  17  32  49  68  99 133 163 199 244 297
#     4  10  22  36  50  70  99 134 173 210 246 296
#     4  11  21  33  49  72  99 134 172 206 249 297
#     4  11  19  31  49  72 100 133 170 209 245 288
#     4  10  19  31  48  73 101 129 163 203 246 298
#     4   9  18  32  49  72 100 131 168 205 245 293
#     4  11  22  36  49  69 102 137 170 210 253 296
#     4  11  21  33  52  75  99 131 171 211 251 295
#
# _framework density 16.846641999999999
#
# number of rings (size 3 to 8) (size 9 to 14) (size 15 to 20)
#    0.000    1.750    3.750    1.875    0.000    1.500 
#    0.000    1.250    0.000    0.000    0.000    0.875 
#    0.000    0.000    0.000    0.000    0.000    0.000 
#
# Total GULP energy -793435.950919 kJ/mol
# GULP energy per Si atom -12397.436733 kJ/mol
# Density = 1.680830 g / cm^3
# Si number density = 16.846642 Si / 1000 Ang^3
#
#
#
# Elastic Constant Matrix: (Units=GPa)
#
#
# Indices 1 2 3 4 5 6 
#
# 1 68.4463 27.8301 31.5681 0.0000 0.0000 0.0000
# 2 27.8301 50.1689 25.4020 0.0000 0.0000 0.0000
# 3 31.5681 25.4020 91.9460 0.0000 0.0000 0.0000
# 4 0.0000 0.0000 0.0000 24.3562 0.0000 0.0000
# 5 0.0000 0.0000 0.0000 0.0000 18.7832 0.0000
# 6 0.0000 0.0000 0.0000 0.0000 0.0000 20.8508
#
#
#
# Elastic Compliance Matrix: (Units=1/GPa)
#
#
# Indices 1 2 3 4 5 6 
#
# 1 0.020348 -0.009011 -0.004497 0.000000 0.000000 0.000000
# 2 -0.009011 0.027165 -0.004411 0.000000 0.000000 0.000000
# 3 -0.004497 -0.004411 0.013638 0.000000 0.000000 0.000000
# 4 0.000000 0.000000 0.000000 0.041057 0.000000 0.000000
# 5 0.000000 0.000000 0.000000 0.000000 0.053239 0.000000
# 6 0.000000 0.000000 0.000000 0.000000 0.000000 0.047960
#
#
# Mechanical properties :
#
#
# Convention : Reuss Voigt Hill
#
# Bulk Modulus (GPa) = 39.50401 42.24016 40.87209
# Shear Modulus (GPa) = 20.18722 21.18211 20.68467
#
# Velocity S-wave (km/s) = 3.46539 3.54976 3.50783
# Velocity P-wave (km/s) = 6.28586 6.47525 6.38126
#
# Compressibility (1/GPa) = 0.02531388
#
# Stress axis : x y z
#
# Youngs Moduli (GPa) = 49.14594 36.81264 73.32208
#
# Poissons Ratio (x) = 0.33170 0.32970
# Poissons Ratio (y) = 0.44283 0.32343
# Poissons Ratio (z) = 0.22099 0.16239
#
# Static dielectric constant tensor:
#      x y z
#    x 3.215780 0.000000 0.000000 
#    y 0.000000 3.073840 0.000000 
#    z 0.000000 0.000000 3.271150 
# 
# 
# High freq. dielectric constant tensor:
#      x y z
#    x 1.622220 0.000000 0.000000 
#    y 0.000000 1.647190 0.000000 
#    z 0.000000 0.000000 1.644170 
# 
# From -- ./inp_files/32688.got.cif
#   From: 2010.03.12/outbox.cif.g09.slc.cpg/sg62_17_cif.got.tgz:32688.got - 2010.04.10 19:12:36.
