data_PCOD8250053
_publ_section_title
;
Structure prediction by ZEFSAII (Michael W. Deem and Ramdas Pophale) SiO2 
 PCOD8250053
Probable space group: P N M A
;
_chemical_formula_sum "Si O2"
_cell_formula_units_Z 64
_cell_length_a 18.853339
_cell_length_b 9.082956
_cell_length_c 23.177228
_cell_angle_alpha 90.000000
_cell_angle_beta 90.000000
_cell_angle_gamma 90.000000
_cell_volume 3968.962358
_symmetry_space_group_name_H-M "P N M A"
_symmetry_group_IT_number 62
_symmetry_cell_setting 'orthorhombic'
loop_
_space_group_symop_operation_xyz
x,y,z
1/2-x,-y,1/2+z
1/2+x,1/2-y,1/2-z
-x,1/2+y,-z
-x,-y,-z
1/2+x,y,1/2-z
1/2-x,1/2+y,1/2+z
x,1/2-y,z
loop_
_atom_site_type_symbol
_atom_site_label
_atom_site_fract_x
_atom_site_fract_y
_atom_site_fract_z
Si Si1 0.738710 0.081974 0.836307
Si Si2 0.000763 0.424284 0.615679
Si Si3 0.143362 0.422744 0.556459
Si Si4 0.229449 0.077528 0.338076
Si Si5 0.504494 0.922478 0.245472
Si Si6 0.852481 0.075310 0.562798
Si Si7 0.151999 0.418656 0.776169
Si Si8 0.142274 0.421912 0.224560
O O1 0.764365 0.250000 0.832849
O O2 0.705743 0.045443 0.898216
O O3 0.678238 0.051249 0.788841
O O4 0.807079 0.980265 0.826290
O O5 0.006853 0.250000 0.619612
O O6 0.069086 0.484687 0.581560
O O7 0.998977 0.487981 0.680569
O O8 0.930727 0.476626 0.582123
O O9 0.137587 0.250000 0.541902
O O10 0.163486 0.513704 0.500169
O O11 0.231035 0.250000 0.350932
O O12 0.176035 0.036744 0.286324
O O13 0.205743 0.991526 0.394672
O O14 0.308210 0.024060 0.321265
O O15 0.521440 0.750000 0.243438
O O16 0.431237 0.955111 0.278450
O O17 0.565959 0.002679 0.281076
O O18 0.845534 0.250000 0.563330
O O19 0.166848 0.250000 0.793636
O O20 0.132899 0.250000 0.216359
#
# Coordination Sequence:
#
# PCOD8250053 Si02
#       8
#     8   8   8   8   8   8   8   8
#     4   9  17  31  50  69  91 126 164 199 240 287
#     4   9  17  30  47  68  96 131 168 200 230 278
#     4  10  19  33  50  69  96 129 168 206 242 282
#     4  10  20  33  47  67  96 129 162 202 246 285
#     4  10  17  30  51  73  97 129 164 196 236 291
#     4  11  21  32  48  69  96 132 171 204 238 282
#     4   9  17  30  51  73  93 122 161 202 242 286
#     4  10  20  31  46  70  99 126 157 201 247 286
#
# _framework density 16.125122999999999
#
# number of rings (size 3 to 8) (size 9 to 14) (size 15 to 20)
#    0.000    2.250    2.500    1.500    0.000    2.000 
#    0.000    1.250    0.000    0.000    0.000    0.875 
#    0.000    0.000    0.000    0.000    0.000    0.000 
#
# Total GULP energy -793765.181713 kJ/mol
# GULP energy per Si atom -12402.580964 kJ/mol
# Density = 1.608842 g / cm^3
# Si number density = 16.125123 Si / 1000 Ang^3
#
#
#
# Elastic Constant Matrix: (Units=GPa)
#
#
# Indices 1 2 3 4 5 6 
#
# 1 113.6777 55.3047 54.3767 0.0000 0.0000 0.0000
# 2 55.3047 67.9780 43.0614 0.0000 0.0000 0.0000
# 3 54.3767 43.0614 85.9035 0.0000 0.0000 0.0000
# 4 0.0000 0.0000 0.0000 25.0279 0.0000 0.0000
# 5 0.0000 0.0000 0.0000 0.0000 21.6407 0.0000
# 6 0.0000 0.0000 0.0000 0.0000 0.0000 22.2890
#
#
#
# Elastic Compliance Matrix: (Units=1/GPa)
#
#
# Indices 1 2 3 4 5 6 
#
# 1 0.016051 -0.009704 -0.005296 0.000000 0.000000 0.000000
# 2 -0.009704 0.027422 -0.007603 0.000000 0.000000 0.000000
# 3 -0.005296 -0.007603 0.018805 0.000000 0.000000 0.000000
# 4 0.000000 0.000000 0.000000 0.039955 0.000000 0.000000
# 5 0.000000 0.000000 0.000000 0.000000 0.046209 0.000000
# 6 0.000000 0.000000 0.000000 0.000000 0.000000 0.044865
#
#
# Mechanical properties :
#
#
# Convention : Reuss Voigt Hill
#
# Bulk Modulus (GPa) = 58.57830 63.67164 61.12497
# Shear Modulus (GPa) = 20.47468 21.44595 20.96031
#
# Velocity S-wave (km/s) = 3.56720 3.65083 3.60926
# Velocity P-wave (km/s) = 7.30567 7.57253 7.44029
#
# Compressibility (1/GPa) = 0.01707117
#
# Stress axis : x y z
#
# Youngs Moduli (GPa) = 62.30128 36.46736 53.17814
#
# Poissons Ratio (x) = 0.35387 0.28163
# Poissons Ratio (y) = 0.60456 0.40433
# Poissons Ratio (z) = 0.32995 0.27728
#
# Static dielectric constant tensor:
#      x y z
#    x 3.036640 0.000000 0.000000 
#    y 0.000000 2.915480 0.000000 
#    z 0.000000 0.000000 2.861370 
# 
# 
# High freq. dielectric constant tensor:
#      x y z
#    x 1.615470 0.000000 0.000000 
#    y 0.000000 1.613270 0.000000 
#    z 0.000000 0.000000 1.595440 
# 
# From -- ./inp_files/27643.got.cif
#   From: 2010.03.12/outbox.cif.g09.slc.cpg/sg62_14_cif.got.tgz:27643.got - 2010.04.10 19:12:36.
