data_PCOD8250957
_publ_section_title
;
Structure prediction by ZEFSAII (Michael W. Deem and Ramdas Pophale) SiO2 
 PCOD8250957
Probable space group: P N M A
;
_chemical_formula_sum "Si O2"
_cell_formula_units_Z 64
_cell_length_a 26.853761
_cell_length_b 9.139661
_cell_length_c 14.622491
_cell_angle_alpha 90.000000
_cell_angle_beta 90.000000
_cell_angle_gamma 90.000000
_cell_volume 3588.860435
_symmetry_space_group_name_H-M "P N M A"
_symmetry_group_IT_number 62
_symmetry_cell_setting 'orthorhombic'
loop_
_space_group_symop_operation_xyz
x,y,z
1/2-x,-y,1/2+z
1/2+x,1/2-y,1/2-z
-x,1/2+y,-z
-x,-y,-z
1/2+x,y,1/2-z
1/2-x,1/2+y,1/2+z
x,1/2-y,z
loop_
_atom_site_type_symbol
_atom_site_label
_atom_site_fract_x
_atom_site_fract_y
_atom_site_fract_z
Si Si1 0.441954 0.419161 0.915756
Si Si2 0.143203 0.578001 0.275756
Si Si3 0.668638 0.420575 0.400287
Si Si4 0.168071 0.917642 0.918320
Si Si5 0.783752 0.580768 0.593936
Si Si6 0.444172 0.921163 0.097964
Si Si7 0.216543 0.581736 0.587287
Si Si8 0.129773 0.919056 0.723291
O O1 0.437597 0.250000 0.942923
O O2 0.407046 0.458851 0.830743
O O3 0.497989 0.461482 0.887840
O O4 0.423897 0.509201 0.004019
O O5 0.152118 0.750000 0.266169
O O6 0.137393 0.506835 0.175981
O O7 0.190339 0.507077 0.325179
O O8 0.656443 0.250000 0.393186
O O9 0.651186 0.477939 0.499291
O O10 0.726971 0.454287 0.384535
O O11 0.159757 0.750000 0.948184
O O12 0.225338 0.943583 0.892729
O O13 0.135372 0.958189 0.829926
O O14 0.798976 0.750000 0.600446
O O15 0.801454 0.518492 0.496408
O O16 0.434961 0.750000 0.092647
O O17 0.414835 0.984463 0.184228
O O18 0.211784 0.750000 0.555898
O O19 0.181818 0.545296 0.673217
O O20 0.115923 0.750000 0.709632
#
# Coordination Sequence:
#
# PCOD8250957 Si02
#       8
#     8   8   8   8   8   8   8   8
#     4   9  20  37  53  72 101 133 160 192 243 301
#     4  11  21  33  51  72  97 132 168 200 243 298
#     4  10  20  34  51  72  99 130 167 210 246 280
#     4   9  19  35  51  69  99 137 169 199 242 293
#     4  10  19  31  48  73 103 132 166 205 239 279
#     4  10  20  34  53  77 102 126 158 202 245 287
#     4   9  18  32  48  70 103 137 163 193 240 292
#     4  10  19  32  51  72  98 133 167 197 238 295
#
# _framework density 17.832958000000001
#
# number of rings (size 3 to 8) (size 9 to 14) (size 15 to 20)
#    0.000    2.250    0.000    3.000    0.000    8.500 
#    0.000    1.250    0.000    0.750    0.000    0.000 
#    0.000    0.000    0.000    0.000    0.000    0.000 
#
# Total GULP energy -793870.013825 kJ/mol
# GULP energy per Si atom -12404.218966 kJ/mol
# Density = 1.779237 g / cm^3
# Si number density = 17.832958 Si / 1000 Ang^3
#
#
#
# Elastic Constant Matrix: (Units=GPa)
#
#
# Indices 1 2 3 4 5 6 
#
# 1 58.9318 42.9753 53.7029 0.0000 0.0000 0.0000
# 2 42.9753 96.0949 70.8223 0.0000 0.0000 0.0000
# 3 53.7029 70.8223 133.8200 0.0000 0.0000 0.0000
# 4 0.0000 0.0000 0.0000 35.1809 0.0000 0.0000
# 5 0.0000 0.0000 0.0000 0.0000 26.2577 0.0000
# 6 0.0000 0.0000 0.0000 0.0000 0.0000 24.8233
#
#
#
# Elastic Compliance Matrix: (Units=1/GPa)
#
#
# Indices 1 2 3 4 5 6 
#
# 1 0.029615 -0.007353 -0.007993 0.000000 0.000000 0.000000
# 2 -0.007353 0.018887 -0.007045 0.000000 0.000000 0.000000
# 3 -0.007993 -0.007045 0.014409 0.000000 0.000000 0.000000
# 4 0.000000 0.000000 0.000000 0.028424 0.000000 0.000000
# 5 0.000000 0.000000 0.000000 0.000000 0.038084 0.000000
# 6 0.000000 0.000000 0.000000 0.000000 0.000000 0.040285
#
#
# Mechanical properties :
#
#
# Convention : Reuss Voigt Hill
#
# Bulk Modulus (GPa) = 55.16216 69.31640 62.23928
# Shear Modulus (GPa) = 22.67278 25.34213 24.00745
#
# Velocity S-wave (km/s) = 3.56953 3.77382 3.67310
# Velocity P-wave (km/s) = 6.92738 7.61204 7.27777
#
# Compressibility (1/GPa) = 0.01812837
#
# Stress axis : x y z
#
# Youngs Moduli (GPa) = 33.76663 52.94685 69.40289
#
# Poissons Ratio (x) = 0.38934 0.55474
# Poissons Ratio (y) = 0.24830 0.48891
# Poissons Ratio (z) = 0.26990 0.37299
#
# Static dielectric constant tensor:
#      x y z
#    x 3.145830 0.000000 0.000000 
#    y 0.000000 3.374130 0.000000 
#    z 0.000000 0.000000 3.332440 
# 
# 
# High freq. dielectric constant tensor:
#      x y z
#    x 1.666260 0.000000 0.000000 
#    y 0.000000 1.697020 0.000000 
#    z 0.000000 0.000000 1.690340 
# 
# From -- ./inp_files/20820.got.cif
#   From: 2010.03.12/outbox.cif.g09.slc.cpg/sg62_11_cif.got.tgz:20820.got - 2010.04.10 19:12:36.
