data_PCOD8250325
_publ_section_title
;
Structure prediction by ZEFSAII (Michael W. Deem and Ramdas Pophale) SiO2 
 PCOD8250325
Probable space group: P N M A
;
_chemical_formula_sum "Si O2"
_cell_formula_units_Z 48
_cell_length_a 15.927860
_cell_length_b 17.983450
_cell_length_c 8.999890
_cell_angle_alpha 90.000000
_cell_angle_beta 90.000000
_cell_angle_gamma 90.000000
_cell_volume 2577.909357
_symmetry_space_group_name_H-M "P N M A"
_symmetry_group_IT_number 62
_symmetry_cell_setting 'orthorhombic'
loop_
_space_group_symop_operation_xyz
x,y,z
1/2-x,-y,1/2+z
1/2+x,1/2-y,1/2-z
-x,1/2+y,-z
-x,-y,-z
1/2+x,y,1/2-z
1/2-x,1/2+y,1/2+z
x,1/2-y,z
loop_
_atom_site_type_symbol
_atom_site_label
_atom_site_fract_x
_atom_site_fract_y
_atom_site_fract_z
Si Si1 0.182492 0.899994 0.644776
Si Si2 0.213697 0.165420 0.904078
Si Si3 0.103985 0.570901 0.928839
Si Si4 0.957822 0.592588 0.138033
Si Si5 0.293279 0.039206 0.706506
Si Si6 0.441462 0.447333 0.905025
O O1 0.257374 0.850087 0.575936
O O2 0.137839 0.873917 0.797848
O O3 0.110656 0.898375 0.520172
O O4 0.218827 0.980518 0.691112
O O5 0.234062 0.250000 0.862439
O O6 0.114682 0.152019 0.890023
O O7 0.261231 0.112817 0.788517
O O8 0.075886 0.491554 0.863113
O O9 0.181154 0.559302 0.040003
O O10 0.025173 0.608926 0.008763
O O11 0.001308 0.604925 0.299173
O O12 0.374710 0.008227 0.798182
O O13 0.500000 0.500000 0.000000
#
# Coordination Sequence:
#
# PCOD8250325 Si02
#       6
#     8   8   8   8   8   8
#     4  11  19  34  58  85 114 149 192 241 282 341
#     4  11  23  39  56  82 118 154 190 238 298 350
#     4  10  18  32  57  85 112 140 194 242 277 331
#     4  10  19  33  53  85 117 146 185 238 291 340
#     4  10  19  34  56  85 113 151 194 237 285 345
#     4  10  18  29  53  86 116 144 188 243 283 329
#
# _framework density 18.61974
#
# number of rings (size 3 to 8) (size 9 to 14) (size 15 to 20)
#    0.000    1.667    5.000    1.000    0.000    0.000 
#    0.000    9.167    0.000    0.000    0.000    0.000 
#    0.000    0.000    0.000    0.000    0.000    0.000 
#
# Total GULP energy -594852.150150 kJ/mol
# GULP energy per Si atom -12392.753128 kJ/mol
# Density = 1.857736 g / cm^3
# Si number density = 18.619740 Si / 1000 Ang^3
#
#
#
# Elastic Constant Matrix: (Units=GPa)
#
#
# Indices 1 2 3 4 5 6 
#
# 1 116.7304 29.7679 64.1447 0.0000 0.0000 0.0000
# 2 29.7679 66.4502 23.3385 0.0000 0.0000 0.0000
# 3 64.1447 23.3385 140.5197 0.0000 0.0000 0.0000
# 4 0.0000 0.0000 0.0000 13.6825 0.0000 0.0000
# 5 0.0000 0.0000 0.0000 0.0000 41.4271 0.0000
# 6 0.0000 0.0000 0.0000 0.0000 0.0000 15.6869
#
#
#
# Elastic Compliance Matrix: (Units=1/GPa)
#
#
# Indices 1 2 3 4 5 6 
#
# 1 0.012253 -0.003743 -0.004972 0.000000 0.000000 0.000000
# 2 -0.003743 0.017124 -0.001136 0.000000 0.000000 0.000000
# 3 -0.004972 -0.001136 0.009575 0.000000 0.000000 0.000000
# 4 0.000000 0.000000 0.000000 0.073086 0.000000 0.000000
# 5 0.000000 0.000000 0.000000 0.000000 0.024139 0.000000
# 6 0.000000 0.000000 0.000000 0.000000 0.000000 0.063748
#
#
# Mechanical properties :
#
#
# Convention : Reuss Voigt Hill
#
# Bulk Modulus (GPa) = 51.94335 62.02250 56.98292
# Shear Modulus (GPa) = 22.11975 27.92259 25.02117
#
# Velocity S-wave (km/s) = 3.45044 3.87670 3.66976
# Velocity P-wave (km/s) = 6.62054 7.30895 6.97324
#
# Compressibility (1/GPa) = 0.01925174
#
# Stress axis : x y z
#
# Youngs Moduli (GPa) = 81.61070 58.39609 104.44353
#
# Poissons Ratio (x) = 0.21858 0.51927
# Poissons Ratio (y) = 0.30547 0.11860
# Poissons Ratio (z) = 0.40575 0.06631
#
# Static dielectric constant tensor:
#      x y z
#    x 3.925180 0.000000 0.000000 
#    y 0.000000 2.772860 0.000000 
#    z 0.000000 0.000000 3.812490 
# 
# 
# High freq. dielectric constant tensor:
#      x y z
#    x 1.750180 0.000000 0.000000 
#    y 0.000000 1.643280 0.000000 
#    z 0.000000 0.000000 1.743470 
# 
# From -- ./inp_files/6501.got.cif
#   From: 2010.03.12/outbox.cif.g09.slc.cpg/sg62_4_cif.got.tgz:6501.got - 2010.04.10 19:12:36.
