data_PCOD8250725
_publ_section_title
;
Structure prediction by ZEFSAII (Michael W. Deem and Ramdas Pophale) SiO2 
 PCOD8250725
Probable space group: P N M A
;
_chemical_formula_sum "Si O2"
_cell_formula_units_Z 44
_cell_length_a 16.174755
_cell_length_b 19.589328
_cell_length_c 7.856314
_cell_angle_alpha 90.000000
_cell_angle_beta 90.000000
_cell_angle_gamma 90.000000
_cell_volume 2489.293368
_symmetry_space_group_name_H-M "P N M A"
_symmetry_group_IT_number 62
_symmetry_cell_setting 'orthorhombic'
loop_
_space_group_symop_operation_xyz
x,y,z
1/2-x,-y,1/2+z
1/2+x,1/2-y,1/2-z
-x,1/2+y,-z
-x,-y,-z
1/2+x,y,1/2-z
1/2-x,1/2+y,1/2+z
x,1/2-y,z
loop_
_atom_site_type_symbol
_atom_site_label
_atom_site_fract_x
_atom_site_fract_y
_atom_site_fract_z
Si Si1 0.138962 0.889451 0.184558
Si Si2 0.904416 0.483399 0.500000
Si Si3 0.910748 0.750000 0.500000
Si Si4 0.070019 0.750000 0.312187
Si Si5 0.702527 0.381533 1.000000
Si Si6 0.429981 0.250000 0.187813
Si Si7 0.861038 0.110549 0.184559
O O1 0.116785 0.941160 0.332390
O O2 0.097824 0.816365 0.211843
O O3 0.238933 0.880949 0.168896
O O4 0.106109 0.916992 1.000000
O O5 0.853691 0.552236 0.500000
O O6 0.883215 0.441160 0.332391
O O7 0.000000 0.500000 0.500000
O O8 0.854863 0.683751 0.500000
O O9 0.969872 0.750000 0.667362
O O10 0.969872 0.750000 0.332638
O O11 0.111982 0.750000 0.500000
O O12 0.761067 0.380949 0.168896
O O13 0.402176 0.316365 0.288157
#
# Coordination Sequence:
#
# PCOD8250725 Si02
#       7
#     8   8   4   4   8   4   8
#     4  10  22  37  64  86 122 155 203 242 298 354
#     4  12  22  41  61  88 120 164 196 250 303 349
#     4  10  20  38  66  88 114 164 190 248 300 350
#     4  10  18  36  64  86 118 157 193 241 304 343
#     4  10  22  38  62  86 124 151 204 244 294 358
#     4  10  18  36  64  86 118 157 193 241 304 343
#     4  10  22  37  64  86 122 155 203 242 298 354
#
# _framework density 17.675698000000001
#
# number of rings (size 3 to 8) (size 9 to 14) (size 15 to 20)
#    1.636    0.000    1.818    4.909    0.000    0.727 
#    0.000    0.000    8.000    0.000    0.000    0.000 
#    0.000    0.000    0.000    0.000    0.000    0.000 
#
# Total GULP energy -545184.214796 kJ/mol
# GULP energy per Si atom -12390.550336 kJ/mol
# Density = 1.763547 g / cm^3
# Si number density = 17.675698 Si / 1000 Ang^3
#
#
#
# Elastic Constant Matrix: (Units=GPa)
#
#
# Indices 1 2 3 4 5 6 
#
# 1 163.1346 91.9525 61.5833 0.0000 0.0000 0.0000
# 2 91.9525 172.3103 74.6523 0.0000 0.0000 0.0000
# 3 61.5833 74.6523 141.1178 0.0000 0.0000 0.0000
# 4 0.0000 0.0000 0.0000 33.0500 0.0000 0.0000
# 5 0.0000 0.0000 0.0000 0.0000 71.0997 0.0000
# 6 0.0000 0.0000 0.0000 0.0000 0.0000 45.0425
#
#
#
# Elastic Compliance Matrix: (Units=1/GPa)
#
#
# Indices 1 2 3 4 5 6 
#
# 1 0.009114 -0.004074 -0.001822 0.000000 0.000000 0.000000
# 2 -0.004074 0.009350 -0.003168 0.000000 0.000000 0.000000
# 3 -0.001822 -0.003168 0.009558 0.000000 0.000000 0.000000
# 4 0.000000 0.000000 0.000000 0.030257 0.000000 0.000000
# 5 0.000000 0.000000 0.000000 0.000000 0.014065 0.000000
# 6 0.000000 0.000000 0.000000 0.000000 0.000000 0.022201
#
#
# Mechanical properties :
#
#
# Convention : Reuss Voigt Hill
#
# Bulk Modulus (GPa) = 101.08614 103.65989 102.37301
# Shear Modulus (GPa) = 43.11356 46.39675 44.75515
#
# Velocity S-wave (km/s) = 4.94413 5.12893 5.03737
# Velocity P-wave (km/s) = 9.48188 9.68748 9.58523
#
# Compressibility (1/GPa) = 0.00989255
#
# Stress axis : x y z
#
# Youngs Moduli (GPa) = 109.71744 106.94662 104.62962
#
# Poissons Ratio (x) = 0.43574 0.19064
# Poissons Ratio (y) = 0.44703 0.33151
# Poissons Ratio (z) = 0.19991 0.33885
#
# Static dielectric constant tensor:
#      x y z
#    x 3.350320 0.000000 0.000000 
#    y 0.000000 3.101060 0.000000 
#    z 0.000000 0.000000 3.315210 
# 
# 
# High freq. dielectric constant tensor:
#      x y z
#    x 1.683970 0.000000 0.000000 
#    y 0.000000 1.695710 0.000000 
#    z 0.000000 0.000000 1.678900 
# 
# From -- ./inp_files/6398.got.cif
#   From: 2010.03.12/outbox.cif.g09.slc.cpg/sg62_4_cif.got.tgz:6398.got - 2010.04.10 19:12:36.
