data_PCOD8250133
_publ_section_title
;
Structure prediction by ZEFSAII (Michael W. Deem and Ramdas Pophale) SiO2 
 PCOD8250133
Probable space group: P N M A
;
_chemical_formula_sum "Si O2"
_cell_formula_units_Z 64
_cell_length_a 18.546810
_cell_length_b 8.853764
_cell_length_c 26.046089
_cell_angle_alpha 90.000000
_cell_angle_beta 90.000000
_cell_angle_gamma 90.000000
_cell_volume 4277.004278
_symmetry_space_group_name_H-M "P N M A"
_symmetry_group_IT_number 62
_symmetry_cell_setting 'orthorhombic'
loop_
_space_group_symop_operation_xyz
x,y,z
1/2-x,-y,1/2+z
1/2+x,1/2-y,1/2-z
-x,1/2+y,-z
-x,-y,-z
1/2+x,y,1/2-z
1/2-x,1/2+y,1/2+z
x,1/2-y,z
loop_
_atom_site_type_symbol
_atom_site_label
_atom_site_fract_x
_atom_site_fract_y
_atom_site_fract_z
Si Si1 0.668799 0.571178 0.644668
Si Si2 0.577813 0.425954 0.246534
Si Si3 0.078520 0.574944 0.052587
Si Si4 0.278290 0.077710 0.209937
Si Si5 0.205478 0.925972 0.302486
Si Si6 0.580216 0.924313 0.742397
Si Si7 0.413084 0.574103 0.447027
Si Si8 0.848336 0.920617 0.855424
O O1 0.674204 0.750000 0.645672
O O2 0.749317 0.504336 0.651711
O O3 0.617099 0.509800 0.690664
O O4 0.637796 0.517966 0.590751
O O5 0.577872 0.250000 0.232808
O O6 0.624433 0.508618 0.202484
O O7 0.497182 0.498865 0.245417
O O8 0.609673 0.455848 0.302965
O O9 0.086696 0.750000 0.038507
O O10 0.127767 0.536861 0.101280
O O11 0.995961 0.534866 0.066024
O O12 0.105475 0.476757 0.004681
O O13 0.262486 0.250000 0.230043
O O14 0.365003 0.052607 0.208986
O O15 0.238056 0.057105 0.155198
O O16 0.245670 0.958102 0.249175
O O17 0.201232 0.750000 0.313822
O O18 0.564177 0.750000 0.731806
O O19 0.396618 0.750000 0.441045
O O20 0.864756 0.750000 0.873911
#
# Coordination Sequence:
#
# PCOD8250133 Si02
#       8
#     8   8   8   8   8   8   8   8
#     4  10  18  30  46  61  80 109 142 173 208 248
#     4   9  16  27  42  60  82 110 141 170 203 242
#     4  10  20  31  43  60  83 110 140 173 208 246
#     4   8  15  28  42  58  80 108 140 171 205 244
#     4  10  18  27  39  58  83 109 137 170 205 241
#     4   8  14  25  43  62  80 106 140 172 200 239
#     4  10  20  32  44  60  82 107 138 176 212 244
#     4   9  16  26  41  59  82 111 142 174 207 243
#
# _framework density 14.963744
#
# number of rings (size 3 to 8) (size 9 to 14) (size 15 to 20)
#    0.000    2.750    0.000    4.500    0.000    4.500 
#    0.000    3.125    0.000    0.000    0.000    0.000 
#    0.000    1.000    0.000    2.750    0.000    4.000 
#
# Total GULP energy -793198.816369 kJ/mol
# GULP energy per Si atom -12393.731506 kJ/mol
# Density = 1.492969 g / cm^3
# Si number density = 14.963744 Si / 1000 Ang^3
#
#
#
# Elastic Constant Matrix: (Units=GPa)
#
#
# Indices 1 2 3 4 5 6 
#
# 1 105.3696 27.4055 39.9480 0.0000 0.0000 0.0000
# 2 27.4055 57.6067 24.5000 0.0000 0.0000 0.0000
# 3 39.9480 24.5000 59.3679 0.0000 0.0000 0.0000
# 4 0.0000 0.0000 0.0000 23.0122 0.0000 0.0000
# 5 0.0000 0.0000 0.0000 0.0000 24.9123 0.0000
# 6 0.0000 0.0000 0.0000 0.0000 0.0000 17.2250
#
#
#
# Elastic Compliance Matrix: (Units=1/GPa)
#
#
# Indices 1 2 3 4 5 6 
#
# 1 0.013162 -0.003026 -0.007608 0.000000 0.000000 0.000000
# 2 -0.003026 0.021750 -0.006940 0.000000 0.000000 0.000000
# 3 -0.007608 -0.006940 0.024827 0.000000 0.000000 0.000000
# 4 0.000000 0.000000 0.000000 0.043455 0.000000 0.000000
# 5 0.000000 0.000000 0.000000 0.000000 0.040141 0.000000
# 6 0.000000 0.000000 0.000000 0.000000 0.000000 0.058055
#
#
# Mechanical properties :
#
#
# Convention : Reuss Voigt Hill
#
# Bulk Modulus (GPa) = 40.66311 45.11679 42.88995
# Shear Modulus (GPa) = 20.43035 21.72927 21.07981
#
# Velocity S-wave (km/s) = 3.69904 3.81481 3.75737
# Velocity P-wave (km/s) = 6.74368 7.04414 6.89555
#
# Compressibility (1/GPa) = 0.02459232
#
# Stress axis : x y z
#
# Youngs Moduli (GPa) = 75.97842 45.97684 40.27861
#
# Poissons Ratio (x) = 0.13912 0.30642
# Poissons Ratio (y) = 0.22991 0.27952
# Poissons Ratio (z) = 0.57801 0.31907
#
# Static dielectric constant tensor:
#      x y z
#    x 3.157910 0.000000 0.000000 
#    y 0.000000 2.772810 0.000000 
#    z 0.000000 0.000000 2.630970 
# 
# 
# High freq. dielectric constant tensor:
#      x y z
#    x 1.568390 0.000000 0.000000 
#    y 0.000000 1.569620 0.000000 
#    z 0.000000 0.000000 1.532580 
# 
# From -- ./inp_files/30030.got.cif
#   From: 2010.03.12/outbox.cif.g09.slc.cpg/sg62_16_cif.got.tgz:30030.got - 2010.04.10 19:12:36.
