data_PCOD8250997
_publ_section_title
;
Structure prediction by ZEFSAII (Michael W. Deem and Ramdas Pophale) SiO2 
 PCOD8250997
Probable space group: P N M A
;
_chemical_formula_sum "Si O2"
_cell_formula_units_Z 64
_cell_length_a 24.027032
_cell_length_b 9.306005
_cell_length_c 15.159979
_cell_angle_alpha 90.000000
_cell_angle_beta 90.000000
_cell_angle_gamma 90.000000
_cell_volume 3389.705812
_symmetry_space_group_name_H-M "P N M A"
_symmetry_group_IT_number 62
_symmetry_cell_setting 'orthorhombic'
loop_
_space_group_symop_operation_xyz
x,y,z
1/2-x,-y,1/2+z
1/2+x,1/2-y,1/2-z
-x,1/2+y,-z
-x,-y,-z
1/2+x,y,1/2-z
1/2-x,1/2+y,1/2+z
x,1/2-y,z
loop_
_atom_site_type_symbol
_atom_site_label
_atom_site_fract_x
_atom_site_fract_y
_atom_site_fract_z
Si Si1 0.429398 0.916978 0.378240
Si Si2 0.192656 0.084748 0.817665
Si Si3 0.455676 0.916541 0.885906
Si Si4 0.958253 0.416511 0.786884
Si Si5 0.681317 0.418197 0.879662
Si Si6 0.226757 0.581836 0.980054
Si Si7 0.079623 0.917039 0.551372
Si Si8 0.605557 0.584787 0.462031
O O1 0.434841 0.750000 0.399357
O O2 0.372233 0.956657 0.328862
O O3 0.480563 0.966564 0.317628
O O4 0.433360 0.996566 0.471698
O O5 0.202706 0.250000 0.841615
O O6 0.208957 0.052127 0.716241
O O7 0.231248 0.994387 0.884612
O O8 0.438718 0.750000 0.888794
O O9 0.521100 0.939310 0.900385
O O10 0.438820 0.984095 0.792957
O O11 0.419911 0.999508 0.958926
O O12 0.959029 0.250000 0.757373
O O13 0.913159 0.444555 0.862704
O O14 0.665680 0.250000 0.887494
O O15 0.626020 0.512988 0.886464
O O16 0.723691 0.467827 0.955843
O O17 0.229818 0.750000 0.962496
O O18 0.169614 0.536690 0.028170
O O19 0.092470 0.750000 0.534679
O O20 0.597794 0.750000 0.487623
#
# Coordination Sequence:
#
# PCOD8250997 Si02
#       8
#     8   8   8   8   8   8   8   8
#     4   9  17  29  48  73 102 136 178 224 267 314
#     4   9  18  33  53  77 103 137 180 224 272 320
#     4  10  21  36  54  78 110 141 170 210 264 321
#     4  10  19  31  49  76 108 142 179 216 260 319
#     4  10  20  36  58  80 106 142 181 223 272 322
#     4   9  19  36  54  75 107 142 177 223 271 315
#     4  10  21  37  57  80 105 136 174 218 263 314
#     4   9  18  32  49  71 104 142 178 218 265 316
#
# _framework density 18.880693999999998
#
# number of rings (size 3 to 8) (size 9 to 14) (size 15 to 20)
#    0.000    2.500    0.000    1.875    0.000    4.500 
#    2.250    2.500    0.000    0.000    0.000    0.000 
#    0.000    0.000    0.000    0.000    0.000    0.000 
#
# Total GULP energy -793742.004573 kJ/mol
# GULP energy per Si atom -12402.218821 kJ/mol
# Density = 1.883772 g / cm^3
# Si number density = 18.880694 Si / 1000 Ang^3
#
#
#
# Elastic Constant Matrix: (Units=GPa)
#
#
# Indices 1 2 3 4 5 6 
#
# 1 42.2083 22.5467 26.8062 0.0000 0.0000 0.0000
# 2 22.5467 69.4591 52.9564 0.0000 0.0000 0.0000
# 3 26.8062 52.9564 120.2750 0.0000 0.0000 0.0000
# 4 0.0000 0.0000 0.0000 37.8474 0.0000 0.0000
# 5 0.0000 0.0000 0.0000 0.0000 24.1772 0.0000
# 6 0.0000 0.0000 0.0000 0.0000 0.0000 23.4398
#
#
#
# Elastic Compliance Matrix: (Units=1/GPa)
#
#
# Indices 1 2 3 4 5 6 
#
# 1 0.029645 -0.006903 -0.003568 0.000000 0.000000 0.000000
# 2 -0.006903 0.023279 -0.008711 0.000000 0.000000 0.000000
# 3 -0.003568 -0.008711 0.012945 0.000000 0.000000 0.000000
# 4 0.000000 0.000000 0.000000 0.026422 0.000000 0.000000
# 5 0.000000 0.000000 0.000000 0.000000 0.041361 0.000000
# 6 0.000000 0.000000 0.000000 0.000000 0.000000 0.042663
#
#
# Mechanical properties :
#
#
# Convention : Reuss Voigt Hill
#
# Bulk Modulus (GPa) = 36.35623 48.50680 42.43152
# Shear Modulus (GPa) = 22.33662 25.73507 24.03585
#
# Velocity S-wave (km/s) = 3.44327 3.69594 3.57184
# Velocity P-wave (km/s) = 5.92501 6.63025 6.28753
#
# Compressibility (1/GPa) = 0.02750560
#
# Stress axis : x y z
#
# Youngs Moduli (GPa) = 33.73212 42.95685 77.24995
#
# Poissons Ratio (x) = 0.29652 0.27562
# Poissons Ratio (y) = 0.23285 0.67294
# Poissons Ratio (z) = 0.12035 0.37421
#
# Static dielectric constant tensor:
#      x y z
#    x 3.350420 0.000000 0.000000 
#    y 0.000000 3.410650 0.000000 
#    z 0.000000 0.000000 3.474420 
# 
# 
# High freq. dielectric constant tensor:
#      x y z
#    x 1.716680 0.000000 0.000000 
#    y 0.000000 1.729400 0.000000 
#    z 0.000000 0.000000 1.738390 
# 
# From -- ./inp_files/20831.got.cif
#   From: 2010.03.12/outbox.cif.g09.slc.cpg/sg62_11_cif.got.tgz:20831.got - 2010.04.10 19:12:36.
