data_PCOD8250836
_publ_section_title
;
Structure prediction by ZEFSAII (Michael W. Deem and Ramdas Pophale) SiO2 
 PCOD8250836
Probable space group: P N M A
;
_chemical_formula_sum "Si O2"
_cell_formula_units_Z 56
_cell_length_a 13.340260
_cell_length_b 8.925285
_cell_length_c 29.045057
_cell_angle_alpha 90.000000
_cell_angle_beta 90.000000
_cell_angle_gamma 90.000000
_cell_volume 3458.267792
_symmetry_space_group_name_H-M "P N M A"
_symmetry_group_IT_number 62
_symmetry_cell_setting 'orthorhombic'
loop_
_space_group_symop_operation_xyz
x,y,z
1/2-x,-y,1/2+z
1/2+x,1/2-y,1/2-z
-x,1/2+y,-z
-x,-y,-z
1/2+x,y,1/2-z
1/2-x,1/2+y,1/2+z
x,1/2-y,z
loop_
_atom_site_type_symbol
_atom_site_label
_atom_site_fract_x
_atom_site_fract_y
_atom_site_fract_z
Si Si1 0.290634 0.075895 0.818847
Si Si2 0.873155 0.574500 0.592495
Si Si3 0.116352 0.426225 0.231684
Si Si4 0.290749 0.575759 0.181150
Si Si5 0.105992 0.577107 0.496789
Si Si6 0.107497 0.920642 0.598710
Si Si7 0.413969 0.920922 0.270040
O O1 0.318920 0.250000 0.821389
O O2 0.174547 0.051885 0.806489
O O3 0.308388 0.998563 0.867439
O O4 0.361315 0.002651 0.780506
O O5 0.853369 0.750000 0.591537
O O6 0.832977 0.504972 0.544073
O O7 0.990245 0.535906 0.599321
O O8 0.127102 0.250000 0.237260
O O9 0.190665 0.482935 0.191950
O O10 0.003890 0.468627 0.216807
O O11 0.262282 0.750000 0.182171
O O12 0.332084 0.531455 0.131458
O O13 0.374953 0.539162 0.219030
O O14 0.092090 0.750000 0.483619
O O15 0.155364 0.561000 0.547502
O O16 0.000000 0.500000 0.500000
O O17 0.120111 0.750000 0.615949
O O18 0.451893 0.750000 0.272070
#
# Coordination Sequence:
#
# PCOD8250836 Si02
#       7
#     8   8   8   8   8   8   8
#     4  10  20  33  49  68  92 123 156 189 227 272
#     4  10  19  30  46  69  96 124 155 191 229 273
#     4  11  21  32  48  68  93 122 152 191 231 269
#     4  10  20  32  48  68  91 122 156 189 226 271
#     4   9  17  29  44  64  93 125 155 189 229 273
#     4   9  18  30  44  66  95 124 154 189 227 267
#     4   9  19  34  48  65  91 122 156 190 225 269
#
# _framework density 16.193078
#
# number of rings (size 3 to 8) (size 9 to 14) (size 15 to 20)
#    0.000    2.286    0.000    5.571    0.000    9.143 
#    0.000    0.000    0.000    0.000    0.000    1.000 
#    0.000    0.000    0.000    0.000    0.000    0.000 
#
# Total GULP energy -694396.059573 kJ/mol
# GULP energy per Si atom -12399.929635 kJ/mol
# Density = 1.615622 g / cm^3
# Si number density = 16.193078 Si / 1000 Ang^3
#
#
#
# Elastic Constant Matrix: (Units=GPa)
#
#
# Indices 1 2 3 4 5 6 
#
# 1 65.6316 43.9205 36.0362 0.0000 0.0000 0.0000
# 2 43.9205 117.2049 55.5624 0.0000 0.0000 0.0000
# 3 36.0362 55.5624 113.5568 0.0000 0.0000 0.0000
# 4 0.0000 0.0000 0.0000 32.7296 0.0000 0.0000
# 5 0.0000 0.0000 0.0000 0.0000 18.9447 0.0000
# 6 0.0000 0.0000 0.0000 0.0000 0.0000 24.2898
#
#
#
# Elastic Compliance Matrix: (Units=1/GPa)
#
#
# Indices 1 2 3 4 5 6 
#
# 1 0.021497 -0.006278 -0.003750 0.000000 0.000000 0.000000
# 2 -0.006278 0.012942 -0.004340 0.000000 0.000000 0.000000
# 3 -0.003750 -0.004340 0.012120 0.000000 0.000000 0.000000
# 4 0.000000 0.000000 0.000000 0.030553 0.000000 0.000000
# 5 0.000000 0.000000 0.000000 0.000000 0.052785 0.000000
# 6 0.000000 0.000000 0.000000 0.000000 0.000000 0.041170
#
#
# Mechanical properties :
#
#
# Convention : Reuss Voigt Hill
#
# Bulk Modulus (GPa) = 56.10912 63.04791 59.57851
# Shear Modulus (GPa) = 24.30207 25.91778 25.10992
#
# Velocity S-wave (km/s) = 3.87818 4.00502 3.94211
# Velocity P-wave (km/s) = 7.40128 7.77217 7.58899
#
# Compressibility (1/GPa) = 0.01782241
#
# Stress axis : x y z
#
# Youngs Moduli (GPa) = 46.51882 77.26724 82.50896
#
# Poissons Ratio (x) = 0.48506 0.30942
# Poissons Ratio (y) = 0.29203 0.35811
# Poissons Ratio (z) = 0.17445 0.33536
#
# Static dielectric constant tensor:
#      x y z
#    x 2.785930 0.000000 0.000000 
#    y 0.000000 3.187380 0.000000 
#    z 0.000000 0.000000 3.277820 
# 
# 
# High freq. dielectric constant tensor:
#      x y z
#    x 1.585970 0.000000 0.000000 
#    y 0.000000 1.639440 0.000000 
#    z 0.000000 0.000000 1.621600 
# 
# From -- ./inp_files/32647.got.cif
#   From: 2010.03.12/outbox.cif.g09.slc.cpg/sg62_17_cif.got.tgz:32647.got - 2010.04.10 19:12:36.
