data_PCOD8250613
_publ_section_title
;
Structure prediction by ZEFSAII (Michael W. Deem and Ramdas Pophale) SiO2 
 PCOD8250613
Probable space group: P N M A
;
_chemical_formula_sum "Si O2"
_cell_formula_units_Z 64
_cell_length_a 20.716854
_cell_length_b 8.942479
_cell_length_c 19.637774
_cell_angle_alpha 90.000000
_cell_angle_beta 90.000000
_cell_angle_gamma 90.000000
_cell_volume 3638.094637
_symmetry_space_group_name_H-M "P N M A"
_symmetry_group_IT_number 62
_symmetry_cell_setting 'orthorhombic'
loop_
_space_group_symop_operation_xyz
x,y,z
1/2-x,-y,1/2+z
1/2+x,1/2-y,1/2-z
-x,1/2+y,-z
-x,-y,-z
1/2+x,y,1/2-z
1/2-x,1/2+y,1/2+z
x,1/2-y,z
loop_
_atom_site_type_symbol
_atom_site_label
_atom_site_fract_x
_atom_site_fract_y
_atom_site_fract_z
Si Si1 0.304790 0.422573 0.776571
Si Si2 0.815416 0.072229 0.293332
Si Si3 0.875868 0.077114 0.072196
Si Si4 0.117817 0.072948 0.065478
Si Si5 0.757483 0.076943 0.580415
Si Si6 0.568715 0.926516 0.302694
Si Si7 0.764837 0.074395 0.432261
Si Si8 0.439658 0.423221 0.285852
O O1 0.292304 0.250000 0.758410
O O2 0.246024 0.517569 0.748337
O O3 0.308312 0.446364 0.858537
O O4 0.371885 0.478695 0.744832
O O5 0.815062 0.250000 0.288762
O O6 0.809600 0.010394 0.371378
O O7 0.881587 0.011437 0.260691
O O8 0.869765 0.250000 0.052087
O O9 0.923962 0.053265 0.134862
O O10 0.805974 0.018843 0.095259
O O11 0.904652 0.986200 0.008281
O O12 0.109468 0.250000 0.067843
O O13 0.191368 0.018700 0.077518
O O14 0.073715 0.001028 0.123322
O O15 0.735553 0.250000 0.574403
O O16 0.789459 0.026921 0.507853
O O17 0.566428 0.750000 0.310783
O O18 0.503468 0.983994 0.267088
O O19 0.765558 0.250000 0.424089
O O20 0.451895 0.250000 0.269188
#
# Coordination Sequence:
#
# PCOD8250613 Si02
#       8
#     8   8   8   8   8   8   8   8
#     4  10  20  33  52  78 105 134 171 216 264 308
#     4  10  18  33  55  78 101 130 173 217 258 305
#     4  10  19  32  50  75 106 136 172 213 254 303
#     4  10  19  33  53  75 103 139 175 210 256 311
#     4   9  17  31  51  77 106 134 168 207 259 315
#     4  11  23  36  51  74 104 140 178 218 263 308
#     4   8  15  28  51  78 100 127 163 206 252 303
#     4  10  22  36  51  73 103 140 176 213 259 310
#
# _framework density 17.591626999999999
#
# number of rings (size 3 to 8) (size 9 to 14) (size 15 to 20)
#    0.000    2.250    2.500    1.875    0.000    2.500 
#    0.000    0.000    0.000    0.750    0.000    0.000 
#    0.000    0.000    0.000    0.000    0.000    0.125 
#
# Total GULP energy -793423.566060 kJ/mol
# GULP energy per Si atom -12397.243220 kJ/mol
# Density = 1.755159 g / cm^3
# Si number density = 17.591627 Si / 1000 Ang^3
#
#
#
# Elastic Constant Matrix: (Units=GPa)
#
#
# Indices 1 2 3 4 5 6 
#
# 1 101.1411 35.2393 52.3623 0.0000 0.0000 0.0000
# 2 35.2393 52.2952 26.9029 0.0000 0.0000 0.0000
# 3 52.3623 26.9029 104.4304 0.0000 0.0000 0.0000
# 4 0.0000 0.0000 0.0000 20.0290 0.0000 0.0000
# 5 0.0000 0.0000 0.0000 0.0000 23.4881 0.0000
# 6 0.0000 0.0000 0.0000 0.0000 0.0000 22.4099
#
#
#
# Elastic Compliance Matrix: (Units=1/GPa)
#
#
# Indices 1 2 3 4 5 6 
#
# 1 0.015514 -0.007438 -0.005863 0.000000 0.000000 0.000000
# 2 -0.007438 0.025610 -0.002868 0.000000 0.000000 0.000000
# 3 -0.005863 -0.002868 0.013254 0.000000 0.000000 0.000000
# 4 0.000000 0.000000 0.000000 0.049928 0.000000 0.000000
# 5 0.000000 0.000000 0.000000 0.000000 0.042575 0.000000
# 6 0.000000 0.000000 0.000000 0.000000 0.000000 0.044623
#
#
# Mechanical properties :
#
#
# Convention : Reuss Voigt Hill
#
# Bulk Modulus (GPa) = 45.37108 54.09732 49.73420
# Shear Modulus (GPa) = 21.62745 22.74287 22.18516
#
# Velocity S-wave (km/s) = 3.51011 3.59949 3.55508
# Velocity P-wave (km/s) = 6.50193 6.93495 6.72193
#
# Compressibility (1/GPa) = 0.02204047
#
# Stress axis : x y z
#
# Youngs Moduli (GPa) = 64.45826 39.04754 75.44793
#
# Poissons Ratio (x) = 0.29044 0.44232
# Poissons Ratio (y) = 0.47945 0.21638
# Poissons Ratio (z) = 0.37790 0.11199
#
# Static dielectric constant tensor:
#      x y z
#    x 3.141470 0.000000 0.000000 
#    y 0.000000 3.160880 0.000000 
#    z 0.000000 0.000000 3.677870 
# 
# 
# High freq. dielectric constant tensor:
#      x y z
#    x 1.652230 0.000000 0.000000 
#    y 0.000000 1.671390 0.000000 
#    z 0.000000 0.000000 1.688480 
# 
# From -- ./inp_files/27950.got.cif
#   From: 2010.03.12/outbox.cif.g09.slc.cpg/sg62_14_cif.got.tgz:27950.got - 2010.04.10 19:12:36.
