data_PCOD8250898
_publ_section_title
;
Structure prediction by ZEFSAII (Michael W. Deem and Ramdas Pophale) SiO2 
 PCOD8250898
Probable space group: P N M A
;
_chemical_formula_sum "Si O2"
_cell_formula_units_Z 56
_cell_length_a 21.873038
_cell_length_b 13.907133
_cell_length_c 10.882655
_cell_angle_alpha 90.000000
_cell_angle_beta 90.000000
_cell_angle_gamma 90.000000
_cell_volume 3310.408412
_symmetry_space_group_name_H-M "P N M A"
_symmetry_group_IT_number 62
_symmetry_cell_setting 'orthorhombic'
loop_
_space_group_symop_operation_xyz
x,y,z
1/2-x,-y,1/2+z
1/2+x,1/2-y,1/2-z
-x,1/2+y,-z
-x,-y,-z
1/2+x,y,1/2-z
1/2-x,1/2+y,1/2+z
x,1/2-y,z
loop_
_atom_site_type_symbol
_atom_site_label
_atom_site_fract_x
_atom_site_fract_y
_atom_site_fract_z
Si Si1 0.528007 0.519630 0.868343
Si Si2 0.254236 0.362275 0.926308
Si Si3 0.919867 0.636645 0.696845
Si Si4 0.129300 0.136661 0.036038
Si Si5 0.147061 0.004024 0.502863
Si Si6 0.804514 0.854448 0.324771
Si Si7 0.935236 0.856772 0.202950
O O1 0.492307 0.610483 0.808529
O O2 0.599805 0.538036 0.894667
O O3 0.519416 0.429129 0.775147
O O4 0.500000 0.500000 0.000000
O O5 0.264347 0.250000 0.949532
O O6 0.238874 0.386053 0.785746
O O7 0.198456 0.401535 0.012152
O O8 0.318724 0.412945 0.948154
O O9 0.911069 0.750000 0.668832
O O10 0.893518 0.607653 0.829593
O O11 0.885081 0.570908 0.598564
O O12 0.131555 0.250000 0.016249
O O13 0.081467 0.099472 0.931991
O O14 0.199594 0.068149 0.566966
O O15 0.783908 0.750000 0.375179
O O16 0.873997 0.846987 0.280989
O O17 0.965855 0.750000 0.193651
#
# Coordination Sequence:
#
# PCOD8250898 Si02
#       7
#     8   8   8   8   8   8   8
#     4   9  19  31  44  73  99 125 168 202 240 290
#     4   9  18  31  48  71  97 124 159 205 252 298
#     4  10  20  33  48  70 100 129 164 205 245 291
#     4   8  16  31  50  72  95 124 164 203 245 295
#     4  10  19  30  50  72  97 126 168 201 249 297
#     4   8  15  29  47  68  93 121 157 198 239 290
#     4   8  14  29  51  70  92 123 158 199 239 287
#
# _framework density 16.916342
#
# number of rings (size 3 to 8) (size 9 to 14) (size 15 to 20)
#    0.000    3.143    0.000    2.143    2.000    4.571 
#    0.000    2.143    0.000    0.000    0.000    1.000 
#    0.000    0.000    0.000    0.000    0.000    0.000 
#
# Total GULP energy -693797.651326 kJ/mol
# GULP energy per Si atom -12389.243774 kJ/mol
# Density = 1.687784 g / cm^3
# Si number density = 16.916342 Si / 1000 Ang^3
#
#
#
# Elastic Constant Matrix: (Units=GPa)
#
#
# Indices 1 2 3 4 5 6 
#
# 1 72.6316 48.3528 40.5350 0.0000 0.0000 0.0000
# 2 48.3528 71.9399 49.8159 0.0000 0.0000 0.0000
# 3 40.5350 49.8159 84.2638 0.0000 0.0000 0.0000
# 4 0.0000 0.0000 0.0000 23.0176 0.0000 0.0000
# 5 0.0000 0.0000 0.0000 0.0000 23.6919 0.0000
# 6 0.0000 0.0000 0.0000 0.0000 0.0000 27.4269
#
#
#
# Elastic Compliance Matrix: (Units=1/GPa)
#
#
# Indices 1 2 3 4 5 6 
#
# 1 0.025554 -0.014668 -0.003621 0.000000 0.000000 0.000000
# 2 -0.014668 0.031955 -0.011835 0.000000 0.000000 0.000000
# 3 -0.003621 -0.011835 0.020606 0.000000 0.000000 0.000000
# 4 0.000000 0.000000 0.000000 0.043445 0.000000 0.000000
# 5 0.000000 0.000000 0.000000 0.000000 0.042208 0.000000
# 6 0.000000 0.000000 0.000000 0.000000 0.000000 0.036460
#
#
# Mechanical properties :
#
#
# Convention : Reuss Voigt Hill
#
# Bulk Modulus (GPa) = 55.97165 56.24920 56.11042
# Shear Modulus (GPa) = 18.76642 20.83606 19.80124
#
# Velocity S-wave (km/s) = 3.33433 3.51338 3.42503
# Velocity P-wave (km/s) = 6.92696 7.05564 6.99160
#
# Compressibility (1/GPa) = 0.01786619
#
# Stress axis : x y z
#
# Youngs Moduli (GPa) = 39.13302 31.29422 48.52874
#
# Poissons Ratio (x) = 0.45902 0.17573
# Poissons Ratio (y) = 0.57400 0.57435
# Poissons Ratio (z) = 0.14170 0.37038
#
# Static dielectric constant tensor:
#      x y z
#    x 3.139060 0.000000 0.000000 
#    y 0.000000 3.311890 0.000000 
#    z 0.000000 0.000000 3.353130 
# 
# 
# High freq. dielectric constant tensor:
#      x y z
#    x 1.628140 0.000000 0.000000 
#    y 0.000000 1.635210 0.000000 
#    z 0.000000 0.000000 1.656310 
# 
# From -- ./inp_files/14810.got.cif
#   From: 2010.03.12/outbox.cif.g09.slc.cpg/sg62_8_cif.got.tgz:14810.got - 2010.04.10 19:12:36.
