data_PCOD8250106
_publ_section_title
;
Structure prediction by ZEFSAII (Michael W. Deem and Ramdas Pophale) SiO2 
 PCOD8250106
Probable space group: P N M A
;
_chemical_formula_sum "Si O2"
_cell_formula_units_Z 48
_cell_length_a 11.070150
_cell_length_b 16.516694
_cell_length_c 13.984632
_cell_angle_alpha 90.000000
_cell_angle_beta 90.000000
_cell_angle_gamma 90.000000
_cell_volume 2556.982001
_symmetry_space_group_name_H-M "P N M A"
_symmetry_group_IT_number 62
_symmetry_cell_setting 'orthorhombic'
loop_
_space_group_symop_operation_xyz
x,y,z
1/2-x,-y,1/2+z
1/2+x,1/2-y,1/2-z
-x,1/2+y,-z
-x,-y,-z
1/2+x,y,1/2-z
1/2-x,1/2+y,1/2+z
x,1/2-y,z
loop_
_atom_site_type_symbol
_atom_site_label
_atom_site_fract_x
_atom_site_fract_y
_atom_site_fract_z
Si Si1 0.404393 0.978886 0.579624
Si Si2 0.317523 0.159911 0.796028
Si Si3 0.980917 0.001452 0.713825
Si Si4 0.978924 0.910658 0.537768
Si Si5 0.238448 0.840677 0.507689
Si Si6 0.309455 0.590036 0.125871
O O1 0.475064 0.968550 0.679288
O O2 0.311043 0.052443 0.581840
O O3 0.500000 0.000000 0.500000
O O4 0.335622 0.895870 0.559747
O O5 0.378368 0.250000 0.794435
O O6 0.415285 0.088449 0.795027
O O7 0.242735 0.149469 0.893864
O O8 0.226431 0.155898 0.705835
O O9 0.118376 0.018138 0.680740
O O10 0.928691 0.928579 0.645491
O O11 0.883006 0.870007 0.463639
O O12 0.100905 0.859340 0.538178
O O13 0.000000 0.000000 0.500000
O O14 0.266743 0.750000 0.541013
#
# Coordination Sequence:
#
# PCOD8250106 Si02
#       6
#     8   8   8   8   8   8
#     4  11  22  37  59  90 116 159 201 248 297 361
#     4  10  20  31  53  89 124 152 186 242 312 357
#     4  10  19  35  59  82 112 162 208 241 282 358
#     4  10  17  36  61  87 115 156 209 239 283 366
#     4  11  21  38  61  88 123 157 194 253 309 350
#     4  10  19  35  58  86 119 151 202 245 285 367
#
# _framework density 18.772131000000002
#
# number of rings (size 3 to 8) (size 9 to 14) (size 15 to 20)
#    0.000    1.667    6.667    1.000    0.000    2.667 
#    0.000    5.833    0.000    0.000    0.000    0.000 
#    0.000    0.000    0.000    0.000    0.000    0.000 
#
# Total GULP energy -594809.053084 kJ/mol
# GULP energy per Si atom -12391.855273 kJ/mol
# Density = 1.872941 g / cm^3
# Si number density = 18.772131 Si / 1000 Ang^3
#
#
#
# Elastic Constant Matrix: (Units=GPa)
#
#
# Indices 1 2 3 4 5 6 
#
# 1 90.2774 23.3511 58.5927 0.0000 0.0000 0.0000
# 2 23.3511 78.7647 48.5553 0.0000 0.0000 0.0000
# 3 58.5927 48.5553 164.1475 0.0000 0.0000 0.0000
# 4 0.0000 0.0000 0.0000 23.8681 0.0000 0.0000
# 5 0.0000 0.0000 0.0000 0.0000 34.2151 0.0000
# 6 0.0000 0.0000 0.0000 0.0000 0.0000 21.8104
#
#
#
# Elastic Compliance Matrix: (Units=1/GPa)
#
#
# Indices 1 2 3 4 5 6 
#
# 1 0.014535 -0.001358 -0.004786 0.000000 0.000000 0.000000
# 2 -0.001358 0.015654 -0.004146 0.000000 0.000000 0.000000
# 3 -0.004786 -0.004146 0.009027 0.000000 0.000000 0.000000
# 4 0.000000 0.000000 0.000000 0.041897 0.000000 0.000000
# 5 0.000000 0.000000 0.000000 0.000000 0.029227 0.000000
# 6 0.000000 0.000000 0.000000 0.000000 0.000000 0.045850
#
#
# Mechanical properties :
#
#
# Convention : Reuss Voigt Hill
#
# Bulk Modulus (GPa) = 53.66234 66.02084 59.84159
# Shear Modulus (GPa) = 27.32502 29.49143 28.40822
#
# Velocity S-wave (km/s) = 3.81939 3.96791 3.89436
# Velocity P-wave (km/s) = 6.93531 7.49923 7.22278
#
# Compressibility (1/GPa) = 0.01863504
#
# Stress axis : x y z
#
# Youngs Moduli (GPa) = 68.80012 63.87954 110.77991
#
# Poissons Ratio (x) = 0.08678 0.53024
# Poissons Ratio (y) = 0.09346 0.45926
# Poissons Ratio (z) = 0.32930 0.26483
#
# Static dielectric constant tensor:
#      x y z
#    x 3.474980 0.000000 0.000000 
#    y 0.000000 3.273650 0.000000 
#    z 0.000000 0.000000 4.365340 
# 
# 
# High freq. dielectric constant tensor:
#      x y z
#    x 1.714750 0.000000 0.000000 
#    y 0.000000 1.701940 0.000000 
#    z 0.000000 0.000000 1.744020 
# 
# From -- ./inp_files/17967.got.cif
#   From: 2010.03.12/outbox.cif.g09.slc.cpg/sg62_9_cif.got.tgz:17967.got - 2010.04.10 19:12:36.
