data_PCOD8250885
_publ_section_title
;
Structure prediction by ZEFSAII (Michael W. Deem and Ramdas Pophale) SiO2 
 PCOD8250885
Probable space group: P N M A
;
_chemical_formula_sum "Si O2"
_cell_formula_units_Z 64
_cell_length_a 7.739778
_cell_length_b 12.829716
_cell_length_c 36.370063
_cell_angle_alpha 90.000000
_cell_angle_beta 90.000000
_cell_angle_gamma 90.000000
_cell_volume 3611.516474
_symmetry_space_group_name_H-M "P N M A"
_symmetry_group_IT_number 62
_symmetry_cell_setting 'orthorhombic'
loop_
_space_group_symop_operation_xyz
x,y,z
1/2-x,-y,1/2+z
1/2+x,1/2-y,1/2-z
-x,1/2+y,-z
-x,-y,-z
1/2+x,y,1/2-z
1/2-x,1/2+y,1/2+z
x,1/2-y,z
loop_
_atom_site_type_symbol
_atom_site_label
_atom_site_fract_x
_atom_site_fract_y
_atom_site_fract_z
Si Si1 0.977621 0.521602 0.042324
Si Si2 0.013412 0.627513 0.889236
Si Si3 0.825099 0.998998 0.642141
Si Si4 0.658145 0.629031 0.072210
Si Si5 0.311278 0.132202 0.709141
Si Si6 0.716398 0.132832 0.708478
Si Si7 0.211551 0.987237 0.645008
Si Si8 0.276085 0.868888 0.077965
O O1 0.785245 0.566278 0.045820
O O2 0.004948 0.424069 0.070109
O O3 0.122662 0.608427 0.049889
O O4 0.000000 0.500000 0.000000
O O5 0.030099 0.750000 0.895592
O O6 0.847649 0.605811 0.862781
O O7 0.183455 0.587657 0.867870
O O8 0.809263 0.095712 0.614216
O O9 0.802416 0.047347 0.682340
O O10 0.015286 0.946022 0.639893
O O11 0.699780 0.750000 0.068559
O O12 0.461936 0.600524 0.060391
O O13 0.240703 0.250000 0.700995
O O14 0.513576 0.129309 0.702265
O O15 0.266037 0.100016 0.750490
O O16 0.224736 0.043112 0.684361
O O17 0.786413 0.250000 0.700403
O O18 0.262813 0.074091 0.615716
O O19 0.278690 0.750000 0.089134
#
# Coordination Sequence:
#
# PCOD8250885 Si02
#       8
#     8   8   8   8   8   8   8   8
#     4  10  21  35  54  79 107 138 171 217 270 319
#     4  10  22  39  56  77 104 140 190 233 264 309
#     4  10  19  34  55  78 104 141 177 221 269 315
#     4   9  18  32  52  78 106 135 168 205 256 323
#     4  10  19  30  48  80 117 147 174 210 266 332
#     4  10  19  30  48  80 117 147 174 210 266 332
#     4  10  19  34  55  78 104 141 177 221 269 315
#     4   9  18  32  52  78 106 135 168 205 256 323
#
# _framework density 17.721088000000002
#
# number of rings (size 3 to 8) (size 9 to 14) (size 15 to 20)
#    0.000    2.250    1.250    1.875    0.000    4.500 
#    0.000    0.000    0.000    0.750    0.000    0.000 
#    0.000    0.000    0.000    0.000    0.000    0.000 
#
# Total GULP energy -793409.256116 kJ/mol
# GULP energy per Si atom -12397.019627 kJ/mol
# Density = 1.768075 g / cm^3
# Si number density = 17.721088 Si / 1000 Ang^3
#
#
#
# Elastic Constant Matrix: (Units=GPa)
#
#
# Indices 1 2 3 4 5 6 
#
# 1 99.4116 22.0561 22.5136 0.0000 0.0000 0.0000
# 2 22.0561 62.6626 20.8485 0.0000 0.0000 0.0000
# 3 22.5136 20.8485 86.7751 0.0000 0.0000 0.0000
# 4 0.0000 0.0000 0.0000 16.3441 0.0000 0.0000
# 5 0.0000 0.0000 0.0000 0.0000 22.4512 0.0000
# 6 0.0000 0.0000 0.0000 0.0000 0.0000 19.8910
#
#
#
# Elastic Compliance Matrix: (Units=1/GPa)
#
#
# Indices 1 2 3 4 5 6 
#
# 1 0.011266 -0.003253 -0.002141 0.000000 0.000000 0.000000
# 2 -0.003253 0.018284 -0.003549 0.000000 0.000000 0.000000
# 3 -0.002141 -0.003549 0.012932 0.000000 0.000000 0.000000
# 4 0.000000 0.000000 0.000000 0.061184 0.000000 0.000000
# 5 0.000000 0.000000 0.000000 0.000000 0.044541 0.000000
# 6 0.000000 0.000000 0.000000 0.000000 0.000000 0.050274
#
#
# Mechanical properties :
#
#
# Convention : Reuss Voigt Hill
#
# Bulk Modulus (GPa) = 40.65728 42.18731 41.42230
# Shear Modulus (GPa) = 22.26509 23.96600 23.11554
#
# Velocity S-wave (km/s) = 3.54844 3.68149 3.61558
# Velocity P-wave (km/s) = 6.30724 6.47527 6.39181
#
# Compressibility (1/GPa) = 0.02459584
#
# Stress axis : x y z
#
# Youngs Moduli (GPa) = 88.76383 54.69192 77.32588
#
# Poissons Ratio (x) = 0.17791 0.16558
# Poissons Ratio (y) = 0.28874 0.27443
# Poissons Ratio (z) = 0.19008 0.19410
#
# Static dielectric constant tensor:
#      x y z
#    x 3.779650 0.000000 0.000000 
#    y 0.000000 3.096870 0.000000 
#    z 0.000000 0.000000 3.174990 
# 
# 
# High freq. dielectric constant tensor:
#      x y z
#    x 1.708250 0.000000 0.000000 
#    y 0.000000 1.652550 0.000000 
#    z 0.000000 0.000000 1.675490 
# 
# From -- ./inp_files/32248.got.cif
#   From: 2010.03.12/outbox.cif.g09.slc.cpg/sg62_17_cif.got.tgz:32248.got - 2010.04.10 19:12:36.
