data_PCOD8250809
_publ_section_title
;
Structure prediction by ZEFSAII (Michael W. Deem and Ramdas Pophale) SiO2 
 PCOD8250809
Probable space group: P N M A
;
_chemical_formula_sum "Si O2"
_cell_formula_units_Z 56
_cell_length_a 9.230250
_cell_length_b 15.189289
_cell_length_c 22.950132
_cell_angle_alpha 90.000000
_cell_angle_beta 90.000000
_cell_angle_gamma 90.000000
_cell_volume 3217.629960
_symmetry_space_group_name_H-M "P N M A"
_symmetry_group_IT_number 62
_symmetry_cell_setting 'orthorhombic'
loop_
_space_group_symop_operation_xyz
x,y,z
1/2-x,-y,1/2+z
1/2+x,1/2-y,1/2-z
-x,1/2+y,-z
-x,-y,-z
1/2+x,y,1/2-z
1/2-x,1/2+y,1/2+z
x,1/2-y,z
loop_
_atom_site_type_symbol
_atom_site_label
_atom_site_fract_x
_atom_site_fract_y
_atom_site_fract_z
Si Si1 0.292285 0.929118 0.002146
Si Si2 0.480008 0.349779 0.187788
Si Si3 0.185907 0.850987 0.802725
Si Si4 0.133861 0.343115 0.041961
Si Si5 0.572474 0.975333 0.596602
Si Si6 0.458472 0.153223 0.571951
Si Si7 0.569298 0.590141 0.936623
O O1 0.198311 0.863157 0.041885
O O2 0.382162 0.993123 0.044045
O O3 0.184017 0.980213 0.957838
O O4 0.414673 0.878983 0.963889
O O5 0.441189 0.250000 0.169759
O O6 0.644629 0.357670 0.207505
O O7 0.385550 0.380587 0.242424
O O8 0.445114 0.411867 0.133220
O O9 0.141562 0.750000 0.820107
O O10 0.142625 0.923013 0.850520
O O11 0.082462 0.250000 0.070168
O O12 0.307814 0.342936 0.042268
O O13 0.072968 0.424551 0.078183
O O14 0.082143 0.345345 0.976147
O O15 0.512822 0.073250 0.614109
O O16 0.451788 0.250000 0.603212
#
# Coordination Sequence:
#
# PCOD8250809 Si02
#       7
#     8   8   8   8   8   8   8
#     4  10  20  33  53  77 111 145 181 222 268 327
#     4  10  22  36  51  79 112 145 183 215 260 330
#     4  10  22  37  54  77 110 147 182 220 263 318
#     4  10  19  29  49  76 104 141 177 208 261 323
#     4  11  18  37  52  74 107 146 182 224 266 322
#     4  10  20  34  51  75 105 141 181 220 266 320
#     4  11  19  33  52  78 112 146 180 222 266 318
#
# _framework density 17.404114
#
# number of rings (size 3 to 8) (size 9 to 14) (size 15 to 20)
#    0.000    1.714    4.286    1.714    2.000    1.714 
#    0.000    0.000    0.000    0.000    0.000    4.000 
#    0.000    0.000    0.000    0.000    0.000    0.000 
#
# Total GULP energy -693916.861233 kJ/mol
# GULP energy per Si atom -12391.372522 kJ/mol
# Density = 1.736450 g / cm^3
# Si number density = 17.404114 Si / 1000 Ang^3
#
#
#
# Elastic Constant Matrix: (Units=GPa)
#
#
# Indices 1 2 3 4 5 6 
#
# 1 97.7213 28.8372 23.8431 0.0000 0.0000 0.0000
# 2 28.8372 108.6468 33.7426 0.0000 0.0000 0.0000
# 3 23.8431 33.7426 63.3597 0.0000 0.0000 0.0000
# 4 0.0000 0.0000 0.0000 18.9229 0.0000 0.0000
# 5 0.0000 0.0000 0.0000 0.0000 25.5081 0.0000
# 6 0.0000 0.0000 0.0000 0.0000 0.0000 17.2712
#
#
#
# Elastic Compliance Matrix: (Units=1/GPa)
#
#
# Indices 1 2 3 4 5 6 
#
# 1 0.011645 -0.002073 -0.003278 0.000000 0.000000 0.000000
# 2 -0.002073 0.011397 -0.005290 0.000000 0.000000 0.000000
# 3 -0.003278 -0.005290 0.019834 0.000000 0.000000 0.000000
# 4 0.000000 0.000000 0.000000 0.052846 0.000000 0.000000
# 5 0.000000 0.000000 0.000000 0.000000 0.039203 0.000000
# 6 0.000000 0.000000 0.000000 0.000000 0.000000 0.057900
#
#
# Mechanical properties :
#
#
# Convention : Reuss Voigt Hill
#
# Bulk Modulus (GPa) = 46.30850 49.17485 47.74168
# Shear Modulus (GPa) = 22.59342 24.56077 23.57709
#
# Velocity S-wave (km/s) = 3.60691 3.76068 3.68460
# Velocity P-wave (km/s) = 6.63415 6.86826 6.75222
#
# Compressibility (1/GPa) = 0.02159431
#
# Stress axis : x y z
#
# Youngs Moduli (GPa) = 85.87618 87.74187 50.41954
#
# Poissons Ratio (x) = 0.18185 0.16529
# Poissons Ratio (y) = 0.17799 0.26670
# Poissons Ratio (z) = 0.28152 0.46412
#
# Static dielectric constant tensor:
#      x y z
#    x 3.497590 0.000000 0.000000 
#    y 0.000000 3.417010 0.000000 
#    z 0.000000 0.000000 2.971730 
# 
# 
# High freq. dielectric constant tensor:
#      x y z
#    x 1.693070 0.000000 0.000000 
#    y 0.000000 1.661270 0.000000 
#    z 0.000000 0.000000 1.632150 
# 
# From -- ./inp_files/26029.got.cif
#   From: 2010.03.12/outbox.cif.g09.slc.cpg/sg62_14_cif.got.tgz:26029.got - 2010.04.10 19:12:36.
