data_PCOD8250382
_publ_section_title
;
Structure prediction by ZEFSAII (Michael W. Deem and Ramdas Pophale) SiO2 
 PCOD8250382
Probable space group: P N M A
;
_chemical_formula_sum "Si O2"
_cell_formula_units_Z 64
_cell_length_a 18.667157
_cell_length_b 8.503740
_cell_length_c 21.002954
_cell_angle_alpha 90.000000
_cell_angle_beta 90.000000
_cell_angle_gamma 90.000000
_cell_volume 3334.022563
_symmetry_space_group_name_H-M "P N M A"
_symmetry_group_IT_number 62
_symmetry_cell_setting 'orthorhombic'
loop_
_space_group_symop_operation_xyz
x,y,z
1/2-x,-y,1/2+z
1/2+x,1/2-y,1/2-z
-x,1/2+y,-z
-x,-y,-z
1/2+x,y,1/2-z
1/2-x,1/2+y,1/2+z
x,1/2-y,z
loop_
_atom_site_type_symbol
_atom_site_label
_atom_site_fract_x
_atom_site_fract_y
_atom_site_fract_z
Si Si1 0.419852 0.936675 0.748163
Si Si2 0.582244 0.562381 0.748833
Si Si3 0.167692 0.066097 0.633985
Si Si4 0.839249 0.068164 0.496222
Si Si5 0.814810 0.432431 0.996405
Si Si6 0.661020 0.063183 0.128015
Si Si7 0.322741 0.067327 0.365228
Si Si8 0.674052 0.064441 0.368630
O O1 0.415872 0.750000 0.748580
O O2 0.500900 0.996121 0.741033
O O3 0.387080 0.001253 0.814196
O O4 0.373161 0.002255 0.689460
O O5 0.586350 0.750000 0.753546
O O6 0.613341 0.487502 0.812183
O O7 0.625842 0.492589 0.688159
O O8 0.182101 0.250000 0.637625
O O9 0.130947 0.021332 0.566324
O O10 0.243320 0.978435 0.643325
O O11 0.858423 0.250000 0.489706
O O12 0.754429 0.042250 0.497547
O O13 0.872363 0.001759 0.561981
O O14 0.791333 0.250000 0.991296
O O15 0.858159 0.484628 0.933390
O O16 0.855969 0.460965 0.063563
O O17 0.661335 0.250000 0.123863
O O18 0.742087 0.998620 0.138474
O O19 0.318190 0.250000 0.349771
O O20 0.666053 0.250000 0.374760
#
# Coordination Sequence:
#
# PCOD8250382 Si02
#       8
#     8   8   8   8   8   8   8   8
#     4   9  19  33  53  76 102 135 173 209 250 298
#     4  10  19  35  54  74 100 136 175 211 246 296
#     4  11  21  34  52  77 103 132 165 206 255 303
#     4  10  18  30  50  77 100 125 161 207 252 298
#     4   9  16  29  48  74 102 131 163 204 252 297
#     4   9  16  31  51  74 100 130 163 203 250 299
#     4   8  15  28  51  74  98 130 166 202 245 295
#     4  10  18  32  53  78 102 131 169 210 248 296
#
# _framework density 19.19603
#
# number of rings (size 3 to 8) (size 9 to 14) (size 15 to 20)
#    0.000    2.500    0.000    6.000    0.000    2.000 
#    0.000   10.000    0.000    0.000    0.000    0.000 
#    0.000    0.000    0.000    0.000    0.000    0.000 
#
# Total GULP energy -793214.878907 kJ/mol
# GULP energy per Si atom -12393.982483 kJ/mol
# Density = 1.915234 g / cm^3
# Si number density = 19.196030 Si / 1000 Ang^3
#
#
#
# Elastic Constant Matrix: (Units=GPa)
#
#
# Indices 1 2 3 4 5 6 
#
# 1 66.6712 12.8268 54.0751 0.0000 0.0000 0.0000
# 2 12.8268 45.0538 25.0378 0.0000 0.0000 0.0000
# 3 54.0751 25.0378 176.8619 0.0000 0.0000 0.0000
# 4 0.0000 0.0000 0.0000 30.2128 0.0000 0.0000
# 5 0.0000 0.0000 0.0000 0.0000 7.1006 0.0000
# 6 0.0000 0.0000 0.0000 0.0000 0.0000 10.9174
#
#
#
# Elastic Compliance Matrix: (Units=1/GPa)
#
#
# Indices 1 2 3 4 5 6 
#
# 1 0.020205 -0.002517 -0.005821 0.000000 0.000000 0.000000
# 2 -0.002517 0.024405 -0.002685 0.000000 0.000000 0.000000
# 3 -0.005821 -0.002685 0.007814 0.000000 0.000000 0.000000
# 4 0.000000 0.000000 0.000000 0.033099 0.000000 0.000000
# 5 0.000000 0.000000 0.000000 0.000000 0.140832 0.000000
# 6 0.000000 0.000000 0.000000 0.000000 0.000000 0.091597
#
#
# Mechanical properties :
#
#
# Convention : Reuss Voigt Hill
#
# Bulk Modulus (GPa) = 32.92069 52.49624 42.70847
# Shear Modulus (GPa) = 14.28068 22.75599 18.51833
#
# Velocity S-wave (km/s) = 2.73048 3.44678 3.10933
# Velocity P-wave (km/s) = 5.20843 6.57626 5.93190
#
# Compressibility (1/GPa) = 0.03037603
#
# Stress axis : x y z
#
# Youngs Moduli (GPa) = 49.49358 40.97583 127.97427
#
# Poissons Ratio (x) = 0.10315 0.74496
# Poissons Ratio (y) = 0.12459 0.34364
# Poissons Ratio (z) = 0.28811 0.11003
#
# Static dielectric constant tensor:
#      x y z
#    x 3.277520 0.000000 0.000000 
#    y 0.000000 3.225940 0.000000 
#    z 0.000000 0.000000 4.169310 
# 
# 
# High freq. dielectric constant tensor:
#      x y z
#    x 1.699940 0.000000 0.000000 
#    y 0.000000 1.722770 0.000000 
#    z 0.000000 0.000000 1.776350 
# 
# From -- ./inp_files/27647.got.cif
#   From: 2010.03.12/outbox.cif.g09.slc.cpg/sg62_14_cif.got.tgz:27647.got - 2010.04.10 19:12:36.
