data_PCOD8250311
_publ_section_title
;
Structure prediction by ZEFSAII (Michael W. Deem and Ramdas Pophale) SiO2 
 PCOD8250311
Probable space group: P N M A
;
_chemical_formula_sum "Si O2"
_cell_formula_units_Z 56
_cell_length_a 18.838155
_cell_length_b 9.154280
_cell_length_c 18.361185
_cell_angle_alpha 90.000000
_cell_angle_beta 90.000000
_cell_angle_gamma 90.000000
_cell_volume 3166.381681
_symmetry_space_group_name_H-M "P N M A"
_symmetry_group_IT_number 62
_symmetry_cell_setting 'orthorhombic'
loop_
_space_group_symop_operation_xyz
x,y,z
1/2-x,-y,1/2+z
1/2+x,1/2-y,1/2-z
-x,1/2+y,-z
-x,-y,-z
1/2+x,y,1/2-z
1/2-x,1/2+y,1/2+z
x,1/2-y,z
loop_
_atom_site_type_symbol
_atom_site_label
_atom_site_fract_x
_atom_site_fract_y
_atom_site_fract_z
Si Si1 0.253866 0.577242 0.349613
Si Si2 0.954835 0.921654 0.838257
Si Si3 0.935653 0.915740 0.534748
Si Si4 0.361159 0.414616 0.548291
Si Si5 0.609285 0.579111 0.619920
Si Si6 0.380371 0.922097 0.808181
Si Si7 0.283003 0.584206 0.991817
O O1 0.256455 0.750000 0.338214
O O2 0.331374 0.508375 0.333967
O O3 0.194070 0.507273 0.296986
O O4 0.232835 0.536863 0.431655
O O5 0.955183 0.750000 0.847859
O O6 0.932124 0.968636 0.757274
O O7 0.033337 0.982878 0.853949
O O8 0.898720 0.978692 0.896447
O O9 0.960679 0.750000 0.538031
O O10 0.917872 0.970709 0.616418
O O11 0.865060 0.935169 0.483690
O O12 0.000000 0.000000 0.500000
O O13 0.383666 0.250000 0.567836
O O14 0.383668 0.452696 0.465941
O O15 0.275047 0.434762 0.556019
O O16 0.618003 0.750000 0.637018
O O17 0.364259 0.750000 0.808237
O O18 0.274046 0.750000 0.958652
#
# Coordination Sequence:
#
# PCOD8250311 Si02
#       7
#     8   8   8   8   8   8   8
#     4  10  18  29  50  75  93 118 161 207 242 283
#     4  10  20  33  51  73  99 133 169 201 239 293
#     4   9  17  31  52  73  94 122 160 204 249 293
#     4   9  17  30  49  72 101 133 163 201 248 288
#     4   9  18  33  51  72 100 134 166 198 241 293
#     4   9  19  36  52  68  96 133 166 200 248 302
#     4   8  16  32  50  69  97 131 158 189 241 298
#
# _framework density 17.685801999999999
#
# number of rings (size 3 to 8) (size 9 to 14) (size 15 to 20)
#    0.000    2.857    0.000    3.429    0.000    5.714 
#    0.000    1.429    0.000    5.143    0.000    0.000 
#    0.000    0.000    0.000    0.000    0.000    0.000 
#
# Total GULP energy -694009.455903 kJ/mol
# GULP energy per Si atom -12393.025998 kJ/mol
# Density = 1.764555 g / cm^3
# Si number density = 17.685802 Si / 1000 Ang^3
#
#
#
# Elastic Constant Matrix: (Units=GPa)
#
#
# Indices 1 2 3 4 5 6 
#
# 1 175.9928 51.9870 65.6459 0.0000 0.0000 0.0000
# 2 51.9870 55.9913 29.9209 0.0000 0.0000 0.0000
# 3 65.6459 29.9209 63.5466 0.0000 0.0000 0.0000
# 4 0.0000 0.0000 0.0000 21.1445 0.0000 0.0000
# 5 0.0000 0.0000 0.0000 0.0000 20.6169 0.0000
# 6 0.0000 0.0000 0.0000 0.0000 0.0000 32.0728
#
#
#
# Elastic Compliance Matrix: (Units=1/GPa)
#
#
# Indices 1 2 3 4 5 6 
#
# 1 0.010248 -0.005155 -0.008160 0.000000 0.000000 0.000000
# 2 -0.005155 0.026458 -0.007132 0.000000 0.000000 0.000000
# 3 -0.008160 -0.007132 0.027524 0.000000 0.000000 0.000000
# 4 0.000000 0.000000 0.000000 0.047294 0.000000 0.000000
# 5 0.000000 0.000000 0.000000 0.000000 0.048504 0.000000
# 6 0.000000 0.000000 0.000000 0.000000 0.000000 0.031179
#
#
# Mechanical properties :
#
#
# Convention : Reuss Voigt Hill
#
# Bulk Modulus (GPa) = 42.85221 65.62650 54.23935
# Shear Modulus (GPa) = 20.84383 24.63198 22.73790
#
# Velocity S-wave (km/s) = 3.43674 3.73601 3.58950
# Velocity P-wave (km/s) = 6.32697 7.46979 6.92201
#
# Compressibility (1/GPa) = 0.02333602
#
# Stress axis : x y z
#
# Youngs Moduli (GPa) = 97.57610 37.79625 36.33200
#
# Poissons Ratio (x) = 0.19484 0.29646
# Poissons Ratio (y) = 0.50301 0.25913
# Poissons Ratio (z) = 0.79619 0.26957
#
# Static dielectric constant tensor:
#      x y z
#    x 3.698440 0.000000 0.000000 
#    y 0.000000 3.121460 0.000000 
#    z 0.000000 0.000000 3.006840 
# 
# 
# High freq. dielectric constant tensor:
#      x y z
#    x 1.702180 0.000000 0.000000 
#    y 0.000000 1.674340 0.000000 
#    z 0.000000 0.000000 1.641470 
# 
# From -- ./inp_files/27592.got.cif
#   From: 2010.03.12/outbox.cif.g09.slc.cpg/sg62_14_cif.got.tgz:27592.got - 2010.04.10 19:12:36.
