data_PCOD8250866
_publ_section_title
;
Structure prediction by ZEFSAII (Michael W. Deem and Ramdas Pophale) SiO2 
 PCOD8250866
Probable space group: P N M A
;
_chemical_formula_sum "Si O2"
_cell_formula_units_Z 48
_cell_length_a 23.358524
_cell_length_b 8.991938
_cell_length_c 13.668922
_cell_angle_alpha 90.000000
_cell_angle_beta 90.000000
_cell_angle_gamma 90.000000
_cell_volume 2870.998501
_symmetry_space_group_name_H-M "P N M A"
_symmetry_group_IT_number 62
_symmetry_cell_setting 'orthorhombic'
loop_
_space_group_symop_operation_xyz
x,y,z
1/2-x,-y,1/2+z
1/2+x,1/2-y,1/2-z
-x,1/2+y,-z
-x,-y,-z
1/2+x,y,1/2-z
1/2-x,1/2+y,1/2+z
x,1/2-y,z
loop_
_atom_site_type_symbol
_atom_site_label
_atom_site_fract_x
_atom_site_fract_y
_atom_site_fract_z
Si Si1 0.829363 0.576441 0.719759
Si Si2 0.563319 0.421273 0.095165
Si Si3 0.661918 0.419565 0.790134
Si Si4 0.777226 0.074578 0.899594
Si Si5 0.732395 0.424025 0.601754
Si Si6 0.065607 0.575913 0.602678
O O1 0.815202 0.750000 0.734998
O O2 0.894657 0.551217 0.686108
O O3 0.822111 0.487758 0.820595
O O4 0.788618 0.511928 0.635400
O O5 0.563248 0.250000 0.063162
O O6 0.499632 0.472675 0.126527
O O7 0.585418 0.511496 0.001443
O O8 0.644273 0.250000 0.806153
O O9 0.713289 0.462415 0.863504
O O10 0.681486 0.448962 0.679210
O O11 0.606399 0.517787 0.811351
O O12 0.786962 0.250000 0.911603
O O13 0.789487 0.990337 0.000131
O O14 0.747517 0.250000 0.592310
O O15 0.072492 0.750000 0.597703
#
# Coordination Sequence:
#
# PCOD8250866 Si02
#       6
#     8   8   8   8   8   8
#     4  10  19  32  50  70  96 128 158 192 236 281
#     4   9  19  33  47  68  98 127 154 190 236 278
#     4   9  19  33  47  67  97 127 152 188 236 279
#     4  10  20  33  49  71  98 125 157 196 237 281
#     4  10  20  33  49  71  98 126 158 194 235 282
#     4  10  19  30  48  72  95 123 159 194 228 275
#
# _framework density 16.718921999999999
#
# number of rings (size 3 to 8) (size 9 to 14) (size 15 to 20)
#    0.000    2.333    0.000    4.000    0.000   10.000 
#    0.000    0.000    0.000    1.000    0.000    0.000 
#    0.000    0.000    0.000    0.000    0.000    0.000 
#
# Total GULP energy -595313.458746 kJ/mol
# GULP energy per Si atom -12402.363724 kJ/mol
# Density = 1.668087 g / cm^3
# Si number density = 16.718922 Si / 1000 Ang^3
#
#
#
# Elastic Constant Matrix: (Units=GPa)
#
#
# Indices 1 2 3 4 5 6 
#
# 1 83.9438 40.9215 46.7791 0.0000 0.0000 0.0000
# 2 40.9215 75.8043 42.4498 0.0000 0.0000 0.0000
# 3 46.7791 42.4498 106.6404 0.0000 0.0000 0.0000
# 4 0.0000 0.0000 0.0000 33.2846 0.0000 0.0000
# 5 0.0000 0.0000 0.0000 0.0000 21.5171 0.0000
# 6 0.0000 0.0000 0.0000 0.0000 0.0000 27.2621
#
#
#
# Elastic Compliance Matrix: (Units=1/GPa)
#
#
# Indices 1 2 3 4 5 6 
#
# 1 0.018188 -0.006885 -0.005238 0.000000 0.000000 0.000000
# 2 -0.006885 0.019583 -0.004775 0.000000 0.000000 0.000000
# 3 -0.005238 -0.004775 0.013575 0.000000 0.000000 0.000000
# 4 0.000000 0.000000 0.000000 0.030044 0.000000 0.000000
# 5 0.000000 0.000000 0.000000 0.000000 0.046475 0.000000
# 6 0.000000 0.000000 0.000000 0.000000 0.000000 0.036681
#
#
# Mechanical properties :
#
#
# Convention : Reuss Voigt Hill
#
# Bulk Modulus (GPa) = 56.97805 58.52104 57.74954
# Shear Modulus (GPa) = 24.48681 25.49530 24.99106
#
# Velocity S-wave (km/s) = 3.83118 3.90928 3.87043
# Velocity P-wave (km/s) = 7.32971 7.44684 7.38851
#
# Compressibility (1/GPa) = 0.01755062
#
# Stress axis : x y z
#
# Youngs Moduli (GPa) = 54.98124 51.06544 73.66213
#
# Poissons Ratio (x) = 0.35161 0.38581
# Poissons Ratio (y) = 0.37857 0.35172
# Poissons Ratio (z) = 0.28797 0.24383
#
# Static dielectric constant tensor:
#      x y z
#    x 3.098700 0.000000 0.000000 
#    y 0.000000 3.237160 0.000000 
#    z 0.000000 0.000000 3.047010 
# 
# 
# High freq. dielectric constant tensor:
#      x y z
#    x 1.630500 0.000000 0.000000 
#    y 0.000000 1.659260 0.000000 
#    z 0.000000 0.000000 1.634590 
# 
# From -- ./inp_files/15115.got.cif
#   From: 2010.03.12/outbox.cif.g09.slc.cpg/sg62_8_cif.got.tgz:15115.got - 2010.04.10 19:12:36.
