data_PCOD8250797
_publ_section_title
;
Structure prediction by ZEFSAII (Michael W. Deem and Ramdas Pophale) SiO2 
 PCOD8250797
Probable space group: P N M A
;
_chemical_formula_sum "Si O2"
_cell_formula_units_Z 64
_cell_length_a 18.053494
_cell_length_b 9.131523
_cell_length_c 20.630250
_cell_angle_alpha 90.000000
_cell_angle_beta 90.000000
_cell_angle_gamma 90.000000
_cell_volume 3401.018342
_symmetry_space_group_name_H-M "P N M A"
_symmetry_group_IT_number 62
_symmetry_cell_setting 'orthorhombic'
loop_
_space_group_symop_operation_xyz
x,y,z
1/2-x,-y,1/2+z
1/2+x,1/2-y,1/2-z
-x,1/2+y,-z
-x,-y,-z
1/2+x,y,1/2-z
1/2-x,1/2+y,1/2+z
x,1/2-y,z
loop_
_atom_site_type_symbol
_atom_site_label
_atom_site_fract_x
_atom_site_fract_y
_atom_site_fract_z
Si Si1 0.428365 0.908841 0.493984
Si Si2 0.877867 0.419319 0.660044
Si Si3 0.730423 0.576310 0.631721
Si Si4 0.179712 0.077324 0.102071
Si Si5 0.911141 0.587017 0.154758
Si Si6 0.774588 0.583921 0.488150
Si Si7 0.063238 0.080373 0.460793
Si Si8 0.926910 0.082213 0.804039
O O1 0.446926 0.750000 0.522834
O O2 0.367006 0.977476 0.540074
O O3 0.401966 0.898010 0.421436
O O4 0.500000 0.000000 0.500000
O O5 0.866136 0.250000 0.640108
O O6 0.798611 0.497186 0.667084
O O7 0.929034 0.501058 0.608205
O O8 0.921419 0.431863 0.727350
O O9 0.738491 0.750000 0.640661
O O10 0.656706 0.522525 0.670846
O O11 0.732409 0.535135 0.554933
O O12 0.188166 0.250000 0.112574
O O13 0.141035 0.008873 0.165164
O O14 0.257721 0.009966 0.077640
O O15 0.900810 0.750000 0.186077
O O16 0.991608 0.521666 0.174787
O O17 0.753059 0.750000 0.472451
O O18 0.861702 0.565296 0.498776
O O19 0.042833 0.250000 0.449117
O O20 0.000000 0.000000 0.500000
O O21 0.919999 0.250000 0.827664
#
# Coordination Sequence:
#
# PCOD8250797 Si02
#       8
#     8   8   8   8   8   8   8   8
#     4  10  19  29  45  73 108 145 182 223 266 310
#     4  10  21  39  61  82 108 147 190 231 280 338
#     4  10  20  34  55  81 107 138 179 229 282 331
#     4  11  21  31  49  79 112 147 185 224 270 318
#     4  10  19  33  52  77 109 144 187 230 268 322
#     4   9  19  34  53  79 111 143 177 219 272 332
#     4  10  21  39  64  92 114 139 179 235 294 340
#     4  10  22  38  55  77 111 156 193 224 274 337
#
# _framework density 18.817892000000001
#
# number of rings (size 3 to 8) (size 9 to 14) (size 15 to 20)
#    0.000    2.000    2.500    2.250    0.000    5.000 
#    0.000    1.250    0.000    3.000    0.000    0.000 
#    0.000    0.000    0.000    0.000    0.000    0.000 
#
# Total GULP energy -793167.664436 kJ/mol
# GULP energy per Si atom -12393.244757 kJ/mol
# Density = 1.877506 g / cm^3
# Si number density = 18.817892 Si / 1000 Ang^3
#
#
#
# Elastic Constant Matrix: (Units=GPa)
#
#
# Indices 1 2 3 4 5 6 
#
# 1 82.7682 49.8793 37.7650 0.0000 0.0000 0.0000
# 2 49.8793 109.0425 41.1260 0.0000 0.0000 0.0000
# 3 37.7650 41.1260 70.0480 0.0000 0.0000 0.0000
# 4 0.0000 0.0000 0.0000 27.2080 0.0000 0.0000
# 5 0.0000 0.0000 0.0000 0.0000 23.7077 0.0000
# 6 0.0000 0.0000 0.0000 0.0000 0.0000 33.6768
#
#
#
# Elastic Compliance Matrix: (Units=1/GPa)
#
#
# Indices 1 2 3 4 5 6 
#
# 1 0.018739 -0.006116 -0.006512 0.000000 0.000000 0.000000
# 2 -0.006116 0.013775 -0.004790 0.000000 0.000000 0.000000
# 3 -0.006512 -0.004790 0.020599 0.000000 0.000000 0.000000
# 4 0.000000 0.000000 0.000000 0.036754 0.000000 0.000000
# 5 0.000000 0.000000 0.000000 0.000000 0.042180 0.000000
# 6 0.000000 0.000000 0.000000 0.000000 0.000000 0.029694
#
#
# Mechanical properties :
#
#
# Convention : Reuss Voigt Hill
#
# Bulk Modulus (GPa) = 54.71391 57.71106 56.21248
# Shear Modulus (GPa) = 24.67074 25.79107 25.23091
#
# Velocity S-wave (km/s) = 3.62474 3.70613 3.66566
# Velocity P-wave (km/s) = 6.83058 7.00347 6.91757
#
# Compressibility (1/GPa) = 0.01827689
#
# Stress axis : x y z
#
# Youngs Moduli (GPa) = 53.36549 72.59596 48.54552
#
# Poissons Ratio (x) = 0.44397 0.31613
# Poissons Ratio (y) = 0.32636 0.23255
# Poissons Ratio (z) = 0.34752 0.34776
#
# Static dielectric constant tensor:
#      x y z
#    x 3.442590 0.000000 0.000000 
#    y 0.000000 3.594440 0.000000 
#    z 0.000000 0.000000 3.170460 
# 
# 
# High freq. dielectric constant tensor:
#      x y z
#    x 1.729350 0.000000 0.000000 
#    y 0.000000 1.738780 0.000000 
#    z 0.000000 0.000000 1.704210 
# 
# From -- ./inp_files/27687.got.cif
#   From: 2010.03.12/outbox.cif.g09.slc.cpg/sg62_14_cif.got.tgz:27687.got - 2010.04.10 19:12:36.
