data_PCOD8250726
_publ_section_title
;
Structure prediction by ZEFSAII (Michael W. Deem and Ramdas Pophale) SiO2 
 PCOD8250726
Probable space group: P N M A
;
_chemical_formula_sum "Si O2"
_cell_formula_units_Z 40
_cell_length_a 9.707993
_cell_length_b 17.368731
_cell_length_c 12.959177
_cell_angle_alpha 90.000000
_cell_angle_beta 90.000000
_cell_angle_gamma 90.000000
_cell_volume 2185.118355
_symmetry_space_group_name_H-M "P N M A"
_symmetry_group_IT_number 62
_symmetry_cell_setting 'orthorhombic'
loop_
_space_group_symop_operation_xyz
x,y,z
1/2-x,-y,1/2+z
1/2+x,1/2-y,1/2-z
-x,1/2+y,-z
-x,-y,-z
1/2+x,y,1/2-z
1/2-x,1/2+y,1/2+z
x,1/2-y,z
loop_
_atom_site_type_symbol
_atom_site_label
_atom_site_fract_x
_atom_site_fract_y
_atom_site_fract_z
Si Si1 0.024938 0.250000 0.154389
Si Si2 0.650681 0.086961 0.058759
Si Si3 0.367050 0.592811 0.564971
Si Si4 0.895868 0.508800 0.131926
Si Si5 0.197301 0.250000 0.363370
Si Si6 0.390111 0.490286 0.136897
O O1 0.073861 0.324150 0.091012
O O2 0.101677 0.250000 0.262968
O O3 0.859258 0.250000 0.167794
O O4 0.799675 0.060233 0.094450
O O5 0.653518 0.178565 0.065844
O O6 0.539501 0.049223 0.135486
O O7 0.619347 0.061459 0.941860
O O8 0.450256 0.522588 0.617010
O O9 0.369682 0.583845 0.439774
O O10 0.213602 0.579685 0.608938
O O11 0.865999 0.527794 0.251022
#
# Coordination Sequence:
#
# PCOD8250726 Si02
#       6
#     4   8   8   8   4   8
#     4  12  24  38  55  84 114 150 179 234 285 331
#     4  10  22  35  55  86 111 145 183 231 271 337
#     4  10  22  33  57  83 112 139 188 226 269 334
#     4  10  18  37  56  81 107 148 183 228 272 320
#     4  12  24  38  57  82 118 146 183 228 289 327
#     4  10  20  37  58  81 113 144 187 225 277 323
#
# _framework density 18.305644999999998
#
# number of rings (size 3 to 8) (size 9 to 14) (size 15 to 20)
#    0.000    1.600    2.000    3.600    2.800    0.000 
#    0.000    1.000    0.000    0.000    0.000    0.000 
#    0.000    0.000    0.000    0.000    0.000    0.000 
#
# Total GULP energy -495981.478904 kJ/mol
# GULP energy per Si atom -12399.536973 kJ/mol
# Density = 1.826398 g / cm^3
# Si number density = 18.305645 Si / 1000 Ang^3
#
#
#
# Elastic Constant Matrix: (Units=GPa)
#
#
# Indices 1 2 3 4 5 6 
#
# 1 71.1716 31.9155 29.6828 0.0000 0.0000 0.0000
# 2 31.9155 110.7879 53.4382 0.0000 0.0000 0.0000
# 3 29.6828 53.4382 129.9849 0.0000 0.0000 0.0000
# 4 0.0000 0.0000 0.0000 15.8909 0.0000 0.0000
# 5 0.0000 0.0000 0.0000 0.0000 21.8617 0.0000
# 6 0.0000 0.0000 0.0000 0.0000 0.0000 23.4726
#
#
#
# Elastic Compliance Matrix: (Units=1/GPa)
#
#
# Indices 1 2 3 4 5 6 
#
# 1 0.016662 -0.003698 -0.002285 0.000000 0.000000 0.000000
# 2 -0.003698 0.012080 -0.004122 0.000000 0.000000 0.000000
# 3 -0.002285 -0.004122 0.009909 0.000000 0.000000 0.000000
# 4 0.000000 0.000000 0.000000 0.062929 0.000000 0.000000
# 5 0.000000 0.000000 0.000000 0.000000 0.045742 0.000000
# 6 0.000000 0.000000 0.000000 0.000000 0.000000 0.042603
#
#
# Mechanical properties :
#
#
# Convention : Reuss Voigt Hill
#
# Bulk Modulus (GPa) = 54.22277 60.22414 57.22346
# Shear Modulus (GPa) = 23.11818 25.37223 24.24521
#
# Velocity S-wave (km/s) = 3.55758 3.72699 3.64327
# Velocity P-wave (km/s) = 6.82351 7.17574 7.00184
#
# Compressibility (1/GPa) = 0.01844243
#
# Stress axis : x y z
#
# Youngs Moduli (GPa) = 60.01830 82.78424 100.91498
#
# Poissons Ratio (x) = 0.30613 0.23054
# Poissons Ratio (y) = 0.22194 0.41593
# Poissons Ratio (z) = 0.13711 0.34121
#
# Static dielectric constant tensor:
#      x y z
#    x 3.650340 0.000000 0.000000 
#    y 0.000000 3.192510 0.000000 
#    z 0.000000 0.000000 3.463250 
# 
# 
# High freq. dielectric constant tensor:
#      x y z
#    x 1.734100 0.000000 0.000000 
#    y 0.000000 1.681770 0.000000 
#    z 0.000000 0.000000 1.710290 
# 
# From -- ./inp_files/11097.got.cif
#   From: 2010.03.12/outbox.cif.g09.slc.cpg/sg62_6_cif.got.tgz:11097.got - 2010.04.10 19:12:36.
