data_PCOD8250873
_publ_section_title
;
Structure prediction by ZEFSAII (Michael W. Deem and Ramdas Pophale) SiO2 
 PCOD8250873
Probable space group: P N M A
;
_chemical_formula_sum "Si O2"
_cell_formula_units_Z 48
_cell_length_a 13.480434
_cell_length_b 8.992167
_cell_length_c 23.620794
_cell_angle_alpha 90.000000
_cell_angle_beta 90.000000
_cell_angle_gamma 90.000000
_cell_volume 2863.272818
_symmetry_space_group_name_H-M "P N M A"
_symmetry_group_IT_number 62
_symmetry_cell_setting 'orthorhombic'
loop_
_space_group_symop_operation_xyz
x,y,z
1/2-x,-y,1/2+z
1/2+x,1/2-y,1/2-z
-x,1/2+y,-z
-x,-y,-z
1/2+x,y,1/2-z
1/2-x,1/2+y,1/2+z
x,1/2-y,z
loop_
_atom_site_type_symbol
_atom_site_label
_atom_site_fract_x
_atom_site_fract_y
_atom_site_fract_z
Si Si1 0.773855 0.421283 0.667407
Si Si2 0.393645 0.077185 0.065830
Si Si3 0.394346 0.075009 0.269957
Si Si4 0.095373 0.919830 0.226651
Si Si5 0.596805 0.578497 0.062934
Si Si6 0.295064 0.576989 0.165292
O O1 0.740873 0.250000 0.674096
O O2 0.679050 0.523018 0.680080
O O3 0.862204 0.456084 0.711181
O O4 0.811961 0.457853 0.604463
O O5 0.386971 0.250000 0.080250
O O6 0.504198 0.022702 0.080148
O O7 0.313749 0.990179 0.103418
O O8 0.367217 0.043089 0.000559
O O9 0.387196 0.250000 0.263098
O O10 0.505234 0.029046 0.287164
O O11 0.366848 0.000271 0.210519
O O12 0.058284 0.750000 0.223349
O O13 0.180437 0.950780 0.180322
O O14 0.563484 0.750000 0.068784
O O15 0.321636 0.750000 0.165862
#
# Coordination Sequence:
#
# PCOD8250873 Si02
#       6
#     8   8   8   8   8   8
#     4   9  18  33  51  69  94 129 163 191 226 282
#     4  10  19  30  48  75 102 126 157 200 241 276
#     4  11  21  31  48  74 100 123 152 198 246 282
#     4   9  18  32  50  70  93 126 163 194 231 284
#     4   9  18  32  50  72  99 132 163 191 232 285
#     4  10  20  34  51  69  94 130 164 193 232 286
#
# _framework density 16.764032
#
# number of rings (size 3 to 8) (size 9 to 14) (size 15 to 20)
#    0.000    2.333    0.000    4.500    0.000    6.000 
#    0.000    0.000    0.000    1.000    0.000    0.000 
#    0.000    0.000    0.000    0.000    0.000    0.000 
#
# Total GULP energy -595356.753436 kJ/mol
# GULP energy per Si atom -12403.265697 kJ/mol
# Density = 1.672588 g / cm^3
# Si number density = 16.764032 Si / 1000 Ang^3
#
#
#
# Elastic Constant Matrix: (Units=GPa)
#
#
# Indices 1 2 3 4 5 6 
#
# 1 99.1179 62.7107 55.7954 0.0000 0.0000 0.0000
# 2 62.7107 112.7507 52.3927 0.0000 0.0000 0.0000
# 3 55.7954 52.3927 105.2099 0.0000 0.0000 0.0000
# 4 0.0000 0.0000 0.0000 27.6879 0.0000 0.0000
# 5 0.0000 0.0000 0.0000 0.0000 23.3560 0.0000
# 6 0.0000 0.0000 0.0000 0.0000 0.0000 25.7811
#
#
#
# Elastic Compliance Matrix: (Units=1/GPa)
#
#
# Indices 1 2 3 4 5 6 
#
# 1 0.018033 -0.007268 -0.005944 0.000000 0.000000 0.000000
# 2 -0.007268 0.014468 -0.003351 0.000000 0.000000 0.000000
# 3 -0.005944 -0.003351 0.014326 0.000000 0.000000 0.000000
# 4 0.000000 0.000000 0.000000 0.036117 0.000000 0.000000
# 5 0.000000 0.000000 0.000000 0.000000 0.042815 0.000000
# 6 0.000000 0.000000 0.000000 0.000000 0.000000 0.038788
#
#
# Mechanical properties :
#
#
# Convention : Reuss Voigt Hill
#
# Bulk Modulus (GPa) = 72.98224 73.20843 73.09533
# Shear Modulus (GPa) = 24.72297 25.11032 24.91665
#
# Velocity S-wave (km/s) = 3.84443 3.87443 3.85946
# Velocity P-wave (km/s) = 7.95837 7.98622 7.97231
#
# Compressibility (1/GPa) = 0.01370196
#
# Stress axis : x y z
#
# Youngs Moduli (GPa) = 55.45259 69.11620 69.80397
#
# Poissons Ratio (x) = 0.50232 0.41494
# Poissons Ratio (y) = 0.40302 0.23389
# Poissons Ratio (z) = 0.32963 0.23159
#
# Static dielectric constant tensor:
#      x y z
#    x 2.973310 0.000000 0.000000 
#    y 0.000000 3.168180 0.000000 
#    z 0.000000 0.000000 3.173950 
# 
# 
# High freq. dielectric constant tensor:
#      x y z
#    x 1.631250 0.000000 0.000000 
#    y 0.000000 1.652590 0.000000 
#    z 0.000000 0.000000 1.638100 
# 
# From -- ./inp_files/26889.got.cif
#   From: 2010.03.12/outbox.cif.g09.slc.cpg/sg62_14_cif.got.tgz:26889.got - 2010.04.10 19:12:36.
