data_PCOD8250922
_publ_section_title
;
Structure prediction by ZEFSAII (Michael W. Deem and Ramdas Pophale) SiO2 
 PCOD8250922
Probable space group: P N M A
;
_chemical_formula_sum "Si O2"
_cell_formula_units_Z 48
_cell_length_a 13.752647
_cell_length_b 9.355560
_cell_length_c 18.407580
_cell_angle_alpha 90.000000
_cell_angle_beta 90.000000
_cell_angle_gamma 90.000000
_cell_volume 2368.387612
_symmetry_space_group_name_H-M "P N M A"
_symmetry_group_IT_number 62
_symmetry_cell_setting 'orthorhombic'
loop_
_space_group_symop_operation_xyz
x,y,z
1/2-x,-y,1/2+z
1/2+x,1/2-y,1/2-z
-x,1/2+y,-z
-x,-y,-z
1/2+x,y,1/2-z
1/2-x,1/2+y,1/2+z
x,1/2-y,z
loop_
_atom_site_type_symbol
_atom_site_label
_atom_site_fract_x
_atom_site_fract_y
_atom_site_fract_z
Si Si1 0.325536 0.086920 0.733009
Si Si2 0.448165 0.410473 0.595780
Si Si3 0.145966 0.085765 0.971655
Si Si4 0.441441 0.914646 0.842211
Si Si5 0.132038 0.418158 0.645595
Si Si6 0.671616 0.087066 0.018222
O O1 0.316339 0.250000 0.760891
O O2 0.416351 0.071020 0.678428
O O3 0.226046 0.040480 0.693141
O O4 0.349612 0.983073 0.799773
O O5 0.422001 0.250000 0.568208
O O6 0.564017 0.435722 0.590304
O O7 0.390849 0.523761 0.547804
O O8 0.171848 0.250000 0.984009
O O9 0.242188 0.005006 0.946273
O O10 0.452287 0.750000 0.818862
O O11 0.420739 0.928503 0.928522
O O12 0.540035 0.997691 0.822469
O O13 0.109952 0.250000 0.649253
O O14 0.147317 0.468442 0.562451
O O15 0.707332 0.250000 0.013803
#
# Coordination Sequence:
#
# PCOD8250922 Si02
#       6
#     8   8   8   8   8   8
#     4  10  21  40  64  85 115 161 204 242 290 359
#     4   9  18  35  55  81 118 156 194 235 289 351
#     4  10  19  30  55  90 117 147 192 246 291 341
#     4  11  25  40  59  90 125 154 190 249 306 352
#     4  10  21  41  67  86 110 157 206 244 288 353
#     4  10  21  40  61  84 119 160 198 242 297 353
#
# _framework density 20.266953000000001
#
# number of rings (size 3 to 8) (size 9 to 14) (size 15 to 20)
#    0.000    2.000    1.667    1.500    0.000    5.333 
#    0.000    5.000    0.000    0.000    0.000    0.000 
#    0.000    0.000    0.000    0.000    0.000    0.000 
#
# Total GULP energy -595271.527668 kJ/mol
# GULP energy per Si atom -12401.490160 kJ/mol
# Density = 2.022082 g / cm^3
# Si number density = 20.266953 Si / 1000 Ang^3
#
#
#
# Elastic Constant Matrix: (Units=GPa)
#
#
# Indices 1 2 3 4 5 6 
#
# 1 111.6688 58.1570 39.0264 0.0000 0.0000 0.0000
# 2 58.1570 92.1854 34.9615 0.0000 0.0000 0.0000
# 3 39.0264 34.9615 78.6476 0.0000 0.0000 0.0000
# 4 0.0000 0.0000 0.0000 27.3943 0.0000 0.0000
# 5 0.0000 0.0000 0.0000 0.0000 26.8076 0.0000
# 6 0.0000 0.0000 0.0000 0.0000 0.0000 35.6923
#
#
#
# Elastic Compliance Matrix: (Units=1/GPa)
#
#
# Indices 1 2 3 4 5 6 
#
# 1 0.014169 -0.007544 -0.003677 0.000000 0.000000 0.000000
# 2 -0.007544 0.017064 -0.003842 0.000000 0.000000 0.000000
# 3 -0.003677 -0.003842 0.016248 0.000000 0.000000 0.000000
# 4 0.000000 0.000000 0.000000 0.036504 0.000000 0.000000
# 5 0.000000 0.000000 0.000000 0.000000 0.037303 0.000000
# 6 0.000000 0.000000 0.000000 0.000000 0.000000 0.028017
#
#
# Mechanical properties :
#
#
# Convention : Reuss Voigt Hill
#
# Bulk Modulus (GPa) = 57.62428 60.75465 59.18946
# Shear Modulus (GPa) = 26.99531 28.00262 27.49896
#
# Velocity S-wave (km/s) = 3.65360 3.72114 3.68752
# Velocity P-wave (km/s) = 6.80388 6.96454 6.88468
#
# Compressibility (1/GPa) = 0.01735380
#
# Stress axis : x y z
#
# Youngs Moduli (GPa) = 70.57501 58.60184 61.54744
#
# Poissons Ratio (x) = 0.44211 0.22633
# Poissons Ratio (y) = 0.53244 0.23647
# Poissons Ratio (z) = 0.25953 0.22515
#
# Static dielectric constant tensor:
#      x y z
#    x 3.671220 0.000000 0.000000 
#    y 0.000000 3.663120 0.000000 
#    z 0.000000 0.000000 3.470110 
# 
# 
# High freq. dielectric constant tensor:
#      x y z
#    x 1.795550 0.000000 0.000000 
#    y 0.000000 1.788270 0.000000 
#    z 0.000000 0.000000 1.777600 
# 
# From -- ./inp_files/23733.got.cif
#   From: 2010.03.12/outbox.cif.g09.slc.cpg/sg62_12_cif.got.tgz:23733.got - 2010.04.10 19:12:36.
