data_PCOD8250984
_publ_section_title
;
Structure prediction by ZEFSAII (Michael W. Deem and Ramdas Pophale) SiO2 
 PCOD8250984
Probable space group: P N M A
;
_chemical_formula_sum "Si O2"
_cell_formula_units_Z 64
_cell_length_a 26.891185
_cell_length_b 9.780892
_cell_length_c 14.015645
_cell_angle_alpha 90.000000
_cell_angle_beta 90.000000
_cell_angle_gamma 90.000000
_cell_volume 3686.391812
_symmetry_space_group_name_H-M "P N M A"
_symmetry_group_IT_number 62
_symmetry_cell_setting 'orthorhombic'
loop_
_space_group_symop_operation_xyz
x,y,z
1/2-x,-y,1/2+z
1/2+x,1/2-y,1/2-z
-x,1/2+y,-z
-x,-y,-z
1/2+x,y,1/2-z
1/2-x,1/2+y,1/2+z
x,1/2-y,z
loop_
_atom_site_type_symbol
_atom_site_label
_atom_site_fract_x
_atom_site_fract_y
_atom_site_fract_z
Si Si1 0.486913 0.905611 0.230932
Si Si2 0.414236 0.020951 0.864442
Si Si3 0.198675 0.090064 0.558624
Si Si4 0.307032 0.102963 0.892461
Si Si5 0.880880 0.900699 0.824771
Si Si6 0.513250 0.087215 0.406750
Si Si7 0.208616 0.593248 0.179964
Si Si8 0.912954 0.589663 0.429871
O O1 0.473478 0.750000 0.264520
O O2 0.447746 0.967833 0.154452
O O3 0.540399 0.894494 0.179719
O O4 0.485605 0.012471 0.318362
O O5 0.397406 0.908277 0.786306
O O6 0.366664 0.116385 0.881786
O O7 0.430791 0.957534 0.965536
O O8 0.200088 0.250000 0.538226
O O9 0.239992 0.042943 0.633561
O O10 0.143801 0.044194 0.592991
O O11 0.211417 0.017488 0.459562
O O12 0.288639 0.250000 0.931634
O O13 0.282007 0.072245 0.791391
O O14 0.859113 0.750000 0.841492
O O15 0.927764 0.926844 0.893058
O O16 0.838428 0.006791 0.856035
O O17 0.498240 0.250000 0.413272
O O18 0.500000 0.000000 0.500000
O O19 0.196897 0.750000 0.153626
O O20 0.918501 0.750000 0.428680
#
# Coordination Sequence:
#
# PCOD8250984 Si02
#       8
#     8   8   8   8   8   8   8   8
#     4  10  19  31  49  74 101 132 167 199 236 286
#     4   9  16  28  47  72 102 129 157 195 238 284
#     4   9  18  33  49  67  95 131 164 196 239 289
#     4   9  17  29  46  69  93 121 158 200 243 285
#     4   9  18  31  51  77  98 120 158 202 241 281
#     4  10  21  37  55  74  98 129 162 201 246 290
#     4   9  18  32  50  70  95 125 158 198 244 287
#     4   9  17  29  47  71 101 135 166 195 235 290
#
# _framework density 17.361149000000001
#
# number of rings (size 3 to 8) (size 9 to 14) (size 15 to 20)
#    0.000    2.750    0.000    1.500    0.000    7.500 
#    0.000    4.375    0.000    3.000    0.000    0.000 
#    0.000    0.000    0.000    0.000    0.000    0.000 
#
# Total GULP energy -793147.717486 kJ/mol
# GULP energy per Si atom -12392.933086 kJ/mol
# Density = 1.732163 g / cm^3
# Si number density = 17.361149 Si / 1000 Ang^3
#
#
#
# Elastic Constant Matrix: (Units=GPa)
#
#
# Indices 1 2 3 4 5 6 
#
# 1 75.0756 43.9123 58.1229 0.0000 0.0000 0.0000
# 2 43.9123 75.8198 50.9848 0.0000 0.0000 0.0000
# 3 58.1229 50.9848 113.7941 0.0000 0.0000 0.0000
# 4 0.0000 0.0000 0.0000 25.9325 0.0000 0.0000
# 5 0.0000 0.0000 0.0000 0.0000 29.5207 0.0000
# 6 0.0000 0.0000 0.0000 0.0000 0.0000 22.4705
#
#
#
# Elastic Compliance Matrix: (Units=1/GPa)
#
#
# Indices 1 2 3 4 5 6 
#
# 1 0.025407 -0.008570 -0.009137 0.000000 0.000000 0.000000
# 2 -0.008570 0.021767 -0.005375 0.000000 0.000000 0.000000
# 3 -0.009137 -0.005375 0.015863 0.000000 0.000000 0.000000
# 4 0.000000 0.000000 0.000000 0.038562 0.000000 0.000000
# 5 0.000000 0.000000 0.000000 0.000000 0.033875 0.000000
# 6 0.000000 0.000000 0.000000 0.000000 0.000000 0.044503
#
#
# Mechanical properties :
#
#
# Convention : Reuss Voigt Hill
#
# Bulk Modulus (GPa) = 59.27093 63.41440 61.34266
# Shear Modulus (GPa) = 21.57351 23.02937 22.30144
#
# Velocity S-wave (km/s) = 3.52892 3.64605 3.58796
# Velocity P-wave (km/s) = 7.12871 7.37094 7.25084
#
# Compressibility (1/GPa) = 0.01687168
#
# Stress axis : x y z
#
# Youngs Moduli (GPa) = 39.35970 45.94018 63.03926
#
# Poissons Ratio (x) = 0.39373 0.57600
# Poissons Ratio (y) = 0.33733 0.33885
# Poissons Ratio (z) = 0.35963 0.24694
#
# Static dielectric constant tensor:
#      x y z
#    x 3.287910 0.000000 0.000000 
#    y 0.000000 3.228300 0.000000 
#    z 0.000000 0.000000 3.285700 
# 
# 
# High freq. dielectric constant tensor:
#      x y z
#    x 1.659220 0.000000 0.000000 
#    y 0.000000 1.670460 0.000000 
#    z 0.000000 0.000000 1.660800 
# 
# From -- ./inp_files/20906.got.cif
#   From: 2010.03.12/outbox.cif.g09.slc.cpg/sg62_11_cif.got.tgz:20906.got - 2010.04.10 19:12:36.
