data_PCOD8250352
_publ_section_title
;
Structure prediction by ZEFSAII (Michael W. Deem and Ramdas Pophale) SiO2 
 PCOD8250352
Probable space group: P N M A
;
_chemical_formula_sum "Si O2"
_cell_formula_units_Z 48
_cell_length_a 8.875608
_cell_length_b 25.871647
_cell_length_c 11.522701
_cell_angle_alpha 90.000000
_cell_angle_beta 90.000000
_cell_angle_gamma 90.000000
_cell_volume 2645.918620
_symmetry_space_group_name_H-M "P N M A"
_symmetry_group_IT_number 62
_symmetry_cell_setting 'orthorhombic'
loop_
_space_group_symop_operation_xyz
x,y,z
1/2-x,-y,1/2+z
1/2+x,1/2-y,1/2-z
-x,1/2+y,-z
-x,-y,-z
1/2+x,y,1/2-z
1/2-x,1/2+y,1/2+z
x,1/2-y,z
loop_
_atom_site_type_symbol
_atom_site_label
_atom_site_fract_x
_atom_site_fract_y
_atom_site_fract_z
Si Si1 0.126516 0.137797 0.338691
Si Si2 0.750711 0.485931 0.756343
Si Si3 0.001312 0.048868 0.915533
Si Si4 0.154770 0.250000 0.322055
Si Si5 0.530439 0.862156 0.594456
Si Si6 0.498638 0.463041 0.108316
Si Si7 0.017592 0.750000 0.898373
O O1 0.090610 0.196987 0.380343
O O2 0.083621 0.131641 0.202699
O O3 0.302546 0.125705 0.358405
O O4 0.025717 0.098068 0.416937
O O5 0.643865 0.452426 0.671947
O O6 0.845466 0.448479 0.842036
O O7 0.657854 0.528242 0.827870
O O8 0.863055 0.521946 0.688150
O O9 0.017212 0.099530 0.992651
O O10 0.000000 0.000000 0.000000
O O11 0.334053 0.250000 0.319102
O O12 0.124229 0.250000 0.185828
O O13 0.517895 0.804803 0.533577
O O14 0.500000 0.500000 0.000000
#
# Coordination Sequence:
#
# PCOD8250352 Si02
#       7
#     8   8   8   4   8   8   4
#     4  10  18  30  48  74 101 129 162 197 243 298
#     4  10  22  34  47  72 100 126 164 202 242 291
#     4  11  21  35  52  72  99 132 164 203 249 294
#     4   8  16  28  44  68 100 126 154 200 244 288
#     4  10  19  32  52  74 102 131 161 200 245 294
#     4  11  20  32  49  71  99 130 161 197 240 292
#     4   8  16  30  48  72  96 128 162 194 242 294
#
# _framework density 18.141148000000001
#
# number of rings (size 3 to 8) (size 9 to 14) (size 15 to 20)
#    0.000    2.000    0.000    6.000    0.000    1.333 
#    0.000    0.000    0.000    1.000    0.000    4.667 
#    0.000    0.000    0.000    0.000    0.000    0.000 
#
# Total GULP energy -594678.022078 kJ/mol
# GULP energy per Si atom -12389.125460 kJ/mol
# Density = 1.809986 g / cm^3
# Si number density = 18.141148 Si / 1000 Ang^3
#
#
#
# Elastic Constant Matrix: (Units=GPa)
#
#
# Indices 1 2 3 4 5 6 
#
# 1 70.3482 15.4934 24.2868 0.0000 0.0000 0.0000
# 2 15.4934 123.6603 41.0135 0.0000 0.0000 0.0000
# 3 24.2868 41.0135 68.7909 0.0000 0.0000 0.0000
# 4 0.0000 0.0000 0.0000 27.2138 0.0000 0.0000
# 5 0.0000 0.0000 0.0000 0.0000 -39.9753 0.0000
# 6 0.0000 0.0000 0.0000 0.0000 0.0000 20.7573
#
#
#
# Elastic Compliance Matrix: (Units=1/GPa)
#
#
# Indices 1 2 3 4 5 6 
#
# 1 0.016191 -0.000165 -0.005618 0.000000 0.000000 0.000000
# 2 -0.000165 0.010082 -0.005952 0.000000 0.000000 0.000000
# 3 -0.005618 -0.005952 0.020069 0.000000 0.000000 0.000000
# 4 0.000000 0.000000 0.000000 0.036746 0.000000 0.000000
# 5 0.000000 0.000000 0.000000 0.000000 -0.025015 0.000000
# 6 0.000000 0.000000 0.000000 0.000000 0.000000 0.048176
#
#
# Mechanical properties :
#
#
# Convention : Reuss Voigt Hill
#
# Bulk Modulus (GPa) = 43.72405 47.15411 45.43908
# Shear Modulus (GPa) = 36.40553 13.73288 25.06921
#
# Velocity S-wave (km/s) = 4.48458 2.75435 3.72142
# Velocity P-wave (km/s) = 7.13931 6.01370 6.60054
#
# Compressibility (1/GPa) = 0.02287071
#
# Stress axis : x y z
#
# Youngs Moduli (GPa) = 61.76332 99.19122 49.82839
#
# Poissons Ratio (x) = 0.01641 0.27992
# Poissons Ratio (y) = 0.01022 0.29659
# Poissons Ratio (z) = 0.34696 0.59041
#
# Static dielectric constant tensor:
#      x y z
#    x 3.633160 0.000000 0.000000 
#    y 0.000000 3.797940 0.000000 
#    z 0.000000 0.000000 7.744540 
# 
# 
# High freq. dielectric constant tensor:
#      x y z
#    x 1.719400 0.000000 0.000000 
#    y 0.000000 1.709940 0.000000 
#    z 0.000000 0.000000 1.658030 
# 
# From -- ./inp_files/11334.got.cif
#   From: 2010.03.12/outbox.cif.g09.slc.cpg/sg62_6_cif.got.tgz:11334.got - 2010.04.10 19:12:36.
