data_PCOD8250323
_publ_section_title
;
Structure prediction by ZEFSAII (Michael W. Deem and Ramdas Pophale) SiO2 
 PCOD8250323
Probable space group: P N M A
;
_chemical_formula_sum "Si O2"
_cell_formula_units_Z 48
_cell_length_a 14.197946
_cell_length_b 19.376895
_cell_length_c 9.685441
_cell_angle_alpha 90.000000
_cell_angle_beta 90.000000
_cell_angle_gamma 90.000000
_cell_volume 2664.582099
_symmetry_space_group_name_H-M "P N M A"
_symmetry_group_IT_number 62
_symmetry_cell_setting 'orthorhombic'
loop_
_space_group_symop_operation_xyz
x,y,z
1/2-x,-y,1/2+z
1/2+x,1/2-y,1/2-z
-x,1/2+y,-z
-x,-y,-z
1/2+x,y,1/2-z
1/2-x,1/2+y,1/2+z
x,1/2-y,z
loop_
_atom_site_type_symbol
_atom_site_label
_atom_site_fract_x
_atom_site_fract_y
_atom_site_fract_z
Si Si1 0.103322 0.169843 0.667613
Si Si2 0.756386 0.974339 0.588877
Si Si3 0.058287 0.560466 0.829690
Si Si4 0.719867 0.918295 0.306257
Si Si5 0.491057 0.407086 0.625911
Si Si6 0.960087 0.929109 0.561351
O O1 0.099156 0.250000 0.634441
O O2 0.212142 0.146286 0.664472
O O3 0.040256 0.129657 0.554764
O O4 0.058193 0.153271 0.816943
O O5 0.670793 0.930772 0.655901
O O6 0.739525 0.977668 0.423110
O O7 0.855237 0.938309 0.622713
O O8 0.757561 0.050679 0.655240
O O9 0.030534 0.480012 0.820566
O O10 0.025125 0.596506 0.688215
O O11 0.006933 0.595993 0.959858
O O12 0.612951 0.893527 0.314252
O O13 0.000000 0.000000 0.500000
#
# Coordination Sequence:
#
# PCOD8250323 Si02
#       6
#     8   8   8   8   8   8
#     4  11  23  37  53  78 114 150 183 225 285 345
#     4  10  18  29  52  81 109 133 173 230 279 314
#     4  10  18  31  54  84 110 131 182 237 276 314
#     4  10  19  32  52  79 106 140 177 225 273 328
#     4  10  19  33  53  81 110 140 178 227 275 325
#     4  11  19  35  56  82 109 146 190 234 274 324
#
# _framework density 18.014081999999998
#
# number of rings (size 3 to 8) (size 9 to 14) (size 15 to 20)
#    0.000    1.667    5.000    1.000    0.000    0.667 
#    0.000    0.833    0.000    4.000    0.000    0.000 
#    0.000    0.000    0.000    0.000    0.000    0.000 
#
# Total GULP energy -595115.260924 kJ/mol
# GULP energy per Si atom -12398.234603 kJ/mol
# Density = 1.797308 g / cm^3
# Si number density = 18.014082 Si / 1000 Ang^3
#
#
#
# Elastic Constant Matrix: (Units=GPa)
#
#
# Indices 1 2 3 4 5 6 
#
# 1 116.3660 29.5195 41.8039 0.0000 0.0000 0.0000
# 2 29.5195 94.3664 43.1455 0.0000 0.0000 0.0000
# 3 41.8039 43.1455 92.2140 0.0000 0.0000 0.0000
# 4 0.0000 0.0000 0.0000 18.2961 0.0000 0.0000
# 5 0.0000 0.0000 0.0000 0.0000 31.1951 0.0000
# 6 0.0000 0.0000 0.0000 0.0000 0.0000 17.9001
#
#
#
# Elastic Compliance Matrix: (Units=1/GPa)
#
#
# Indices 1 2 3 4 5 6 
#
# 1 0.010408 -0.001398 -0.004065 0.000000 0.000000 0.000000
# 2 -0.001398 0.013669 -0.005762 0.000000 0.000000 0.000000
# 3 -0.004065 -0.005762 0.015383 0.000000 0.000000 0.000000
# 4 0.000000 0.000000 0.000000 0.054656 0.000000 0.000000
# 5 0.000000 0.000000 0.000000 0.000000 0.032056 0.000000
# 6 0.000000 0.000000 0.000000 0.000000 0.000000 0.055865
#
#
# Mechanical properties :
#
#
# Convention : Reuss Voigt Hill
#
# Bulk Modulus (GPa) = 58.78235 59.09825 58.94030
# Shear Modulus (GPa) = 23.79184 26.04343 24.91763
#
# Velocity S-wave (km/s) = 3.63814 3.80640 3.72322
# Velocity P-wave (km/s) = 7.09579 7.22469 7.16053
#
# Compressibility (1/GPa) = 0.01701191
#
# Stress axis : x y z
#
# Youngs Moduli (GPa) = 96.07743 73.16089 65.00772
#
# Poissons Ratio (x) = 0.10224 0.26423
# Poissons Ratio (y) = 0.13427 0.37456
# Poissons Ratio (z) = 0.39051 0.42153
#
# Static dielectric constant tensor:
#      x y z
#    x 3.619540 0.000000 0.000000 
#    y 0.000000 2.755080 0.000000 
#    z 0.000000 0.000000 3.566960 
# 
# 
# High freq. dielectric constant tensor:
#      x y z
#    x 1.720330 0.000000 0.000000 
#    y 0.000000 1.624870 0.000000 
#    z 0.000000 0.000000 1.708880 
# 
# From -- ./inp_files/6628.got.cif
#   From: 2010.03.12/outbox.cif.g09.slc.cpg/sg62_4_cif.got.tgz:6628.got - 2010.04.10 19:12:36.
