data_PCOD8250222
_publ_section_title
;
Structure prediction by ZEFSAII (Michael W. Deem and Ramdas Pophale) SiO2 
 PCOD8250222
Probable space group: P N M A
;
_chemical_formula_sum "Si O2"
_cell_formula_units_Z 64
_cell_length_a 21.936931
_cell_length_b 9.393298
_cell_length_c 16.746650
_cell_angle_alpha 90.000000
_cell_angle_beta 90.000000
_cell_angle_gamma 90.000000
_cell_volume 3450.816878
_symmetry_space_group_name_H-M "P N M A"
_symmetry_group_IT_number 62
_symmetry_cell_setting 'orthorhombic'
loop_
_space_group_symop_operation_xyz
x,y,z
1/2-x,-y,1/2+z
1/2+x,1/2-y,1/2-z
-x,1/2+y,-z
-x,-y,-z
1/2+x,y,1/2-z
1/2-x,1/2+y,1/2+z
x,1/2-y,z
loop_
_atom_site_type_symbol
_atom_site_label
_atom_site_fract_x
_atom_site_fract_y
_atom_site_fract_z
Si Si1 0.561367 0.087341 0.603629
Si Si2 0.629980 0.080958 0.034022
Si Si3 0.567662 0.590558 0.321643
Si Si4 0.147476 0.585944 0.788934
Si Si5 0.239593 0.583717 0.918367
Si Si6 0.628048 0.583480 0.476766
Si Si7 0.463014 0.583335 0.830893
Si Si8 0.098603 0.913751 0.622859
O O1 0.583727 0.250000 0.596745
O O2 0.490062 0.078176 0.620325
O O3 0.594358 0.013036 0.678028
O O4 0.575957 0.005528 0.521924
O O5 0.631467 0.250000 0.023039
O O6 0.618486 0.013337 0.948450
O O7 0.693558 0.016623 0.068655
O O8 0.576119 0.033515 0.093018
O O9 0.573568 0.750000 0.286994
O O10 0.624229 0.554012 0.381340
O O11 0.565867 0.485318 0.247691
O O12 0.131998 0.750000 0.810840
O O13 0.211523 0.542026 0.831343
O O14 0.148750 0.566840 0.693271
O O15 0.249402 0.750000 0.923269
O O16 0.193799 0.534102 0.989005
O O17 0.616919 0.750000 0.494988
O O18 0.457634 0.750000 0.817131
O O19 0.532599 0.536345 0.844666
O O20 0.095274 0.750000 0.594191
#
# Coordination Sequence:
#
# PCOD8250222 Si02
#       8
#     8   8   8   8   8   8   8   8
#     4  10  18  28  47  78 109 133 169 219 263 302
#     4  10  21  37  56  78 104 136 176 222 265 305
#     4  10  20  32  49  76 108 138 173 214 259 312
#     4   9  17  33  56  76 102 142 176 206 254 319
#     4   8  16  34  56  74  99 139 179 208 249 311
#     4   9  18  33  52  73 102 145 181 206 252 320
#     4  10  21  36  54  78 106 136 173 217 267 318
#     4  10  20  35  56  81 105 134 175 215 262 319
#
# _framework density 18.546334000000002
#
# number of rings (size 3 to 8) (size 9 to 14) (size 15 to 20)
#    0.000    2.500    1.250    1.875    0.000    2.500 
#    2.250    2.500    0.000    0.000    0.000    0.000 
#    0.000    0.000    0.000    0.000    0.000    0.000 
#
# Total GULP energy -793335.678396 kJ/mol
# GULP energy per Si atom -12395.869975 kJ/mol
# Density = 1.850412 g / cm^3
# Si number density = 18.546334 Si / 1000 Ang^3
#
#
#
# Elastic Constant Matrix: (Units=GPa)
#
#
# Indices 1 2 3 4 5 6 
#
# 1 82.7515 23.9485 57.3308 0.0000 0.0000 0.0000
# 2 23.9485 52.1747 42.7868 0.0000 0.0000 0.0000
# 3 57.3308 42.7868 137.4476 0.0000 0.0000 0.0000
# 4 0.0000 0.0000 0.0000 35.9616 0.0000 0.0000
# 5 0.0000 0.0000 0.0000 0.0000 18.8089 0.0000
# 6 0.0000 0.0000 0.0000 0.0000 0.0000 11.6051
#
#
#
# Elastic Compliance Matrix: (Units=1/GPa)
#
#
# Indices 1 2 3 4 5 6 
#
# 1 0.017277 -0.002713 -0.006362 0.000000 0.000000 0.000000
# 2 -0.002713 0.026163 -0.007013 0.000000 0.000000 0.000000
# 3 -0.006362 -0.007013 0.012112 0.000000 0.000000 0.000000
# 4 0.000000 0.000000 0.000000 0.027807 0.000000 0.000000
# 5 0.000000 0.000000 0.000000 0.000000 0.053166 0.000000
# 6 0.000000 0.000000 0.000000 0.000000 0.000000 0.086169
#
#
# Mechanical properties :
#
#
# Convention : Reuss Voigt Hill
#
# Bulk Modulus (GPa) = 42.77798 57.83399 50.30599
# Shear Modulus (GPa) = 19.03590 23.16230 21.09910
#
# Velocity S-wave (km/s) = 3.20722 3.53779 3.37655
# Velocity P-wave (km/s) = 6.06882 6.92381 6.51037
#
# Compressibility (1/GPa) = 0.02337651
#
# Stress axis : x y z
#
# Youngs Moduli (GPa) = 57.88003 38.22264 82.56212
#
# Poissons Ratio (x) = 0.10370 0.52525
# Poissons Ratio (y) = 0.15704 0.57897
# Poissons Ratio (z) = 0.36823 0.26804
#
# Static dielectric constant tensor:
#      x y z
#    x 3.558600 0.000000 0.000000 
#    y 0.000000 3.258030 0.000000 
#    z 0.000000 0.000000 3.399230 
# 
# 
# High freq. dielectric constant tensor:
#      x y z
#    x 1.707290 0.000000 0.000000 
#    y 0.000000 1.702520 0.000000 
#    z 0.000000 0.000000 1.721350 
# 
# From -- ./inp_files/20958.got.cif
#   From: 2010.03.12/outbox.cif.g09.slc.cpg/sg62_11_cif.got.tgz:20958.got - 2010.04.10 19:12:36.
