data_PCOD8250860
_publ_section_title
;
Structure prediction by ZEFSAII (Michael W. Deem and Ramdas Pophale) SiO2 
 PCOD8250860
Probable space group: P N M A
;
_chemical_formula_sum "Si O2"
_cell_formula_units_Z 64
_cell_length_a 14.539588
_cell_length_b 9.371596
_cell_length_c 25.460099
_cell_angle_alpha 90.000000
_cell_angle_beta 90.000000
_cell_angle_gamma 90.000000
_cell_volume 3469.171315
_symmetry_space_group_name_H-M "P N M A"
_symmetry_group_IT_number 62
_symmetry_cell_setting 'orthorhombic'
loop_
_space_group_symop_operation_xyz
x,y,z
1/2-x,-y,1/2+z
1/2+x,1/2-y,1/2-z
-x,1/2+y,-z
-x,-y,-z
1/2+x,y,1/2-z
1/2-x,1/2+y,1/2+z
x,1/2-y,z
loop_
_atom_site_type_symbol
_atom_site_label
_atom_site_fract_x
_atom_site_fract_y
_atom_site_fract_z
Si Si1 0.669947 0.085344 0.429091
Si Si2 0.608781 0.416762 0.209024
Si Si3 0.601876 0.406194 0.667586
Si Si4 0.099774 0.589189 0.732472
Si Si5 0.466090 0.090360 0.418356
Si Si6 0.709437 0.086130 0.313712
Si Si7 0.222345 0.582220 0.974767
Si Si8 0.201983 0.910587 0.383312
O O1 0.703877 0.250000 0.432058
O O2 0.563525 0.074177 0.447644
O O3 0.679784 0.021460 0.369943
O O4 0.731538 0.988941 0.467782
O O5 0.634862 0.250000 0.201165
O O6 0.499579 0.441423 0.208286
O O7 0.654090 0.478050 0.263240
O O8 0.642902 0.507509 0.159937
O O9 0.561285 0.250000 0.679291
O O10 0.623313 0.483281 0.721281
O O11 0.528378 0.491260 0.633008
O O12 0.694709 0.395987 0.635404
O O13 0.104507 0.750000 0.754617
O O14 0.180460 0.564409 0.690130
O O15 0.453012 0.250000 0.396660
O O16 0.382345 0.052770 0.456695
O O17 0.680280 0.250000 0.314707
O O18 0.245517 0.750000 0.977397
O O19 0.295951 0.504351 0.936700
O O20 0.162358 0.750000 0.393323
#
# Coordination Sequence:
#
# PCOD8250860 Si02
#       8
#     8   8   8   8   8   8   8   8
#     4  10  19  33  51  73 104 140 176 213 259 314
#     4  10  19  33  55  79 102 135 176 215 257 308
#     4  10  19  30  47  73 104 136 170 210 256 304
#     4  10  19  32  52  75 103 139 176 211 255 313
#     4   9  18  31  49  72 102 139 176 213 256 312
#     4   9  18  32  51  76 106 138 171 208 253 309
#     4  10  20  33  51  75 102 137 177 219 263 309
#     4  10  20  34  52  75 103 135 171 214 261 307
#
# _framework density 18.44821
#
# number of rings (size 3 to 8) (size 9 to 14) (size 15 to 20)
#    0.000    2.250    1.250    2.250    0.000    4.500 
#    0.000    1.250    0.000    0.750    0.000    0.000 
#    0.000    0.000    0.000    0.000    0.000    0.000 
#
# Total GULP energy -793306.680112 kJ/mol
# GULP energy per Si atom -12395.416877 kJ/mol
# Density = 1.840622 g / cm^3
# Si number density = 18.448210 Si / 1000 Ang^3
#
#
#
# Elastic Constant Matrix: (Units=GPa)
#
#
# Indices 1 2 3 4 5 6 
#
# 1 63.9349 18.8828 27.9479 0.0000 0.0000 0.0000
# 2 18.8828 88.6545 38.8442 0.0000 0.0000 0.0000
# 3 27.9479 38.8442 82.5390 0.0000 0.0000 0.0000
# 4 0.0000 0.0000 0.0000 21.9624 0.0000 0.0000
# 5 0.0000 0.0000 0.0000 0.0000 17.6627 0.0000
# 6 0.0000 0.0000 0.0000 0.0000 0.0000 13.1289
#
#
#
# Elastic Compliance Matrix: (Units=1/GPa)
#
#
# Indices 1 2 3 4 5 6 
#
# 1 0.018517 -0.001508 -0.005560 0.000000 0.000000 0.000000
# 2 -0.001508 0.014333 -0.006235 0.000000 0.000000 0.000000
# 3 -0.005560 -0.006235 0.016932 0.000000 0.000000 0.000000
# 4 0.000000 0.000000 0.000000 0.045532 0.000000 0.000000
# 5 0.000000 0.000000 0.000000 0.000000 0.056616 0.000000
# 6 0.000000 0.000000 0.000000 0.000000 0.000000 0.076168
#
#
# Mechanical properties :
#
#
# Convention : Reuss Voigt Hill
#
# Bulk Modulus (GPa) = 43.14723 45.16426 44.15575
# Shear Modulus (GPa) = 19.05276 20.51436 19.78356
#
# Velocity S-wave (km/s) = 3.21716 3.33828 3.27828
# Velocity P-wave (km/s) = 6.10240 6.27643 6.19003
#
# Compressibility (1/GPa) = 0.02317646
#
# Stress axis : x y z
#
# Youngs Moduli (GPa) = 54.00506 69.77102 59.05860
#
# Poissons Ratio (x) = 0.10519 0.32838
# Poissons Ratio (y) = 0.08142 0.36821
# Poissons Ratio (z) = 0.30028 0.43500
#
# Static dielectric constant tensor:
#      x y z
#    x 3.209230 0.000000 0.000000 
#    y 0.000000 3.488230 0.000000 
#    z 0.000000 0.000000 3.350960 
# 
# 
# High freq. dielectric constant tensor:
#      x y z
#    x 1.687950 0.000000 0.000000 
#    y 0.000000 1.707750 0.000000 
#    z 0.000000 0.000000 1.707590 
# 
# From -- ./inp_files/29763.got.cif
#   From: 2010.03.12/outbox.cif.g09.slc.cpg/sg62_15_cif.got.tgz:29763.got - 2010.04.10 19:12:36.
