data_PCOD8250157
_publ_section_title
;
Structure prediction by ZEFSAII (Michael W. Deem and Ramdas Pophale) SiO2 
 PCOD8250157
Probable space group: P N M A
;
_chemical_formula_sum "Si O2"
_cell_formula_units_Z 64
_cell_length_a 25.605638
_cell_length_b 8.956007
_cell_length_c 18.399828
_cell_angle_alpha 90.000000
_cell_angle_beta 90.000000
_cell_angle_gamma 90.000000
_cell_volume 4219.527183
_symmetry_space_group_name_H-M "P N M A"
_symmetry_group_IT_number 62
_symmetry_cell_setting 'orthorhombic'
loop_
_space_group_symop_operation_xyz
x,y,z
1/2-x,-y,1/2+z
1/2+x,1/2-y,1/2-z
-x,1/2+y,-z
-x,-y,-z
1/2+x,y,1/2-z
1/2-x,1/2+y,1/2+z
x,1/2-y,z
loop_
_atom_site_type_symbol
_atom_site_label
_atom_site_fract_x
_atom_site_fract_y
_atom_site_fract_z
Si Si1 0.060663 0.422932 0.927760
Si Si2 0.760428 0.074427 0.918689
Si Si3 0.304989 0.915247 0.211775
Si Si4 0.856865 0.076768 0.166220
Si Si5 0.304009 0.416919 0.794488
Si Si6 0.249010 0.923734 0.916095
Si Si7 0.353548 0.573008 0.665683
Si Si8 0.560505 0.923069 0.422576
O O1 0.072650 0.250000 0.942738
O O2 0.093863 0.481575 0.859927
O O3 0.000456 0.448908 0.908066
O O4 0.076971 0.515837 0.998621
O O5 0.774229 0.250000 0.913129
O O6 0.708388 0.037424 0.871211
O O7 0.809944 0.983209 0.890530
O O8 0.748519 0.024826 0.000586
O O9 0.330235 0.750000 0.214464
O O10 0.250077 0.914340 0.252273
O O11 0.344117 0.030878 0.250423
O O12 0.871178 0.250000 0.164099
O O13 0.808032 0.036705 0.114934
O O14 0.326179 0.250000 0.804845
O O15 0.294676 0.489865 0.873345
O O16 0.344791 0.512802 0.747358
O O17 0.260553 0.750000 0.906697
O O18 0.353133 0.750000 0.667486
O O19 0.409535 0.513586 0.639568
O O20 0.576290 0.750000 0.419482
#
# Coordination Sequence:
#
# PCOD8250157 Si02
#       8
#     8   8   8   8   8   8   8   8
#     4  10  20  32  46  63  83 109 142 178 212 249
#     4   9  17  29  44  62  87 116 143 175 212 249
#     4   8  15  27  41  57  80 111 144 175 207 246
#     4  10  18  27  42  61  84 114 143 175 212 249
#     4   9  17  29  43  59  82 111 141 174 210 246
#     4   9  17  28  42  62  86 112 142 173 208 248
#     4  11  20  29  44  63  84 112 145 177 209 250
#     4  10  20  33  46  61  84 111 140 176 214 249
#
# _framework density 15.167576
#
# number of rings (size 3 to 8) (size 9 to 14) (size 15 to 20)
#    0.000    2.500    0.000    4.125    0.000    6.500 
#    0.000    0.000    0.000    0.000    0.000    0.000 
#    0.000    1.000    0.000    3.000    0.000    4.000 
#
# Total GULP energy -793594.570015 kJ/mol
# GULP energy per Si atom -12399.915156 kJ/mol
# Density = 1.513305 g / cm^3
# Si number density = 15.167576 Si / 1000 Ang^3
#
#
#
# Elastic Constant Matrix: (Units=GPa)
#
#
# Indices 1 2 3 4 5 6 
#
# 1 52.2559 38.9646 39.3837 0.0000 0.0000 0.0000
# 2 38.9646 94.7875 45.2708 0.0000 0.0000 0.0000
# 3 39.3837 45.2708 102.6815 0.0000 0.0000 0.0000
# 4 0.0000 0.0000 0.0000 26.0123 0.0000 0.0000
# 5 0.0000 0.0000 0.0000 0.0000 24.2992 0.0000
# 6 0.0000 0.0000 0.0000 0.0000 0.0000 21.8714
#
#
#
# Elastic Compliance Matrix: (Units=1/GPa)
#
#
# Indices 1 2 3 4 5 6 
#
# 1 0.032347 -0.009338 -0.008290 0.000000 0.000000 0.000000
# 2 -0.009338 0.016059 -0.003499 0.000000 0.000000 0.000000
# 3 -0.008290 -0.003499 0.014461 0.000000 0.000000 0.000000
# 4 0.000000 0.000000 0.000000 0.038443 0.000000 0.000000
# 5 0.000000 0.000000 0.000000 0.000000 0.041154 0.000000
# 6 0.000000 0.000000 0.000000 0.000000 0.000000 0.045722
#
#
# Mechanical properties :
#
#
# Convention : Reuss Voigt Hill
#
# Bulk Modulus (GPa) = 48.50931 55.21811 51.86371
# Shear Modulus (GPa) = 21.06937 22.84363 21.95650
#
# Velocity S-wave (km/s) = 3.73111 3.88504 3.80885
# Velocity P-wave (km/s) = 7.11430 7.52390 7.32197
#
# Compressibility (1/GPa) = 0.02061460
#
# Stress axis : x y z
#
# Youngs Moduli (GPa) = 30.91458 62.26849 69.15101
#
# Poissons Ratio (x) = 0.58145 0.57326
# Poissons Ratio (y) = 0.28867 0.24195
# Poissons Ratio (z) = 0.25628 0.21787
#
# Static dielectric constant tensor:
#      x y z
#    x 2.673060 0.000000 0.000000 
#    y 0.000000 3.031980 0.000000 
#    z 0.000000 0.000000 3.056180 
# 
# 
# High freq. dielectric constant tensor:
#      x y z
#    x 1.542440 0.000000 0.000000 
#    y 0.000000 1.594220 0.000000 
#    z 0.000000 0.000000 1.571670 
# 
# From -- ./inp_files/24782.got.cif
#   From: 2010.03.12/outbox.cif.g09.slc.cpg/sg62_13_cif.got.tgz:24782.got - 2010.04.10 19:12:36.
