data_PCOD8250906
_publ_section_title
;
Structure prediction by ZEFSAII (Michael W. Deem and Ramdas Pophale) SiO2 
 PCOD8250906
Probable space group: P N M A
;
_chemical_formula_sum "Si O2"
_cell_formula_units_Z 64
_cell_length_a 20.807786
_cell_length_b 8.982473
_cell_length_c 19.559814
_cell_angle_alpha 90.000000
_cell_angle_beta 90.000000
_cell_angle_gamma 90.000000
_cell_volume 3655.834389
_symmetry_space_group_name_H-M "P N M A"
_symmetry_group_IT_number 62
_symmetry_cell_setting 'orthorhombic'
loop_
_space_group_symop_operation_xyz
x,y,z
1/2-x,-y,1/2+z
1/2+x,1/2-y,1/2-z
-x,1/2+y,-z
-x,-y,-z
1/2+x,y,1/2-z
1/2-x,1/2+y,1/2+z
x,1/2-y,z
loop_
_atom_site_type_symbol
_atom_site_label
_atom_site_fract_x
_atom_site_fract_y
_atom_site_fract_z
Si Si1 0.685566 0.426185 0.709474
Si Si2 0.939324 0.923604 0.287206
Si Si3 0.312090 0.072987 0.711760
Si Si4 0.736990 0.075033 0.569748
Si Si5 0.264402 0.925984 0.582251
Si Si6 0.868667 0.919458 0.573521
Si Si7 0.929594 0.923335 0.712102
Si Si8 0.868824 0.579231 0.421549
O O1 0.685587 0.250000 0.716929
O O2 0.620240 0.487833 0.742818
O O3 0.748358 0.486435 0.749321
O O4 0.688139 0.476781 0.629677
O O5 0.951446 0.750000 0.272502
O O6 0.924863 0.952824 0.367260
O O7 0.001702 0.014562 0.264780
O O8 0.316267 0.250000 0.710821
O O9 0.310801 0.010955 0.634507
O O10 0.374721 0.009459 0.747725
O O11 0.743546 0.250000 0.570070
O O12 0.714373 0.022431 0.494497
O O13 0.807116 0.018076 0.589207
O O14 0.271093 0.750000 0.592545
O O15 0.190841 0.972698 0.594629
O O16 0.845223 0.750000 0.578477
O O17 0.922244 0.953160 0.630653
O O18 0.896584 0.952693 0.497592
O O19 0.925375 0.750000 0.730332
O O20 0.844760 0.750000 0.413895
#
# Coordination Sequence:
#
# PCOD8250906 Si02
#       8
#     8   8   8   8   8   8   8   8
#     4   9  17  32  55  79 100 130 177 218 253 301
#     4  10  20  35  53  74 101 140 182 218 254 307
#     4  11  20  35  58  78 101 139 180 218 256 310
#     4   9  17  31  52  78 106 134 168 212 259 310
#     4  10  19  30  50  81 111 134 163 213 269 309
#     4   9  18  31  48  72 106 141 173 212 254 302
#     4  11  23  36  49  75 110 141 174 220 270 312
#     4   9  17  32  51  73 103 142 182 211 245 304
#
# _framework density 17.506264000000002
#
# number of rings (size 3 to 8) (size 9 to 14) (size 15 to 20)
#    0.000    2.250    2.500    1.125    0.000    2.000 
#    0.000    0.625    0.000    0.750    0.000    0.000 
#    0.000    0.000    0.000    0.000    0.000    0.000 
#
# Total GULP energy -793410.343913 kJ/mol
# GULP energy per Si atom -12397.036624 kJ/mol
# Density = 1.746642 g / cm^3
# Si number density = 17.506264 Si / 1000 Ang^3
#
#
#
# Elastic Constant Matrix: (Units=GPa)
#
#
# Indices 1 2 3 4 5 6 
#
# 1 110.6168 34.6738 63.2319 0.0000 0.0000 0.0000
# 2 34.6738 50.7555 40.5243 0.0000 0.0000 0.0000
# 3 63.2319 40.5243 109.9690 0.0000 0.0000 0.0000
# 4 0.0000 0.0000 0.0000 23.1014 0.0000 0.0000
# 5 0.0000 0.0000 0.0000 0.0000 23.4657 0.0000
# 6 0.0000 0.0000 0.0000 0.0000 0.0000 25.2176
#
#
#
# Elastic Compliance Matrix: (Units=1/GPa)
#
#
# Indices 1 2 3 4 5 6 
#
# 1 0.014155 -0.004494 -0.006483 0.000000 0.000000 0.000000
# 2 -0.004494 0.029342 -0.008229 0.000000 0.000000 0.000000
# 3 -0.006483 -0.008229 0.015854 0.000000 0.000000 0.000000
# 4 0.000000 0.000000 0.000000 0.043287 0.000000 0.000000
# 5 0.000000 0.000000 0.000000 0.000000 0.042615 0.000000
# 6 0.000000 0.000000 0.000000 0.000000 0.000000 0.039655
#
#
# Mechanical properties :
#
#
# Convention : Reuss Voigt Hill
#
# Bulk Modulus (GPa) = 47.75691 60.91127 54.33409
# Shear Modulus (GPa) = 21.71085 23.21767 22.46426
#
# Velocity S-wave (km/s) = 3.52543 3.64572 3.58608
# Velocity P-wave (km/s) = 6.62651 7.25198 6.94629
#
# Compressibility (1/GPa) = 0.02093938
#
# Stress axis : x y z
#
# Youngs Moduli (GPa) = 70.64819 34.08033 63.07712
#
# Poissons Ratio (x) = 0.15315 0.40893
# Poissons Ratio (y) = 0.31747 0.51906
# Poissons Ratio (z) = 0.45801 0.28045
#
# Static dielectric constant tensor:
#      x y z
#    x 2.990320 0.000000 0.000000 
#    y 0.000000 3.173790 0.000000 
#    z 0.000000 0.000000 3.757530 
# 
# 
# High freq. dielectric constant tensor:
#      x y z
#    x 1.643860 0.000000 0.000000 
#    y 0.000000 1.669080 0.000000 
#    z 0.000000 0.000000 1.687650 
# 
# From -- ./inp_files/27624.got.cif
#   From: 2010.03.12/outbox.cif.g09.slc.cpg/sg62_14_cif.got.tgz:27624.got - 2010.04.10 19:12:36.
