data_PCOD8250267
_publ_section_title
;
Structure prediction by ZEFSAII (Michael W. Deem and Ramdas Pophale) SiO2 
 PCOD8250267
Probable space group: P N M A
;
_chemical_formula_sum "Si O2"
_cell_formula_units_Z 56
_cell_length_a 18.861722
_cell_length_b 9.167124
_cell_length_c 17.927886
_cell_angle_alpha 90.000000
_cell_angle_beta 90.000000
_cell_angle_gamma 90.000000
_cell_volume 3099.870331
_symmetry_space_group_name_H-M "P N M A"
_symmetry_group_IT_number 62
_symmetry_cell_setting 'orthorhombic'
loop_
_space_group_symop_operation_xyz
x,y,z
1/2-x,-y,1/2+z
1/2+x,1/2-y,1/2-z
-x,1/2+y,-z
-x,-y,-z
1/2+x,y,1/2-z
1/2-x,1/2+y,1/2+z
x,1/2-y,z
loop_
_atom_site_type_symbol
_atom_site_label
_atom_site_fract_x
_atom_site_fract_y
_atom_site_fract_z
Si Si1 0.686589 0.921835 0.807565
Si Si2 0.577499 0.914126 0.079150
Si Si3 0.426127 0.923268 0.481671
Si Si4 0.348109 0.086658 0.353645
Si Si5 0.212065 0.079102 0.069734
Si Si6 0.291610 0.588546 0.945990
Si Si7 0.944435 0.414399 0.403524
O O1 0.685372 0.750000 0.796396
O O2 0.668623 0.989216 0.726491
O O3 0.763718 0.963386 0.845135
O O4 0.625247 0.975332 0.863224
O O5 0.586814 0.750000 0.108371
O O6 0.646791 0.006707 0.099483
O O7 0.510057 0.984267 0.120484
O O8 0.567728 0.921305 0.991013
O O9 0.437122 0.750000 0.476265
O O10 0.368817 0.963705 0.547293
O O11 0.500000 0.000000 0.500000
O O12 0.399348 0.982582 0.401848
O O13 0.382413 0.250000 0.347431
O O14 0.272780 0.102423 0.390644
O O15 0.223273 0.250000 0.055807
O O16 0.269158 0.000264 0.018395
O O17 0.317767 0.750000 0.970180
O O18 0.961543 0.250000 0.377768
#
# Coordination Sequence:
#
# PCOD8250267 Si02
#       7
#     8   8   8   8   8   8   8
#     4   9  16  32  54  75  99 129 170 215 258 311
#     4  10  18  29  46  69  98 130 165 204 244 295
#     4  10  20  35  57  80 107 139 179 225 264 315
#     4   9  19  34  54  77 102 131 167 215 266 311
#     4   9  17  32  54  77  97 129 172 214 260 306
#     4  10  18  29  47  73 101 129 164 206 249 300
#     4   9  17  29  47  70  96 128 164 205 246 293
#
# _framework density 18.065272
#
# number of rings (size 3 to 8) (size 9 to 14) (size 15 to 20)
#    0.000    2.571    1.429    1.286    0.000    1.714 
#    0.000    2.857    0.000    5.143    0.000    0.000 
#    0.000    0.000    0.000    0.000    0.000    0.000 
#
# Total GULP energy -693898.192912 kJ/mol
# GULP energy per Si atom -12391.039159 kJ/mol
# Density = 1.802415 g / cm^3
# Si number density = 18.065272 Si / 1000 Ang^3
#
#
#
# Elastic Constant Matrix: (Units=GPa)
#
#
# Indices 1 2 3 4 5 6 
#
# 1 113.9923 49.3533 45.7213 0.0000 0.0000 0.0000
# 2 49.3533 78.8016 24.2677 0.0000 0.0000 0.0000
# 3 45.7213 24.2677 94.4168 0.0000 0.0000 0.0000
# 4 0.0000 0.0000 0.0000 17.2324 0.0000 0.0000
# 5 0.0000 0.0000 0.0000 0.0000 15.1970 0.0000
# 6 0.0000 0.0000 0.0000 0.0000 0.0000 30.8298
#
#
#
# Elastic Compliance Matrix: (Units=1/GPa)
#
#
# Indices 1 2 3 4 5 6 
#
# 1 0.013818 -0.007161 -0.004851 0.000000 0.000000 0.000000
# 2 -0.007161 0.017491 -0.001028 0.000000 0.000000 0.000000
# 3 -0.004851 -0.001028 0.013205 0.000000 0.000000 0.000000
# 4 0.000000 0.000000 0.000000 0.058030 0.000000 0.000000
# 5 0.000000 0.000000 0.000000 0.000000 0.065802 0.000000
# 6 0.000000 0.000000 0.000000 0.000000 0.000000 0.032436
#
#
# Mechanical properties :
#
#
# Convention : Reuss Voigt Hill
#
# Bulk Modulus (GPa) = 54.24534 58.43279 56.33907
# Shear Modulus (GPa) = 21.45848 23.84307 22.65078
#
# Velocity S-wave (km/s) = 3.45023 3.63689 3.54479
# Velocity P-wave (km/s) = 6.77973 7.07471 6.92879
#
# Compressibility (1/GPa) = 0.01843476
#
# Stress axis : x y z
#
# Youngs Moduli (GPa) = 72.36712 57.17101 75.73015
#
# Poissons Ratio (x) = 0.40937 0.36738
# Poissons Ratio (y) = 0.51819 0.07787
# Poissons Ratio (z) = 0.35106 0.05879
#
# Static dielectric constant tensor:
#      x y z
#    x 3.446700 0.000000 0.000000 
#    y 0.000000 3.453480 0.000000 
#    z 0.000000 0.000000 3.313230 
# 
# 
# High freq. dielectric constant tensor:
#      x y z
#    x 1.701660 0.000000 0.000000 
#    y 0.000000 1.691900 0.000000 
#    z 0.000000 0.000000 1.670000 
# 
# From -- ./inp_files/24561.got.cif
#   From: 2010.03.12/outbox.cif.g09.slc.cpg/sg62_13_cif.got.tgz:24561.got - 2010.04.10 19:12:36.
