data_PCOD8250370
_publ_section_title
;
Structure prediction by ZEFSAII (Michael W. Deem and Ramdas Pophale) SiO2 
 PCOD8250370
Probable space group: P N M A
;
_chemical_formula_sum "Si O2"
_cell_formula_units_Z 48
_cell_length_a 14.769487
_cell_length_b 9.193111
_cell_length_c 20.328234
_cell_angle_alpha 90.000000
_cell_angle_beta 90.000000
_cell_angle_gamma 90.000000
_cell_volume 2760.117471
_symmetry_space_group_name_H-M "P N M A"
_symmetry_group_IT_number 62
_symmetry_cell_setting 'orthorhombic'
loop_
_space_group_symop_operation_xyz
x,y,z
1/2-x,-y,1/2+z
1/2+x,1/2-y,1/2-z
-x,1/2+y,-z
-x,-y,-z
1/2+x,y,1/2-z
1/2-x,1/2+y,1/2+z
x,1/2-y,z
loop_
_atom_site_type_symbol
_atom_site_label
_atom_site_fract_x
_atom_site_fract_y
_atom_site_fract_z
Si Si1 0.604210 0.422219 0.179365
Si Si2 0.997797 0.421329 0.194901
Si Si3 0.725574 0.415391 0.526789
Si Si4 0.558388 0.418808 0.445846
Si Si5 0.927818 0.078409 0.545062
Si Si6 0.305371 0.081248 0.344333
O O1 0.588876 0.250000 0.168046
O O2 0.551249 0.485200 0.242591
O O3 0.566250 0.509625 0.117354
O O4 0.710614 0.458934 0.190579
O O5 0.012501 0.250000 0.196054
O O6 0.039303 0.483539 0.126766
O O7 0.891276 0.464027 0.200790
O O8 0.720161 0.250000 0.550957
O O9 0.665338 0.440794 0.461517
O O10 0.829871 0.456203 0.512823
O O11 0.683217 0.507950 0.585272
O O12 0.500000 0.500000 0.500000
O O13 0.530795 0.250000 0.448512
O O14 0.947720 0.250000 0.548857
O O15 0.000000 0.000000 0.500000
O O16 0.310170 0.250000 0.359869
#
# Coordination Sequence:
#
# PCOD8250370 Si02
#       6
#     8   8   8   8   8   8
#     4   9  18  33  51  73  99 132 170 208 250 299
#     4   9  17  30  48  73 101 129 166 208 247 295
#     4   9  18  31  49  74 100 129 164 206 253 298
#     4  10  18  30  49  75 103 130 163 205 251 301
#     4  10  20  36  55  76 100 131 170 211 254 304
#     4   9  16  29  50  71  93 130 169 203 246 296
#
# _framework density 17.390564999999999
#
# number of rings (size 3 to 8) (size 9 to 14) (size 15 to 20)
#    0.000    2.667    1.667    0.500    0.000    0.667 
#    3.000    1.667    0.000    0.000    0.000    0.000 
#    0.000    0.000    0.000    0.000    0.000    0.000 
#
# Total GULP energy -594980.304375 kJ/mol
# GULP energy per Si atom -12395.423008 kJ/mol
# Density = 1.735098 g / cm^3
# Si number density = 17.390565 Si / 1000 Ang^3
#
#
#
# Elastic Constant Matrix: (Units=GPa)
#
#
# Indices 1 2 3 4 5 6 
#
# 1 137.7291 39.3069 95.0650 0.0000 0.0000 0.0000
# 2 39.3069 43.4062 41.8251 0.0000 0.0000 0.0000
# 3 95.0650 41.8251 135.3492 0.0000 0.0000 0.0000
# 4 0.0000 0.0000 0.0000 23.2536 0.0000 0.0000
# 5 0.0000 0.0000 0.0000 0.0000 34.5644 0.0000
# 6 0.0000 0.0000 0.0000 0.0000 0.0000 19.9285
#
#
#
# Elastic Compliance Matrix: (Units=1/GPa)
#
#
# Indices 1 2 3 4 5 6 
#
# 1 0.014766 -0.004810 -0.008885 0.000000 0.000000 0.000000
# 2 -0.004810 0.034374 -0.007243 0.000000 0.000000 0.000000
# 3 -0.008885 -0.007243 0.015867 0.000000 0.000000 0.000000
# 4 0.000000 0.000000 0.000000 0.043004 0.000000 0.000000
# 5 0.000000 0.000000 0.000000 0.000000 0.028932 0.000000
# 6 0.000000 0.000000 0.000000 0.000000 0.000000 0.050180
#
#
# Mechanical properties :
#
#
# Convention : Reuss Voigt Hill
#
# Bulk Modulus (GPa) = 43.23426 74.31981 58.77704
# Shear Modulus (GPa) = 21.12301 24.90179 23.01240
#
# Velocity S-wave (km/s) = 3.48893 3.78817 3.64162
# Velocity P-wave (km/s) = 6.41443 7.87160 7.18008
#
# Compressibility (1/GPa) = 0.02312981
#
# Stress axis : x y z
#
# Youngs Moduli (GPa) = 67.72337 29.09189 63.02424
#
# Poissons Ratio (x) = 0.13994 0.55995
# Poissons Ratio (y) = 0.32578 0.45651
# Poissons Ratio (z) = 0.60170 0.21072
#
# Static dielectric constant tensor:
#      x y z
#    x 3.607940 0.000000 0.000000 
#    y 0.000000 3.118520 0.000000 
#    z 0.000000 0.000000 3.297240 
# 
# 
# High freq. dielectric constant tensor:
#      x y z
#    x 1.685670 0.000000 0.000000 
#    y 0.000000 1.654170 0.000000 
#    z 0.000000 0.000000 1.654190 
# 
# From -- ./inp_files/23861.got.cif
#   From: 2010.03.12/outbox.cif.g09.slc.cpg/sg62_12_cif.got.tgz:23861.got - 2010.04.10 19:12:36.
