data_PCOD8250351
_publ_section_title
;
Structure prediction by ZEFSAII (Michael W. Deem and Ramdas Pophale) SiO2 
 PCOD8250351
Probable space group: P N M A
;
_chemical_formula_sum "Si O2"
_cell_formula_units_Z 64
_cell_length_a 20.086297
_cell_length_b 9.324408
_cell_length_c 19.656893
_cell_angle_alpha 90.000000
_cell_angle_beta 90.000000
_cell_angle_gamma 90.000000
_cell_volume 3681.595088
_symmetry_space_group_name_H-M "P N M A"
_symmetry_group_IT_number 62
_symmetry_cell_setting 'orthorhombic'
loop_
_space_group_symop_operation_xyz
x,y,z
1/2-x,-y,1/2+z
1/2+x,1/2-y,1/2-z
-x,1/2+y,-z
-x,-y,-z
1/2+x,y,1/2-z
1/2-x,1/2+y,1/2+z
x,1/2-y,z
loop_
_atom_site_type_symbol
_atom_site_label
_atom_site_fract_x
_atom_site_fract_y
_atom_site_fract_z
Si Si1 0.449462 0.417875 0.548620
Si Si2 0.721794 0.091332 0.180011
Si Si3 0.672742 0.082863 0.502515
Si Si4 0.345165 0.915151 0.338789
Si Si5 0.508405 0.415352 0.696600
Si Si6 0.056129 0.081731 0.459612
Si Si7 0.424053 0.579755 0.806037
Si Si8 0.796807 0.909030 0.519430
O O1 0.500000 0.500000 0.500000
O O2 0.447131 0.250000 0.528260
O O3 0.377345 0.490291 0.542959
O O4 0.472040 0.438520 0.625499
O O5 0.735837 0.250000 0.208828
O O6 0.652193 0.030800 0.210455
O O7 0.784981 0.994737 0.199874
O O8 0.713439 0.097379 0.099618
O O9 0.668407 0.250000 0.482913
O O10 0.654065 0.056071 0.580781
O O11 0.746969 0.024980 0.486416
O O12 0.333850 0.750000 0.323450
O O13 0.415356 0.968566 0.309127
O O14 0.505598 0.250000 0.718532
O O15 0.473822 0.509267 0.753478
O O16 0.042281 0.250000 0.463579
O O17 0.055401 0.029420 0.381495
O O18 0.127102 0.044777 0.494772
O O19 0.000000 0.000000 0.500000
O O20 0.428592 0.750000 0.800114
O O21 0.782613 0.750000 0.489194
#
# Coordination Sequence:
#
# PCOD8250351 Si02
#       8
#     8   8   8   8   8   8   8   8
#     4  11  21  34  50  72 104 139 175 214 252 297
#     4   8  15  29  49  72  96 123 162 206 247 294
#     4  10  18  30  48  73 103 132 168 213 252 294
#     4   9  17  30  47  72 102 128 163 210 249 290
#     4  10  21  35  50  73 105 136 170 211 254 303
#     4   9  18  33  55  81 108 132 166 212 259 310
#     4   9  19  35  53  76 104 132 167 212 254 304
#     4   8  15  29  48  73 101 131 163 203 252 300
#
# _framework density 17.383770999999999
#
# number of rings (size 3 to 8) (size 9 to 14) (size 15 to 20)
#    0.000    2.750    1.250    2.250    0.000    3.500 
#    0.000    2.500    2.750    0.000    0.000    0.000 
#    0.000    0.000    0.000    0.000    0.000    0.000 
#
# Total GULP energy -793379.001838 kJ/mol
# GULP energy per Si atom -12396.546904 kJ/mol
# Density = 1.734420 g / cm^3
# Si number density = 17.383771 Si / 1000 Ang^3
#
#
#
# Elastic Constant Matrix: (Units=GPa)
#
#
# Indices 1 2 3 4 5 6 
#
# 1 173.3402 77.3590 52.0210 0.0000 0.0000 0.0000
# 2 77.3590 85.8523 38.6787 0.0000 0.0000 0.0000
# 3 52.0210 38.6787 49.7742 0.0000 0.0000 0.0000
# 4 0.0000 0.0000 0.0000 25.5823 0.0000 0.0000
# 5 0.0000 0.0000 0.0000 0.0000 25.4991 0.0000
# 6 0.0000 0.0000 0.0000 0.0000 0.0000 38.7442
#
#
#
# Elastic Compliance Matrix: (Units=1/GPa)
#
#
# Indices 1 2 3 4 5 6 
#
# 1 0.010580 -0.007003 -0.005615 0.000000 0.000000 0.000000
# 2 -0.007003 0.022558 -0.010210 0.000000 0.000000 0.000000
# 3 -0.005615 -0.010210 0.033894 0.000000 0.000000 0.000000
# 4 0.000000 0.000000 0.000000 0.039090 0.000000 0.000000
# 5 0.000000 0.000000 0.000000 0.000000 0.039217 0.000000
# 6 0.000000 0.000000 0.000000 0.000000 0.000000 0.025810
#
#
# Mechanical properties :
#
#
# Convention : Reuss Voigt Hill
#
# Bulk Modulus (GPa) = 46.78538 71.67603 59.23070
# Shear Modulus (GPa) = 22.32835 27.35897 24.84366
#
# Velocity S-wave (km/s) = 3.58779 3.97145 3.78448
# Velocity P-wave (km/s) = 6.64339 7.89626 7.29677
#
# Compressibility (1/GPa) = 0.02137420
#
# Stress axis : x y z
#
# Youngs Moduli (GPa) = 94.52197 44.32949 29.50408
#
# Poissons Ratio (x) = 0.31045 0.16567
# Poissons Ratio (y) = 0.66196 0.30125
# Poissons Ratio (z) = 0.53075 0.45262
#
# Static dielectric constant tensor:
#      x y z
#    x 3.582890 0.000000 0.000000 
#    y 0.000000 3.323570 0.000000 
#    z 0.000000 0.000000 1.853890 
# 
# 
# High freq. dielectric constant tensor:
#      x y z
#    x 1.688240 0.000000 0.000000 
#    y 0.000000 1.672250 0.000000 
#    z 0.000000 0.000000 1.626500 
# 
# From -- ./inp_files/24743.got.cif
#   From: 2010.03.12/outbox.cif.g09.slc.cpg/sg62_13_cif.got.tgz:24743.got - 2010.04.10 19:12:36.
