data_PCOD8250383
_publ_section_title
;
Structure prediction by ZEFSAII (Michael W. Deem and Ramdas Pophale) SiO2 
 PCOD8250383
Probable space group: P N M A
;
_chemical_formula_sum "Si O2"
_cell_formula_units_Z 64
_cell_length_a 25.116175
_cell_length_b 8.638056
_cell_length_c 15.069686
_cell_angle_alpha 90.000000
_cell_angle_beta 90.000000
_cell_angle_gamma 90.000000
_cell_volume 3269.442613
_symmetry_space_group_name_H-M "P N M A"
_symmetry_group_IT_number 62
_symmetry_cell_setting 'orthorhombic'
loop_
_space_group_symop_operation_xyz
x,y,z
1/2-x,-y,1/2+z
1/2+x,1/2-y,1/2-z
-x,1/2+y,-z
-x,-y,-z
1/2+x,y,1/2-z
1/2-x,1/2+y,1/2+z
x,1/2-y,z
loop_
_atom_site_type_symbol
_atom_site_label
_atom_site_fract_x
_atom_site_fract_y
_atom_site_fract_z
Si Si1 0.427935 0.427403 0.361125
Si Si2 0.185451 0.934636 0.801506
Si Si3 0.474993 0.927435 0.881240
Si Si4 0.957363 0.928862 0.814494
Si Si5 0.692126 0.433875 0.886284
Si Si6 0.222704 0.431588 0.981761
Si Si7 0.077393 0.067860 0.558218
Si Si8 0.617658 0.572978 0.452219
O O1 0.430702 0.250000 0.331964
O O2 0.375479 0.498494 0.313096
O O3 0.483986 0.503291 0.332289
O O4 0.423049 0.448607 0.466625
O O5 0.187268 0.750000 0.807953
O O6 0.209182 0.992771 0.708250
O O7 0.220995 0.000886 0.881962
O O8 0.489158 0.750000 0.901155
O O9 0.443741 0.945745 0.789225
O O10 0.531207 0.016519 0.874200
O O11 0.437904 0.995132 0.959754
O O12 0.955247 0.750000 0.845998
O O13 0.912498 0.026720 0.863210
O O14 0.693680 0.250000 0.877258
O O15 0.633748 0.500587 0.910781
O O16 0.730344 0.486531 0.964802
O O17 0.233311 0.250000 0.977522
O O18 0.168316 0.463997 0.034475
O O19 0.082596 0.250000 0.556912
O O20 0.637501 0.750000 0.446094
#
# Coordination Sequence:
#
# PCOD8250383 Si02
#       8
#     8   8   8   8   8   8   8   8
#     4   8  16  30  51  78 108 143 183 229 278 331
#     4  10  20  38  62  88 115 147 188 238 292 343
#     4   9  18  33  53  79 113 149 184 229 278 333
#     4  10  18  30  50  78 110 146 189 228 273 338
#     4  11  22  38  60  86 115 150 194 241 288 344
#     4  11  23  41  61  83 112 150 193 241 295 345
#     4   9  19  35  55  80 111 146 183 230 283 332
#     4  10  20  35  52  74 110 148 185 234 288 337
#
# _framework density 19.575202000000001
#
# number of rings (size 3 to 8) (size 9 to 14) (size 15 to 20)
#    0.000    2.250    0.000    4.125    0.000    2.500 
#    2.250    3.125    0.000    0.000    0.000    0.000 
#    0.000    0.000    0.000    0.000    0.000    0.000 
#
# Total GULP energy -793562.084603 kJ/mol
# GULP energy per Si atom -12399.407572 kJ/mol
# Density = 1.953065 g / cm^3
# Si number density = 19.575202 Si / 1000 Ang^3
#
#
#
# Elastic Constant Matrix: (Units=GPa)
#
#
# Indices 1 2 3 4 5 6 
#
# 1 70.4571 11.1807 48.3261 0.0000 0.0000 0.0000
# 2 11.1807 42.4205 24.2913 0.0000 0.0000 0.0000
# 3 48.3261 24.2913 111.1846 0.0000 0.0000 0.0000
# 4 0.0000 0.0000 0.0000 28.9270 0.0000 0.0000
# 5 0.0000 0.0000 0.0000 0.0000 28.4559 0.0000
# 6 0.0000 0.0000 0.0000 0.0000 0.0000 26.7957
#
#
#
# Elastic Compliance Matrix: (Units=1/GPa)
#
#
# Indices 1 2 3 4 5 6 
#
# 1 0.020226 -0.000339 -0.008717 0.000000 0.000000 0.000000
# 2 -0.000339 0.026950 -0.005741 0.000000 0.000000 0.000000
# 3 -0.008717 -0.005741 0.014037 0.000000 0.000000 0.000000
# 4 0.000000 0.000000 0.000000 0.034570 0.000000 0.000000
# 5 0.000000 0.000000 0.000000 0.000000 0.035142 0.000000
# 6 0.000000 0.000000 0.000000 0.000000 0.000000 0.037319
#
#
# Mechanical properties :
#
#
# Convention : Reuss Voigt Hill
#
# Bulk Modulus (GPa) = 31.62615 43.51762 37.57189
# Shear Modulus (GPa) = 23.99491 26.18667 25.09079
#
# Velocity S-wave (km/s) = 3.50491 3.66149 3.58406
# Velocity P-wave (km/s) = 5.70706 6.33677 6.03014
#
# Compressibility (1/GPa) = 0.03161940
#
# Stress axis : x y z
#
# Youngs Moduli (GPa) = 49.44181 37.10559 71.24016
#
# Poissons Ratio (x) = 0.01259 0.62100
# Poissons Ratio (y) = 0.01677 0.40896
# Poissons Ratio (z) = 0.43098 0.21301
#
# Static dielectric constant tensor:
#      x y z
#    x 3.586460 0.000000 0.000000 
#    y 0.000000 3.394730 0.000000 
#    z 0.000000 0.000000 3.628370 
# 
# 
# High freq. dielectric constant tensor:
#      x y z
#    x 1.748760 0.000000 0.000000 
#    y 0.000000 1.748860 0.000000 
#    z 0.000000 0.000000 1.770750 
# 
# From -- ./inp_files/20829.got.cif
#   From: 2010.03.12/outbox.cif.g09.slc.cpg/sg62_11_cif.got.tgz:20829.got - 2010.04.10 19:12:36.
