data_PCOD8250104
_publ_section_title
;
Structure prediction by ZEFSAII (Michael W. Deem and Ramdas Pophale) SiO2 
 PCOD8250104
Probable space group: P N M A
;
_chemical_formula_sum "Si O2"
_cell_formula_units_Z 48
_cell_length_a 17.055107
_cell_length_b 16.427516
_cell_length_c 9.397748
_cell_angle_alpha 90.000000
_cell_angle_beta 90.000000
_cell_angle_gamma 90.000000
_cell_volume 2632.995656
_symmetry_space_group_name_H-M "P N M A"
_symmetry_group_IT_number 62
_symmetry_cell_setting 'orthorhombic'
loop_
_space_group_symop_operation_xyz
x,y,z
1/2-x,-y,1/2+z
1/2+x,1/2-y,1/2-z
-x,1/2+y,-z
-x,-y,-z
1/2+x,y,1/2-z
1/2-x,1/2+y,1/2+z
x,1/2-y,z
loop_
_atom_site_type_symbol
_atom_site_label
_atom_site_fract_x
_atom_site_fract_y
_atom_site_fract_z
Si Si1 0.814947 0.982246 0.994892
Si Si2 0.956356 0.429095 0.910365
Si Si3 0.067712 0.158715 0.085570
Si Si4 0.518367 0.425570 0.899022
Si Si5 0.338524 0.487346 0.184933
Si Si6 0.039109 0.842299 0.654509
O O1 0.860795 0.899924 0.954304
O O2 0.729819 0.977540 0.928048
O O3 0.863640 0.061019 0.938775
O O4 0.802180 0.993188 0.162285
O O5 0.966635 0.432415 0.742049
O O6 0.000000 0.500000 0.000000
O O7 0.995270 0.346989 0.972183
O O8 0.100885 0.250000 0.081526
O O9 0.033092 0.136483 0.240571
O O10 0.609789 0.433121 0.856877
O O11 0.500000 0.500000 0.000000
O O12 0.494964 0.346874 0.992512
O O13 0.390197 0.404816 0.185465
O O14 0.069196 0.750000 0.679981
#
# Coordination Sequence:
#
# PCOD8250104 Si02
#       6
#     8   8   8   8   8   8
#     4  11  22  35  58  86 113 150 188 234 284 344
#     4  10  17  36  58  81 108 144 196 233 272 329
#     4  10  20  38  61  81 109 151 194 237 283 335
#     4  10  19  34  58  84 110 145 191 241 274 329
#     4  11  22  36  58  84 119 148 188 235 284 341
#     4  10  22  39  60  85 114 150 194 241 288 337
#
# _framework density 18.230186
#
# number of rings (size 3 to 8) (size 9 to 14) (size 15 to 20)
#    0.000    1.667    5.000    3.000    7.000    1.333 
#    0.000    0.000    0.000    2.000    0.000    0.000 
#    0.000    0.000    0.000    0.000    0.000    0.000 
#
# Total GULP energy -594838.924521 kJ/mol
# GULP energy per Si atom -12392.477594 kJ/mol
# Density = 1.818869 g / cm^3
# Si number density = 18.230186 Si / 1000 Ang^3
#
#
#
# Elastic Constant Matrix: (Units=GPa)
#
#
# Indices 1 2 3 4 5 6 
#
# 1 85.6989 29.8611 31.4083 0.0000 0.0000 0.0000
# 2 29.8611 50.1496 26.1051 0.0000 0.0000 0.0000
# 3 31.4083 26.1051 152.1605 0.0000 0.0000 0.0000
# 4 0.0000 0.0000 0.0000 22.7473 0.0000 0.0000
# 5 0.0000 0.0000 0.0000 0.0000 34.3133 0.0000
# 6 0.0000 0.0000 0.0000 0.0000 0.0000 16.7185
#
#
#
# Elastic Compliance Matrix: (Units=1/GPa)
#
#
# Indices 1 2 3 4 5 6 
#
# 1 0.015128 -0.008106 -0.001732 0.000000 0.000000 0.000000
# 2 -0.008106 0.026240 -0.002828 0.000000 0.000000 0.000000
# 3 -0.001732 -0.002828 0.007415 0.000000 0.000000 0.000000
# 4 0.000000 0.000000 0.000000 0.043961 0.000000 0.000000
# 5 0.000000 0.000000 0.000000 0.000000 0.029143 0.000000
# 6 0.000000 0.000000 0.000000 0.000000 0.000000 0.059814
#
#
# Mechanical properties :
#
#
# Convention : Reuss Voigt Hill
#
# Bulk Modulus (GPa) = 42.64584 51.41756 47.03170
# Shear Modulus (GPa) = 23.27198 28.13144 25.70171
#
# Velocity S-wave (km/s) = 3.57678 3.93252 3.75886
# Velocity P-wave (km/s) = 6.36408 6.99182 6.68532
#
# Compressibility (1/GPa) = 0.02344894
#
# Stress axis : x y z
#
# Youngs Moduli (GPa) = 66.10224 38.11045 134.86600
#
# Poissons Ratio (x) = 0.30894 0.23358
# Poissons Ratio (y) = 0.53585 0.38146
# Poissons Ratio (z) = 0.11448 0.10779
#
# Static dielectric constant tensor:
#      x y z
#    x 3.382450 0.000000 0.000000 
#    y 0.000000 3.562680 0.000000 
#    z 0.000000 0.000000 3.921790 
# 
# 
# High freq. dielectric constant tensor:
#      x y z
#    x 1.688550 0.000000 0.000000 
#    y 0.000000 1.683860 0.000000 
#    z 0.000000 0.000000 1.729580 
# 
# From -- ./inp_files/7811.got.cif
#   From: 2010.03.12/outbox.cif.g09.slc.cpg/sg62_4_cif.got.tgz:7811.got - 2010.04.10 19:12:36.
