data_PCOD8250675
_publ_section_title
;
Structure prediction by ZEFSAII (Michael W. Deem and Ramdas Pophale) SiO2 
 PCOD8250675
Probable space group: P N M A
;
_chemical_formula_sum "Si O2"
_cell_formula_units_Z 64
_cell_length_a 14.557523
_cell_length_b 9.046684
_cell_length_c 25.261739
_cell_angle_alpha 90.000000
_cell_angle_beta 90.000000
_cell_angle_gamma 90.000000
_cell_volume 3326.903082
_symmetry_space_group_name_H-M "P N M A"
_symmetry_group_IT_number 62
_symmetry_cell_setting 'orthorhombic'
loop_
_space_group_symop_operation_xyz
x,y,z
1/2-x,-y,1/2+z
1/2+x,1/2-y,1/2-z
-x,1/2+y,-z
-x,-y,-z
1/2+x,y,1/2-z
1/2-x,1/2+y,1/2+z
x,1/2-y,z
loop_
_atom_site_type_symbol
_atom_site_label
_atom_site_fract_x
_atom_site_fract_y
_atom_site_fract_z
Si Si1 0.956887 0.422367 0.449882
Si Si2 0.441198 0.074818 0.751438
Si Si3 0.290445 0.574736 0.390338
Si Si4 0.598852 0.074469 0.507682
Si Si5 0.861929 0.573380 0.221255
Si Si6 0.249323 0.579289 0.577049
Si Si7 0.729201 0.924857 0.312643
Si Si8 0.586390 0.924921 0.129424
O O1 0.979853 0.250000 0.451826
O O2 0.847700 0.450271 0.451511
O O3 0.000000 0.500000 0.500000
O O4 0.001813 0.491714 0.397600
O O5 0.445683 0.250000 0.752604
O O6 0.537825 0.008455 0.733132
O O7 0.369843 0.020690 0.707292
O O8 0.411720 0.021639 0.809720
O O9 0.296305 0.750000 0.389037
O O10 0.353450 0.515200 0.438319
O O11 0.327812 0.509159 0.334950
O O12 0.183488 0.529278 0.397447
O O13 0.585310 0.250000 0.509664
O O14 0.667042 0.027408 0.460327
O O15 0.500000 0.000000 0.500000
O O16 0.859263 0.750000 0.219279
O O17 0.800337 0.514464 0.269301
O O18 0.260286 0.750000 0.591445
O O19 0.250193 0.488482 0.630485
O O20 0.735474 0.750000 0.316938
O O21 0.569420 0.750000 0.124501
#
# Coordination Sequence:
#
# PCOD8250675 Si02
#       8
#     8   8   8   8   8   8   8   8
#     4  11  23  39  60  85 112 146 187 230 282 344
#     4   9  17  28  49  82 114 142 181 232 276 320
#     4   9  17  32  55  79 110 149 183 223 284 338
#     4  10  22  39  58  80 107 147 192 233 278 332
#     4   9  16  28  49  82 115 140 177 230 280 322
#     4  10  23  41  56  78 117 155 183 223 288 350
#     4  10  19  33  56  87 112 141 191 237 270 322
#     4  10  18  34  58  86 117 148 182 229 284 338
#
# _framework density 19.237110999999999
#
# number of rings (size 3 to 8) (size 9 to 14) (size 15 to 20)
#    0.000    2.250    1.250    1.875    1.750    4.500 
#    0.000    2.500    0.000    1.500    0.000    0.000 
#    0.000    0.000    0.000    0.000    0.000    0.000 
#
# Total GULP energy -793497.484059 kJ/mol
# GULP energy per Si atom -12398.398188 kJ/mol
# Density = 1.919333 g / cm^3
# Si number density = 19.237111 Si / 1000 Ang^3
#
#
#
# Elastic Constant Matrix: (Units=GPa)
#
#
# Indices 1 2 3 4 5 6 
#
# 1 142.5160 34.1301 47.6390 0.0000 0.0000 0.0000
# 2 34.1301 38.0995 32.7876 0.0000 0.0000 0.0000
# 3 47.6390 32.7876 122.5465 0.0000 0.0000 0.0000
# 4 0.0000 0.0000 0.0000 21.6519 0.0000 0.0000
# 5 0.0000 0.0000 0.0000 0.0000 40.7651 0.0000
# 6 0.0000 0.0000 0.0000 0.0000 0.0000 23.7483
#
#
#
# Elastic Compliance Matrix: (Units=1/GPa)
#
#
# Indices 1 2 3 4 5 6 
#
# 1 0.009225 -0.006726 -0.001786 0.000000 0.000000 0.000000
# 2 -0.006726 0.039003 -0.007820 0.000000 0.000000 0.000000
# 3 -0.001786 -0.007820 0.010947 0.000000 0.000000 0.000000
# 4 0.000000 0.000000 0.000000 0.046185 0.000000 0.000000
# 5 0.000000 0.000000 0.000000 0.000000 0.024531 0.000000
# 6 0.000000 0.000000 0.000000 0.000000 0.000000 0.042108
#
#
# Mechanical properties :
#
#
# Convention : Reuss Voigt Hill
#
# Bulk Modulus (GPa) = 37.72432 59.14170 48.43301
# Shear Modulus (GPa) = 23.41907 29.80675 26.61291
#
# Velocity S-wave (km/s) = 3.49290 3.94056 3.72346
# Velocity P-wave (km/s) = 5.99332 7.17735 6.61189
#
# Compressibility (1/GPa) = 0.02650810
#
# Stress axis : x y z
#
# Youngs Moduli (GPa) = 108.40417 25.63923 91.34929
#
# Poissons Ratio (x) = 0.17246 0.16319
# Poissons Ratio (y) = 0.72916 0.71439
# Poissons Ratio (z) = 0.19365 0.20051
#
# Static dielectric constant tensor:
#      x y z
#    x 3.937100 0.000000 0.000000 
#    y 0.000000 3.085560 0.000000 
#    z 0.000000 0.000000 3.720440 
# 
# 
# High freq. dielectric constant tensor:
#      x y z
#    x 1.767410 0.000000 0.000000 
#    y 0.000000 1.695140 0.000000 
#    z 0.000000 0.000000 1.762510 
# 
# From -- ./inp_files/29836.got.cif
#   From: 2010.03.12/outbox.cif.g09.slc.cpg/sg62_15_cif.got.tgz:29836.got - 2010.04.10 19:12:36.
