data_PCOD8250563
_publ_section_title
;
Structure prediction by ZEFSAII (Michael W. Deem and Ramdas Pophale) SiO2 
 PCOD8250563
Probable space group: P N M A
;
_chemical_formula_sum "Si O2"
_cell_formula_units_Z 64
_cell_length_a 19.908484
_cell_length_b 9.017574
_cell_length_c 20.031200
_cell_angle_alpha 90.000000
_cell_angle_beta 90.000000
_cell_angle_gamma 90.000000
_cell_volume 3596.125772
_symmetry_space_group_name_H-M "P N M A"
_symmetry_group_IT_number 62
_symmetry_cell_setting 'orthorhombic'
loop_
_space_group_symop_operation_xyz
x,y,z
1/2-x,-y,1/2+z
1/2+x,1/2-y,1/2-z
-x,1/2+y,-z
-x,-y,-z
1/2+x,y,1/2-z
1/2-x,1/2+y,1/2+z
x,1/2-y,z
loop_
_atom_site_type_symbol
_atom_site_label
_atom_site_fract_x
_atom_site_fract_y
_atom_site_fract_z
Si Si1 0.672538 0.575278 0.659212
Si Si2 0.426357 0.925934 0.722017
Si Si3 0.071253 0.575829 0.731137
Si Si4 0.452185 0.077754 0.086205
Si Si5 0.326325 0.577301 0.837867
Si Si6 0.558686 0.924040 0.414176
Si Si7 0.910650 0.077364 0.556981
Si Si8 0.908154 0.576017 0.047631
O O1 0.661315 0.750000 0.648263
O O2 0.628882 0.510426 0.720994
O O3 0.749244 0.537837 0.676227
O O4 0.650989 0.490723 0.592453
O O5 0.425518 0.750000 0.710855
O O6 0.498013 0.984868 0.748669
O O7 0.369949 0.976891 0.774815
O O8 0.410345 0.005962 0.652516
O O9 0.070834 0.750000 0.740580
O O10 0.087291 0.534208 0.654005
O O11 0.473764 0.250000 0.087352
O O12 0.519844 0.984229 0.084985
O O13 0.405225 0.043203 0.022468
O O14 0.337673 0.750000 0.849686
O O15 0.348335 0.497433 0.905990
O O16 0.572708 0.750000 0.415768
O O17 0.479403 0.960313 0.417758
O O18 0.596789 0.998733 0.475920
O O19 0.908489 0.250000 0.571839
O O20 0.897290 0.750000 0.038117
#
# Coordination Sequence:
#
# PCOD8250563 Si02
#       8
#     8   8   8   8   8   8   8   8
#     4  10  20  35  55  77 102 140 181 219 264 319
#     4  10  18  32  54  78 104 139 178 219 263 313
#     4   9  16  30  54  77 100 132 175 219 259 309
#     4   9  17  32  52  76 104 134 171 219 266 309
#     4  10  21  36  53  74 107 145 179 215 269 330
#     4  10  20  33  53  81 109 135 171 220 266 311
#     4  10  19  30  50  78 106 135 173 218 265 316
#     4  10  20  34  53  78 107 138 173 217 266 316
#
# _framework density 17.796931000000001
#
# number of rings (size 3 to 8) (size 9 to 14) (size 15 to 20)
#    0.000    2.250    2.500    1.125    0.000    2.500 
#    0.000    1.875    0.000    3.000    0.000    0.000 
#    0.000    0.000    0.000    0.000    0.000    0.000 
#
# Total GULP energy -793631.356207 kJ/mol
# GULP energy per Si atom -12400.489941 kJ/mol
# Density = 1.775642 g / cm^3
# Si number density = 17.796931 Si / 1000 Ang^3
#
#
#
# Elastic Constant Matrix: (Units=GPa)
#
#
# Indices 1 2 3 4 5 6 
#
# 1 107.8671 39.7022 74.4118 0.0000 0.0000 0.0000
# 2 39.7022 54.9805 50.5679 0.0000 0.0000 0.0000
# 3 74.4118 50.5679 162.5813 0.0000 0.0000 0.0000
# 4 0.0000 0.0000 0.0000 30.6874 0.0000 0.0000
# 5 0.0000 0.0000 0.0000 0.0000 28.7974 0.0000
# 6 0.0000 0.0000 0.0000 0.0000 0.0000 20.2182
#
#
#
# Elastic Compliance Matrix: (Units=1/GPa)
#
#
# Indices 1 2 3 4 5 6 
#
# 1 0.014964 -0.006312 -0.004886 0.000000 0.000000 0.000000
# 2 -0.006312 0.028139 -0.005863 0.000000 0.000000 0.000000
# 3 -0.004886 -0.005863 0.010210 0.000000 0.000000 0.000000
# 4 0.000000 0.000000 0.000000 0.032587 0.000000 0.000000
# 5 0.000000 0.000000 0.000000 0.000000 0.034725 0.000000
# 6 0.000000 0.000000 0.000000 0.000000 0.000000 0.049460
#
#
# Mechanical properties :
#
#
# Convention : Reuss Voigt Hill
#
# Bulk Modulus (GPa) = 52.10592 72.75471 62.43032
# Shear Modulus (GPa) = 23.74104 26.65706 25.19905
#
# Velocity S-wave (km/s) = 3.65635 3.87440 3.76695
# Velocity P-wave (km/s) = 6.86781 7.80922 7.35359
#
# Compressibility (1/GPa) = 0.01919168
#
# Stress axis : x y z
#
# Youngs Moduli (GPa) = 66.82501 35.53790 97.93867
#
# Poissons Ratio (x) = 0.22433 0.47850
# Poissons Ratio (y) = 0.42183 0.57421
# Poissons Ratio (z) = 0.32649 0.20836
#
# Static dielectric constant tensor:
#      x y z
#    x 3.141490 0.000000 0.000000 
#    y 0.000000 3.155900 0.000000 
#    z 0.000000 0.000000 3.518210 
# 
# 
# High freq. dielectric constant tensor:
#      x y z
#    x 1.659410 0.000000 0.000000 
#    y 0.000000 1.677350 0.000000 
#    z 0.000000 0.000000 1.703730 
# 
# From -- ./inp_files/27638.got.cif
#   From: 2010.03.12/outbox.cif.g09.slc.cpg/sg62_14_cif.got.tgz:27638.got - 2010.04.10 19:12:36.
