data_PCOD8250140
_publ_section_title
;
Structure prediction by ZEFSAII (Michael W. Deem and Ramdas Pophale) SiO2 
 PCOD8250140
Probable space group: P N M A
;
_chemical_formula_sum "Si O2"
_cell_formula_units_Z 64
_cell_length_a 26.083735
_cell_length_b 9.069240
_cell_length_c 18.529885
_cell_angle_alpha 90.000000
_cell_angle_beta 90.000000
_cell_angle_gamma 90.000000
_cell_volume 4383.423162
_symmetry_space_group_name_H-M "P N M A"
_symmetry_group_IT_number 62
_symmetry_cell_setting 'orthorhombic'
loop_
_space_group_symop_operation_xyz
x,y,z
1/2-x,-y,1/2+z
1/2+x,1/2-y,1/2-z
-x,1/2+y,-z
-x,-y,-z
1/2+x,y,1/2-z
1/2-x,1/2+y,1/2+z
x,1/2-y,z
loop_
_atom_site_type_symbol
_atom_site_label
_atom_site_fract_x
_atom_site_fract_y
_atom_site_fract_z
Si Si1 0.254993 0.426941 0.566922
Si Si2 0.357761 0.925953 0.333098
Si Si3 0.300808 0.411394 0.778122
Si Si4 0.842970 0.579844 0.847743
Si Si5 0.194215 0.411054 0.696183
Si Si6 0.558501 0.418352 0.434671
Si Si7 0.057621 0.578303 0.920033
Si Si8 0.256327 0.576456 0.416814
O O1 0.257816 0.250000 0.568896
O O2 0.308740 0.489711 0.595598
O O3 0.208469 0.486927 0.619401
O O4 0.243351 0.483740 0.487519
O O5 0.362339 0.750000 0.330034
O O6 0.345305 0.989899 0.251844
O O7 0.312287 0.971185 0.387795
O O8 0.410753 0.996622 0.357938
O O9 0.327482 0.250000 0.779936
O O10 0.337079 0.524249 0.734745
O O11 0.247127 0.394918 0.738528
O O12 0.288359 0.465301 0.859447
O O13 0.826643 0.750000 0.851728
O O14 0.902087 0.556276 0.869503
O O15 0.171551 0.250000 0.679025
O O16 0.560106 0.250000 0.462625
O O17 0.502014 0.457803 0.405566
O O18 0.574273 0.520573 0.501508
O O19 0.070028 0.750000 0.916168
O O20 0.255716 0.750000 0.434079
#
# Coordination Sequence:
#
# PCOD8250140 Si02
#       8
#     8   8   8   8   8   8   8   8
#     4  10  18  27  40  59  82 106 134 165 193 226
#     4   9  16  28  43  55  74 106 136 158 191 236
#     4   8  15  28  42  56  77 103 130 161 195 230
#     4  10  18  28  42  57  76 105 137 164 195 235
#     4   7  13  26  40  53  73 103 131 155 188 229
#     4   9  19  32  41  53  78 108 132 159 198 236
#     4  10  19  29  41  58  78 100 132 170 198 223
#     4   9  17  28  41  58  82 109 132 158 196 237
#
# _framework density 14.600460999999999
#
# number of rings (size 3 to 8) (size 9 to 14) (size 15 to 20)
#    0.000    3.000    0.000    4.125    0.000    5.500 
#    0.000    5.625    0.000    0.000    0.000    0.000 
#    0.000    1.000    0.000    2.250    0.000    4.000 
#
# Total GULP energy -792997.027123 kJ/mol
# GULP energy per Si atom -12390.578549 kJ/mol
# Density = 1.456723 g / cm^3
# Si number density = 14.600461 Si / 1000 Ang^3
#
#
#
# Elastic Constant Matrix: (Units=GPa)
#
#
# Indices 1 2 3 4 5 6 
#
# 1 64.3022 31.3640 48.4565 0.0000 0.0000 0.0000
# 2 31.3640 55.1478 43.9409 0.0000 0.0000 0.0000
# 3 48.4565 43.9409 113.6225 0.0000 0.0000 0.0000
# 4 0.0000 0.0000 0.0000 23.0746 0.0000 0.0000
# 5 0.0000 0.0000 0.0000 0.0000 24.1350 0.0000
# 6 0.0000 0.0000 0.0000 0.0000 0.0000 18.9136
#
#
#
# Elastic Compliance Matrix: (Units=1/GPa)
#
#
# Indices 1 2 3 4 5 6 
#
# 1 0.025342 -0.008385 -0.007565 0.000000 0.000000 0.000000
# 2 -0.008385 0.028984 -0.007633 0.000000 0.000000 0.000000
# 3 -0.007565 -0.007633 0.014979 0.000000 0.000000 0.000000
# 4 0.000000 0.000000 0.000000 0.043338 0.000000 0.000000
# 5 0.000000 0.000000 0.000000 0.000000 0.041434 0.000000
# 6 0.000000 0.000000 0.000000 0.000000 0.000000 0.052872
#
#
# Mechanical properties :
#
#
# Convention : Reuss Voigt Hill
#
# Bulk Modulus (GPa) = 45.16862 53.39948 49.28405
# Shear Modulus (GPa) = 19.12093 20.51204 19.81648
#
# Velocity S-wave (km/s) = 3.62278 3.75225 3.68808
# Velocity P-wave (km/s) = 6.96441 7.44485 7.20863
#
# Compressibility (1/GPa) = 0.02213927
#
# Stress axis : x y z
#
# Youngs Moduli (GPa) = 39.45983 34.50224 66.75981
#
# Poissons Ratio (x) = 0.28931 0.50503
# Poissons Ratio (y) = 0.33088 0.50956
# Poissons Ratio (z) = 0.29851 0.26335
#
# Static dielectric constant tensor:
#      x y z
#    x 2.683540 0.000000 0.000000 
#    y 0.000000 2.801510 0.000000 
#    z 0.000000 0.000000 3.060860 
# 
# 
# High freq. dielectric constant tensor:
#      x y z
#    x 1.522760 0.000000 0.000000 
#    y 0.000000 1.554910 0.000000 
#    z 0.000000 0.000000 1.552370 
# 
# From -- ./inp_files/24992.got.cif
#   From: 2010.03.12/outbox.cif.g09.slc.cpg/sg62_13_cif.got.tgz:24992.got - 2010.04.10 19:12:36.
