data_PCOD8250794
_publ_section_title
;
Structure prediction by ZEFSAII (Michael W. Deem and Ramdas Pophale) SiO2 
 PCOD8250794
Probable space group: P N M A
;
_chemical_formula_sum "Si O2"
_cell_formula_units_Z 64
_cell_length_a 14.301661
_cell_length_b 9.190895
_cell_length_c 30.175386
_cell_angle_alpha 90.000000
_cell_angle_beta 90.000000
_cell_angle_gamma 90.000000
_cell_volume 3966.405561
_symmetry_space_group_name_H-M "P N M A"
_symmetry_group_IT_number 62
_symmetry_cell_setting 'orthorhombic'
loop_
_space_group_symop_operation_xyz
x,y,z
1/2-x,-y,1/2+z
1/2+x,1/2-y,1/2-z
-x,1/2+y,-z
-x,-y,-z
1/2+x,y,1/2-z
1/2-x,1/2+y,1/2+z
x,1/2-y,z
loop_
_atom_site_type_symbol
_atom_site_label
_atom_site_fract_x
_atom_site_fract_y
_atom_site_fract_z
Si Si1 0.094816 0.081005 0.049203
Si Si2 0.780026 0.921959 0.287655
Si Si3 0.673755 0.083682 0.361896
Si Si4 0.688720 0.079299 0.636617
Si Si5 0.975026 0.415785 0.277844
Si Si6 0.974690 0.089776 0.176584
Si Si7 0.402939 0.579219 0.450754
Si Si8 0.156511 0.578308 0.297732
O O1 0.067120 0.250000 0.050697
O O2 0.177489 0.049527 0.085047
O O3 0.132095 0.036831 0.000154
O O4 0.000956 0.994574 0.060753
O O5 0.795600 0.750000 0.288769
O O6 0.713535 0.967545 0.246637
O O7 0.736197 0.972453 0.334301
O O8 0.878853 0.999960 0.284053
O O9 0.704253 0.250000 0.351252
O O10 0.565515 0.057024 0.351872
O O11 0.685464 0.250000 0.640318
O O12 0.674895 0.027608 0.585467
O O13 0.785517 0.026994 0.658687
O O14 0.604010 0.026814 0.666922
O O15 0.964149 0.250000 0.295023
O O16 0.058882 0.495194 0.303558
O O17 0.005809 0.420383 0.227154
O O18 0.934500 0.250000 0.165617
O O19 0.419652 0.750000 0.446437
O O20 0.136906 0.750000 0.296891
#
# Coordination Sequence:
#
# PCOD8250794 Si02
#       8
#     8   8   8   8   8   8   8   8
#     4   9  17  29  45  67  97 129 159 195 237 282
#     4  11  22  34  50  71  96 126 162 200 239 283
#     4  10  19  32  47  68  98 131 166 197 235 283
#     4  10  19  31  47  69  97 129 164 197 234 281
#     4  11  22  35  50  68  94 127 163 202 237 276
#     4  10  19  29  45  68  96 128 161 196 232 274
#     4   9  17  28  45  69  96 127 161 196 236 283
#     4  10  21  34  48  68  95 127 160 196 236 280
#
# _framework density 16.135515999999999
#
# number of rings (size 3 to 8) (size 9 to 14) (size 15 to 20)
#    0.000    2.000    3.750    0.750    0.000    2.500 
#    0.000    0.000    0.000    0.000    0.000    0.875 
#    0.000    0.000    0.000    0.000    0.000    0.000 
#
# Total GULP energy -793285.648719 kJ/mol
# GULP energy per Si atom -12395.088261 kJ/mol
# Density = 1.609879 g / cm^3
# Si number density = 16.135516 Si / 1000 Ang^3
#
#
#
# Elastic Constant Matrix: (Units=GPa)
#
#
# Indices 1 2 3 4 5 6 
#
# 1 56.6877 28.4124 39.8293 0.0000 0.0000 0.0000
# 2 28.4124 40.3580 35.7913 0.0000 0.0000 0.0000
# 3 39.8293 35.7913 88.6878 0.0000 0.0000 0.0000
# 4 0.0000 0.0000 0.0000 19.7812 0.0000 0.0000
# 5 0.0000 0.0000 0.0000 0.0000 22.2769 0.0000
# 6 0.0000 0.0000 0.0000 0.0000 0.0000 26.2216
#
#
#
# Elastic Compliance Matrix: (Units=1/GPa)
#
#
# Indices 1 2 3 4 5 6 
#
# 1 0.030372 -0.014461 -0.007804 0.000000 0.000000 0.000000
# 2 -0.014461 0.045475 -0.011858 0.000000 0.000000 0.000000
# 3 -0.007804 -0.011858 0.019565 0.000000 0.000000 0.000000
# 4 0.000000 0.000000 0.000000 0.050553 0.000000 0.000000
# 5 0.000000 0.000000 0.000000 0.000000 0.044890 0.000000
# 6 0.000000 0.000000 0.000000 0.000000 0.000000 0.038137
#
#
# Mechanical properties :
#
#
# Convention : Reuss Voigt Hill
#
# Bulk Modulus (GPa) = 36.80952 43.75551 40.28251
# Shear Modulus (GPa) = 16.32429 19.10263 17.71346
#
# Velocity S-wave (km/s) = 3.18417 3.44450 3.31689
# Velocity P-wave (km/s) = 6.03165 6.55712 6.29987
#
# Compressibility (1/GPa) = 0.02716689
#
# Stress axis : x y z
#
# Youngs Moduli (GPa) = 32.92553 21.99008 51.11055
#
# Poissons Ratio (x) = 0.31800 0.39885
# Poissons Ratio (y) = 0.47614 0.60605
# Poissons Ratio (z) = 0.25694 0.26075
#
# Static dielectric constant tensor:
#      x y z
#    x 2.854640 0.000000 0.000000 
#    y 0.000000 3.120960 0.000000 
#    z 0.000000 0.000000 3.609550 
# 
# 
# High freq. dielectric constant tensor:
#      x y z
#    x 1.588760 0.000000 0.000000 
#    y 0.000000 1.624290 0.000000 
#    z 0.000000 0.000000 1.620010 
# 
# From -- ./inp_files/32702.got.cif
#   From: 2010.03.12/outbox.cif.g09.slc.cpg/sg62_17_cif.got.tgz:32702.got - 2010.04.10 19:12:36.
