data_PCOD8250057
_publ_section_title
;
Structure prediction by ZEFSAII (Michael W. Deem and Ramdas Pophale) SiO2 
 PCOD8250057
Probable space group: P N M A
;
_chemical_formula_sum "Si O2"
_cell_formula_units_Z 64
_cell_length_a 13.632425
_cell_length_b 13.160760
_cell_length_c 20.241463
_cell_angle_alpha 90.000000
_cell_angle_beta 90.000000
_cell_angle_gamma 90.000000
_cell_volume 3631.583092
_symmetry_space_group_name_H-M "P N M A"
_symmetry_group_IT_number 62
_symmetry_cell_setting 'orthorhombic'
loop_
_space_group_symop_operation_xyz
x,y,z
1/2-x,-y,1/2+z
1/2+x,1/2-y,1/2-z
-x,1/2+y,-z
-x,-y,-z
1/2+x,y,1/2-z
1/2-x,1/2+y,1/2+z
x,1/2-y,z
loop_
_atom_site_type_symbol
_atom_site_label
_atom_site_fract_x
_atom_site_fract_y
_atom_site_fract_z
Si Si1 0.662026 0.635824 0.692372
Si Si2 0.334034 0.630505 0.141971
Si Si3 0.876125 0.632191 0.646249
Si Si4 0.196868 0.131725 0.495214
Si Si5 0.983231 0.637395 0.058278
Si Si6 0.520211 0.005395 0.774475
Si Si7 0.892410 0.434472 0.056572
Si Si8 0.380876 0.134634 0.679996
O O1 0.655491 0.750000 0.721521
O O2 0.774972 0.601186 0.682992
O O3 0.604089 0.558352 0.738095
O O4 0.614075 0.637283 0.620013
O O5 0.336047 0.750000 0.148337
O O6 0.349815 0.598349 0.065126
O O7 0.425254 0.589448 0.182714
O O8 0.230175 0.592427 0.172536
O O9 0.898054 0.750000 0.658924
O O10 0.873432 0.609264 0.567406
O O11 0.963630 0.568352 0.676437
O O12 0.226513 0.250000 0.496075
O O13 0.295503 0.067433 0.487559
O O14 0.934605 0.750000 0.059161
O O15 0.905413 0.551864 0.080126
O O16 0.076088 0.635082 0.106453
O O17 0.015978 0.608851 0.984280
O O18 0.444048 0.059796 0.725642
O O19 0.382968 0.250000 0.708867
#
# Coordination Sequence:
#
# PCOD8250057 Si02
#       8
#     8   8   8   8   8   8   8   8
#     4  10  20  34  52  78 106 136 176 212 253 314
#     4  10  21  36  56  77 101 137 180 221 261 313
#     4   9  20  36  55  76 102 134 174 221 263 306
#     4   9  17  34  57  78  99 132 182 225 254 303
#     4  10  18  29  49  78 109 136 171 219 264 304
#     4  12  21  34  52  79 109 140 171 210 269 321
#     4  10  17  30  53  77 101 137 176 216 256 304
#     4  10  20  35  52  77 110 141 175 215 260 315
#
# _framework density 17.623168
#
# number of rings (size 3 to 8) (size 9 to 14) (size 15 to 20)
#    0.000    2.000    2.500    3.375    0.000    0.500 
#    0.000    0.000    0.000    4.500    0.000    0.000 
#    0.000    0.000    0.000    0.000    0.000    0.000 
#
# Total GULP energy -793373.089063 kJ/mol
# GULP energy per Si atom -12396.454517 kJ/mol
# Density = 1.758306 g / cm^3
# Si number density = 17.623168 Si / 1000 Ang^3
#
#
#
# Elastic Constant Matrix: (Units=GPa)
#
#
# Indices 1 2 3 4 5 6 
#
# 1 76.0738 30.5983 43.6707 0.0000 0.0000 0.0000
# 2 30.5983 59.9173 30.2402 0.0000 0.0000 0.0000
# 3 43.6707 30.2402 85.9338 0.0000 0.0000 0.0000
# 4 0.0000 0.0000 0.0000 24.9474 0.0000 0.0000
# 5 0.0000 0.0000 0.0000 0.0000 22.7909 0.0000
# 6 0.0000 0.0000 0.0000 0.0000 0.0000 30.5777
#
#
#
# Elastic Compliance Matrix: (Units=1/GPa)
#
#
# Indices 1 2 3 4 5 6 
#
# 1 0.020336 -0.006286 -0.008123 0.000000 0.000000 0.000000
# 2 -0.006286 0.022237 -0.004631 0.000000 0.000000 0.000000
# 3 -0.008123 -0.004631 0.017394 0.000000 0.000000 0.000000
# 4 0.000000 0.000000 0.000000 0.040084 0.000000 0.000000
# 5 0.000000 0.000000 0.000000 0.000000 0.043877 0.000000
# 6 0.000000 0.000000 0.000000 0.000000 0.000000 0.032704
#
#
# Mechanical properties :
#
#
# Convention : Reuss Voigt Hill
#
# Bulk Modulus (GPa) = 45.68528 47.88259 46.78394
# Shear Modulus (GPa) = 22.52176 23.49090 23.00633
#
# Velocity S-wave (km/s) = 3.57874 3.65493 3.61703
# Velocity P-wave (km/s) = 6.56172 6.71123 6.63690
#
# Compressibility (1/GPa) = 0.02188889
#
# Stress axis : x y z
#
# Youngs Moduli (GPa) = 49.17318 44.97048 57.48981
#
# Poissons Ratio (x) = 0.28267 0.46698
# Poissons Ratio (y) = 0.30909 0.26623
# Poissons Ratio (z) = 0.39942 0.20825
#
# Static dielectric constant tensor:
#      x y z
#    x 3.128470 0.000000 0.000000 
#    y 0.000000 3.314830 0.000000 
#    z 0.000000 0.000000 3.324910 
# 
# 
# High freq. dielectric constant tensor:
#      x y z
#    x 1.662510 0.000000 0.000000 
#    y 0.000000 1.678110 0.000000 
#    z 0.000000 0.000000 1.684620 
# 
# From -- ./inp_files/24007.got.cif
#   From: 2010.03.12/outbox.cif.g09.slc.cpg/sg62_13_cif.got.tgz:24007.got - 2010.04.10 19:12:36.
