data_PCOD8250128
_publ_section_title
;
Structure prediction by ZEFSAII (Michael W. Deem and Ramdas Pophale) SiO2 
 PCOD8250128
Probable space group: P N M A
;
_chemical_formula_sum "Si O2"
_cell_formula_units_Z 56
_cell_length_a 5.211143
_cell_length_b 27.671917
_cell_length_c 30.772354
_cell_angle_alpha 90.000000
_cell_angle_beta 90.000000
_cell_angle_gamma 90.000000
_cell_volume 4437.444733
_symmetry_space_group_name_H-M "P N M A"
_symmetry_group_IT_number 62
_symmetry_cell_setting 'orthorhombic'
loop_
_space_group_symop_operation_xyz
x,y,z
1/2-x,-y,1/2+z
1/2+x,1/2-y,1/2-z
-x,1/2+y,-z
-x,-y,-z
1/2+x,y,1/2-z
1/2-x,1/2+y,1/2+z
x,1/2-y,z
loop_
_atom_site_type_symbol
_atom_site_label
_atom_site_fract_x
_atom_site_fract_y
_atom_site_fract_z
Si Si1 0.753280 0.868108 0.363077
Si Si2 0.250390 0.992363 0.942914
Si Si3 0.750402 0.945701 0.969647
Si Si4 0.274212 0.693936 0.222872
Si Si5 0.747750 0.145926 0.522413
Si Si6 0.752963 0.915743 0.109476
Si Si7 0.752736 0.693579 0.450198
O O1 0.741713 0.836306 0.320402
O O2 0.507787 0.903206 0.363618
O O3 0.753923 0.832663 0.404024
O O4 0.004918 0.901664 0.362330
O O5 0.499925 0.958319 0.941413
O O6 0.999932 0.958567 0.941265
O O7 0.251724 0.027218 0.900980
O O8 0.249889 0.023864 0.986329
O O9 0.751545 0.888704 0.980336
O O10 0.544631 0.680676 0.244547
O O11 0.262011 0.750000 0.209856
O O12 0.749314 0.113340 0.564940
O O13 0.495438 0.179103 0.521684
O O14 0.998484 0.179557 0.521628
O O15 0.751200 0.750000 0.440668
#
# Coordination Sequence:
#
# PCOD8250128 Si02
#       7
#     8   8   8   8   8   8   8
#     4  10  18  29  41  53  69  86 105 135 175 211
#     4   9  15  23  35  51  67  86 106 124 153 190
#     4   9  15  23  35  48  67  88 106 129 153 186
#     4  10  20  32  44  56  68  84 110 141 173 214
#     4   9  17  26  35  50  67  86 111 135 162 196
#     4   9  17  26  38  54  70  85 104 129 159 205
#     4  10  18  27  38  50  66  87 112 141 173 208
#
# _framework density 12.619876
#
# number of rings (size 3 to 8) (size 9 to 14) (size 15 to 20)
#    0.000    2.571    0.000    3.429    0.000    6.857 
#    0.000    4.286    0.000    0.000    0.000    0.000 
#    0.000    0.000    0.000    0.000    0.000    0.000 
#
# Total GULP energy -694369.998123 kJ/mol
# GULP energy per Si atom -12399.464252 kJ/mol
# Density = 1.259115 g / cm^3
# Si number density = 12.619876 Si / 1000 Ang^3
#
#
#
# Elastic Constant Matrix: (Units=GPa)
#
#
# Indices 1 2 3 4 5 6 
#
# 1 111.7816 30.5370 25.1863 0.0000 0.0000 0.0000
# 2 30.5370 48.5065 32.0123 0.0000 0.0000 0.0000
# 3 25.1863 32.0123 33.8893 0.0000 0.0000 0.0000
# 4 0.0000 0.0000 0.0000 24.6948 0.0000 0.0000
# 5 0.0000 0.0000 0.0000 0.0000 10.6309 0.0000
# 6 0.0000 0.0000 0.0000 0.0000 0.0000 20.0959
#
#
#
# Elastic Compliance Matrix: (Units=1/GPa)
#
#
# Indices 1 2 3 4 5 6 
#
# 1 0.011041 -0.004077 -0.004354 0.000000 0.000000 0.000000
# 2 -0.004077 0.056248 -0.050103 0.000000 0.000000 0.000000
# 3 -0.004354 -0.050103 0.080072 0.000000 0.000000 0.000000
# 4 0.000000 0.000000 0.000000 0.040494 0.000000 0.000000
# 5 0.000000 0.000000 0.000000 0.000000 0.094065 0.000000
# 6 0.000000 0.000000 0.000000 0.000000 0.000000 0.049761
#
#
# Mechanical properties :
#
#
# Convention : Reuss Voigt Hill
#
# Bulk Modulus (GPa) = 33.01140 41.07206 37.04173
# Shear Modulus (GPa) = 10.89685 18.18045 14.53865
#
# Velocity S-wave (km/s) = 2.94167 3.79967 3.39786
# Velocity P-wave (km/s) = 6.14434 7.20182 6.69399
#
# Compressibility (1/GPa) = 0.03029256
#
# Stress axis : x y z
#
# Youngs Moduli (GPa) = 90.57234 17.77827 12.48881
#
# Poissons Ratio (x) = 0.07249 0.05438
# Poissons Ratio (y) = 0.36928 0.62573
# Poissons Ratio (z) = 0.39436 0.89074
#
# Static dielectric constant tensor:
#      x y z
#    x 2.915060 0.000000 0.000000 
#    y 0.000000 2.516490 0.000000 
#    z 0.000000 0.000000 2.178900 
# 
# 
# High freq. dielectric constant tensor:
#      x y z
#    x 1.506010 0.000000 0.000000 
#    y 0.000000 1.462470 0.000000 
#    z 0.000000 0.000000 1.419790 
# 
# From -- ./inp_files/28431.got.cif
#   From: 2010.03.12/outbox.cif.g09.slc.cpg/sg62_15_cif.got.tgz:28431.got - 2010.04.10 19:12:36.
