data_PCOD8250410
_publ_section_title
;
Structure prediction by ZEFSAII (Michael W. Deem and Ramdas Pophale) SiO2 
 PCOD8250410
Probable space group: P N M A
;
_chemical_formula_sum "Si O2"
_cell_formula_units_Z 64
_cell_length_a 9.514425
_cell_length_b 13.757377
_cell_length_c 22.997722
_cell_angle_alpha 90.000000
_cell_angle_beta 90.000000
_cell_angle_gamma 90.000000
_cell_volume 3010.253053
_symmetry_space_group_name_H-M "P N M A"
_symmetry_group_IT_number 62
_symmetry_cell_setting 'orthorhombic'
loop_
_space_group_symop_operation_xyz
x,y,z
1/2-x,-y,1/2+z
1/2+x,1/2-y,1/2-z
-x,1/2+y,-z
-x,-y,-z
1/2+x,y,1/2-z
1/2-x,1/2+y,1/2+z
x,1/2-y,z
loop_
_atom_site_type_symbol
_atom_site_label
_atom_site_fract_x
_atom_site_fract_y
_atom_site_fract_z
Si Si1 0.713262 0.142316 0.864308
Si Si2 0.949172 0.638868 0.248189
Si Si3 0.088415 0.920998 0.535377
Si Si4 0.933051 0.144767 0.583026
Si Si5 0.403901 0.362127 0.458629
Si Si6 0.121795 0.991557 0.069583
Si Si7 0.205610 0.955349 0.316140
Si Si8 0.358074 0.859705 0.879067
O O1 0.757638 0.250000 0.885130
O O2 0.664691 0.143403 0.798808
O O3 0.589515 0.099242 0.906582
O O4 0.845216 0.069294 0.871359
O O5 0.982294 0.750000 0.226586
O O6 0.865765 0.574784 0.199966
O O7 0.092456 0.587796 0.269977
O O8 0.102902 0.839554 0.484635
O O9 0.009904 0.885918 0.593750
O O10 0.245622 0.947024 0.550026
O O11 0.000000 0.000000 0.500000
O O12 0.938408 0.250000 0.614352
O O13 0.818679 0.082604 0.617983
O O14 0.455935 0.250000 0.460384
O O15 0.500921 0.429935 0.417243
O O16 0.415780 0.409150 0.522243
O O17 0.248173 0.368305 0.433176
O O18 0.184364 0.071848 0.323986
O O19 0.360457 0.750000 0.854294
#
# Coordination Sequence:
#
# PCOD8250410 Si02
#       8
#     8   8   8   8   8   8   8   8
#     4   9  17  31  52  78 104 139 184 228 280 337
#     4  10  21  37  60  87 114 143 181 239 305 359
#     4  12  18  33  58  91 118 151 203 249 290 342
#     4  10  18  30  53  83 117 151 187 236 291 352
#     4  10  22  37  52  77 117 158 189 227 286 350
#     4  11  20  33  55  82 115 151 188 237 286 344
#     4  11  21  39  60  85 116 151 196 245 302 365
#     4  11  23  41  62  84 117 163 204 243 294 356
#
# _framework density 21.260670000000001
#
# number of rings (size 3 to 8) (size 9 to 14) (size 15 to 20)
#    0.000    1.500    3.750    3.375    0.000    4.000 
#    0.000    0.625    0.000    6.750    0.000    0.000 
#    0.000    0.000    0.000    0.000    0.000    0.000 
#
# Total GULP energy -793081.771902 kJ/mol
# GULP energy per Si atom -12391.902686 kJ/mol
# Density = 2.121228 g / cm^3
# Si number density = 21.260670 Si / 1000 Ang^3
#
#
#
# Elastic Constant Matrix: (Units=GPa)
#
#
# Indices 1 2 3 4 5 6 
#
# 1 50.6025 20.8563 1.3889 0.0000 0.0000 0.0000
# 2 20.8563 122.4740 9.3979 0.0000 0.0000 0.0000
# 3 1.3889 9.3979 29.3340 0.0000 0.0000 0.0000
# 4 0.0000 0.0000 0.0000 29.3260 0.0000 0.0000
# 5 0.0000 0.0000 0.0000 0.0000 26.5573 0.0000
# 6 0.0000 0.0000 0.0000 0.0000 0.0000 31.4132
#
#
#
# Elastic Compliance Matrix: (Units=1/GPa)
#
#
# Indices 1 2 3 4 5 6 
#
# 1 0.021254 -0.003631 0.000157 0.000000 0.000000 0.000000
# 2 -0.003631 0.008991 -0.002709 0.000000 0.000000 0.000000
# 3 0.000157 -0.002709 0.034950 0.000000 0.000000 0.000000
# 4 0.000000 0.000000 0.000000 0.034099 0.000000 0.000000
# 5 0.000000 0.000000 0.000000 0.000000 0.037654 0.000000
# 6 0.000000 0.000000 0.000000 0.000000 0.000000 0.031834
#
#
# Mechanical properties :
#
#
# Convention : Reuss Voigt Hill
#
# Bulk Modulus (GPa) = 18.92865 29.52184 24.22524
# Shear Modulus (GPa) = 25.15601 28.84380 26.99990
#
# Velocity S-wave (km/s) = 3.44353 3.68730 3.56750
# Velocity P-wave (km/s) = 4.97322 5.66075 5.32809
#
# Compressibility (1/GPa) = 0.05282998
#
# Stress axis : x y z
#
# Youngs Moduli (GPa) = 47.04932 111.21926 28.61194
#
# Poissons Ratio (x) = 0.40389 -0.00449
# Poissons Ratio (y) = 0.17086 0.07750
# Poissons Ratio (z) = -0.00739 0.30125
#
# Static dielectric constant tensor:
#      x y z
#    x 3.805860 0.000000 0.000000 
#    y 0.000000 4.451110 0.000000 
#    z 0.000000 0.000000 3.944390 
# 
# 
# High freq. dielectric constant tensor:
#      x y z
#    x 1.828450 0.000000 0.000000 
#    y 0.000000 1.841860 0.000000 
#    z 0.000000 0.000000 1.804110 
# 
# From -- ./inp_files/28986.got.cif
#   From: 2010.03.12/outbox.cif.g09.slc.cpg/sg62_15_cif.got.tgz:28986.got - 2010.04.10 19:12:36.
