data_PCOD8250428
_publ_section_title
;
Structure prediction by ZEFSAII (Michael W. Deem and Ramdas Pophale) SiO2 
 PCOD8250428
Probable space group: P N M A
;
_chemical_formula_sum "Si O2"
_cell_formula_units_Z 48
_cell_length_a 9.516406
_cell_length_b 19.546440
_cell_length_c 13.116725
_cell_angle_alpha 90.000000
_cell_angle_beta 90.000000
_cell_angle_gamma 90.000000
_cell_volume 2439.866400
_symmetry_space_group_name_H-M "P N M A"
_symmetry_group_IT_number 62
_symmetry_cell_setting 'orthorhombic'
loop_
_space_group_symop_operation_xyz
x,y,z
1/2-x,-y,1/2+z
1/2+x,1/2-y,1/2-z
-x,1/2+y,-z
-x,-y,-z
1/2+x,y,1/2-z
1/2-x,1/2+y,1/2+z
x,1/2-y,z
loop_
_atom_site_type_symbol
_atom_site_label
_atom_site_fract_x
_atom_site_fract_y
_atom_site_fract_z
Si Si1 0.281503 0.444119 0.508077
Si Si2 0.605112 0.826462 0.728728
Si Si3 0.498629 0.827963 0.513737
Si Si4 0.366888 0.040569 0.722181
Si Si5 0.145593 0.425732 0.880748
Si Si6 0.885295 0.903980 0.666133
O O1 0.368161 0.373770 0.517185
O O2 0.262479 0.469591 0.624284
O O3 0.360919 0.501864 0.440509
O O4 0.133146 0.427385 0.452254
O O5 0.656633 0.750000 0.752533
O O6 0.490675 0.827886 0.636618
O O7 0.739837 0.870502 0.701695
O O8 0.520221 0.854655 0.826776
O O9 0.516080 0.750000 0.473510
O O10 0.360504 0.863036 0.462259
O O11 0.508281 0.080245 0.691261
O O12 0.284462 0.081128 0.811442
O O13 0.415987 0.966996 0.760334
#
# Coordination Sequence:
#
# PCOD8250428 Si02
#       6
#     8   8   8   8   8   8
#     4   9  18  32  52  73  97 131 166 199 237 292
#     4  10  19  31  49  72  99 127 157 195 244 294
#     4   9  17  31  51  72  94 128 166 197 236 292
#     4  10  18  32  51  72  96 126 163 202 242 280
#     4  10  19  33  52  74  99 127 163 205 241 285
#     4  10  18  31  49  73  97 125 161 200 238 287
#
# _framework density 19.673207999999999
#
# number of rings (size 3 to 8) (size 9 to 14) (size 15 to 20)
#    0.000    2.333    0.000    6.500    0.000    0.667 
#    0.000   12.500    0.000    0.000    0.000    0.000 
#    0.000    0.000    0.000    0.000    0.000    0.000 
#
# Total GULP energy -594802.497801 kJ/mol
# GULP energy per Si atom -12391.718704 kJ/mol
# Density = 1.962843 g / cm^3
# Si number density = 19.673208 Si / 1000 Ang^3
#
#
#
# Elastic Constant Matrix: (Units=GPa)
#
#
# Indices 1 2 3 4 5 6 
#
# 1 29.2350 -2.0141 -13.1198 0.0000 0.0000 0.0000
# 2 -2.0141 83.9146 -0.1609 0.0000 0.0000 0.0000
# 3 -13.1198 -0.1609 28.7048 0.0000 0.0000 0.0000
# 4 0.0000 0.0000 0.0000 24.5207 0.0000 0.0000
# 5 0.0000 0.0000 0.0000 0.0000 33.2648 0.0000
# 6 0.0000 0.0000 0.0000 0.0000 0.0000 11.3864
#
#
#
# Elastic Compliance Matrix: (Units=1/GPa)
#
#
# Indices 1 2 3 4 5 6 
#
# 1 0.043129 0.001073 0.019718 0.000000 0.000000 0.000000
# 2 0.001073 0.011944 0.000557 0.000000 0.000000 0.000000
# 3 0.019718 0.000557 0.043853 0.000000 0.000000 0.000000
# 4 0.000000 0.000000 0.000000 0.040782 0.000000 0.000000
# 5 0.000000 0.000000 0.000000 0.000000 0.030062 0.000000
# 6 0.000000 0.000000 0.000000 0.000000 0.000000 0.087824
#
#
# Mechanical properties :
#
#
# Convention : Reuss Voigt Hill
#
# Bulk Modulus (GPa) = 7.06102 12.36275 9.71188
# Shear Modulus (GPa) = 19.07646 24.31099 21.69372
#
# Velocity S-wave (km/s) = 3.11733 3.51912 3.32430
# Velocity P-wave (km/s) = 4.06865 4.77598 4.43644
#
# Compressibility (1/GPa) = 0.14162262
#
# Stress axis : x y z
#
# Youngs Moduli (GPa) = 23.18652 83.72612 22.80344
#
# Poissons Ratio (x) = -0.08984 -0.44965
# Poissons Ratio (y) = -0.02488 -0.01271
# Poissons Ratio (z) = -0.45720 -0.04666
#
# Static dielectric constant tensor:
#      x y z
#    x 3.197520 0.000000 0.000000 
#    y 0.000000 3.627090 0.000000 
#    z 0.000000 0.000000 3.923740 
# 
# 
# High freq. dielectric constant tensor:
#      x y z
#    x 1.737990 0.000000 0.000000 
#    y 0.000000 1.756720 0.000000 
#    z 0.000000 0.000000 1.762630 
# 
# From -- ./inp_files/12247.got.cif
#   From: 2010.03.12/outbox.cif.g09.slc.cpg/sg62_7_cif.got.tgz:12247.got - 2010.04.10 19:12:36.
