data_PCOD8250485
_publ_section_title
;
Structure prediction by ZEFSAII (Michael W. Deem and Ramdas Pophale) SiO2 
 PCOD8250485
Probable space group: P N M A
;
_chemical_formula_sum "Si O2"
_cell_formula_units_Z 56
_cell_length_a 17.041166
_cell_length_b 20.473946
_cell_length_c 8.742719
_cell_angle_alpha 90.000000
_cell_angle_beta 90.000000
_cell_angle_gamma 90.000000
_cell_volume 3050.333894
_symmetry_space_group_name_H-M "P N M A"
_symmetry_group_IT_number 62
_symmetry_cell_setting 'orthorhombic'
loop_
_space_group_symop_operation_xyz
x,y,z
1/2-x,-y,1/2+z
1/2+x,1/2-y,1/2-z
-x,1/2+y,-z
-x,-y,-z
1/2+x,y,1/2-z
1/2-x,1/2+y,1/2+z
x,1/2-y,z
loop_
_atom_site_type_symbol
_atom_site_label
_atom_site_fract_x
_atom_site_fract_y
_atom_site_fract_z
Si Si1 0.896473 0.906118 0.262682
Si Si2 0.481959 0.424073 0.004179
Si Si3 0.658770 0.326115 0.500878
Si Si4 0.040826 0.414742 0.167012
Si Si5 0.253419 0.039130 0.647150
Si Si6 0.700279 0.581753 0.019074
Si Si7 0.400597 0.474204 0.478611
O O1 0.881917 0.841642 0.163247
O O2 0.823314 0.915778 0.378798
O O3 0.975338 0.892965 0.357164
O O4 0.897632 0.971619 0.156502
O O5 0.500000 0.500000 0.000000
O O6 0.519289 0.398037 0.160167
O O7 0.391491 0.403174 0.998638
O O8 0.661927 0.250000 0.468662
O O9 0.603294 0.359418 0.374882
O O10 0.748116 0.352738 0.502370
O O11 0.076185 0.487530 0.136386
O O12 0.961053 0.416001 0.062664
O O13 0.317584 0.059372 0.518346
O O14 0.228575 0.964219 0.619250
O O15 0.285141 0.046549 0.819192
#
# Coordination Sequence:
#
# PCOD8250485 Si02
#       7
#     8   8   8   8   8   8   8
#     4  10  21  35  57  88 121 156 185 246 305 360
#     4  12  21  33  57 100 128 142 180 252 325 363
#     4  10  23  45  61  76 113 172 217 235 282 369
#     4  10  20  33  57  84 114 154 191 243 296 353
#     4  11  18  32  51  87 119 154 189 233 309 360
#     4  11  23  33  58  88 124 157 190 251 302 359
#     4  10  18  31  52  85 125 148 185 235 308 360
#
# _framework density 18.358647000000001
#
# number of rings (size 3 to 8) (size 9 to 14) (size 15 to 20)
#    0.000    1.429    7.143    0.857    4.000    0.000 
#    0.000    2.143    0.000    0.000    0.000    0.000 
#    0.000    0.000    0.000    0.000    0.000    0.000 
#
# Total GULP energy -693947.166111 kJ/mol
# GULP energy per Si atom -12391.913681 kJ/mol
# Density = 1.831686 g / cm^3
# Si number density = 18.358647 Si / 1000 Ang^3
#
#
#
# Elastic Constant Matrix: (Units=GPa)
#
#
# Indices 1 2 3 4 5 6 
#
# 1 160.6660 41.2895 60.3366 0.0000 0.0000 0.0000
# 2 41.2895 71.2039 35.1501 0.0000 0.0000 0.0000
# 3 60.3366 35.1501 93.2403 0.0000 0.0000 0.0000
# 4 0.0000 0.0000 0.0000 11.5965 0.0000 0.0000
# 5 0.0000 0.0000 0.0000 0.0000 37.2325 0.0000
# 6 0.0000 0.0000 0.0000 0.0000 0.0000 16.8612
#
#
#
# Elastic Compliance Matrix: (Units=1/GPa)
#
#
# Indices 1 2 3 4 5 6 
#
# 1 0.008644 -0.002766 -0.004551 0.000000 0.000000 0.000000
# 2 -0.002766 0.018140 -0.005049 0.000000 0.000000 0.000000
# 3 -0.004551 -0.005049 0.015573 0.000000 0.000000 0.000000
# 4 0.000000 0.000000 0.000000 0.086233 0.000000 0.000000
# 5 0.000000 0.000000 0.000000 0.000000 0.026858 0.000000
# 6 0.000000 0.000000 0.000000 0.000000 0.000000 0.059308
#
#
# Mechanical properties :
#
#
# Convention : Reuss Voigt Hill
#
# Bulk Modulus (GPa) = 56.73301 66.51805 61.62553
# Shear Modulus (GPa) = 20.37797 25.69364 23.03580
#
# Velocity S-wave (km/s) = 3.33527 3.74510 3.54611
# Velocity P-wave (km/s) = 6.76770 7.41702 7.09979
#
# Compressibility (1/GPa) = 0.01762642
#
# Stress axis : x y z
#
# Youngs Moduli (GPa) = 115.68818 55.12561 64.21287
#
# Poissons Ratio (x) = 0.15247 0.29222
# Poissons Ratio (y) = 0.31998 0.32420
# Poissons Ratio (z) = 0.52648 0.27832
#
# Static dielectric constant tensor:
#      x y z
#    x 3.967490 0.000000 0.000000 
#    y 0.000000 2.738930 0.000000 
#    z 0.000000 0.000000 3.618490 
# 
# 
# High freq. dielectric constant tensor:
#      x y z
#    x 1.742140 0.000000 0.000000 
#    y 0.000000 1.631530 0.000000 
#    z 0.000000 0.000000 1.718770 
# 
# From -- ./inp_files/8021.got.cif
#   From: 2010.03.12/outbox.cif.g09.slc.cpg/sg62_5_cif.got.tgz:8021.got - 2010.04.10 19:12:36.
