data_PCOD8250590
_publ_section_title
;
Structure prediction by ZEFSAII (Michael W. Deem and Ramdas Pophale) SiO2 
 PCOD8250590
Probable space group: P N M A
;
_chemical_formula_sum "Si O2"
_cell_formula_units_Z 64
_cell_length_a 33.464261
_cell_length_b 8.907666
_cell_length_c 11.756782
_cell_angle_alpha 90.000000
_cell_angle_beta 90.000000
_cell_angle_gamma 90.000000
_cell_volume 3504.561040
_symmetry_space_group_name_H-M "P N M A"
_symmetry_group_IT_number 62
_symmetry_cell_setting 'orthorhombic'
loop_
_space_group_symop_operation_xyz
x,y,z
1/2-x,-y,1/2+z
1/2+x,1/2-y,1/2-z
-x,1/2+y,-z
-x,-y,-z
1/2+x,y,1/2-z
1/2-x,1/2+y,1/2+z
x,1/2-y,z
loop_
_atom_site_type_symbol
_atom_site_label
_atom_site_fract_x
_atom_site_fract_y
_atom_site_fract_z
Si Si1 0.127860 0.572634 0.189003
Si Si2 0.328254 0.576373 0.117838
Si Si3 0.767172 0.925093 0.186035
Si Si4 0.669514 0.576509 0.542200
Si Si5 0.608093 0.576099 0.740701
Si Si6 0.185367 0.425939 0.358403
Si Si7 0.034083 0.425987 0.855728
Si Si8 0.047319 0.073688 0.115915
O O1 0.123154 0.750000 0.197232
O O2 0.147767 0.508202 0.302266
O O3 0.084355 0.502006 0.178156
O O4 0.155626 0.526821 0.082489
O O5 0.339900 0.750000 0.130910
O O6 0.291461 0.535459 0.199919
O O7 0.367179 0.479885 0.150191
O O8 0.314944 0.534790 0.991455
O O9 0.757842 0.750000 0.174870
O O10 0.792133 0.978038 0.075874
O O11 0.725997 0.013586 0.196117
O O12 0.682481 0.750000 0.546343
O O13 0.633209 0.543668 0.627167
O O14 0.597897 0.750000 0.755211
O O15 0.566969 0.484532 0.732940
O O16 0.181999 0.250000 0.335475
O O17 0.027723 0.250000 0.840351
O O18 0.992730 0.508623 0.827485
O O19 0.048388 0.467604 0.982712
O O20 0.048842 0.250000 0.136533
#
# Coordination Sequence:
#
# PCOD8250590 Si02
#       8
#     8   8   8   8   8   8   8   8
#     4  11  22  37  56  80 114 150 185 227 279 333
#     4   9  21  40  57  76 108 145 183 229 276 327
#     4  10  21  37  58  82 106 139 182 230 279 327
#     4   9  19  34  53  78 110 144 177 222 275 327
#     4  10  18  32  56  83 110 142 182 225 272 325
#     4  11  24  40  57  79 109 147 188 229 279 332
#     4  10  19  31  52  82 116 151 184 223 274 328
#     4  10  20  33  52  80 116 151 187 227 272 329
#
# _framework density 18.261917
#
# number of rings (size 3 to 8) (size 9 to 14) (size 15 to 20)
#    0.000    2.000    1.250    2.250    1.750    4.000 
#    0.000    0.000    0.000    0.750    0.000    0.000 
#    0.000    0.000    0.000    0.000    0.000    0.000 
#
# Total GULP energy -793939.645640 kJ/mol
# GULP energy per Si atom -12405.306963 kJ/mol
# Density = 1.822035 g / cm^3
# Si number density = 18.261917 Si / 1000 Ang^3
#
#
#
# Elastic Constant Matrix: (Units=GPa)
#
#
# Indices 1 2 3 4 5 6 
#
# 1 135.0563 59.8781 46.1467 0.0000 0.0000 0.0000
# 2 59.8781 81.9809 34.6560 0.0000 0.0000 0.0000
# 3 46.1467 34.6560 72.9930 0.0000 0.0000 0.0000
# 4 0.0000 0.0000 0.0000 24.9518 0.0000 0.0000
# 5 0.0000 0.0000 0.0000 0.0000 22.7380 0.0000
# 6 0.0000 0.0000 0.0000 0.0000 0.0000 40.2392
#
#
#
# Elastic Compliance Matrix: (Units=1/GPa)
#
#
# Indices 1 2 3 4 5 6 
#
# 1 0.011922 -0.006908 -0.004257 0.000000 0.000000 0.000000
# 2 -0.006908 0.019264 -0.004779 0.000000 0.000000 0.000000
# 3 -0.004257 -0.004779 0.018660 0.000000 0.000000 0.000000
# 4 0.000000 0.000000 0.000000 0.040077 0.000000 0.000000
# 5 0.000000 0.000000 0.000000 0.000000 0.043979 0.000000
# 6 0.000000 0.000000 0.000000 0.000000 0.000000 0.024851
#
#
# Mechanical properties :
#
#
# Convention : Reuss Voigt Hill
#
# Bulk Modulus (GPa) = 55.68639 63.48797 59.58718
# Shear Modulus (GPa) = 25.42886 27.54241 26.48564
#
# Velocity S-wave (km/s) = 3.73561 3.88775 3.81244
# Velocity P-wave (km/s) = 7.01183 7.41576 7.21662
#
# Compressibility (1/GPa) = 0.01795771
#
# Stress axis : x y z
#
# Youngs Moduli (GPa) = 83.88192 51.91163 53.58960
#
# Poissons Ratio (x) = 0.35859 0.22814
# Poissons Ratio (y) = 0.57943 0.25610
# Poissons Ratio (z) = 0.35710 0.24808
#
# Static dielectric constant tensor:
#      x y z
#    x 3.366010 0.000000 0.000000 
#    y 0.000000 3.408180 0.000000 
#    z 0.000000 0.000000 3.209820 
# 
# 
# High freq. dielectric constant tensor:
#      x y z
#    x 1.711930 0.000000 0.000000 
#    y 0.000000 1.719810 0.000000 
#    z 0.000000 0.000000 1.680910 
# 
# From -- ./inp_files/15832.got.cif
#   From: 2010.03.12/outbox.cif.g09.slc.cpg/sg62_8_cif.got.tgz:15832.got - 2010.04.10 19:12:36.
