data_PCOD8250967
_publ_section_title
;
Structure prediction by ZEFSAII (Michael W. Deem and Ramdas Pophale) SiO2 
 PCOD8250967
Probable space group: P N M A
;
_chemical_formula_sum "Si O2"
_cell_formula_units_Z 48
_cell_length_a 17.276535
_cell_length_b 17.861606
_cell_length_c 8.771878
_cell_angle_alpha 90.000000
_cell_angle_beta 90.000000
_cell_angle_gamma 90.000000
_cell_volume 2706.884545
_symmetry_space_group_name_H-M "P N M A"
_symmetry_group_IT_number 62
_symmetry_cell_setting 'orthorhombic'
loop_
_space_group_symop_operation_xyz
x,y,z
1/2-x,-y,1/2+z
1/2+x,1/2-y,1/2-z
-x,1/2+y,-z
-x,-y,-z
1/2+x,y,1/2-z
1/2-x,1/2+y,1/2+z
x,1/2-y,z
loop_
_atom_site_type_symbol
_atom_site_label
_atom_site_fract_x
_atom_site_fract_y
_atom_site_fract_z
Si Si1 0.823535 0.943670 0.828749
Si Si2 0.309905 0.449018 0.408113
Si Si3 0.573132 0.938505 0.157061
Si Si4 0.908342 0.164992 0.917068
Si Si5 0.460332 0.662868 0.657208
Si Si6 0.940668 0.453052 0.327857
O O1 0.759745 0.923877 0.701941
O O2 0.873708 0.869719 0.869092
O O3 0.879961 0.005017 0.760956
O O4 0.787288 0.980330 0.983294
O O5 0.335844 0.378128 0.508162
O O6 0.381540 0.473293 0.304479
O O7 0.576647 0.859039 0.242322
O O8 0.485705 0.969161 0.146893
O O9 0.604552 0.930987 0.984141
O O10 0.881938 0.250000 0.918930
O O11 0.989147 0.152070 0.004881
O O12 0.454128 0.750000 0.703850
O O13 0.503235 0.617035 0.790888
#
# Coordination Sequence:
#
# PCOD8250967 Si02
#       6
#     8   8   8   8   8   8
#     4  10  19  31  49  70  96 128 162 200 239 285
#     4  10  19  31  49  71  95 126 162 198 239 281
#     4   9  17  30  49  72  96 124 159 198 240 282
#     4   9  18  32  49  70  98 129 159 194 238 287
#     4   9  18  32  49  70  95 124 156 192 238 287
#     4   9  17  30  49  73  96 121 158 201 238 282
#
# _framework density 17.732562000000001
#
# number of rings (size 3 to 8) (size 9 to 14) (size 15 to 20)
#    0.000    2.667    0.000    2.000    0.000    5.333 
#    0.000    0.000    0.000    8.000    0.000    0.000 
#    0.000    0.000    0.000    0.000    0.000    0.000 
#
# Total GULP energy -594967.641296 kJ/mol
# GULP energy per Si atom -12395.159194 kJ/mol
# Density = 1.769220 g / cm^3
# Si number density = 17.732562 Si / 1000 Ang^3
#
#
#
# Elastic Constant Matrix: (Units=GPa)
#
#
# Indices 1 2 3 4 5 6 
#
# 1 60.7117 18.0467 16.4290 0.0000 0.0000 0.0000
# 2 18.0467 73.4623 32.8823 0.0000 0.0000 0.0000
# 3 16.4290 32.8823 106.7640 0.0000 0.0000 0.0000
# 4 0.0000 0.0000 0.0000 21.9915 0.0000 0.0000
# 5 0.0000 0.0000 0.0000 0.0000 22.1053 0.0000
# 6 0.0000 0.0000 0.0000 0.0000 0.0000 12.2976
#
#
#
# Elastic Compliance Matrix: (Units=1/GPa)
#
#
# Indices 1 2 3 4 5 6 
#
# 1 0.018011 -0.003693 -0.001634 0.000000 0.000000 0.000000
# 2 -0.003693 0.016546 -0.004528 0.000000 0.000000 0.000000
# 3 -0.001634 -0.004528 0.011012 0.000000 0.000000 0.000000
# 4 0.000000 0.000000 0.000000 0.045472 0.000000 0.000000
# 5 0.000000 0.000000 0.000000 0.000000 0.045238 0.000000
# 6 0.000000 0.000000 0.000000 0.000000 0.000000 0.081316
#
#
# Mechanical properties :
#
#
# Convention : Reuss Voigt Hill
#
# Bulk Modulus (GPa) = 38.67002 41.73935 40.20469
# Shear Modulus (GPa) = 20.33125 22.85089 21.59107
#
# Velocity S-wave (km/s) = 3.38975 3.59366 3.49319
# Velocity P-wave (km/s) = 6.09715 6.38815 6.24435
#
# Compressibility (1/GPa) = 0.02585982
#
# Stress axis : x y z
#
# Youngs Moduli (GPa) = 55.52071 60.43621 90.80642
#
# Poissons Ratio (x) = 0.22320 0.14839
# Poissons Ratio (y) = 0.20505 0.41115
# Poissons Ratio (z) = 0.09073 0.27364
#
# Static dielectric constant tensor:
#      x y z
#    x 3.191020 0.000000 0.000000 
#    y 0.000000 3.195280 0.000000 
#    z 0.000000 0.000000 3.478610 
# 
# 
# High freq. dielectric constant tensor:
#      x y z
#    x 1.672240 0.000000 0.000000 
#    y 0.000000 1.666900 0.000000 
#    z 0.000000 0.000000 1.695330 
# 
# From -- ./inp_files/6490.got.cif
#   From: 2010.03.12/outbox.cif.g09.slc.cpg/sg62_4_cif.got.tgz:6490.got - 2010.04.10 19:12:36.
