data_PCOD8250736
_publ_section_title
;
Structure prediction by ZEFSAII (Michael W. Deem and Ramdas Pophale) SiO2 
 PCOD8250736
Probable space group: P N M A
;
_chemical_formula_sum "Si O2"
_cell_formula_units_Z 64
_cell_length_a 14.926846
_cell_length_b 18.900141
_cell_length_c 11.166462
_cell_angle_alpha 90.000000
_cell_angle_beta 90.000000
_cell_angle_gamma 90.000000
_cell_volume 3150.276610
_symmetry_space_group_name_H-M "P N M A"
_symmetry_group_IT_number 62
_symmetry_cell_setting 'orthorhombic'
loop_
_space_group_symop_operation_xyz
x,y,z
1/2-x,-y,1/2+z
1/2+x,1/2-y,1/2-z
-x,1/2+y,-z
-x,-y,-z
1/2+x,y,1/2-z
1/2-x,1/2+y,1/2+z
x,1/2-y,z
loop_
_atom_site_type_symbol
_atom_site_label
_atom_site_fract_x
_atom_site_fract_y
_atom_site_fract_z
Si Si1 0.710628 0.440188 0.261413
Si Si2 0.168613 0.669752 0.643269
Si Si3 0.426855 0.945817 0.547227
Si Si4 0.196338 0.077599 0.823039
Si Si5 0.869907 0.671491 0.605710
Si Si6 0.932940 0.831519 0.340265
Si Si7 0.013859 0.672137 0.813808
Si Si8 0.367676 0.169852 0.876167
O O1 0.749032 0.384350 0.358402
O O2 0.621454 0.470837 0.328178
O O3 0.780874 0.501423 0.232297
O O4 0.694589 0.394241 0.140061
O O5 0.204247 0.750000 0.659519
O O6 0.106902 0.646674 0.755236
O O7 0.116516 0.663088 0.518362
O O8 0.350223 0.931515 0.450436
O O9 0.483356 0.875433 0.575480
O O10 0.500000 0.000000 0.500000
O O11 0.127911 0.117621 0.737764
O O12 0.289547 0.119259 0.830718
O O13 0.822926 0.750000 0.602429
O O14 0.911697 0.653869 0.478154
O O15 0.945146 0.673224 0.705507
O O16 0.914071 0.750000 0.306046
O O17 0.037348 0.850366 0.315799
O O18 0.025015 0.750000 0.869006
O O19 0.340479 0.250000 0.842418
#
# Coordination Sequence:
#
# PCOD8250736 Si02
#       8
#     8   8   8   8   8   8   8   8
#     4  11  24  39  61  90 126 167 213 265 314 375
#     4  10  18  37  65  94 120 151 205 266 316 369
#     4  11  25  43  58  87 132 174 209 260 318 381
#     4  12  26  41  64  91 131 174 214 255 317 386
#     4   9  18  37  63  91 118 155 204 259 317 372
#     4  10  22  42  67  92 124 164 207 262 319 379
#     4   9  18  36  65  93 115 150 205 261 319 374
#     4  10  21  41  66  93 124 160 214 265 310 378
#
# _framework density 20.315676
#
# number of rings (size 3 to 8) (size 9 to 14) (size 15 to 20)
#    0.000    1.750    2.500    1.500    3.500    1.500 
#    0.000    1.250    0.000    0.000    0.000    0.000 
#    0.000    0.000    0.000    0.000    0.000    0.000 
#
# Total GULP energy -793283.168710 kJ/mol
# GULP energy per Si atom -12395.049511 kJ/mol
# Density = 2.026944 g / cm^3
# Si number density = 20.315676 Si / 1000 Ang^3
#
#
#
# Elastic Constant Matrix: (Units=GPa)
#
#
# Indices 1 2 3 4 5 6 
#
# 1 108.3399 65.9728 37.3222 0.0000 0.0000 0.0000
# 2 65.9728 115.3932 46.3701 0.0000 0.0000 0.0000
# 3 37.3222 46.3701 65.6586 0.0000 0.0000 0.0000
# 4 0.0000 0.0000 0.0000 20.0139 0.0000 0.0000
# 5 0.0000 0.0000 0.0000 0.0000 36.9952 0.0000
# 6 0.0000 0.0000 0.0000 0.0000 0.0000 38.4215
#
#
#
# Elastic Compliance Matrix: (Units=1/GPa)
#
#
# Indices 1 2 3 4 5 6 
#
# 1 0.014676 -0.007035 -0.003374 0.000000 0.000000 0.000000
# 2 -0.007035 0.015472 -0.006928 0.000000 0.000000 0.000000
# 3 -0.003374 -0.006928 0.022041 0.000000 0.000000 0.000000
# 4 0.000000 0.000000 0.000000 0.049965 0.000000 0.000000
# 5 0.000000 0.000000 0.000000 0.000000 0.027031 0.000000
# 6 0.000000 0.000000 0.000000 0.000000 0.000000 0.026027
#
#
# Mechanical properties :
#
#
# Convention : Reuss Voigt Hill
#
# Bulk Modulus (GPa) = 57.09297 65.41352 61.25325
# Shear Modulus (GPa) = 25.54602 28.40122 26.97362
#
# Velocity S-wave (km/s) = 3.54991 3.74303 3.64775
# Velocity P-wave (km/s) = 6.70570 7.13785 6.92514
#
# Compressibility (1/GPa) = 0.01751529
#
# Stress axis : x y z
#
# Youngs Moduli (GPa) = 68.13619 64.63282 45.36989
#
# Poissons Ratio (x) = 0.45469 0.15309
# Poissons Ratio (y) = 0.47933 0.31432
# Poissons Ratio (z) = 0.22991 0.44777
#
# Static dielectric constant tensor:
#      x y z
#    x 3.624380 0.000000 0.000000 
#    y 0.000000 3.572130 0.000000 
#    z 0.000000 0.000000 3.650400 
# 
# 
# High freq. dielectric constant tensor:
#      x y z
#    x 1.797920 0.000000 0.000000 
#    y 0.000000 1.793860 0.000000 
#    z 0.000000 0.000000 1.782500 
# 
# From -- ./inp_files/13583.got.cif
#   From: 2010.03.12/outbox.cif.g09.slc.cpg/sg62_7_cif.got.tgz:13583.got - 2010.04.10 19:12:36.
