data_PCOD8250627
_publ_section_title
;
Structure prediction by ZEFSAII (Michael W. Deem and Ramdas Pophale) SiO2 
 PCOD8250627
Probable space group: P N M A
;
_chemical_formula_sum "Si O2"
_cell_formula_units_Z 56
_cell_length_a 14.334225
_cell_length_b 13.177877
_cell_length_c 15.287065
_cell_angle_alpha 90.000000
_cell_angle_beta 90.000000
_cell_angle_gamma 90.000000
_cell_volume 2887.644853
_symmetry_space_group_name_H-M "P N M A"
_symmetry_group_IT_number 62
_symmetry_cell_setting 'orthorhombic'
loop_
_space_group_symop_operation_xyz
x,y,z
1/2-x,-y,1/2+z
1/2+x,1/2-y,1/2-z
-x,1/2+y,-z
-x,-y,-z
1/2+x,y,1/2-z
1/2-x,1/2+y,1/2+z
x,1/2-y,z
loop_
_atom_site_type_symbol
_atom_site_label
_atom_site_fract_x
_atom_site_fract_y
_atom_site_fract_z
Si Si1 0.784510 0.496985 0.236220
Si Si2 0.577247 0.369432 0.642722
Si Si3 0.842019 0.135416 0.396677
Si Si4 0.325350 0.546750 0.524187
Si Si5 0.045327 0.365383 0.361633
Si Si6 0.244690 0.368906 0.426744
Si Si7 0.589092 0.998690 0.297268
O O1 0.847699 0.592898 0.213112
O O2 0.818380 0.446850 0.324402
O O3 0.789925 0.409342 0.162939
O O4 0.680750 0.542624 0.247730
O O5 0.576135 0.250000 0.640416
O O6 0.603095 0.412674 0.547788
O O7 0.475737 0.406740 0.672630
O O8 0.825646 0.250000 0.363048
O O9 0.770940 0.113327 0.476997
O O10 0.951624 0.120343 0.420299
O O11 0.293653 0.430120 0.505952
O O12 0.378535 0.559570 0.616112
O O13 0.057313 0.250000 0.330103
O O14 0.133620 0.393364 0.422756
O O15 0.036077 0.427940 0.270999
O O16 0.265931 0.250000 0.439362
#
# Coordination Sequence:
#
# PCOD8250627 Si02
#       7
#     8   8   8   8   8   8   8
#     4   9  19  35  57  81 106 142 186 236 271 315
#     4  11  22  37  54  78 114 148 180 221 276 334
#     4  10  18  33  57  82 107 142 186 229 276 319
#     4  10  22  35  53  82 114 149 177 224 274 335
#     4   9  18  33  59  85 105 137 186 237 275 313
#     4   9  18  34  53  79 113 147 181 225 276 325
#     4  10  20  37  57  80 109 141 186 226 271 321
#
# _framework density 19.392966000000001
#
# number of rings (size 3 to 8) (size 9 to 14) (size 15 to 20)
#    0.000    2.286    1.429    1.286    0.000    5.714 
#    0.000    2.143    0.000    0.000    0.000    0.000 
#    0.000    0.000    0.000    0.000    0.000    0.000 
#
# Total GULP energy -694087.667959 kJ/mol
# GULP energy per Si atom -12394.422642 kJ/mol
# Density = 1.934883 g / cm^3
# Si number density = 19.392966 Si / 1000 Ang^3
#
#
#
# Elastic Constant Matrix: (Units=GPa)
#
#
# Indices 1 2 3 4 5 6 
#
# 1 86.3200 43.3473 9.8295 0.0000 0.0000 0.0000
# 2 43.3473 105.1868 14.0329 0.0000 0.0000 0.0000
# 3 9.8295 14.0329 40.2324 0.0000 0.0000 0.0000
# 4 0.0000 0.0000 0.0000 19.7189 0.0000 0.0000
# 5 0.0000 0.0000 0.0000 0.0000 22.2325 0.0000
# 6 0.0000 0.0000 0.0000 0.0000 0.0000 28.6608
#
#
#
# Elastic Compliance Matrix: (Units=1/GPa)
#
#
# Indices 1 2 3 4 5 6 
#
# 1 0.014699 -0.005851 -0.001551 0.000000 0.000000 0.000000
# 2 -0.005851 0.012300 -0.002861 0.000000 0.000000 0.000000
# 3 -0.001551 -0.002861 0.026232 0.000000 0.000000 0.000000
# 4 0.000000 0.000000 0.000000 0.050713 0.000000 0.000000
# 5 0.000000 0.000000 0.000000 0.000000 0.044979 0.000000
# 6 0.000000 0.000000 0.000000 0.000000 0.000000 0.034891
#
#
# Mechanical properties :
#
#
# Convention : Reuss Voigt Hill
#
# Bulk Modulus (GPa) = 30.57422 40.68429 35.62925
# Shear Modulus (GPa) = 23.22983 25.09108 24.16046
#
# Velocity S-wave (km/s) = 3.46475 3.60088 3.53347
# Velocity P-wave (km/s) = 5.63967 6.18974 5.92109
#
# Compressibility (1/GPa) = 0.03270730
#
# Stress axis : x y z
#
# Youngs Moduli (GPa) = 68.02974 81.30332 38.12104
#
# Poissons Ratio (x) = 0.47569 0.05911
# Poissons Ratio (y) = 0.39803 0.10905
# Poissons Ratio (z) = 0.10549 0.23258
#
# Static dielectric constant tensor:
#      x y z
#    x 4.003850 0.000000 0.000000 
#    y 0.000000 3.340030 0.000000 
#    z 0.000000 0.000000 3.413220 
# 
# 
# High freq. dielectric constant tensor:
#      x y z
#    x 1.774300 0.000000 0.000000 
#    y 0.000000 1.737980 0.000000 
#    z 0.000000 0.000000 1.735520 
# 
# From -- ./inp_files/19031.got.cif
#   From: 2010.03.12/outbox.cif.g09.slc.cpg/sg62_10_cif.got.tgz:19031.got - 2010.04.10 19:12:36.
