data_PCOD8250330
_publ_section_title
;
Structure prediction by ZEFSAII (Michael W. Deem and Ramdas Pophale) SiO2 
 PCOD8250330
Probable space group: P N M A
;
_chemical_formula_sum "Si O2"
_cell_formula_units_Z 64
_cell_length_a 23.683859
_cell_length_b 8.569450
_cell_length_c 19.289428
_cell_angle_alpha 90.000000
_cell_angle_beta 90.000000
_cell_angle_gamma 90.000000
_cell_volume 3914.936890
_symmetry_space_group_name_H-M "P N M A"
_symmetry_group_IT_number 62
_symmetry_cell_setting 'orthorhombic'
loop_
_space_group_symop_operation_xyz
x,y,z
1/2-x,-y,1/2+z
1/2+x,1/2-y,1/2-z
-x,1/2+y,-z
-x,-y,-z
1/2+x,y,1/2-z
1/2-x,1/2+y,1/2+z
x,1/2-y,z
loop_
_atom_site_type_symbol
_atom_site_label
_atom_site_fract_x
_atom_site_fract_y
_atom_site_fract_z
Si Si1 0.232133 0.565133 0.346852
Si Si2 0.062442 0.065636 0.855766
Si Si3 0.225861 0.433356 0.633728
Si Si4 0.165133 0.565343 0.220986
Si Si5 0.838901 0.935287 0.235630
Si Si6 0.562706 0.564079 0.365281
Si Si7 0.759668 0.567271 0.003076
Si Si8 0.882533 0.432876 0.008244
O O1 0.233275 0.750000 0.339789
O O2 0.180114 0.502737 0.298756
O O3 0.290834 0.497970 0.316046
O O4 0.226454 0.514553 0.426962
O O5 0.057725 0.250000 0.851895
O O6 0.100361 0.002053 0.791230
O O7 0.999545 0.993240 0.850866
O O8 0.092464 0.024437 0.927206
O O9 0.223787 0.250000 0.618471
O O10 0.284815 0.482604 0.668870
O O11 0.174634 0.485305 0.685072
O O12 0.219384 0.525735 0.561581
O O13 0.160309 0.750000 0.221904
O O14 0.106003 0.495525 0.192716
O O15 0.837398 0.750000 0.231147
O O16 0.562150 0.750000 0.361830
O O17 0.582859 0.510471 0.441070
O O18 0.773667 0.750000 0.005394
O O19 0.817211 0.471568 0.996599
O O20 0.889448 0.250000 0.020918
#
# Coordination Sequence:
#
# PCOD8250330 Si02
#       8
#     8   8   8   8   8   8   8   8
#     4   8  14  24  41  61  82 109 139 172 213 254
#     4  10  18  30  46  64  85 112 149 183 210 244
#     4   9  16  28  46  62  83 113 142 172 215 263
#     4   8  13  25  43  62  82 107 141 176 212 252
#     4   8  14  26  44  63  82 110 142 174 211 251
#     4   9  17  27  43  64  85 111 145 182 212 246
#     4  11  19  28  44  67  89 113 145 181 217 252
#     4  11  20  30  41  61  92 123 149 172 208 255
#
# _framework density 16.347645
#
# number of rings (size 3 to 8) (size 9 to 14) (size 15 to 20)
#    0.000    2.750    2.500    2.625    0.000    0.000 
#    0.000    1.250    0.000    0.000    0.000    0.875 
#    0.000    0.000    0.000    0.000    0.000    0.000 
#
# Total GULP energy -793022.513671 kJ/mol
# GULP energy per Si atom -12390.976776 kJ/mol
# Density = 1.631044 g / cm^3
# Si number density = 16.347645 Si / 1000 Ang^3
#
#
#
# Elastic Constant Matrix: (Units=GPa)
#
#
# Indices 1 2 3 4 5 6 
#
# 1 84.2111 2.3234 57.6323 0.0000 0.0000 0.0000
# 2 2.3234 5.9702 6.4327 0.0000 0.0000 0.0000
# 3 57.6323 6.4327 128.1750 0.0000 0.0000 0.0000
# 4 0.0000 0.0000 0.0000 19.8162 0.0000 0.0000
# 5 0.0000 0.0000 0.0000 0.0000 23.8411 0.0000
# 6 0.0000 0.0000 0.0000 0.0000 0.0000 10.4293
#
#
#
# Elastic Compliance Matrix: (Units=1/GPa)
#
#
# Indices 1 2 3 4 5 6 
#
# 1 0.017170 0.001730 -0.007807 0.000000 0.000000 0.000000
# 2 0.001730 0.177248 -0.009673 0.000000 0.000000 0.000000
# 3 -0.007807 -0.009673 0.011798 0.000000 0.000000 0.000000
# 4 0.000000 0.000000 0.000000 0.050464 0.000000 0.000000
# 5 0.000000 0.000000 0.000000 0.000000 0.041944 0.000000
# 6 0.000000 0.000000 0.000000 0.000000 0.000000 0.095883
#
#
# Mechanical properties :
#
#
# Convention : Reuss Voigt Hill
#
# Bulk Modulus (GPa) = 5.72362 39.01478 22.36920
# Shear Modulus (GPa) = 10.32531 20.94851 15.63691
#
# Velocity S-wave (km/s) = 2.51591 3.58360 3.09613
# Velocity P-wave (km/s) = 3.45666 6.40628 5.14728
#
# Compressibility (1/GPa) = 0.17471451
#
# Stress axis : x y z
#
# Youngs Moduli (GPa) = 58.24012 5.64182 84.76219
#
# Poissons Ratio (x) = -0.00976 0.66176
# Poissons Ratio (y) = -0.10074 0.81992
# Poissons Ratio (z) = 0.45469 0.05457
#
# Static dielectric constant tensor:
#      x y z
#    x 3.364910 0.000000 0.000000 
#    y 0.000000 2.658070 0.000000 
#    z 0.000000 0.000000 3.397760 
# 
# 
# High freq. dielectric constant tensor:
#      x y z
#    x 1.604950 0.000000 0.000000 
#    y 0.000000 1.589460 0.000000 
#    z 0.000000 0.000000 1.630370 
# 
# From -- ./inp_files/27991.got.cif
#   From: 2010.03.12/outbox.cif.g09.slc.cpg/sg62_14_cif.got.tgz:27991.got - 2010.04.10 19:12:36.
