data_PCOD8250748
_publ_section_title
;
Structure prediction by ZEFSAII (Michael W. Deem and Ramdas Pophale) SiO2 
 PCOD8250748
Probable space group: P N M A
;
_chemical_formula_sum "Si O2"
_cell_formula_units_Z 40
_cell_length_a 13.314194
_cell_length_b 14.386924
_cell_length_c 9.723462
_cell_angle_alpha 90.000000
_cell_angle_beta 90.000000
_cell_angle_gamma 90.000000
_cell_volume 1862.532036
_symmetry_space_group_name_H-M "P N M A"
_symmetry_group_IT_number 62
_symmetry_cell_setting 'orthorhombic'
loop_
_space_group_symop_operation_xyz
x,y,z
1/2-x,-y,1/2+z
1/2+x,1/2-y,1/2-z
-x,1/2+y,-z
-x,-y,-z
1/2+x,y,1/2-z
1/2-x,1/2+y,1/2+z
x,1/2-y,z
loop_
_atom_site_type_symbol
_atom_site_label
_atom_site_fract_x
_atom_site_fract_y
_atom_site_fract_z
Si Si1 0.008075 0.595602 0.166457
Si Si2 0.943397 0.750000 0.342010
Si Si3 0.131778 0.750000 0.040192
Si Si4 0.285601 0.936042 0.440570
Si Si5 0.329218 0.750000 0.872239
Si Si6 0.163402 0.056503 0.241015
Si Si7 0.749886 0.750000 0.180311
O O1 0.065307 0.655140 0.045797
O O2 0.062602 0.501397 0.212696
O O3 0.005829 0.656431 0.308446
O O4 0.901590 0.565789 0.104354
O O5 0.898439 0.750000 0.492735
O O6 0.866981 0.750000 0.214332
O O7 0.194396 0.750000 0.177828
O O8 0.210058 0.750000 0.912115
O O9 0.271518 0.950750 0.602407
O O10 0.225468 0.841715 0.406030
O O11 0.230251 0.020005 0.365951
O O12 0.361016 0.837246 0.778850
#
# Coordination Sequence:
#
# PCOD8250748 Si02
#       7
#     8   4   4   8   4   8   4
#     4  10  21  41  71  95 126 174 224 263 329 399
#     4   8  20  38  63  96 120 167 211 269 317 387
#     4  10  18  41  70  97 124 173 213 266 326 398
#     4  11  24  42  67  98 129 174 219 274 326 395
#     4  11  25  41  62  95 139 169 215 274 330 374
#     4  12  25  42  66  95 136 171 222 271 329 388
#     4   9  17  38  65  88 129 159 215 255 329 375
#
# _framework density 21.476140000000001
#
# number of rings (size 3 to 8) (size 9 to 14) (size 15 to 20)
#    0.000    1.600    2.000    3.000    5.600    0.800 
#    0.000    1.000    0.000    0.000    0.000    0.000 
#    0.000    0.000    0.000    0.000    0.000    0.000 
#
# Total GULP energy -495837.274555 kJ/mol
# GULP energy per Si atom -12395.931864 kJ/mol
# Density = 2.142726 g / cm^3
# Si number density = 21.476140 Si / 1000 Ang^3
#
#
#
# Elastic Constant Matrix: (Units=GPa)
#
#
# Indices 1 2 3 4 5 6 
#
# 1 38.7605 21.7921 -7.4959 0.0000 0.0000 0.0000
# 2 21.7921 151.6448 39.0882 0.0000 0.0000 0.0000
# 3 -7.4959 39.0882 111.5880 0.0000 0.0000 0.0000
# 4 0.0000 0.0000 0.0000 35.2064 0.0000 0.0000
# 5 0.0000 0.0000 0.0000 0.0000 25.9695 0.0000
# 6 0.0000 0.0000 0.0000 0.0000 0.0000 15.9963
#
#
#
# Elastic Compliance Matrix: (Units=1/GPa)
#
#
# Indices 1 2 3 4 5 6 
#
# 1 0.029468 -0.005216 0.003807 0.000000 0.000000 0.000000
# 2 -0.005216 0.008172 -0.003213 0.000000 0.000000 0.000000
# 3 0.003807 -0.003213 0.010343 0.000000 0.000000 0.000000
# 4 0.000000 0.000000 0.000000 0.028404 0.000000 0.000000
# 5 0.000000 0.000000 0.000000 0.000000 0.038507 0.000000
# 6 0.000000 0.000000 0.000000 0.000000 0.000000 0.062514
#
#
# Mechanical properties :
#
#
# Convention : Reuss Voigt Hill
#
# Bulk Modulus (GPa) = 25.81420 45.41800 35.61610
# Shear Modulus (GPa) = 25.05445 32.00836 28.53141
#
# Velocity S-wave (km/s) = 3.41928 3.86478 3.64884
# Velocity P-wave (km/s) = 5.25687 6.41166 5.86277
#
# Compressibility (1/GPa) = 0.03873837
#
# Stress axis : x y z
#
# Youngs Moduli (GPa) = 33.93495 122.36763 96.68635
#
# Poissons Ratio (x) = 0.63826 -0.36805
# Poissons Ratio (y) = 0.17700 0.31065
# Poissons Ratio (z) = -0.12918 0.39316
#
# Static dielectric constant tensor:
#      x y z
#    x 4.107990 0.000000 0.000000 
#    y 0.000000 3.869410 0.000000 
#    z 0.000000 0.000000 3.723870 
# 
# 
# High freq. dielectric constant tensor:
#      x y z
#    x 1.839040 0.000000 0.000000 
#    y 0.000000 1.860590 0.000000 
#    z 0.000000 0.000000 1.825090 
# 
# From -- ./inp_files/6164.got.cif
#   From: 2010.03.12/outbox.cif.g09.slc.cpg/sg62_4_cif.got.tgz:6164.got - 2010.04.10 19:12:36.
