data_PCOD8250968
_publ_section_title
;
Structure prediction by ZEFSAII (Michael W. Deem and Ramdas Pophale) SiO2 
 PCOD8250968
Probable space group: P N M A
;
_chemical_formula_sum "Si O2"
_cell_formula_units_Z 64
_cell_length_a 14.256026
_cell_length_b 9.135698
_cell_length_c 30.087723
_cell_angle_alpha 90.000000
_cell_angle_beta 90.000000
_cell_angle_gamma 90.000000
_cell_volume 3918.587380
_symmetry_space_group_name_H-M "P N M A"
_symmetry_group_IT_number 62
_symmetry_cell_setting 'orthorhombic'
loop_
_space_group_symop_operation_xyz
x,y,z
1/2-x,-y,1/2+z
1/2+x,1/2-y,1/2-z
-x,1/2+y,-z
-x,-y,-z
1/2+x,y,1/2-z
1/2-x,1/2+y,1/2+z
x,1/2-y,z
loop_
_atom_site_type_symbol
_atom_site_label
_atom_site_fract_x
_atom_site_fract_y
_atom_site_fract_z
Si Si1 0.643743 0.424036 0.367595
Si Si2 0.265156 0.421775 0.214417
Si Si3 0.609227 0.920333 0.453380
Si Si4 0.109686 0.079245 0.957581
Si Si5 0.829586 0.917467 0.695827
Si Si6 0.706898 0.083543 0.631895
Si Si7 0.974475 0.082516 0.267573
Si Si8 0.484247 0.917954 0.321139
O O1 0.645146 0.250000 0.372564
O O2 0.715910 0.483545 0.330046
O O3 0.668040 0.496996 0.414981
O O4 0.540706 0.479278 0.354617
O O5 0.247245 0.250000 0.214976
O O6 0.217392 0.486493 0.259312
O O7 0.375015 0.462208 0.211130
O O8 0.633916 0.750000 0.451912
O O9 0.498895 0.949751 0.446211
O O10 0.642563 0.985159 0.500385
O O11 0.125075 0.250000 0.967799
O O12 0.172365 0.025576 0.916009
O O13 0.798157 0.750000 0.692337
O O14 0.942489 0.933732 0.696523
O O15 0.795102 0.994978 0.650866
O O16 0.738950 0.250000 0.626965
O O17 0.624669 0.066601 0.667783
O O18 0.970438 0.250000 0.249528
O O19 0.000714 0.973017 0.228425
O O20 0.518007 0.750000 0.326213
#
# Coordination Sequence:
#
# PCOD8250968 Si02
#       8
#     8   8   8   8   8   8   8   8
#     4  11  20  32  49  70  96 132 168 195 236 286
#     4   9  18  31  48  70  94 125 166 201 232 281
#     4  10  19  32  48  72 100 124 157 198 239 285
#     4   9  18  33  48  67  97 130 160 191 235 290
#     4  10  19  31  49  71  93 125 166 200 236 282
#     4  10  20  33  47  68  99 130 161 197 237 282
#     4  10  19  34  49  66  96 129 163 205 239 277
#     4  11  20  30  45  69  98 128 162 201 239 277
#
# _framework density 16.332415999999998
#
# number of rings (size 3 to 8) (size 9 to 14) (size 15 to 20)
#    0.000    2.000    3.750    1.125    0.000    2.000 
#    0.000    1.250    0.000    0.000    0.000    0.875 
#    0.000    0.000    0.000    0.000    0.000    0.000 
#
# Total GULP energy -793518.319799 kJ/mol
# GULP energy per Si atom -12398.723747 kJ/mol
# Density = 1.629524 g / cm^3
# Si number density = 16.332416 Si / 1000 Ang^3
#
#
#
# Elastic Constant Matrix: (Units=GPa)
#
#
# Indices 1 2 3 4 5 6 
#
# 1 63.6212 20.4484 27.2003 0.0000 0.0000 0.0000
# 2 20.4484 59.4620 42.3247 0.0000 0.0000 0.0000
# 3 27.2003 42.3247 105.5960 0.0000 0.0000 0.0000
# 4 0.0000 0.0000 0.0000 29.3301 0.0000 0.0000
# 5 0.0000 0.0000 0.0000 0.0000 26.5258 0.0000
# 6 0.0000 0.0000 0.0000 0.0000 0.0000 16.9381
#
#
#
# Elastic Compliance Matrix: (Units=1/GPa)
#
#
# Indices 1 2 3 4 5 6 
#
# 1 0.018359 -0.004124 -0.003076 0.000000 0.000000 0.000000
# 2 -0.004124 0.024457 -0.008741 0.000000 0.000000 0.000000
# 3 -0.003076 -0.008741 0.013766 0.000000 0.000000 0.000000
# 4 0.000000 0.000000 0.000000 0.034095 0.000000 0.000000
# 5 0.000000 0.000000 0.000000 0.000000 0.037699 0.000000
# 6 0.000000 0.000000 0.000000 0.000000 0.000000 0.059039
#
#
# Mechanical properties :
#
#
# Convention : Reuss Voigt Hill
#
# Bulk Modulus (GPa) = 40.48491 45.40289 42.94390
# Shear Modulus (GPa) = 21.97529 23.80585 22.89057
#
# Velocity S-wave (km/s) = 3.67209 3.82197 3.74778
# Velocity P-wave (km/s) = 6.54376 6.88013 6.71406
#
# Compressibility (1/GPa) = 0.02470056
#
# Stress axis : x y z
#
# Youngs Moduli (GPa) = 54.47050 40.88796 72.64388
#
# Poissons Ratio (x) = 0.16861 0.22346
# Poissons Ratio (y) = 0.22462 0.63495
# Poissons Ratio (z) = 0.16755 0.35738
#
# Static dielectric constant tensor:
#      x y z
#    x 2.935220 0.000000 0.000000 
#    y 0.000000 3.009720 0.000000 
#    z 0.000000 0.000000 3.130630 
# 
# 
# High freq. dielectric constant tensor:
#      x y z
#    x 1.598260 0.000000 0.000000 
#    y 0.000000 1.622800 0.000000 
#    z 0.000000 0.000000 1.621530 
# 
# From -- ./inp_files/32696.got.cif
#   From: 2010.03.12/outbox.cif.g09.slc.cpg/sg62_17_cif.got.tgz:32696.got - 2010.04.10 19:12:36.
