data_PCOD8250260
_publ_section_title
;
Structure prediction by ZEFSAII (Michael W. Deem and Ramdas Pophale) SiO2 
 PCOD8250260
Probable space group: P N M A
;
_chemical_formula_sum "Si O2"
_cell_formula_units_Z 64
_cell_length_a 24.759162
_cell_length_b 10.975660
_cell_length_c 12.437859
_cell_angle_alpha 90.000000
_cell_angle_beta 90.000000
_cell_angle_gamma 90.000000
_cell_volume 3379.965099
_symmetry_space_group_name_H-M "P N M A"
_symmetry_group_IT_number 62
_symmetry_cell_setting 'orthorhombic'
loop_
_space_group_symop_operation_xyz
x,y,z
1/2-x,-y,1/2+z
1/2+x,1/2-y,1/2-z
-x,1/2+y,-z
-x,-y,-z
1/2+x,y,1/2-z
1/2-x,1/2+y,1/2+z
x,1/2-y,z
loop_
_atom_site_type_symbol
_atom_site_label
_atom_site_fract_x
_atom_site_fract_y
_atom_site_fract_z
Si Si1 0.620219 0.611725 0.817430
Si Si2 0.163774 0.110062 0.191325
Si Si3 0.187516 0.389393 0.426483
Si Si4 0.923876 0.957807 0.502085
Si Si5 0.986260 0.118014 0.647870
Si Si6 0.560694 0.111064 0.426479
Si Si7 0.727365 0.890845 0.932172
Si Si8 0.542310 0.497519 0.657321
O O1 0.605928 0.750000 0.797930
O O2 0.588615 0.571038 0.923848
O O3 0.684415 0.589971 0.834540
O O4 0.597399 0.544962 0.711749
O O5 0.150721 0.250000 0.214270
O O6 0.181312 0.057047 0.306368
O O7 0.109530 0.047753 0.141827
O O8 0.212460 0.092165 0.109060
O O9 0.213077 0.250000 0.432803
O O10 0.128666 0.376147 0.479924
O O11 0.220940 0.498379 0.483096
O O12 0.943391 0.012996 0.616971
O O13 0.969404 0.875570 0.447511
O O14 0.957733 0.250000 0.652650
O O15 0.014107 0.098386 0.763114
O O16 0.576068 0.250000 0.440015
O O17 0.560129 0.058551 0.545597
O O18 0.503264 0.099294 0.366597
O O19 0.719647 0.750000 0.977376
#
# Coordination Sequence:
#
# PCOD8250260 Si02
#       8
#     8   8   8   8   8   8   8   8
#     4   9  17  31  50  72  99 130 168 215 266 317
#     4   9  19  35  55  76 101 138 176 211 259 318
#     4  10  19  34  56  78 102 133 172 217 260 307
#     4   9  18  29  46  73 100 133 169 205 255 310
#     4  10  18  29  45  69 103 134 167 211 256 304
#     4  10  20  35  51  70 101 136 174 216 258 315
#     4   9  19  36  56  79 107 138 174 218 269 322
#     4  10  20  31  49  74  98 134 176 215 262 311
#
# _framework density 18.935106999999999
#
# number of rings (size 3 to 8) (size 9 to 14) (size 15 to 20)
#    0.000    2.500    0.000    2.250    0.000    1.500 
#    0.000    5.000    0.000    5.250    0.000    0.000 
#    0.000    0.000    0.000    0.000    0.000    0.000 
#
# Total GULP energy -792932.344485 kJ/mol
# GULP energy per Si atom -12389.567883 kJ/mol
# Density = 1.889201 g / cm^3
# Si number density = 18.935107 Si / 1000 Ang^3
#
#
#
# Elastic Constant Matrix: (Units=GPa)
#
#
# Indices 1 2 3 4 5 6 
#
# 1 65.9779 14.1741 24.6402 0.0000 0.0000 0.0000
# 2 14.1741 80.2197 35.3999 0.0000 0.0000 0.0000
# 3 24.6402 35.3999 100.9407 0.0000 0.0000 0.0000
# 4 0.0000 0.0000 0.0000 16.5429 0.0000 0.0000
# 5 0.0000 0.0000 0.0000 0.0000 22.1501 0.0000
# 6 0.0000 0.0000 0.0000 0.0000 0.0000 17.5498
#
#
#
# Elastic Compliance Matrix: (Units=1/GPa)
#
#
# Indices 1 2 3 4 5 6 
#
# 1 0.016803 -0.001371 -0.003621 0.000000 0.000000 0.000000
# 2 -0.001371 0.014860 -0.004877 0.000000 0.000000 0.000000
# 3 -0.003621 -0.004877 0.012501 0.000000 0.000000 0.000000
# 4 0.000000 0.000000 0.000000 0.060449 0.000000 0.000000
# 5 0.000000 0.000000 0.000000 0.000000 0.045147 0.000000
# 6 0.000000 0.000000 0.000000 0.000000 0.000000 0.056981
#
#
# Mechanical properties :
#
#
# Convention : Reuss Voigt Hill
#
# Bulk Modulus (GPa) = 40.93857 43.95187 42.44522
# Shear Modulus (GPa) = 21.31100 22.77683 22.04391
#
# Velocity S-wave (km/s) = 3.35845 3.47203 3.41571
# Velocity P-wave (km/s) = 6.05857 6.27181 6.16611
#
# Compressibility (1/GPa) = 0.02442684
#
# Stress axis : x y z
#
# Youngs Moduli (GPa) = 59.51162 67.29446 79.99370
#
# Poissons Ratio (x) = 0.09227 0.28965
# Poissons Ratio (y) = 0.08160 0.39011
# Poissons Ratio (z) = 0.21549 0.32818
#
# Static dielectric constant tensor:
#      x y z
#    x 3.488530 0.000000 0.000000 
#    y 0.000000 3.309720 0.000000 
#    z 0.000000 0.000000 3.477360 
# 
# 
# High freq. dielectric constant tensor:
#      x y z
#    x 1.730070 0.000000 0.000000 
#    y 0.000000 1.721180 0.000000 
#    z 0.000000 0.000000 1.733280 
# 
# From -- ./inp_files/15569.got.cif
#   From: 2010.03.12/outbox.cif.g09.slc.cpg/sg62_8_cif.got.tgz:15569.got - 2010.04.10 19:12:36.
