data_PCOD8250371
_publ_section_title
;
Structure prediction by ZEFSAII (Michael W. Deem and Ramdas Pophale) SiO2 
 PCOD8250371
Probable space group: P N M A
;
_chemical_formula_sum "Si O2"
_cell_formula_units_Z 48
_cell_length_a 7.964196
_cell_length_b 32.953128
_cell_length_c 9.382322
_cell_angle_alpha 90.000000
_cell_angle_beta 90.000000
_cell_angle_gamma 90.000000
_cell_volume 2462.345094
_symmetry_space_group_name_H-M "P N M A"
_symmetry_group_IT_number 62
_symmetry_cell_setting 'orthorhombic'
loop_
_space_group_symop_operation_xyz
x,y,z
1/2-x,-y,1/2+z
1/2+x,1/2-y,1/2-z
-x,1/2+y,-z
-x,-y,-z
1/2+x,y,1/2-z
1/2-x,1/2+y,1/2+z
x,1/2-y,z
loop_
_atom_site_type_symbol
_atom_site_label
_atom_site_fract_x
_atom_site_fract_y
_atom_site_fract_z
Si Si1 0.536484 0.796339 0.451610
Si Si2 0.163501 0.418710 0.185195
Si Si3 0.028185 0.545468 0.546997
Si Si4 0.772867 0.167526 0.684053
Si Si5 0.360641 0.130893 0.385929
Si Si6 0.423449 0.618496 0.113778
O O1 0.567762 0.750000 0.493778
O O2 0.658511 0.808346 0.321341
O O3 0.341840 0.802357 0.407994
O O4 0.574974 0.822969 0.593871
O O5 0.277339 0.448978 0.092392
O O6 0.094268 0.443085 0.322127
O O7 0.279090 0.379794 0.232687
O O8 0.014248 0.400639 0.088782
O O9 0.991327 0.572832 0.406341
O O10 0.000000 0.500000 0.500000
O O11 0.657747 0.128599 0.732255
O O12 0.923844 0.150253 0.587794
O O13 0.219302 0.124399 0.500249
#
# Coordination Sequence:
#
# PCOD8250371 Si02
#       6
#     8   8   8   8   8   8
#     4  10  18  30  49  77 103 129 164 207 247 286
#     4   9  19  37  54  71  99 134 167 203 249 301
#     4  10  20  34  53  77 101 129 167 211 251 290
#     4   9  18  31  49  73 106 137 163 198 247 304
#     4   9  18  34  55  71  95 136 171 199 245 304
#     4   9  18  32  50  73 100 137 170 196 245 307
#
# _framework density 19.493613
#
# number of rings (size 3 to 8) (size 9 to 14) (size 15 to 20)
#    0.000    2.667    0.000    1.500    0.000    1.333 
#    0.000    9.167    0.000    0.000    0.000    0.000 
#    0.000    0.000    0.000    0.000    0.000    0.000 
#
# Total GULP energy -594732.940156 kJ/mol
# GULP energy per Si atom -12390.269587 kJ/mol
# Density = 1.944924 g / cm^3
# Si number density = 19.493613 Si / 1000 Ang^3
#
#
#
# Elastic Constant Matrix: (Units=GPa)
#
#
# Indices 1 2 3 4 5 6 
#
# 1 119.6860 45.7175 24.8940 0.0000 0.0000 0.0000
# 2 45.7175 147.1962 37.6156 0.0000 0.0000 0.0000
# 3 24.8940 37.6156 35.5259 0.0000 0.0000 0.0000
# 4 0.0000 0.0000 0.0000 31.7190 0.0000 0.0000
# 5 0.0000 0.0000 0.0000 0.0000 30.0281 0.0000
# 6 0.0000 0.0000 0.0000 0.0000 0.0000 25.0953
#
#
#
# Elastic Compliance Matrix: (Units=1/GPa)
#
#
# Indices 1 2 3 4 5 6 
#
# 1 0.010126 -0.001826 -0.005163 0.000000 0.000000 0.000000
# 2 -0.001826 0.009643 -0.008931 0.000000 0.000000 0.000000
# 3 -0.005163 -0.008931 0.041222 0.000000 0.000000 0.000000
# 4 0.000000 0.000000 0.000000 0.031527 0.000000 0.000000
# 5 0.000000 0.000000 0.000000 0.000000 0.033302 0.000000
# 6 0.000000 0.000000 0.000000 0.000000 0.000000 0.039848
#
#
# Mechanical properties :
#
#
# Convention : Reuss Voigt Hill
#
# Bulk Modulus (GPa) = 34.30167 57.65135 45.97651
# Shear Modulus (GPa) = 24.12839 30.31388 27.22114
#
# Velocity S-wave (km/s) = 3.52200 3.94771 3.74092
# Velocity P-wave (km/s) = 5.84584 7.10056 6.50353
#
# Compressibility (1/GPa) = 0.02915310
#
# Stress axis : x y z
#
# Youngs Moduli (GPa) = 98.75153 103.70240 24.25881
#
# Poissons Ratio (x) = 0.18935 0.12524
# Poissons Ratio (y) = 0.18031 0.21665
# Poissons Ratio (z) = 0.50981 0.92614
#
# Static dielectric constant tensor:
#      x y z
#    x 3.988620 0.000000 0.000000 
#    y 0.000000 3.583000 0.000000 
#    z 0.000000 0.000000 3.788930 
# 
# 
# High freq. dielectric constant tensor:
#      x y z
#    x 1.787000 0.000000 0.000000 
#    y 0.000000 1.735470 0.000000 
#    z 0.000000 0.000000 1.729190 
# 
# From -- ./inp_files/11317.got.cif
#   From: 2010.03.12/outbox.cif.g09.slc.cpg/sg62_6_cif.got.tgz:11317.got - 2010.04.10 19:12:36.
