data_PCOD8250907
_publ_section_title
;
Structure prediction by ZEFSAII (Michael W. Deem and Ramdas Pophale) SiO2 
 PCOD8250907
Probable space group: P N M A
;
_chemical_formula_sum "Si O2"
_cell_formula_units_Z 56
_cell_length_a 9.587319
_cell_length_b 13.484105
_cell_length_c 19.311018
_cell_angle_alpha 90.000000
_cell_angle_beta 90.000000
_cell_angle_gamma 90.000000
_cell_volume 2496.459198
_symmetry_space_group_name_H-M "P N M A"
_symmetry_group_IT_number 62
_symmetry_cell_setting 'orthorhombic'
loop_
_space_group_symop_operation_xyz
x,y,z
1/2-x,-y,1/2+z
1/2+x,1/2-y,1/2-z
-x,1/2+y,-z
-x,-y,-z
1/2+x,y,1/2-z
1/2-x,1/2+y,1/2+z
x,1/2-y,z
loop_
_atom_site_type_symbol
_atom_site_label
_atom_site_fract_x
_atom_site_fract_y
_atom_site_fract_z
Si Si1 0.439927 0.864407 0.603289
Si Si2 0.762964 0.131811 0.513262
Si Si3 0.728502 0.637358 0.165140
Si Si4 0.068262 0.136596 0.717222
Si Si5 0.238118 0.634649 0.847167
Si Si6 0.277582 0.448774 0.196598
Si Si7 0.520528 0.863075 0.905912
O O1 0.401347 0.750000 0.618651
O O2 0.377085 0.897840 0.529105
O O3 0.605387 0.879723 0.603363
O O4 0.375458 0.930913 0.665178
O O5 0.771480 0.250000 0.516656
O O6 0.759699 0.083594 0.590203
O O7 0.898122 0.088715 0.471566
O O8 0.694003 0.750000 0.148765
O O9 0.876903 0.627555 0.203698
O O10 0.593811 0.601323 0.210975
O O11 0.091906 0.250000 0.690511
O O12 0.166415 0.059140 0.675651
O O13 0.258424 0.750000 0.825094
O O14 0.224014 0.565570 0.779500
O O15 0.368575 0.590766 0.890518
O O16 0.383871 0.370444 0.162604
O O17 0.493744 0.750000 0.923962
#
# Coordination Sequence:
#
# PCOD8250907 Si02
#       7
#     8   8   8   8   8   8   8
#     4   9  18  32  52  85 117 148 183 215 264 338
#     4   8  15  33  59  79 108 147 181 218 275 333
#     4   9  19  39  61  81 105 139 184 239 283 323
#     4  10  23  39  58  82 105 136 190 240 282 325
#     4  10  19  30  50  83 123 150 179 221 263 321
#     4  11  20  31  54  77 113 152 187 224 280 321
#     4   9  18  32  52  86 118 148 183 215 261 337
#
# _framework density 22.431771999999999
#
# number of rings (size 3 to 8) (size 9 to 14) (size 15 to 20)
#    0.000    2.571    0.000    3.000    4.000    2.286 
#    0.000    4.286    0.000    9.429    0.000    0.000 
#    0.000    0.000    0.000    0.000    0.000    0.000 
#
# Total GULP energy -693843.091966 kJ/mol
# GULP energy per Si atom -12390.055214 kJ/mol
# Density = 2.238072 g / cm^3
# Si number density = 22.431772 Si / 1000 Ang^3
#
#
#
# Elastic Constant Matrix: (Units=GPa)
#
#
# Indices 1 2 3 4 5 6 
#
# 1 154.6520 -4.4096 84.0404 0.0000 0.0000 0.0000
# 2 -4.4096 45.0421 -5.1982 0.0000 0.0000 0.0000
# 3 84.0404 -5.1982 156.4165 0.0000 0.0000 0.0000
# 4 0.0000 0.0000 0.0000 -3.2094 0.0000 0.0000
# 5 0.0000 0.0000 0.0000 0.0000 17.3480 0.0000
# 6 0.0000 0.0000 0.0000 0.0000 0.0000 14.0625
#
#
#
# Elastic Compliance Matrix: (Units=1/GPa)
#
#
# Indices 1 2 3 4 5 6 
#
# 1 0.009137 0.000329 -0.004898 0.000000 0.000000 0.000000
# 2 0.000329 0.022299 0.000564 0.000000 0.000000 0.000000
# 3 -0.004898 0.000564 0.009044 0.000000 0.000000 0.000000
# 4 0.000000 0.000000 0.000000 -0.311582 0.000000 0.000000
# 5 0.000000 0.000000 0.000000 0.000000 0.057644 0.000000
# 6 0.000000 0.000000 0.000000 0.000000 0.000000 0.071111
#
#
# Mechanical properties :
#
#
# Convention : Reuss Voigt Hill
#
# Bulk Modulus (GPa) = 30.79778 56.10841 43.45310
# Shear Modulus (GPa) = -40.48129 24.41876 -8.03127
#
# Velocity S-wave (km/s) = -4.25272 3.30294 -1.89422
# Velocity P-wave (km/s) = 3.21788 6.29390 3.82481
#
# Compressibility (1/GPa) = 0.03246987
#
# Stress axis : x y z
#
# Youngs Moduli (GPa) = 109.44005 44.84552 110.57286
#
# Poissons Ratio (x) = -0.01476 0.54164
# Poissons Ratio (y) = -0.03603 -0.06238
# Poissons Ratio (z) = 0.53609 -0.02530
#
# Static dielectric constant tensor:
#      x y z
#    x 4.147620 0.000000 0.000000 
#    y 0.000000 4.020940 0.000000 
#    z 0.000000 0.000000 4.057580 
# 
# 
# High freq. dielectric constant tensor:
#      x y z
#    x 1.887220 0.000000 0.000000 
#    y 0.000000 1.879920 0.000000 
#    z 0.000000 0.000000 1.857770 
# 
# From -- ./inp_files/25977.got.cif
#   From: 2010.03.12/outbox.cif.g09.slc.cpg/sg62_13_cif.got.tgz:25977.got - 2010.04.10 19:12:36.
