data_PCOD8250617
_publ_section_title
;
Structure prediction by ZEFSAII (Michael W. Deem and Ramdas Pophale) SiO2 
 PCOD8250617
Probable space group: P N M A
;
_chemical_formula_sum "Si O2"
_cell_formula_units_Z 56
_cell_length_a 17.409360
_cell_length_b 9.407231
_cell_length_c 18.653962
_cell_angle_alpha 90.000000
_cell_angle_beta 90.000000
_cell_angle_gamma 90.000000
_cell_volume 3055.031568
_symmetry_space_group_name_H-M "P N M A"
_symmetry_group_IT_number 62
_symmetry_cell_setting 'orthorhombic'
loop_
_space_group_symop_operation_xyz
x,y,z
1/2-x,-y,1/2+z
1/2+x,1/2-y,1/2-z
-x,1/2+y,-z
-x,-y,-z
1/2+x,y,1/2-z
1/2-x,1/2+y,1/2+z
x,1/2-y,z
loop_
_atom_site_type_symbol
_atom_site_label
_atom_site_fract_x
_atom_site_fract_y
_atom_site_fract_z
Si Si1 0.449468 0.409074 0.097201
Si Si2 0.478195 0.083489 0.571671
Si Si3 0.695264 0.586829 0.407717
Si Si4 0.624830 0.417046 0.656308
Si Si5 0.667771 0.415145 0.811954
Si Si6 0.254548 0.582114 0.457564
Si Si7 0.914461 0.092224 0.569774
O O1 0.451371 0.250000 0.129359
O O2 0.381936 0.498892 0.131643
O O3 0.531312 0.483993 0.113104
O O4 0.435307 0.404432 0.013271
O O5 0.484392 0.250000 0.553444
O O6 0.393805 0.040802 0.600613
O O7 0.537390 0.042966 0.635483
O O8 0.500000 0.000000 0.500000
O O9 0.699749 0.750000 0.432721
O O10 0.741955 0.565788 0.332943
O O11 0.737479 0.492667 0.466465
O O12 0.637938 0.250000 0.659268
O O13 0.649737 0.479592 0.733322
O O14 0.680097 0.479199 0.594863
O O15 0.643927 0.250000 0.816390
O O16 0.261124 0.750000 0.471344
O O17 0.173406 0.542897 0.421338
O O18 0.925899 0.250000 0.602475
#
# Coordination Sequence:
#
# PCOD8250617 Si02
#       7
#     8   8   8   8   8   8   8
#     4  10  19  32  52  76 103 137 177 217 264 317
#     4  10  19  34  56  82 107 137 178 225 272 321
#     4  10  20  32  53  82 108 137 176 222 274 323
#     4   9  19  35  55  78 106 141 180 223 268 320
#     4  10  20  36  53  75 109 146 180 220 275 329
#     4  10  18  33  56  80 104 137 180 221 262 318
#     4   9  18  31  50  78 104 132 174 219 264 312
#
# _framework density 18.330416
#
# number of rings (size 3 to 8) (size 9 to 14) (size 15 to 20)
#    0.000    2.286    2.857    0.429    0.000    1.143 
#    2.571    1.429    0.000    0.000    0.000    0.000 
#    0.000    0.000    0.000    0.000    0.000    0.000 
#
# Total GULP energy -694235.528777 kJ/mol
# GULP energy per Si atom -12397.063014 kJ/mol
# Density = 1.828870 g / cm^3
# Si number density = 18.330416 Si / 1000 Ang^3
#
#
#
# Elastic Constant Matrix: (Units=GPa)
#
#
# Indices 1 2 3 4 5 6 
#
# 1 144.7610 47.6427 51.7172 0.0000 0.0000 0.0000
# 2 47.6427 56.5088 23.7807 0.0000 0.0000 0.0000
# 3 51.7172 23.7807 62.8732 0.0000 0.0000 0.0000
# 4 0.0000 0.0000 0.0000 14.9665 0.0000 0.0000
# 5 0.0000 0.0000 0.0000 0.0000 27.0170 0.0000
# 6 0.0000 0.0000 0.0000 0.0000 0.0000 24.3149
#
#
#
# Elastic Compliance Matrix: (Units=1/GPa)
#
#
# Indices 1 2 3 4 5 6 
#
# 1 0.011679 -0.006902 -0.006996 0.000000 0.000000 0.000000
# 2 -0.006902 0.025126 -0.003826 0.000000 0.000000 0.000000
# 3 -0.006996 -0.003826 0.023107 0.000000 0.000000 0.000000
# 4 0.000000 0.000000 0.000000 0.066816 0.000000 0.000000
# 5 0.000000 0.000000 0.000000 0.000000 0.037014 0.000000
# 6 0.000000 0.000000 0.000000 0.000000 0.000000 0.041127
#
#
# Mechanical properties :
#
#
# Convention : Reuss Voigt Hill
#
# Bulk Modulus (GPa) = 40.87773 56.71380 48.79576
# Shear Modulus (GPa) = 20.12309 22.65984 21.39147
#
# Velocity S-wave (km/s) = 3.31690 3.51976 3.41983
# Velocity P-wave (km/s) = 6.08424 6.89385 6.50166
#
# Compressibility (1/GPa) = 0.02446320
#
# Stress axis : x y z
#
# Youngs Moduli (GPa) = 85.62372 39.79971 43.27754
#
# Poissons Ratio (x) = 0.27472 0.30277
# Poissons Ratio (y) = 0.59101 0.16557
# Poissons Ratio (z) = 0.59902 0.15226
#
# Static dielectric constant tensor:
#      x y z
#    x 3.712960 0.000000 0.000000 
#    y 0.000000 3.353630 0.000000 
#    z 0.000000 0.000000 3.238560 
# 
# 
# High freq. dielectric constant tensor:
#      x y z
#    x 1.728460 0.000000 0.000000 
#    y 0.000000 1.693180 0.000000 
#    z 0.000000 0.000000 1.682010 
# 
# From -- ./inp_files/27582.got.cif
#   From: 2010.03.12/outbox.cif.g09.slc.cpg/sg62_14_cif.got.tgz:27582.got - 2010.04.10 19:12:36.
