data_PCOD8250270
_publ_section_title
;
Structure prediction by ZEFSAII (Michael W. Deem and Ramdas Pophale) SiO2 
 PCOD8250270
Probable space group: P N M A
;
_chemical_formula_sum "Si O2"
_cell_formula_units_Z 64
_cell_length_a 12.023344
_cell_length_b 12.860017
_cell_length_c 24.692343
_cell_angle_alpha 90.000000
_cell_angle_beta 90.000000
_cell_angle_gamma 90.000000
_cell_volume 3817.940155
_symmetry_space_group_name_H-M "P N M A"
_symmetry_group_IT_number 62
_symmetry_cell_setting 'orthorhombic'
loop_
_space_group_symop_operation_xyz
x,y,z
1/2-x,-y,1/2+z
1/2+x,1/2-y,1/2-z
-x,1/2+y,-z
-x,-y,-z
1/2+x,y,1/2-z
1/2-x,1/2+y,1/2+z
x,1/2-y,z
loop_
_atom_site_type_symbol
_atom_site_label
_atom_site_fract_x
_atom_site_fract_y
_atom_site_fract_z
Si Si1 0.588207 0.626101 0.141328
Si Si2 0.606978 0.371764 0.785019
Si Si3 0.498670 0.446337 0.585388
Si Si4 0.279326 0.129129 0.626220
Si Si5 0.672990 0.435994 0.981855
Si Si6 0.435146 0.368080 0.981768
Si Si7 0.828962 0.871793 0.169840
Si Si8 0.593295 0.630936 0.524779
O O1 0.584833 0.750000 0.143171
O O2 0.495611 0.577811 0.181875
O O3 0.565257 0.590798 0.080011
O O4 0.706841 0.580726 0.160223
O O5 0.583344 0.250000 0.780972
O O6 0.722737 0.392256 0.816199
O O7 0.617654 0.420550 0.724743
O O8 0.388081 0.443633 0.622346
O O9 0.598151 0.392885 0.617261
O O10 0.532204 0.564498 0.571321
O O11 0.474647 0.381432 0.530975
O O12 0.314258 0.250000 0.619920
O O13 0.191780 0.100350 0.579570
O O14 0.561694 0.378858 0.003873
O O15 0.650880 0.560345 0.984468
O O16 0.779473 0.406693 0.018109
O O17 0.393334 0.250000 0.987738
O O18 0.816830 0.750000 0.178828
O O19 0.591121 0.750000 0.543375
#
# Coordination Sequence:
#
# PCOD8250270 Si02
#       8
#     8   8   8   8   8   8   8   8
#     4   9  17  29  42  63  96 128 157 190 236 285
#     4   9  18  29  45  66  95 134 163 189 239 299
#     4  10  20  32  50  75  98 126 168 198 249 291
#     4  10  18  32  49  67  98 134 166 199 238 298
#     4  10  18  29  49  70  94 134 172 195 240 301
#     4  10  18  29  46  71 102 132 164 206 246 289
#     4  10  19  29  45  71 103 129 157 201 243 287
#     4  10  20  35  51  71 100 131 166 207 246 302
#
# _framework density 16.762965000000001
#
# number of rings (size 3 to 8) (size 9 to 14) (size 15 to 20)
#    0.000    2.250    1.250    3.750    1.750    0.000 
#    0.000    7.500    0.000    0.000    0.000    1.750 
#    0.000    0.000    0.000    0.000    0.000    0.000 
#
# Total GULP energy -793406.101822 kJ/mol
# GULP energy per Si atom -12396.970341 kJ/mol
# Density = 1.672481 g / cm^3
# Si number density = 16.762965 Si / 1000 Ang^3
#
#
#
# Elastic Constant Matrix: (Units=GPa)
#
#
# Indices 1 2 3 4 5 6 
#
# 1 106.0925 30.2636 38.9488 0.0000 0.0000 0.0000
# 2 30.2636 67.1643 17.0493 0.0000 0.0000 0.0000
# 3 38.9488 17.0493 61.1937 0.0000 0.0000 0.0000
# 4 0.0000 0.0000 0.0000 15.5628 0.0000 0.0000
# 5 0.0000 0.0000 0.0000 0.0000 16.6711 0.0000
# 6 0.0000 0.0000 0.0000 0.0000 0.0000 23.0025
#
#
#
# Elastic Compliance Matrix: (Units=1/GPa)
#
#
# Indices 1 2 3 4 5 6 
#
# 1 0.013286 -0.004132 -0.007305 0.000000 0.000000 0.000000
# 2 -0.004132 0.017307 -0.002192 0.000000 0.000000 0.000000
# 3 -0.007305 -0.002192 0.021602 0.000000 0.000000 0.000000
# 4 0.000000 0.000000 0.000000 0.064256 0.000000 0.000000
# 5 0.000000 0.000000 0.000000 0.000000 0.059984 0.000000
# 6 0.000000 0.000000 0.000000 0.000000 0.000000 0.043474
#
#
# Mechanical properties :
#
#
# Convention : Reuss Voigt Hill
#
# Bulk Modulus (GPa) = 40.10157 45.21932 42.66044
# Shear Modulus (GPa) = 19.57100 20.92654 20.24877
#
# Velocity S-wave (km/s) = 3.42060 3.53707 3.47932
# Velocity P-wave (km/s) = 6.29089 6.61177 6.45332
#
# Compressibility (1/GPa) = 0.02493668
#
# Stress axis : x y z
#
# Youngs Moduli (GPa) = 75.26478 57.77932 46.29220
#
# Poissons Ratio (x) = 0.23876 0.33818
# Poissons Ratio (y) = 0.31102 0.10146
# Poissons Ratio (z) = 0.54983 0.12664
#
# Static dielectric constant tensor:
#      x y z
#    x 3.378730 0.000000 0.000000 
#    y 0.000000 2.832400 0.000000 
#    z 0.000000 0.000000 3.160410 
# 
# 
# High freq. dielectric constant tensor:
#      x y z
#    x 1.665670 0.000000 0.000000 
#    y 0.000000 1.594170 0.000000 
#    z 0.000000 0.000000 1.633110 
# 
# From -- ./inp_files/31225.got.cif
#   From: 2010.03.12/outbox.cif.g09.slc.cpg/sg62_16_cif.got.tgz:31225.got - 2010.04.10 19:12:36.
