data_PCOD8250362
_publ_section_title
;
Structure prediction by ZEFSAII (Michael W. Deem and Ramdas Pophale) SiO2 
 PCOD8250362
Probable space group: P N M A
;
_chemical_formula_sum "Si O2"
_cell_formula_units_Z 64
_cell_length_a 23.136972
_cell_length_b 9.265876
_cell_length_c 18.858201
_cell_angle_alpha 90.000000
_cell_angle_beta 90.000000
_cell_angle_gamma 90.000000
_cell_volume 4042.902477
_symmetry_space_group_name_H-M "P N M A"
_symmetry_group_IT_number 62
_symmetry_cell_setting 'orthorhombic'
loop_
_space_group_symop_operation_xyz
x,y,z
1/2-x,-y,1/2+z
1/2+x,1/2-y,1/2-z
-x,1/2+y,-z
-x,-y,-z
1/2+x,y,1/2-z
1/2-x,1/2+y,1/2+z
x,1/2-y,z
loop_
_atom_site_type_symbol
_atom_site_label
_atom_site_fract_x
_atom_site_fract_y
_atom_site_fract_z
Si Si1 0.232286 0.415214 0.355116
Si Si2 0.751332 0.084014 0.987754
Si Si3 0.155972 0.414685 0.227830
Si Si4 0.936437 0.081035 0.852521
Si Si5 0.326361 0.582188 0.272518
Si Si6 0.226551 0.580560 0.648165
Si Si7 0.616090 0.580247 0.500247
Si Si8 0.066743 0.083991 0.866877
O O1 0.253187 0.250000 0.341067
O O2 0.217971 0.438434 0.437806
O O3 0.174747 0.445805 0.309145
O O4 0.283446 0.521184 0.332274
O O5 0.748759 0.250000 0.962449
O O6 0.719816 0.984413 0.930233
O O7 0.817218 0.033570 0.997973
O O8 0.138000 0.250000 0.216701
O O9 0.100565 0.509992 0.210150
O O10 0.209544 0.455134 0.176918
O O11 0.926298 0.250000 0.846131
O O12 0.002966 0.036918 0.842059
O O13 0.914579 0.024900 0.928761
O O14 0.312200 0.750000 0.259913
O O15 0.320072 0.495716 0.199079
O O16 0.391341 0.558731 0.300165
O O17 0.213720 0.750000 0.646609
O O18 0.609547 0.750000 0.510074
O O19 0.584846 0.508079 0.565951
O O20 0.067216 0.250000 0.891283
#
# Coordination Sequence:
#
# PCOD8250362 Si02
#       8
#     8   8   8   8   8   8   8   8
#     4   9  18  32  48  68  96 123 153 194 237 279
#     4  10  18  30  49  72  97 127 157 188 233 286
#     4   9  18  31  46  66  90 121 156 192 232 273
#     4  10  20  33  46  65  94 127 162 198 231 269
#     4  10  19  31  47  67  91 123 160 195 234 279
#     4  10  20  32  48  69  95 122 154 197 239 281
#     4  10  19  30  46  67  95 130 164 192 224 271
#     4  10  21  33  46  66  94 127 163 199 232 269
#
# _framework density 15.830212
#
# number of rings (size 3 to 8) (size 9 to 14) (size 15 to 20)
#    0.000    2.250    2.500    1.875    0.000    4.500 
#    0.000    0.000    0.000    0.000    0.000    0.875 
#    0.000    0.000    0.000    0.000    0.000    0.000 
#
# Total GULP energy -793698.536276 kJ/mol
# GULP energy per Si atom -12401.539629 kJ/mol
# Density = 1.579418 g / cm^3
# Si number density = 15.830212 Si / 1000 Ang^3
#
#
#
# Elastic Constant Matrix: (Units=GPa)
#
#
# Indices 1 2 3 4 5 6 
#
# 1 81.3031 41.2083 55.6245 0.0000 0.0000 0.0000
# 2 41.2083 68.5147 54.0275 0.0000 0.0000 0.0000
# 3 55.6245 54.0275 117.1802 0.0000 0.0000 0.0000
# 4 0.0000 0.0000 0.0000 27.5522 0.0000 0.0000
# 5 0.0000 0.0000 0.0000 0.0000 22.4346 0.0000
# 6 0.0000 0.0000 0.0000 0.0000 0.0000 21.6586
#
#
#
# Elastic Compliance Matrix: (Units=1/GPa)
#
#
# Indices 1 2 3 4 5 6 
#
# 1 0.020266 -0.007233 -0.006285 0.000000 0.000000 0.000000
# 2 -0.007233 0.025515 -0.008331 0.000000 0.000000 0.000000
# 3 -0.006285 -0.008331 0.015358 0.000000 0.000000 0.000000
# 4 0.000000 0.000000 0.000000 0.036295 0.000000 0.000000
# 5 0.000000 0.000000 0.000000 0.000000 0.044574 0.000000
# 6 0.000000 0.000000 0.000000 0.000000 0.000000 0.046171
#
#
# Mechanical properties :
#
#
# Convention : Reuss Voigt Hill
#
# Bulk Modulus (GPa) = 57.33377 63.19095 60.26236
# Shear Modulus (GPa) = 21.03587 22.07157 21.55372
#
# Velocity S-wave (km/s) = 3.64929 3.73804 3.69393
# Velocity P-wave (km/s) = 7.35207 7.65736 7.50627
#
# Compressibility (1/GPa) = 0.01744173
#
# Stress axis : x y z
#
# Youngs Moduli (GPa) = 49.34472 39.19331 65.11115
#
# Poissons Ratio (x) = 0.28347 0.40924
# Poissons Ratio (y) = 0.35689 0.54241
# Poissons Ratio (z) = 0.31014 0.32650
#
# Static dielectric constant tensor:
#      x y z
#    x 2.873920 0.000000 0.000000 
#    y 0.000000 3.022070 0.000000 
#    z 0.000000 0.000000 3.036500 
# 
# 
# High freq. dielectric constant tensor:
#      x y z
#    x 1.579250 0.000000 0.000000 
#    y 0.000000 1.613560 0.000000 
#    z 0.000000 0.000000 1.604070 
# 
# From -- ./inp_files/24932.got.cif
#   From: 2010.03.12/outbox.cif.g09.slc.cpg/sg62_13_cif.got.tgz:24932.got - 2010.04.10 19:12:36.
