data_PCOD8250655
_publ_section_title
;
Structure prediction by ZEFSAII (Michael W. Deem and Ramdas Pophale) SiO2 
 PCOD8250655
Probable space group: P N M A
;
_chemical_formula_sum "Si O2"
_cell_formula_units_Z 40
_cell_length_a 9.085343
_cell_length_b 11.218740
_cell_length_c 19.939493
_cell_angle_alpha 90.000000
_cell_angle_beta 90.000000
_cell_angle_gamma 90.000000
_cell_volume 2032.354776
_symmetry_space_group_name_H-M "P N M A"
_symmetry_group_IT_number 62
_symmetry_cell_setting 'orthorhombic'
loop_
_space_group_symop_operation_xyz
x,y,z
1/2-x,-y,1/2+z
1/2+x,1/2-y,1/2-z
-x,1/2+y,-z
-x,-y,-z
1/2+x,y,1/2-z
1/2-x,1/2+y,1/2+z
x,1/2-y,z
loop_
_atom_site_type_symbol
_atom_site_label
_atom_site_fract_x
_atom_site_fract_y
_atom_site_fract_z
Si Si1 0.141871 0.250000 0.772101
Si Si2 0.353500 0.015608 0.920890
Si Si3 0.314000 0.612001 0.694844
Si Si4 0.061792 0.750000 0.343113
Si Si5 0.144592 0.612056 0.563087
Si Si6 0.126882 0.993683 0.811584
O O1 0.318196 0.250000 0.782799
O O2 0.075815 0.368369 0.807429
O O3 0.097502 0.250000 0.693322
O O4 0.422479 0.134814 0.889309
O O5 0.475936 0.912829 0.916472
O O6 0.209213 0.970642 0.881943
O O7 0.308262 0.037008 0.997882
O O8 0.279957 0.750000 0.709741
O O9 0.250444 0.572129 0.623271
O O10 0.488577 0.592755 0.694356
O O11 0.240993 0.531703 0.751841
O O12 0.163476 0.750000 0.546585
#
# Coordination Sequence:
#
# PCOD8250655 Si02
#       6
#     4   8   8   4   8   8
#     4  10  20  32  56  82 116 146 184 238 288 348
#     4  10  21  36  60  82 116 152 195 241 288 352
#     4  11  23  38  60  86 118 153 195 243 289 354
#     4  10  18  34  54  84 112 150 188 236 292 342
#     4  10  21  39  59  84 115 155 195 238 292 348
#     4  11  22  38  59  89 117 155 192 245 298 344
#
# _framework density 19.681602999999999
#
# number of rings (size 3 to 8) (size 9 to 14) (size 15 to 20)
#    0.000    1.600    1.000    5.400    0.000    4.000 
#    0.000    0.000    0.000    0.000    0.000    0.000 
#    0.000    0.000    0.000    0.000    0.000    0.000 
#
# Total GULP energy -496141.793449 kJ/mol
# GULP energy per Si atom -12403.544836 kJ/mol
# Density = 1.963681 g / cm^3
# Si number density = 19.681603 Si / 1000 Ang^3
#
#
#
# Elastic Constant Matrix: (Units=GPa)
#
#
# Indices 1 2 3 4 5 6 
#
# 1 75.9724 15.8296 43.6093 0.0000 0.0000 0.0000
# 2 15.8296 47.3688 23.8280 0.0000 0.0000 0.0000
# 3 43.6093 23.8280 96.4664 0.0000 0.0000 0.0000
# 4 0.0000 0.0000 0.0000 23.0435 0.0000 0.0000
# 5 0.0000 0.0000 0.0000 0.0000 43.5628 0.0000
# 6 0.0000 0.0000 0.0000 0.0000 0.0000 26.3853
#
#
#
# Elastic Compliance Matrix: (Units=1/GPa)
#
#
# Indices 1 2 3 4 5 6 
#
# 1 0.017972 -0.002191 -0.007583 0.000000 0.000000 0.000000
# 2 -0.002191 0.024373 -0.005030 0.000000 0.000000 0.000000
# 3 -0.007583 -0.005030 0.015037 0.000000 0.000000 0.000000
# 4 0.000000 0.000000 0.000000 0.043396 0.000000 0.000000
# 5 0.000000 0.000000 0.000000 0.000000 0.022955 0.000000
# 6 0.000000 0.000000 0.000000 0.000000 0.000000 0.037900
#
#
# Mechanical properties :
#
#
# Convention : Reuss Voigt Hill
#
# Bulk Modulus (GPa) = 36.00545 42.92684 39.46614
# Shear Modulus (GPa) = 24.93755 27.70102 26.31929
#
# Velocity S-wave (km/s) = 3.56342 3.75568 3.66081
# Velocity P-wave (km/s) = 5.93838 6.37690 6.16154
#
# Compressibility (1/GPa) = 0.02777357
#
# Stress axis : x y z
#
# Youngs Moduli (GPa) = 55.64139 41.02834 66.50299
#
# Poissons Ratio (x) = 0.08990 0.50432
# Poissons Ratio (y) = 0.12192 0.33450
# Poissons Ratio (z) = 0.42195 0.20637
#
# Static dielectric constant tensor:
#      x y z
#    x 3.442850 0.000000 0.000000 
#    y 0.000000 3.582110 0.000000 
#    z 0.000000 0.000000 3.662700 
# 
# 
# High freq. dielectric constant tensor:
#      x y z
#    x 1.754460 0.000000 0.000000 
#    y 0.000000 1.773430 0.000000 
#    z 0.000000 0.000000 1.771040 
# 
# From -- ./inp_files/21928.got.cif
#   From: 2010.03.12/outbox.cif.g09.slc.cpg/sg62_11_cif.got.tgz:21928.got - 2010.04.10 19:12:36.
