data_PCOD8250073
_publ_section_title
;
Structure prediction by ZEFSAII (Michael W. Deem and Ramdas Pophale) SiO2 
 PCOD8250073
Probable space group: P N M A
;
_chemical_formula_sum "Si O2"
_cell_formula_units_Z 64
_cell_length_a 9.812802
_cell_length_b 20.999605
_cell_length_c 19.609618
_cell_angle_alpha 90.000000
_cell_angle_beta 90.000000
_cell_angle_gamma 90.000000
_cell_volume 4040.855265
_symmetry_space_group_name_H-M "P N M A"
_symmetry_group_IT_number 62
_symmetry_cell_setting 'orthorhombic'
loop_
_space_group_symop_operation_xyz
x,y,z
1/2-x,-y,1/2+z
1/2+x,1/2-y,1/2-z
-x,1/2+y,-z
-x,-y,-z
1/2+x,y,1/2-z
1/2-x,1/2+y,1/2+z
x,1/2-y,z
loop_
_atom_site_type_symbol
_atom_site_label
_atom_site_fract_x
_atom_site_fract_y
_atom_site_fract_z
Si Si1 0.666611 0.530508 0.681133
Si Si2 0.558200 0.063448 0.586291
Si Si3 0.470363 0.676267 0.498051
Si Si4 0.096612 0.086614 0.242871
Si Si5 0.696045 0.997598 0.459746
Si Si6 0.532136 0.324234 0.133252
Si Si7 0.236829 0.612118 0.947115
Si Si8 0.240811 0.377392 0.105740
O O1 0.646941 0.458501 0.651723
O O2 0.804415 0.533396 0.724334
O O3 0.542951 0.550225 0.729406
O O4 0.668663 0.578807 0.617970
O O5 0.557968 0.139541 0.574067
O O6 0.611234 0.035750 0.515443
O O7 0.406069 0.034628 0.595347
O O8 0.463775 0.750000 0.480653
O O9 0.621647 0.658548 0.523428
O O10 0.357493 0.659359 0.554120
O O11 0.070053 0.143174 0.295733
O O12 0.163040 0.118916 0.177295
O O13 0.783236 0.050950 0.419388
O O14 0.782191 0.941693 0.497077
O O15 0.556483 0.250000 0.143298
O O16 0.628979 0.348797 0.072307
O O17 0.377207 0.336985 0.112659
#
# Coordination Sequence:
#
# PCOD8250073 Si02
#       8
#     8   8   8   8   8   8   8   8
#     4  10  17  32  48  66  91 117 155 198 228 258
#     4   8  14  27  47  69  91 113 144 196 242 263
#     4  10  18  29  50  73  91 119 156 185 227 287
#     4  11  20  32  46  66  90 125 162 190 221 263
#     4   8  14  27  51  68  86 113 153 196 240 268
#     4  11  24  34  41  62 100 134 159 184 220 273
#     4   9  18  33  49  67  90 124 152 195 236 266
#     4  11  19  32  47  69  93 123 156 196 230 265
#
# _framework density 15.838231
#
# number of rings (size 3 to 8) (size 9 to 14) (size 15 to 20)
#    0.000    2.250    3.750    2.250    0.000    1.500 
#    0.000    0.000    0.000    0.000    0.000    0.875 
#    0.000    0.000    0.000    0.000    0.000    0.000 
#
# Total GULP energy -793183.980645 kJ/mol
# GULP energy per Si atom -12393.499698 kJ/mol
# Density = 1.580218 g / cm^3
# Si number density = 15.838231 Si / 1000 Ang^3
#
#
#
# Elastic Constant Matrix: (Units=GPa)
#
#
# Indices 1 2 3 4 5 6 
#
# 1 57.3828 21.8998 11.5314 0.0000 0.0000 0.0000
# 2 21.8998 103.6402 32.5134 0.0000 0.0000 0.0000
# 3 11.5314 32.5134 27.6297 0.0000 0.0000 0.0000
# 4 0.0000 0.0000 0.0000 19.4498 0.0000 0.0000
# 5 0.0000 0.0000 0.0000 0.0000 14.2057 0.0000
# 6 0.0000 0.0000 0.0000 0.0000 0.0000 22.2212
#
#
#
# Elastic Compliance Matrix: (Units=1/GPa)
#
#
# Indices 1 2 3 4 5 6 
#
# 1 0.019414 -0.002474 -0.005192 0.000000 0.000000 0.000000
# 2 -0.002474 0.015610 -0.017337 0.000000 0.000000 0.000000
# 3 -0.005192 -0.017337 0.058762 0.000000 0.000000 0.000000
# 4 0.000000 0.000000 0.000000 0.051414 0.000000 0.000000
# 5 0.000000 0.000000 0.000000 0.000000 0.070394 0.000000
# 6 0.000000 0.000000 0.000000 0.000000 0.000000 0.045002
#
#
# Mechanical properties :
#
#
# Convention : Reuss Voigt Hill
#
# Bulk Modulus (GPa) = 22.84105 35.61576 29.22841
# Shear Modulus (GPa) = 15.37536 19.35589 17.36562
#
# Velocity S-wave (km/s) = 3.11911 3.49965 3.31484
# Velocity P-wave (km/s) = 5.23684 6.23426 5.75720
#
# Compressibility (1/GPa) = 0.04378082
#
# Stress axis : x y z
#
# Youngs Moduli (GPa) = 51.50878 64.05984 17.01793
#
# Poissons Ratio (x) = 0.15846 0.08835
# Poissons Ratio (y) = 0.12741 0.29504
# Poissons Ratio (z) = 0.26742 1.11062
#
# Static dielectric constant tensor:
#      x y z
#    x 2.969800 0.000000 0.000000 
#    y 0.000000 3.080800 0.000000 
#    z 0.000000 0.000000 2.988460 
# 
# 
# High freq. dielectric constant tensor:
#      x y z
#    x 1.603260 0.000000 0.000000 
#    y 0.000000 1.594610 0.000000 
#    z 0.000000 0.000000 1.589260 
# 
# From -- ./inp_files/26286.got.cif
#   From: 2010.03.12/outbox.cif.g09.slc.cpg/sg62_14_cif.got.tgz:26286.got - 2010.04.10 19:12:36.
