data_PCOD8250313
_publ_section_title
;
Structure prediction by ZEFSAII (Michael W. Deem and Ramdas Pophale) SiO2 
 PCOD8250313
Probable space group: P N M A
;
_chemical_formula_sum "Si O2"
_cell_formula_units_Z 64
_cell_length_a 19.945920
_cell_length_b 8.875768
_cell_length_c 19.189763
_cell_angle_alpha 90.000000
_cell_angle_beta 90.000000
_cell_angle_gamma 90.000000
_cell_volume 3397.266572
_symmetry_space_group_name_H-M "P N M A"
_symmetry_group_IT_number 62
_symmetry_cell_setting 'orthorhombic'
loop_
_space_group_symop_operation_xyz
x,y,z
1/2-x,-y,1/2+z
1/2+x,1/2-y,1/2-z
-x,1/2+y,-z
-x,-y,-z
1/2+x,y,1/2-z
1/2-x,1/2+y,1/2+z
x,1/2-y,z
loop_
_atom_site_type_symbol
_atom_site_label
_atom_site_fract_x
_atom_site_fract_y
_atom_site_fract_z
Si Si1 0.709913 0.928862 0.625750
Si Si2 0.494389 0.076107 0.275997
Si Si3 0.100116 0.078901 0.968708
Si Si4 0.644636 0.428232 0.749423
Si Si5 0.977184 0.576722 0.618646
Si Si6 0.884609 0.573004 0.402245
Si Si7 0.953378 0.421024 0.904093
Si Si8 0.342318 0.571521 0.949408
O O1 0.710255 0.750000 0.629862
O O2 0.777799 0.993669 0.590750
O O3 0.647927 0.981970 0.579824
O O4 0.703431 0.994880 0.704130
O O5 0.477356 0.250000 0.292267
O O6 0.528911 0.056538 0.201404
O O7 0.426531 0.980191 0.281038
O O8 0.547141 0.011205 0.331497
O O9 0.126371 0.250000 0.974657
O O10 0.026804 0.074179 0.936456
O O11 0.099223 0.002922 0.044910
O O12 0.650227 0.250000 0.741089
O O13 0.650636 0.481631 0.830309
O O14 0.985075 0.750000 0.597527
O O15 0.910106 0.506072 0.585050
O O16 0.041547 0.493451 0.588042
O O17 0.894480 0.750000 0.398781
O O18 0.839659 0.524857 0.468711
O O19 0.929328 0.250000 0.891807
O O20 0.342341 0.750000 0.941599
#
# Coordination Sequence:
#
# PCOD8250313 Si02
#       8
#     8   8   8   8   8   8   8   8
#     4  11  21  34  54  75 103 143 182 212 254 317
#     4  10  18  29  50  78 107 137 170 213 262 310
#     4  10  20  33  50  73 103 136 173 219 263 305
#     4  10  19  32  51  76 103 133 170 214 259 305
#     4   9  18  33  54  80 108 136 173 220 268 314
#     4   9  18  34  57  80 104 134 173 219 266 312
#     4  10  19  31  50  75 105 138 173 216 261 309
#     4   9  19  36  55  77 106 141 175 214 265 318
#
# _framework density 18.838674999999999
#
# number of rings (size 3 to 8) (size 9 to 14) (size 15 to 20)
#    0.000    2.250    1.250    2.250    0.000    2.000 
#    0.000    3.750    0.000    3.000    0.000    0.000 
#    0.000    0.000    0.000    0.000    0.000    0.000 
#
# Total GULP energy -793567.897343 kJ/mol
# GULP energy per Si atom -12399.498396 kJ/mol
# Density = 1.879580 g / cm^3
# Si number density = 18.838675 Si / 1000 Ang^3
#
#
#
# Elastic Constant Matrix: (Units=GPa)
#
#
# Indices 1 2 3 4 5 6 
#
# 1 70.5851 25.1992 57.0889 0.0000 0.0000 0.0000
# 2 25.1992 67.1026 38.4398 0.0000 0.0000 0.0000
# 3 57.0889 38.4398 132.8546 0.0000 0.0000 0.0000
# 4 0.0000 0.0000 0.0000 23.7161 0.0000 0.0000
# 5 0.0000 0.0000 0.0000 0.0000 30.1484 0.0000
# 6 0.0000 0.0000 0.0000 0.0000 0.0000 17.5309
#
#
#
# Elastic Compliance Matrix: (Units=1/GPa)
#
#
# Indices 1 2 3 4 5 6 
#
# 1 0.022368 -0.003469 -0.008608 0.000000 0.000000 0.000000
# 2 -0.003469 0.018401 -0.003834 0.000000 0.000000 0.000000
# 3 -0.008608 -0.003834 0.012335 0.000000 0.000000 0.000000
# 4 0.000000 0.000000 0.000000 0.042165 0.000000 0.000000
# 5 0.000000 0.000000 0.000000 0.000000 0.033169 0.000000
# 6 0.000000 0.000000 0.000000 0.000000 0.000000 0.057042
#
#
# Mechanical properties :
#
#
# Convention : Reuss Voigt Hill
#
# Bulk Modulus (GPa) = 46.98477 56.88866 51.93672
# Shear Modulus (GPa) = 22.28203 24.26673 23.27438
#
# Velocity S-wave (km/s) = 3.44289 3.59295 3.51872
# Velocity P-wave (km/s) = 6.38744 6.89027 6.64361
#
# Compressibility (1/GPa) = 0.02128349
#
# Stress axis : x y z
#
# Youngs Moduli (GPa) = 44.70724 54.34409 81.06900
#
# Poissons Ratio (x) = 0.18850 0.69784
# Poissons Ratio (y) = 0.15508 0.31079
# Poissons Ratio (z) = 0.38484 0.20833
#
# Static dielectric constant tensor:
#      x y z
#    x 3.267710 0.000000 0.000000 
#    y 0.000000 3.435510 0.000000 
#    z 0.000000 0.000000 3.838140 
# 
# 
# High freq. dielectric constant tensor:
#      x y z
#    x 1.694800 0.000000 0.000000 
#    y 0.000000 1.727280 0.000000 
#    z 0.000000 0.000000 1.748680 
# 
# From -- ./inp_files/24826.got.cif
#   From: 2010.03.12/outbox.cif.g09.slc.cpg/sg62_13_cif.got.tgz:24826.got - 2010.04.10 19:12:36.
