data_PCOD8250449
_publ_section_title
;
Structure prediction by ZEFSAII (Michael W. Deem and Ramdas Pophale) SiO2 
 PCOD8250449
Probable space group: P N M A
;
_chemical_formula_sum "Si O2"
_cell_formula_units_Z 48
_cell_length_a 15.119774
_cell_length_b 8.809629
_cell_length_c 20.218222
_cell_angle_alpha 90.000000
_cell_angle_beta 90.000000
_cell_angle_gamma 90.000000
_cell_volume 2693.059073
_symmetry_space_group_name_H-M "P N M A"
_symmetry_group_IT_number 62
_symmetry_cell_setting 'orthorhombic'
loop_
_space_group_symop_operation_xyz
x,y,z
1/2-x,-y,1/2+z
1/2+x,1/2-y,1/2-z
-x,1/2+y,-z
-x,-y,-z
1/2+x,y,1/2-z
1/2-x,1/2+y,1/2+z
x,1/2-y,z
loop_
_atom_site_type_symbol
_atom_site_label
_atom_site_fract_x
_atom_site_fract_y
_atom_site_fract_z
Si Si1 0.227796 0.071202 0.518507
Si Si2 0.920320 0.070763 0.960548
Si Si3 0.940267 0.570240 0.556956
Si Si4 0.386325 0.069798 0.687118
Si Si5 0.194112 0.069831 0.663011
Si Si6 0.502664 0.069178 0.807270
O O1 0.231683 0.250000 0.527520
O O2 0.328152 0.014209 0.505768
O O3 0.161893 0.026121 0.459357
O O4 0.191259 0.004746 0.588101
O O5 0.929658 0.250000 0.964044
O O6 0.921879 0.014994 0.884240
O O7 0.000000 0.000000 0.000000
O O8 0.954748 0.750000 0.558201
O O9 0.960494 0.499331 0.627260
O O10 0.000000 0.500000 0.500000
O O11 0.388831 0.250000 0.689747
O O12 0.284733 0.012531 0.698235
O O13 0.448986 0.003150 0.744578
O O14 0.195490 0.250000 0.661256
O O15 0.105041 0.015031 0.700309
O O16 0.496056 0.250000 0.812175
#
# Coordination Sequence:
#
# PCOD8250449 Si02
#       6
#     8   8   8   8   8   8
#     4   8  15  29  49  68  94 132 163 189 241 309
#     4   9  17  33  54  74  96 129 169 205 243 296
#     4  11  20  32  51  76 102 131 167 207 251 303
#     4   8  16  30  49  72  97 129 168 200 237 298
#     4   8  13  26  48  68  91 128 164 191 236 296
#     4  10  18  31  51  74  99 130 167 210 251 293
#
# _framework density 17.823598
#
# number of rings (size 3 to 8) (size 9 to 14) (size 15 to 20)
#    0.000    3.000    1.667    2.500    0.000    0.000 
#    3.000    2.500    0.000    1.000    0.000    0.000 
#    0.000    0.000    0.000    0.000    0.000    0.000 
#
# Total GULP energy -594715.082849 kJ/mol
# GULP energy per Si atom -12389.897559 kJ/mol
# Density = 1.778303 g / cm^3
# Si number density = 17.823598 Si / 1000 Ang^3
#
#
#
# Elastic Constant Matrix: (Units=GPa)
#
#
# Indices 1 2 3 4 5 6 
#
# 1 196.2888 26.1040 103.1626 0.0000 0.0000 0.0000
# 2 26.1040 22.5487 21.5995 0.0000 0.0000 0.0000
# 3 103.1626 21.5995 122.1323 0.0000 0.0000 0.0000
# 4 0.0000 0.0000 0.0000 22.0160 0.0000 0.0000
# 5 0.0000 0.0000 0.0000 0.0000 35.7609 0.0000
# 6 0.0000 0.0000 0.0000 0.0000 0.0000 20.3416
#
#
#
# Elastic Compliance Matrix: (Units=1/GPa)
#
#
# Indices 1 2 3 4 5 6 
#
# 1 0.009447 -0.003964 -0.007279 0.000000 0.000000 0.000000
# 2 -0.003964 0.055057 -0.006388 0.000000 0.000000 0.000000
# 3 -0.007279 -0.006388 0.015466 0.000000 0.000000 0.000000
# 4 0.000000 0.000000 0.000000 0.045422 0.000000 0.000000
# 5 0.000000 0.000000 0.000000 0.000000 0.027964 0.000000
# 6 0.000000 0.000000 0.000000 0.000000 0.000000 0.049160
#
#
# Mechanical properties :
#
#
# Convention : Reuss Voigt Hill
#
# Bulk Modulus (GPa) = 22.36774 71.41134 46.88954
# Shear Modulus (GPa) = 19.78775 28.29726 24.04250
#
# Velocity S-wave (km/s) = 3.33558 3.98883 3.67674
# Velocity P-wave (km/s) = 5.23560 7.83370 6.66252
#
# Compressibility (1/GPa) = 0.04470725
#
# Stress axis : x y z
#
# Youngs Moduli (GPa) = 105.85137 18.16288 64.65857
#
# Poissons Ratio (x) = 0.07201 0.47063
# Poissons Ratio (y) = 0.41964 0.41307
# Poissons Ratio (z) = 0.77046 0.11603
#
# Static dielectric constant tensor:
#      x y z
#    x 3.967090 0.000000 0.000000 
#    y 0.000000 2.854120 0.000000 
#    z 0.000000 0.000000 3.393020 
# 
# 
# High freq. dielectric constant tensor:
#      x y z
#    x 1.709660 0.000000 0.000000 
#    y 0.000000 1.640430 0.000000 
#    z 0.000000 0.000000 1.674200 
# 
# From -- ./inp_files/26862.got.cif
#   From: 2010.03.12/outbox.cif.g09.slc.cpg/sg62_14_cif.got.tgz:26862.got - 2010.04.10 19:12:36.
