data_PCOD8250493
_publ_section_title
;
Structure prediction by ZEFSAII (Michael W. Deem and Ramdas Pophale) SiO2 
 PCOD8250493
Probable space group: P N M A
;
_chemical_formula_sum "Si O2"
_cell_formula_units_Z 64
_cell_length_a 19.228713
_cell_length_b 9.133311
_cell_length_c 19.243049
_cell_angle_alpha 90.000000
_cell_angle_beta 90.000000
_cell_angle_gamma 90.000000
_cell_volume 3379.499210
_symmetry_space_group_name_H-M "P N M A"
_symmetry_group_IT_number 62
_symmetry_cell_setting 'orthorhombic'
loop_
_space_group_symop_operation_xyz
x,y,z
1/2-x,-y,1/2+z
1/2+x,1/2-y,1/2-z
-x,1/2+y,-z
-x,-y,-z
1/2+x,y,1/2-z
1/2-x,1/2+y,1/2+z
x,1/2-y,z
loop_
_atom_site_type_symbol
_atom_site_label
_atom_site_fract_x
_atom_site_fract_y
_atom_site_fract_z
Si Si1 0.488895 0.077059 0.735833
Si Si2 0.958588 0.920096 0.900912
Si Si3 0.147461 0.419749 0.742579
Si Si4 0.028567 0.421097 0.373419
Si Si5 0.131025 0.582480 0.608153
Si Si6 0.642294 0.918276 0.045972
Si Si7 0.286692 0.581001 0.384708
Si Si8 0.103350 0.919723 0.975276
O O1 0.477599 0.250000 0.733221
O O2 0.570118 0.032642 0.734194
O O3 0.449988 0.003737 0.671363
O O4 0.453059 0.011927 0.804311
O O5 0.941403 0.750000 0.891066
O O6 0.036247 0.946521 0.927984
O O7 0.903178 0.989082 0.953826
O O8 0.150166 0.250000 0.726519
O O9 0.169050 0.496049 0.670339
O O10 0.200287 0.463794 0.804353
O O11 0.039886 0.250000 0.359414
O O12 0.079717 0.475343 0.433605
O O13 0.950424 0.456836 0.397048
O O14 0.142048 0.750000 0.627569
O O15 0.164777 0.543681 0.533397
O O16 0.616397 0.750000 0.048856
O O17 0.706230 0.943742 0.098010
O O18 0.309386 0.750000 0.396543
O O19 0.330102 0.476951 0.434605
O O20 0.113000 0.750000 0.993737
#
# Coordination Sequence:
#
# PCOD8250493 Si02
#       8
#     8   8   8   8   8   8   8   8
#     4  10  18  31  53  79 108 137 175 220 268 322
#     4  10  19  31  50  77 109 141 178 224 270 315
#     4   9  18  32  53  79 103 134 172 215 264 315
#     4  10  20  34  54  80 109 137 175 226 278 326
#     4   9  19  35  56  81 106 135 175 223 272 320
#     4  10  21  37  56  78 107 144 181 221 274 328
#     4  10  20  36  55  76 107 144 184 223 267 326
#     4  10  20  32  50  76 106 142 181 222 269 319
#
# _framework density 18.937716999999999
#
# number of rings (size 3 to 8) (size 9 to 14) (size 15 to 20)
#    0.000    2.250    1.250    1.875    0.000    3.500 
#    0.000    1.250    0.000    3.000    0.000    0.000 
#    0.000    0.000    0.000    0.000    0.000    0.000 
#
# Total GULP energy -793752.925920 kJ/mol
# GULP energy per Si atom -12402.389467 kJ/mol
# Density = 1.889461 g / cm^3
# Si number density = 18.937717 Si / 1000 Ang^3
#
#
#
# Elastic Constant Matrix: (Units=GPa)
#
#
# Indices 1 2 3 4 5 6 
#
# 1 42.8872 22.5719 33.1664 0.0000 0.0000 0.0000
# 2 22.5719 80.3117 50.0592 0.0000 0.0000 0.0000
# 3 33.1664 50.0592 137.6307 0.0000 0.0000 0.0000
# 4 0.0000 0.0000 0.0000 40.5359 0.0000 0.0000
# 5 0.0000 0.0000 0.0000 0.0000 27.9028 0.0000
# 6 0.0000 0.0000 0.0000 0.0000 0.0000 18.8720
#
#
#
# Elastic Compliance Matrix: (Units=1/GPa)
#
#
# Indices 1 2 3 4 5 6 
#
# 1 0.030196 -0.005109 -0.005418 0.000000 0.000000 0.000000
# 2 -0.005109 0.016967 -0.004940 0.000000 0.000000 0.000000
# 3 -0.005418 -0.004940 0.010368 0.000000 0.000000 0.000000
# 4 0.000000 0.000000 0.000000 0.024669 0.000000 0.000000
# 5 0.000000 0.000000 0.000000 0.000000 0.035839 0.000000
# 6 0.000000 0.000000 0.000000 0.000000 0.000000 0.052988
#
#
# Mechanical properties :
#
#
# Convention : Reuss Voigt Hill
#
# Bulk Modulus (GPa) = 37.59975 52.49161 45.04568
# Shear Modulus (GPa) = 23.71599 27.79763 25.75681
#
# Velocity S-wave (km/s) = 3.54265 3.83540 3.69193
# Velocity P-wave (km/s) = 6.05238 6.88418 6.48164
#
# Compressibility (1/GPa) = 0.02659592
#
# Stress axis : x y z
#
# Youngs Moduli (GPa) = 33.11663 58.93950 96.44841
#
# Poissons Ratio (x) = 0.30115 0.52259
# Poissons Ratio (y) = 0.16921 0.47644
# Poissons Ratio (z) = 0.17944 0.29115
#
# Static dielectric constant tensor:
#      x y z
#    x 3.108660 0.000000 0.000000 
#    y 0.000000 3.454080 0.000000 
#    z 0.000000 0.000000 3.622640 
# 
# 
# High freq. dielectric constant tensor:
#      x y z
#    x 1.697960 0.000000 0.000000 
#    y 0.000000 1.739760 0.000000 
#    z 0.000000 0.000000 1.747990 
# 
# From -- ./inp_files/24842.got.cif
#   From: 2010.03.12/outbox.cif.g09.slc.cpg/sg62_13_cif.got.tgz:24842.got - 2010.04.10 19:12:36.
