data_PCOD8250698
_publ_section_title
;
Structure prediction by ZEFSAII (Michael W. Deem and Ramdas Pophale) SiO2 
 PCOD8250698
Probable space group: P N M A
;
_chemical_formula_sum "Si O2"
_cell_formula_units_Z 64
_cell_length_a 14.280653
_cell_length_b 9.130985
_cell_length_c 24.662049
_cell_angle_alpha 90.000000
_cell_angle_beta 90.000000
_cell_angle_gamma 90.000000
_cell_volume 3215.843105
_symmetry_space_group_name_H-M "P N M A"
_symmetry_group_IT_number 62
_symmetry_cell_setting 'orthorhombic'
loop_
_space_group_symop_operation_xyz
x,y,z
1/2-x,-y,1/2+z
1/2+x,1/2-y,1/2-z
-x,1/2+y,-z
-x,-y,-z
1/2+x,y,1/2-z
1/2-x,1/2+y,1/2+z
x,1/2-y,z
loop_
_atom_site_type_symbol
_atom_site_label
_atom_site_fract_x
_atom_site_fract_y
_atom_site_fract_z
Si Si1 0.020005 0.919639 0.328691
Si Si2 0.780411 0.423362 0.905774
Si Si3 0.288121 0.923238 0.802622
Si Si4 0.954550 0.081742 0.550090
Si Si5 0.644590 0.912981 0.604342
Si Si6 0.186281 0.423388 0.703797
Si Si7 0.210662 0.086723 0.482054
Si Si8 0.517508 0.576243 0.442532
O O1 0.046813 0.750000 0.320222
O O2 0.997047 0.949367 0.392136
O O3 0.924801 0.960071 0.296684
O O4 0.106741 0.014409 0.307250
O O5 0.781132 0.250000 0.904007
O O6 0.735750 0.484795 0.850700
O O7 0.885711 0.479075 0.915857
O O8 0.716123 0.472847 0.956471
O O9 0.296914 0.750000 0.795562
O O10 0.225748 0.965355 0.854714
O O11 0.235147 0.991665 0.751959
O O12 0.955623 0.250000 0.535444
O O13 0.848927 0.023529 0.554590
O O14 0.000000 0.000000 0.500000
O O15 0.609058 0.750000 0.620601
O O16 0.686072 0.907585 0.543434
O O17 0.559316 0.026858 0.602244
O O18 0.201976 0.250000 0.710176
O O19 0.165659 0.250000 0.480933
O O20 0.500000 0.500000 0.500000
O O21 0.513477 0.750000 0.450618
#
# Coordination Sequence:
#
# PCOD8250698 Si02
#       8
#     8   8   8   8   8   8   8   8
#     4  10  22  41  65  90 118 157 206 253 296 358
#     4   9  19  37  60  85 118 159 200 244 300 357
#     4  11  24  42  64  90 123 160 199 251 310 364
#     4  11  22  35  56  89 123 156 198 244 299 361
#     4  10  21  38  59  84 117 158 198 244 303 356
#     4  10  22  42  65  88 117 157 207 255 296 352
#     4  10  18  35  59  82 116 157 195 243 301 357
#     4  11  21  35  58  88 123 162 203 248 302 363
#
# _framework density 19.901468999999999
#
# number of rings (size 3 to 8) (size 9 to 14) (size 15 to 20)
#    0.000    1.750    2.500    1.875    0.000    5.500 
#    0.000    6.875    0.000    0.000    0.000    0.000 
#    0.000    0.000    0.000    0.000    0.000    0.000 
#
# Total GULP energy -793410.916970 kJ/mol
# GULP energy per Si atom -12397.045578 kJ/mol
# Density = 1.985617 g / cm^3
# Si number density = 19.901469 Si / 1000 Ang^3
#
#
#
# Elastic Constant Matrix: (Units=GPa)
#
#
# Indices 1 2 3 4 5 6 
#
# 1 119.2353 54.2140 51.7099 0.0000 0.0000 0.0000
# 2 54.2140 82.2915 49.8965 0.0000 0.0000 0.0000
# 3 51.7099 49.8965 111.8508 0.0000 0.0000 0.0000
# 4 0.0000 0.0000 0.0000 30.7170 0.0000 0.0000
# 5 0.0000 0.0000 0.0000 0.0000 32.3250 0.0000
# 6 0.0000 0.0000 0.0000 0.0000 0.0000 33.9359
#
#
#
# Elastic Compliance Matrix: (Units=1/GPa)
#
#
# Indices 1 2 3 4 5 6 
#
# 1 0.012631 -0.006553 -0.002916 0.000000 0.000000 0.000000
# 2 -0.006553 0.020058 -0.005918 0.000000 0.000000 0.000000
# 3 -0.002916 -0.005918 0.012929 0.000000 0.000000 0.000000
# 4 0.000000 0.000000 0.000000 0.032555 0.000000 0.000000
# 5 0.000000 0.000000 0.000000 0.000000 0.030936 0.000000
# 6 0.000000 0.000000 0.000000 0.000000 0.000000 0.029467
#
#
# Mechanical properties :
#
#
# Convention : Reuss Voigt Hill
#
# Bulk Modulus (GPa) = 67.37384 69.44648 68.41016
# Shear Modulus (GPa) = 28.68651 29.89939 29.29295
#
# Velocity S-wave (km/s) = 3.80073 3.88025 3.84070
# Velocity P-wave (km/s) = 7.29301 7.41930 7.35642
#
# Compressibility (1/GPa) = 0.01484256
#
# Stress axis : x y z
#
# Youngs Moduli (GPa) = 79.16976 49.85647 77.34774
#
# Poissons Ratio (x) = 0.32672 0.22555
# Poissons Ratio (y) = 0.51882 0.45774
# Poissons Ratio (z) = 0.23087 0.29505
#
# Static dielectric constant tensor:
#      x y z
#    x 3.861600 0.000000 0.000000 
#    y 0.000000 3.152020 0.000000 
#    z 0.000000 0.000000 3.718710 
# 
# 
# High freq. dielectric constant tensor:
#      x y z
#    x 1.786710 0.000000 0.000000 
#    y 0.000000 1.759030 0.000000 
#    z 0.000000 0.000000 1.776050 
# 
# From -- ./inp_files/29781.got.cif
#   From: 2010.03.12/outbox.cif.g09.slc.cpg/sg62_15_cif.got.tgz:29781.got - 2010.04.10 19:12:36.
