data_PCOD8250610
_publ_section_title
;
Structure prediction by ZEFSAII (Michael W. Deem and Ramdas Pophale) SiO2 
 PCOD8250610
Probable space group: P N M A
;
_chemical_formula_sum "Si O2"
_cell_formula_units_Z 64
_cell_length_a 15.174774
_cell_length_b 13.218046
_cell_length_c 16.492467
_cell_angle_alpha 90.000000
_cell_angle_beta 90.000000
_cell_angle_gamma 90.000000
_cell_volume 3308.073227
_symmetry_space_group_name_H-M "P N M A"
_symmetry_group_IT_number 62
_symmetry_cell_setting 'orthorhombic'
loop_
_space_group_symop_operation_xyz
x,y,z
1/2-x,-y,1/2+z
1/2+x,1/2-y,1/2-z
-x,1/2+y,-z
-x,-y,-z
1/2+x,y,1/2-z
1/2-x,1/2+y,1/2+z
x,1/2-y,z
loop_
_atom_site_type_symbol
_atom_site_label
_atom_site_fract_x
_atom_site_fract_y
_atom_site_fract_z
Si Si1 0.501031 0.557299 0.370704
Si Si2 0.774155 0.454140 0.058720
Si Si3 0.653118 0.488581 0.725539
Si Si4 0.747380 0.133525 0.442920
Si Si5 0.118839 0.366388 0.362370
Si Si6 0.578747 0.863277 0.853973
Si Si7 0.671056 0.012001 0.296494
Si Si8 0.551035 0.636604 0.534179
O O1 0.419693 0.590466 0.310773
O O2 0.594883 0.565415 0.324979
O O3 0.497222 0.627801 0.449793
O O4 0.487039 0.440228 0.398725
O O5 0.805263 0.451073 0.151222
O O6 0.677439 0.403695 0.060610
O O7 0.846722 0.387734 0.010850
O O8 0.773118 0.567154 0.022380
O O9 0.596407 0.564168 0.779235
O O10 0.738532 0.447435 0.776120
O O11 0.720994 0.250000 0.459994
O O12 0.851407 0.121592 0.426128
O O13 0.691952 0.093361 0.366473
O O14 0.140192 0.250000 0.344031
O O15 0.136661 0.428975 0.281339
O O16 0.018143 0.383443 0.389992
O O17 0.586275 0.750000 0.818987
O O18 0.540414 0.750000 0.567888
#
# Coordination Sequence:
#
# PCOD8250610 Si02
#       8
#     8   8   8   8   8   8   8   8
#     4  10  19  35  53  82 106 139 178 213 272 326
#     4  10  20  34  50  80 110 143 177 215 271 325
#     4   9  19  32  51  76 107 134 167 220 260 316
#     4  10  20  34  52  77 108 140 183 228 269 321
#     4  10  19  31  52  81 108 138 176 220 278 329
#     4   9  18  32  52  80 105 134 175 226 278 322
#     4  10  18  33  54  78 107 135 173 222 273 320
#     4  10  21  35  52  78 114 143 172 219 267 325
#
# _framework density 19.346609000000001
#
# number of rings (size 3 to 8) (size 9 to 14) (size 15 to 20)
#    0.000    2.250    2.500    0.750    0.000    6.500 
#    0.000    0.000    0.000    3.750    0.000    0.000 
#    0.000    0.000    0.000    0.000    0.000    0.000 
#
# Total GULP energy -792964.045955 kJ/mol
# GULP energy per Si atom -12390.063218 kJ/mol
# Density = 1.930258 g / cm^3
# Si number density = 19.346609 Si / 1000 Ang^3
#
#
#
# Elastic Constant Matrix: (Units=GPa)
#
#
# Indices 1 2 3 4 5 6 
#
# 1 119.8754 6.1868 16.7244 0.0000 0.0000 0.0000
# 2 6.1868 36.5837 12.0207 0.0000 0.0000 0.0000
# 3 16.7244 12.0207 40.8525 0.0000 0.0000 0.0000
# 4 0.0000 0.0000 0.0000 19.4543 0.0000 0.0000
# 5 0.0000 0.0000 0.0000 0.0000 29.1358 0.0000
# 6 0.0000 0.0000 0.0000 0.0000 0.0000 15.8736
#
#
#
# Elastic Compliance Matrix: (Units=1/GPa)
#
#
# Indices 1 2 3 4 5 6 
#
# 1 0.008851 -0.000339 -0.003524 0.000000 0.000000 0.000000
# 2 -0.000339 0.030273 -0.008769 0.000000 0.000000 0.000000
# 3 -0.003524 -0.008769 0.028501 0.000000 0.000000 0.000000
# 4 0.000000 0.000000 0.000000 0.051402 0.000000 0.000000
# 5 0.000000 0.000000 0.000000 0.000000 0.034322 0.000000
# 6 0.000000 0.000000 0.000000 0.000000 0.000000 0.062997
#
#
# Mechanical properties :
#
#
# Convention : Reuss Voigt Hill
#
# Bulk Modulus (GPa) = 23.60609 29.68615 26.64612
# Shear Modulus (GPa) = 19.55173 23.71805 21.63489
#
# Velocity S-wave (km/s) = 3.18245 3.50516 3.34769
# Velocity P-wave (km/s) = 5.07268 5.63553 5.36150
#
# Compressibility (1/GPa) = 0.04236195
#
# Stress axis : x y z
#
# Youngs Moduli (GPa) = 112.98016 33.03244 35.08632
#
# Poissons Ratio (x) = 0.01120 0.12364
# Poissons Ratio (y) = 0.03830 0.30767
# Poissons Ratio (z) = 0.39812 0.28966
#
# Static dielectric constant tensor:
#      x y z
#    x 4.280000 0.000000 0.000000 
#    y 0.000000 3.054830 0.000000 
#    z 0.000000 0.000000 3.394650 
# 
# 
# High freq. dielectric constant tensor:
#      x y z
#    x 1.784340 0.000000 0.000000 
#    y 0.000000 1.698330 0.000000 
#    z 0.000000 0.000000 1.735820 
# 
# From -- ./inp_files/24052.got.cif
#   From: 2010.03.12/outbox.cif.g09.slc.cpg/sg62_13_cif.got.tgz:24052.got - 2010.04.10 19:12:36.
