data_PCOD8250443
_publ_section_title
;
Structure prediction by ZEFSAII (Michael W. Deem and Ramdas Pophale) SiO2 
 PCOD8250443
Probable space group: P N M A
;
_chemical_formula_sum "Si O2"
_cell_formula_units_Z 64
_cell_length_a 21.085613
_cell_length_b 9.109230
_cell_length_c 19.553076
_cell_angle_alpha 90.000000
_cell_angle_beta 90.000000
_cell_angle_gamma 90.000000
_cell_volume 3755.631625
_symmetry_space_group_name_H-M "P N M A"
_symmetry_group_IT_number 62
_symmetry_cell_setting 'orthorhombic'
loop_
_space_group_symop_operation_xyz
x,y,z
1/2-x,-y,1/2+z
1/2+x,1/2-y,1/2-z
-x,1/2+y,-z
-x,-y,-z
1/2+x,y,1/2-z
1/2-x,1/2+y,1/2+z
x,1/2-y,z
loop_
_atom_site_type_symbol
_atom_site_label
_atom_site_fract_x
_atom_site_fract_y
_atom_site_fract_z
Si Si1 0.309146 0.575982 0.789446
Si Si2 0.814702 0.078008 0.290670
Si Si3 0.864567 0.417762 0.077272
Si Si4 0.129034 0.919593 0.075847
Si Si5 0.765356 0.079704 0.583249
Si Si6 0.572732 0.075728 0.300606
Si Si7 0.759314 0.080718 0.430304
Si Si8 0.433845 0.421028 0.287868
O O1 0.308789 0.750000 0.796320
O O2 0.247572 0.516278 0.748338
O O3 0.311205 0.506524 0.865067
O O4 0.372213 0.522026 0.750364
O O5 0.815912 0.250000 0.275728
O O6 0.811281 0.044921 0.371856
O O7 0.879397 0.005887 0.260428
O O8 0.839845 0.250000 0.084483
O O9 0.806160 0.524373 0.091721
O O10 0.918523 0.452442 0.132632
O O11 0.893841 0.444502 0.002237
O O12 0.128133 0.750000 0.096627
O O13 0.082059 0.007846 0.124533
O O14 0.200161 0.977466 0.084232
O O15 0.767498 0.250000 0.601831
O O16 0.788942 0.050802 0.505241
O O17 0.573211 0.250000 0.309271
O O18 0.504499 0.018152 0.272437
O O19 0.736461 0.250000 0.424156
O O20 0.434387 0.250000 0.271951
#
# Coordination Sequence:
#
# PCOD8250443 Si02
#       8
#     8   8   8   8   8   8   8   8
#     4  10  18  31  51  70  92 125 160 196 237 279
#     4   9  15  28  52  73  89 118 159 199 235 273
#     4   9  17  31  48  69  98 131 162 191 231 282
#     4  10  19  29  45  70 101 132 159 190 233 284
#     4  10  19  29  47  75 101 123 154 198 241 282
#     4  10  20  33  49  69  93 125 164 201 235 277
#     4   9  17  31  50  73  98 124 158 198 238 280
#     4   9  17  30  50  71  90 120 164 203 232 274
#
# _framework density 17.041073999999998
#
# number of rings (size 3 to 8) (size 9 to 14) (size 15 to 20)
#    0.000    2.500    2.500    0.750    0.000    2.000 
#    0.000    0.625    0.000    0.750    0.000    0.000 
#    0.000    0.000    0.000    0.000    0.000    0.375 
#
# Total GULP energy -793318.675295 kJ/mol
# GULP energy per Si atom -12395.604301 kJ/mol
# Density = 1.700229 g / cm^3
# Si number density = 17.041074 Si / 1000 Ang^3
#
#
#
# Elastic Constant Matrix: (Units=GPa)
#
#
# Indices 1 2 3 4 5 6 
#
# 1 124.7472 21.8348 71.9091 0.0000 0.0000 0.0000
# 2 21.8348 28.7704 26.8153 0.0000 0.0000 0.0000
# 3 71.9091 26.8153 119.1226 0.0000 0.0000 0.0000
# 4 0.0000 0.0000 0.0000 26.6825 0.0000 0.0000
# 5 0.0000 0.0000 0.0000 0.0000 23.1703 0.0000
# 6 0.0000 0.0000 0.0000 0.0000 0.0000 11.6891
#
#
#
# Elastic Compliance Matrix: (Units=1/GPa)
#
#
# Indices 1 2 3 4 5 6 
#
# 1 0.012510 -0.003108 -0.006852 0.000000 0.000000 0.000000
# 2 -0.003108 0.044759 -0.008200 0.000000 0.000000 0.000000
# 3 -0.006852 -0.008200 0.014377 0.000000 0.000000 0.000000
# 4 0.000000 0.000000 0.000000 0.037478 0.000000 0.000000
# 5 0.000000 0.000000 0.000000 0.000000 0.043159 0.000000
# 6 0.000000 0.000000 0.000000 0.000000 0.000000 0.085550
#
#
# Mechanical properties :
#
#
# Convention : Reuss Voigt Hill
#
# Bulk Modulus (GPa) = 28.30705 57.08427 42.69566
# Shear Modulus (GPa) = 17.48700 22.44711 19.96706
#
# Velocity S-wave (km/s) = 3.20686 3.63331 3.42673
# Velocity P-wave (km/s) = 5.50991 7.15346 6.38479
#
# Compressibility (1/GPa) = 0.03532688
#
# Stress axis : x y z
#
# Youngs Moduli (GPa) = 79.93587 22.34194 69.55630
#
# Poissons Ratio (x) = 0.06943 0.47661
# Poissons Ratio (y) = 0.24842 0.57033
# Poissons Ratio (z) = 0.54774 0.18319
#
# Static dielectric constant tensor:
#      x y z
#    x 3.203580 0.000000 0.000000 
#    y 0.000000 2.983110 0.000000 
#    z 0.000000 0.000000 3.419000 
# 
# 
# High freq. dielectric constant tensor:
#      x y z
#    x 1.630330 0.000000 0.000000 
#    y 0.000000 1.632730 0.000000 
#    z 0.000000 0.000000 1.664900 
# 
# From -- ./inp_files/27889.got.cif
#   From: 2010.03.12/outbox.cif.g09.slc.cpg/sg62_14_cif.got.tgz:27889.got - 2010.04.10 19:12:36.
