data_PCOD8250056
_publ_section_title
;
Structure prediction by ZEFSAII (Michael W. Deem and Ramdas Pophale) SiO2 
 PCOD8250056
Probable space group: P N M A
;
_chemical_formula_sum "Si O2"
_cell_formula_units_Z 56
_cell_length_a 19.263769
_cell_length_b 8.620777
_cell_length_c 19.441219
_cell_angle_alpha 90.000000
_cell_angle_beta 90.000000
_cell_angle_gamma 90.000000
_cell_volume 3228.577124
_symmetry_space_group_name_H-M "P N M A"
_symmetry_group_IT_number 62
_symmetry_cell_setting 'orthorhombic'
loop_
_space_group_symop_operation_xyz
x,y,z
1/2-x,-y,1/2+z
1/2+x,1/2-y,1/2-z
-x,1/2+y,-z
-x,-y,-z
1/2+x,y,1/2-z
1/2-x,1/2+y,1/2+z
x,1/2-y,z
loop_
_atom_site_type_symbol
_atom_site_label
_atom_site_fract_x
_atom_site_fract_y
_atom_site_fract_z
Si Si1 0.260090 0.434306 0.333996
Si Si2 0.942727 0.067225 0.550283
Si Si3 0.250702 0.567574 0.614983
Si Si4 0.294815 0.932186 0.976989
Si Si5 0.148521 0.432940 0.228783
Si Si6 0.135349 0.932997 0.725125
Si Si7 0.483714 0.565908 0.804148
O O1 0.260031 0.250000 0.330515
O O2 0.252325 0.490136 0.412604
O O3 0.194918 0.501567 0.290946
O O4 0.330828 0.495001 0.296845
O O5 0.949307 0.250000 0.550360
O O6 0.867627 0.020472 0.521821
O O7 0.954031 0.003881 0.626291
O O8 0.000000 0.000000 0.500000
O O9 0.251258 0.750000 0.598605
O O10 0.248506 0.471886 0.544847
O O11 0.320886 0.512766 0.655049
O O12 0.184152 0.522240 0.661121
O O13 0.309800 0.750000 0.972035
O O14 0.157459 0.250000 0.231153
O O15 0.068511 0.480898 0.241639
O O16 0.127303 0.750000 0.729357
O O17 0.058992 0.006060 0.714027
O O18 0.486894 0.750000 0.813833
#
# Coordination Sequence:
#
# PCOD8250056 Si02
#       7
#     8   8   8   8   8   8   8
#     4   8  14  27  46  69  94 122 159 201 245 291
#     4  12  24  35  48  71 105 137 165 196 245 308
#     4   9  17  30  47  69  98 130 164 204 249 296
#     4  11  20  32  51  72  98 130 165 206 250 293
#     4   8  14  27  48  69  93 127 165 206 246 292
#     4   8  15  27  48  72  93 121 160 204 242 286
#     4  10  17  30  52  76  97 125 167 210 248 287
#
# _framework density 17.345103000000002
#
# number of rings (size 3 to 8) (size 9 to 14) (size 15 to 20)
#    0.000    2.571    1.429    4.286    0.000    1.143 
#    0.000    0.714    0.000    2.571    0.000    0.000 
#    0.000    0.000    0.000    0.000    0.000    0.143 
#
# Total GULP energy -694000.888962 kJ/mol
# GULP energy per Si atom -12392.873017 kJ/mol
# Density = 1.730562 g / cm^3
# Si number density = 17.345103 Si / 1000 Ang^3
#
#
#
# Elastic Constant Matrix: (Units=GPa)
#
#
# Indices 1 2 3 4 5 6 
#
# 1 58.8195 19.1981 46.7464 0.0000 0.0000 0.0000
# 2 19.1981 29.0727 16.4211 0.0000 0.0000 0.0000
# 3 46.7464 16.4211 120.8373 0.0000 0.0000 0.0000
# 4 0.0000 0.0000 0.0000 22.3050 0.0000 0.0000
# 5 0.0000 0.0000 0.0000 0.0000 29.7128 0.0000
# 6 0.0000 0.0000 0.0000 0.0000 0.0000 12.8386
#
#
#
# Elastic Compliance Matrix: (Units=1/GPa)
#
#
# Indices 1 2 3 4 5 6 
#
# 1 0.028912 -0.013837 -0.009304 0.000000 0.000000 0.000000
# 2 -0.013837 0.043878 -0.000610 0.000000 0.000000 0.000000
# 3 -0.009304 -0.000610 0.011958 0.000000 0.000000 0.000000
# 4 0.000000 0.000000 0.000000 0.044833 0.000000 0.000000
# 5 0.000000 0.000000 0.000000 0.000000 0.033656 0.000000
# 6 0.000000 0.000000 0.000000 0.000000 0.000000 0.077890
#
#
# Mechanical properties :
#
#
# Convention : Reuss Voigt Hill
#
# Bulk Modulus (GPa) = 26.84857 41.49563 34.17210
# Shear Modulus (GPa) = 16.60887 21.39553 19.00220
#
# Velocity S-wave (km/s) = 3.09779 3.51596 3.31348
# Velocity P-wave (km/s) = 5.32050 6.36067 5.86370
#
# Compressibility (1/GPa) = 0.03724594
#
# Stress axis : x y z
#
# Youngs Moduli (GPa) = 34.58785 22.79043 83.62653
#
# Poissons Ratio (x) = 0.31534 0.77809
# Poissons Ratio (y) = 0.47858 0.05102
# Poissons Ratio (z) = 0.32182 0.01390
#
# Static dielectric constant tensor:
#      x y z
#    x 3.547680 0.000000 0.000000 
#    y 0.000000 2.860460 0.000000 
#    z 0.000000 0.000000 3.394560 
# 
# 
# High freq. dielectric constant tensor:
#      x y z
#    x 1.664210 0.000000 0.000000 
#    y 0.000000 1.632770 0.000000 
#    z 0.000000 0.000000 1.667670 
# 
# From -- ./inp_files/24613.got.cif
#   From: 2010.03.12/outbox.cif.g09.slc.cpg/sg62_13_cif.got.tgz:24613.got - 2010.04.10 19:12:36.
