data_PCOD8250026
_publ_section_title
;
Structure prediction by ZEFSAII (Michael W. Deem and Ramdas Pophale) SiO2 
 PCOD8250026
Probable space group: P N M A
;
_chemical_formula_sum "Si O2"
_cell_formula_units_Z 56
_cell_length_a 21.423608
_cell_length_b 13.200868
_cell_length_c 12.230859
_cell_angle_alpha 90.000000
_cell_angle_beta 90.000000
_cell_angle_gamma 90.000000
_cell_volume 3459.011940
_symmetry_space_group_name_H-M "P N M A"
_symmetry_group_IT_number 62
_symmetry_cell_setting 'orthorhombic'
loop_
_space_group_symop_operation_xyz
x,y,z
1/2-x,-y,1/2+z
1/2+x,1/2-y,1/2-z
-x,1/2+y,-z
-x,-y,-z
1/2+x,y,1/2-z
1/2-x,1/2+y,1/2+z
x,1/2-y,z
loop_
_atom_site_type_symbol
_atom_site_label
_atom_site_fract_x
_atom_site_fract_y
_atom_site_fract_z
Si Si1 0.826698 0.134670 0.073014
Si Si2 0.979596 0.130920 0.607332
Si Si3 0.474612 0.935242 0.336172
Si Si4 0.710564 0.368874 0.933486
Si Si5 0.095911 0.014605 0.526499
Si Si6 0.031040 0.637819 0.946876
Si Si7 0.150484 0.016540 0.745501
O O1 0.813424 0.250000 0.107842
O O2 0.815861 0.067714 0.181380
O O3 0.778392 0.100375 0.979055
O O4 0.895940 0.120587 0.024907
O O5 0.970638 0.250000 0.591607
O O6 0.038970 0.093896 0.537773
O O7 0.918580 0.073445 0.560256
O O8 0.985033 0.104163 0.734892
O O9 0.490223 0.054323 0.358233
O O10 0.400369 0.919774 0.316004
O O11 0.492102 0.870297 0.441976
O O12 0.699891 0.250000 0.933782
O O13 0.657171 0.421108 0.009727
O O14 0.702633 0.409273 0.808099
O O15 0.110421 0.964789 0.646180
O O16 0.020297 0.750000 0.897034
#
# Coordination Sequence:
#
# PCOD8250026 Si02
#       7
#     8   8   8   8   8   8   8
#     4   9  17  31  50  70  92 124 161 200 245 286
#     4  10  17  29  47  70  99 126 157 197 241 283
#     4   9  17  29  48  71  96 128 163 195 246 291
#     4   9  17  32  51  69  93 128 165 198 236 292
#     4   8  18  30  44  72  96 123 160 192 235 287
#     4   9  17  30  47  72  99 124 163 207 243 289
#     4   8  17  31  49  70  92 126 162 196 235 292
#
# _framework density 16.189595000000001
#
# number of rings (size 3 to 8) (size 9 to 14) (size 15 to 20)
#    0.857    2.286    0.000    0.857    0.000    1.143 
#    2.571    7.857    0.000    0.857    0.000    0.000 
#    0.000    0.000    0.000    0.000    0.000    0.000 
#
# Total GULP energy -693834.678547 kJ/mol
# GULP energy per Si atom -12389.904974 kJ/mol
# Density = 1.615275 g / cm^3
# Si number density = 16.189595 Si / 1000 Ang^3
#
#
#
# Elastic Constant Matrix: (Units=GPa)
#
#
# Indices 1 2 3 4 5 6 
#
# 1 60.2319 35.7501 31.3998 0.0000 0.0000 0.0000
# 2 35.7501 103.2053 43.6193 0.0000 0.0000 0.0000
# 3 31.3998 43.6193 66.4907 0.0000 0.0000 0.0000
# 4 0.0000 0.0000 0.0000 24.2124 0.0000 0.0000
# 5 0.0000 0.0000 0.0000 0.0000 29.8499 0.0000
# 6 0.0000 0.0000 0.0000 0.0000 0.0000 22.2812
#
#
#
# Elastic Compliance Matrix: (Units=1/GPa)
#
#
# Indices 1 2 3 4 5 6 
#
# 1 0.023626 -0.004799 -0.008009 0.000000 0.000000 0.000000
# 2 -0.004799 0.014381 -0.007168 0.000000 0.000000 0.000000
# 3 -0.008009 -0.007168 0.023524 0.000000 0.000000 0.000000
# 4 0.000000 0.000000 0.000000 0.041301 0.000000 0.000000
# 5 0.000000 0.000000 0.000000 0.000000 0.033501 0.000000
# 6 0.000000 0.000000 0.000000 0.000000 0.000000 0.044881
#
#
# Mechanical properties :
#
#
# Convention : Reuss Voigt Hill
#
# Bulk Modulus (GPa) = 46.34044 50.16291 48.25168
# Shear Modulus (GPa) = 21.89520 23.21262 22.55391
#
# Velocity S-wave (km/s) = 3.68152 3.79066 3.73649
# Velocity P-wave (km/s) = 6.83792 7.08595 6.96304
#
# Compressibility (1/GPa) = 0.02157943
#
# Stress axis : x y z
#
# Youngs Moduli (GPa) = 42.32593 69.53428 42.50907
#
# Poissons Ratio (x) = 0.33370 0.34046
# Poissons Ratio (y) = 0.20312 0.30471
# Poissons Ratio (z) = 0.33899 0.49843
#
# Static dielectric constant tensor:
#      x y z
#    x 3.005760 0.000000 0.000000 
#    y 0.000000 2.998390 0.000000 
#    z 0.000000 0.000000 2.947530 
# 
# 
# High freq. dielectric constant tensor:
#      x y z
#    x 1.607740 0.000000 0.000000 
#    y 0.000000 1.617850 0.000000 
#    z 0.000000 0.000000 1.606660 
# 
# From -- ./inp_files/15256.got.cif
#   From: 2010.03.12/outbox.cif.g09.slc.cpg/sg62_8_cif.got.tgz:15256.got - 2010.04.10 19:12:36.
