data_PCOD8250607
_publ_section_title
;
Structure prediction by ZEFSAII (Michael W. Deem and Ramdas Pophale) SiO2 
 PCOD8250607
Probable space group: P N M A
;
_chemical_formula_sum "Si O2"
_cell_formula_units_Z 56
_cell_length_a 19.312681
_cell_length_b 8.907539
_cell_length_c 19.054884
_cell_angle_alpha 90.000000
_cell_angle_beta 90.000000
_cell_angle_gamma 90.000000
_cell_volume 3277.982335
_symmetry_space_group_name_H-M "P N M A"
_symmetry_group_IT_number 62
_symmetry_cell_setting 'orthorhombic'
loop_
_space_group_symop_operation_xyz
x,y,z
1/2-x,-y,1/2+z
1/2+x,1/2-y,1/2-z
-x,1/2+y,-z
-x,-y,-z
1/2+x,y,1/2-z
1/2-x,1/2+y,1/2+z
x,1/2-y,z
loop_
_atom_site_type_symbol
_atom_site_label
_atom_site_fract_x
_atom_site_fract_y
_atom_site_fract_z
Si Si1 0.872825 0.427536 0.243984
Si Si2 0.703825 0.924671 0.486850
Si Si3 0.226409 0.425674 0.867592
Si Si4 0.660134 0.924924 0.238532
Si Si5 0.949006 0.425919 0.945372
Si Si6 0.773462 0.574307 0.344627
Si Si7 0.484468 0.072491 0.712904
O O1 0.869157 0.250000 0.240685
O O2 0.833041 0.492665 0.176549
O O3 0.840604 0.485421 0.317359
O O4 0.951496 0.481052 0.242799
O O5 0.701560 0.750000 0.507086
O O6 0.629126 0.980440 0.460101
O O7 0.760815 0.955228 0.426669
O O8 0.727453 0.019771 0.553165
O O9 0.209855 0.250000 0.864333
O O10 0.302538 0.460895 0.835407
O O11 0.653107 0.750000 0.253202
O O12 0.707444 0.989011 0.301506
O O13 0.581970 0.987319 0.242362
O O14 0.954009 0.250000 0.955512
O O15 0.971496 0.472544 0.867639
O O16 0.000000 0.500000 0.000000
O O17 0.784701 0.750000 0.328553
O O18 0.497770 0.250000 0.721303
#
# Coordination Sequence:
#
# PCOD8250607 Si02
#       7
#     8   8   8   8   8   8   8
#     4  11  22  34  49  75 107 135 169 216 259 302
#     4  10  19  33  53  77 106 135 168 213 259 304
#     4  10  20  34  53  76 103 137 174 211 254 308
#     4   8  15  31  54  74  94 127 175 216 247 298
#     4  10  20  31  47  72 104 138 168 201 246 304
#     4   9  17  34  56  75  98 135 175 211 256 310
#     4  10  18  33  54  73  96 133 174 210 253 307
#
# _framework density 17.083679
#
# number of rings (size 3 to 8) (size 9 to 14) (size 15 to 20)
#    0.000    2.286    1.429    3.429    0.000    4.000 
#    0.000    3.571    0.000    0.857    0.000    0.000 
#    0.000    0.000    0.000    0.000    0.000    0.000 
#
# Total GULP energy -694303.110860 kJ/mol
# GULP energy per Si atom -12398.269837 kJ/mol
# Density = 1.704480 g / cm^3
# Si number density = 17.083679 Si / 1000 Ang^3
#
#
#
# Elastic Constant Matrix: (Units=GPa)
#
#
# Indices 1 2 3 4 5 6 
#
# 1 138.7774 54.2285 63.7691 0.0000 0.0000 0.0000
# 2 54.2285 70.0625 41.1739 0.0000 0.0000 0.0000
# 3 63.7691 41.1739 71.2001 0.0000 0.0000 0.0000
# 4 0.0000 0.0000 0.0000 28.8474 0.0000 0.0000
# 5 0.0000 0.0000 0.0000 0.0000 26.9832 0.0000
# 6 0.0000 0.0000 0.0000 0.0000 0.0000 19.6548
#
#
#
# Elastic Compliance Matrix: (Units=1/GPa)
#
#
# Indices 1 2 3 4 5 6 
#
# 1 0.013306 -0.004992 -0.009031 0.000000 0.000000 0.000000
# 2 -0.004992 0.023493 -0.009115 0.000000 0.000000 0.000000
# 3 -0.009031 -0.009115 0.027404 0.000000 0.000000 0.000000
# 4 0.000000 0.000000 0.000000 0.034665 0.000000 0.000000
# 5 0.000000 0.000000 0.000000 0.000000 0.037060 0.000000
# 6 0.000000 0.000000 0.000000 0.000000 0.000000 0.050878
#
#
# Mechanical properties :
#
#
# Convention : Reuss Voigt Hill
#
# Bulk Modulus (GPa) = 55.77682 66.48700 61.13191
# Shear Modulus (GPa) = 20.91544 23.15496 22.03520
#
# Velocity S-wave (km/s) = 3.50279 3.68555 3.59533
# Velocity P-wave (km/s) = 7.00567 7.55738 7.28675
#
# Compressibility (1/GPa) = 0.01792860
#
# Stress axis : x y z
#
# Youngs Moduli (GPa) = 75.15395 42.56534 36.49091
#
# Poissons Ratio (x) = 0.21248 0.32954
# Poissons Ratio (y) = 0.37516 0.33261
# Poissons Ratio (z) = 0.67869 0.38798
#
# Static dielectric constant tensor:
#      x y z
#    x 3.319620 0.000000 0.000000 
#    y 0.000000 3.015570 0.000000 
#    z 0.000000 0.000000 3.154830 
# 
# 
# High freq. dielectric constant tensor:
#      x y z
#    x 1.657850 0.000000 0.000000 
#    y 0.000000 1.644160 0.000000 
#    z 0.000000 0.000000 1.650520 
# 
# From -- ./inp_files/24629.got.cif
#   From: 2010.03.12/outbox.cif.g09.slc.cpg/sg62_13_cif.got.tgz:24629.got - 2010.04.10 19:12:36.
