data_PCOD8250251
_publ_section_title
;
Structure prediction by ZEFSAII (Michael W. Deem and Ramdas Pophale) SiO2 
 PCOD8250251
Probable space group: P N M A
;
_chemical_formula_sum "Si O2"
_cell_formula_units_Z 36
_cell_length_a 4.964352
_cell_length_b 30.611053
_cell_length_c 15.444900
_cell_angle_alpha 90.000000
_cell_angle_beta 90.000000
_cell_angle_gamma 90.000000
_cell_volume 2347.069435
_symmetry_space_group_name_H-M "P N M A"
_symmetry_group_IT_number 62
_symmetry_cell_setting 'orthorhombic'
loop_
_space_group_symop_operation_xyz
x,y,z
1/2-x,-y,1/2+z
1/2+x,1/2-y,1/2-z
-x,1/2+y,-z
-x,-y,-z
1/2+x,y,1/2-z
1/2-x,1/2+y,1/2+z
x,1/2-y,z
loop_
_atom_site_type_symbol
_atom_site_label
_atom_site_fract_x
_atom_site_fract_y
_atom_site_fract_z
Si Si1 0.375061 0.655335 0.689043
Si Si2 0.131667 0.454209 0.523882
Si Si3 0.269112 0.004444 0.692342
Si Si4 0.688928 0.250000 0.304997
Si Si5 0.837878 0.924985 0.927716
O O1 0.597402 0.647487 0.761711
O O2 0.384525 0.704447 0.646681
O O3 0.410005 0.622237 0.609930
O O4 0.208657 0.455828 0.625385
O O5 0.400505 0.446513 0.469554
O O6 0.000000 0.500000 0.500000
O O7 0.901730 0.418656 0.499061
O O8 0.573238 0.008706 0.725795
O O9 0.231547 0.957058 0.647958
O O10 0.005779 0.250000 0.282406
#
# Coordination Sequence:
#
# PCOD8250251 Si02
#       5
#     8   8   8   4   8
#     4  10  18  29  44  65  87 115 148 177 204 244
#     4  10  20  32  42  58  84 111 138 177 222 248
#     4  11  19  29  43  59  78 108 144 176 203 242
#     4   8  16  28  42  60  88 114 138 172 212 242
#     4  11  19  30  44  61  84 112 144 177 208 247
#
# _framework density 15.338277
#
# number of rings (size 3 to 8) (size 9 to 14) (size 15 to 20)
#    0.000    1.778    0.000    9.333    0.000    0.000 
#    0.000    0.000    0.000    0.000    0.000    0.000 
#    0.000    0.000    0.000   20.000    0.000    0.000 
#
# Total GULP energy -446165.093235 kJ/mol
# GULP energy per Si atom -12393.474812 kJ/mol
# Density = 1.530337 g / cm^3
# Si number density = 15.338277 Si / 1000 Ang^3
#
#
#
# Elastic Constant Matrix: (Units=GPa)
#
#
# Indices 1 2 3 4 5 6 
#
# 1 63.3798 19.8319 22.9514 0.0000 0.0000 0.0000
# 2 19.8319 84.4894 45.3720 0.0000 0.0000 0.0000
# 3 22.9514 45.3720 62.9632 0.0000 0.0000 0.0000
# 4 0.0000 0.0000 0.0000 16.9248 0.0000 0.0000
# 5 0.0000 0.0000 0.0000 0.0000 34.8595 0.0000
# 6 0.0000 0.0000 0.0000 0.0000 0.0000 16.2889
#
#
#
# Elastic Compliance Matrix: (Units=1/GPa)
#
#
# Indices 1 2 3 4 5 6 
#
# 1 0.018247 -0.001160 -0.005815 0.000000 0.000000 0.000000
# 2 -0.001160 0.019381 -0.013543 0.000000 0.000000 0.000000
# 3 -0.005815 -0.013543 0.027762 0.000000 0.000000 0.000000
# 4 0.000000 0.000000 0.000000 0.059085 0.000000 0.000000
# 5 0.000000 0.000000 0.000000 0.000000 0.028687 0.000000
# 6 0.000000 0.000000 0.000000 0.000000 0.000000 0.061392
#
#
# Mechanical properties :
#
#
# Convention : Reuss Voigt Hill
#
# Bulk Modulus (GPa) = 41.06458 43.01587 42.04023
# Shear Modulus (GPa) = 18.96041 21.79311 20.37676
#
# Velocity S-wave (km/s) = 3.51971 3.77348 3.64880
# Velocity P-wave (km/s) = 6.58396 6.86230 6.72457
#
# Compressibility (1/GPa) = 0.02435189
#
# Stress axis : x y z
#
# Youngs Moduli (GPa) = 54.80413 51.59680 36.02095
#
# Poissons Ratio (x) = 0.05985 0.20948
# Poissons Ratio (y) = 0.06358 0.48784
# Poissons Ratio (z) = 0.31871 0.69879
#
# Static dielectric constant tensor:
#      x y z
#    x 3.279540 0.000000 0.000000 
#    y 0.000000 3.089110 0.000000 
#    z 0.000000 0.000000 2.970750 
# 
# 
# High freq. dielectric constant tensor:
#      x y z
#    x 1.620240 0.000000 0.000000 
#    y 0.000000 1.557480 0.000000 
#    z 0.000000 0.000000 1.553900 
# 
# From -- ./inp_files/10720.got.cif
#   From: 2010.03.12/outbox.cif.g09.slc.cpg/sg62_6_cif.got.tgz:10720.got - 2010.04.10 19:12:36.
