data_PCOD8250953
_publ_section_title
;
Structure prediction by ZEFSAII (Michael W. Deem and Ramdas Pophale) SiO2 
 PCOD8250953
Probable space group: P N M A
;
_chemical_formula_sum "Si O2"
_cell_formula_units_Z 64
_cell_length_a 29.715377
_cell_length_b 9.149764
_cell_length_c 14.127356
_cell_angle_alpha 90.000000
_cell_angle_beta 90.000000
_cell_angle_gamma 90.000000
_cell_volume 3841.068270
_symmetry_space_group_name_H-M "P N M A"
_symmetry_group_IT_number 62
_symmetry_cell_setting 'orthorhombic'
loop_
_space_group_symop_operation_xyz
x,y,z
1/2-x,-y,1/2+z
1/2+x,1/2-y,1/2-z
-x,1/2+y,-z
-x,-y,-z
1/2+x,y,1/2-z
1/2-x,1/2+y,1/2+z
x,1/2-y,z
loop_
_atom_site_type_symbol
_atom_site_label
_atom_site_fract_x
_atom_site_fract_y
_atom_site_fract_z
Si Si1 0.135473 0.920087 0.699942
Si Si2 0.867767 0.583848 0.661534
Si Si3 0.694746 0.077827 0.658075
Si Si4 0.542084 0.581384 0.891504
Si Si5 0.777943 0.416813 0.980327
Si Si6 0.823354 0.587962 0.465253
Si Si7 0.786797 0.421435 0.761941
Si Si8 0.452467 0.079510 0.889749
O O1 0.143009 0.750000 0.718253
O O2 0.083594 0.956366 0.677180
O O3 0.151078 0.008816 0.791792
O O4 0.165899 0.965529 0.611126
O O5 0.872623 0.750000 0.697593
O O6 0.858022 0.578578 0.550380
O O7 0.828548 0.506765 0.719188
O O8 0.914795 0.499247 0.674461
O O9 0.689240 0.250000 0.656992
O O10 0.740034 0.028880 0.713419
O O11 0.694189 0.020164 0.550475
O O12 0.527624 0.750000 0.882975
O O13 0.500863 0.481499 0.858059
O O14 0.555761 0.545882 0.999468
O O15 0.793022 0.250000 0.997005
O O16 0.725921 0.439733 0.007056
O O17 0.785500 0.463079 0.872130
O O18 0.825070 0.750000 0.417176
O O19 0.794222 0.250000 0.745450
O O20 0.450450 0.250000 0.867268
#
# Coordination Sequence:
#
# PCOD8250953 Si02
#       8
#     8   8   8   8   8   8   8   8
#     4  11  21  33  51  74 102 138 175 210 251 304
#     4  11  21  32  50  74 103 137 173 211 253 303
#     4  11  22  35  51  75 103 134 173 214 255 301
#     4   9  19  33  48  72 102 133 170 208 250 301
#     4  10  20  37  52  70 101 137 175 216 256 296
#     4  10  19  31  48  72 103 136 172 212 252 295
#     4  10  21  35  51  71 101 136 174 214 252 298
#     4  10  19  32  50  73 102 134 169 207 253 304
#
# _framework density 16.662032
#
# number of rings (size 3 to 8) (size 9 to 14) (size 15 to 20)
#    0.000    1.750    3.750    1.500    0.000    3.500 
#    0.000    0.000    0.000    0.000    0.000    0.875 
#    0.000    0.000    0.000    0.000    0.000    0.000 
#
# Total GULP energy -793713.877206 kJ/mol
# GULP energy per Si atom -12401.779331 kJ/mol
# Density = 1.662411 g / cm^3
# Si number density = 16.662032 Si / 1000 Ang^3
#
#
#
# Elastic Constant Matrix: (Units=GPa)
#
#
# Indices 1 2 3 4 5 6 
#
# 1 91.6013 55.5706 23.9265 0.0000 0.0000 0.0000
# 2 55.5706 84.3914 36.2588 0.0000 0.0000 0.0000
# 3 23.9265 36.2588 53.0793 0.0000 0.0000 0.0000
# 4 0.0000 0.0000 0.0000 27.6165 0.0000 0.0000
# 5 0.0000 0.0000 0.0000 0.0000 25.0779 0.0000
# 6 0.0000 0.0000 0.0000 0.0000 0.0000 31.6008
#
#
#
# Elastic Compliance Matrix: (Units=1/GPa)
#
#
# Indices 1 2 3 4 5 6 
#
# 1 0.018179 -0.011960 -0.000025 0.000000 0.000000 0.000000
# 2 -0.011960 0.024641 -0.011441 0.000000 0.000000 0.000000
# 3 -0.000025 -0.011441 0.026666 0.000000 0.000000 0.000000
# 4 0.000000 0.000000 0.000000 0.036210 0.000000 0.000000
# 5 0.000000 0.000000 0.000000 0.000000 0.039876 0.000000
# 6 0.000000 0.000000 0.000000 0.000000 0.000000 0.031645
#
#
# Mechanical properties :
#
#
# Convention : Reuss Voigt Hill
#
# Bulk Modulus (GPa) = 44.17994 51.17599 47.67796
# Shear Modulus (GPa) = 21.58777 24.41343 23.00060
#
# Velocity S-wave (km/s) = 3.60339 3.83196 3.71943
# Velocity P-wave (km/s) = 6.62461 7.09644 6.86458
#
# Compressibility (1/GPa) = 0.02263470
#
# Stress axis : x y z
#
# Youngs Moduli (GPa) = 55.00867 40.58327 37.50072
#
# Poissons Ratio (x) = 0.48538 0.00092
# Poissons Ratio (y) = 0.65791 0.42904
# Poissons Ratio (z) = 0.00135 0.46431
#
# Static dielectric constant tensor:
#      x y z
#    x 3.076740 0.000000 0.000000 
#    y 0.000000 3.205160 0.000000 
#    z 0.000000 0.000000 2.897960 
# 
# 
# High freq. dielectric constant tensor:
#      x y z
#    x 1.633090 0.000000 0.000000 
#    y 0.000000 1.652570 0.000000 
#    z 0.000000 0.000000 1.611700 
# 
# From -- ./inp_files/21223.got.cif
#   From: 2010.03.12/outbox.cif.g09.slc.cpg/sg62_11_cif.got.tgz:21223.got - 2010.04.10 19:12:36.
