data_PCOD8250943
_publ_section_title
;
Structure prediction by ZEFSAII (Michael W. Deem and Ramdas Pophale) SiO2 
 PCOD8250943
Probable space group: P N M A
;
_chemical_formula_sum "Si O2"
_cell_formula_units_Z 56
_cell_length_a 15.313315
_cell_length_b 9.208388
_cell_length_c 22.253239
_cell_angle_alpha 90.000000
_cell_angle_beta 90.000000
_cell_angle_gamma 90.000000
_cell_volume 3137.950285
_symmetry_space_group_name_H-M "P N M A"
_symmetry_group_IT_number 62
_symmetry_cell_setting 'orthorhombic'
loop_
_space_group_symop_operation_xyz
x,y,z
1/2-x,-y,1/2+z
1/2+x,1/2-y,1/2-z
-x,1/2+y,-z
-x,-y,-z
1/2+x,y,1/2-z
1/2-x,1/2+y,1/2+z
x,1/2-y,z
loop_
_atom_site_type_symbol
_atom_site_label
_atom_site_fract_x
_atom_site_fract_y
_atom_site_fract_z
Si Si1 0.037685 0.913051 0.944815
Si Si2 0.746247 0.082891 0.669155
Si Si3 0.548271 0.080403 0.676249
Si Si4 0.517581 0.082325 0.094986
Si Si5 0.240931 0.588304 0.950341
Si Si6 0.068114 0.918185 0.288008
Si Si7 0.626549 0.916730 0.994682
O O1 0.998544 0.750000 0.941807
O O2 0.139038 0.906538 0.957639
O O3 0.018581 0.993354 0.882428
O O4 0.000000 0.000000 0.000000
O O5 0.746346 0.250000 0.648010
O O6 0.649496 0.044087 0.695183
O O7 0.826243 0.055463 0.716302
O O8 0.769071 0.983621 0.612544
O O9 0.538547 0.250000 0.661928
O O10 0.480701 0.030795 0.727615
O O11 0.544391 0.250000 0.100712
O O12 0.523125 0.007987 0.159209
O O13 0.578438 0.005179 0.046901
O O14 0.418344 0.066739 0.070245
O O15 0.280689 0.750000 0.952317
O O16 0.277908 0.491271 0.005895
O O17 0.048135 0.750000 0.300251
O O18 0.631984 0.750000 0.014505
#
# Coordination Sequence:
#
# PCOD8250943 Si02
#       7
#     8   8   8   8   8   8   8
#     4  10  21  37  57  80 104 133 172 218 267 314
#     4   9  17  31  51  73  98 134 176 214 257 310
#     4   9  19  35  54  77 105 135 172 218 260 309
#     4  10  20  31  47  72 105 139 172 210 252 302
#     4  10  19  31  51  78 103 131 173 219 261 309
#     4  10  19  32  52  76 103 139 178 212 259 314
#     4  10  19  31  47  72 104 138 173 209 254 306
#
# _framework density 17.846043999999999
#
# number of rings (size 3 to 8) (size 9 to 14) (size 15 to 20)
#    0.000    2.286    1.429    1.714    0.000    4.000 
#    0.000    1.429    0.000    3.429    0.000    0.000 
#    0.000    0.000    0.000    0.000    0.000    0.000 
#
# Total GULP energy -694058.074495 kJ/mol
# GULP energy per Si atom -12393.894187 kJ/mol
# Density = 1.780543 g / cm^3
# Si number density = 17.846044 Si / 1000 Ang^3
#
#
#
# Elastic Constant Matrix: (Units=GPa)
#
#
# Indices 1 2 3 4 5 6 
#
# 1 76.3017 39.2011 61.7783 0.0000 0.0000 0.0000
# 2 39.2011 107.4769 65.5231 0.0000 0.0000 0.0000
# 3 61.7783 65.5231 114.7369 0.0000 0.0000 0.0000
# 4 0.0000 0.0000 0.0000 28.7351 0.0000 0.0000
# 5 0.0000 0.0000 0.0000 0.0000 33.4051 0.0000
# 6 0.0000 0.0000 0.0000 0.0000 0.0000 24.2308
#
#
#
# Elastic Compliance Matrix: (Units=1/GPa)
#
#
# Indices 1 2 3 4 5 6 
#
# 1 0.023354 -0.001307 -0.011828 0.000000 0.000000 0.000000
# 2 -0.001307 0.014347 -0.007489 0.000000 0.000000 0.000000
# 3 -0.011828 -0.007489 0.019361 0.000000 0.000000 0.000000
# 4 0.000000 0.000000 0.000000 0.034801 0.000000 0.000000
# 5 0.000000 0.000000 0.000000 0.000000 0.029936 0.000000
# 6 0.000000 0.000000 0.000000 0.000000 0.000000 0.041270
#
#
# Mechanical properties :
#
#
# Convention : Reuss Voigt Hill
#
# Bulk Modulus (GPa) = 63.23907 70.16897 66.70402
# Shear Modulus (GPa) = 23.85621 26.07507 24.96564
#
# Velocity S-wave (km/s) = 3.66016 3.82660 3.74431
# Velocity P-wave (km/s) = 7.30584 7.67647 7.49345
#
# Compressibility (1/GPa) = 0.01581301
#
# Stress axis : x y z
#
# Youngs Moduli (GPa) = 42.81869 69.70120 51.64946
#
# Poissons Ratio (x) = 0.09111 0.61092
# Poissons Ratio (y) = 0.05597 0.38682
# Poissons Ratio (z) = 0.50647 0.52202
#
# Static dielectric constant tensor:
#      x y z
#    x 4.063690 0.000000 0.000000 
#    y 0.000000 4.065840 0.000000 
#    z 0.000000 0.000000 3.127010 
# 
# 
# High freq. dielectric constant tensor:
#      x y z
#    x 1.694790 0.000000 0.000000 
#    y 0.000000 1.703900 0.000000 
#    z 0.000000 0.000000 1.658050 
# 
# From -- ./inp_files/27544.got.cif
#   From: 2010.03.12/outbox.cif.g09.slc.cpg/sg62_14_cif.got.tgz:27544.got - 2010.04.10 19:12:36.
