data_PCOD8250585
_publ_section_title
;
Structure prediction by ZEFSAII (Michael W. Deem and Ramdas Pophale) SiO2 
 PCOD8250585
Probable space group: P N M A
;
_chemical_formula_sum "Si O2"
_cell_formula_units_Z 64
_cell_length_a 9.387273
_cell_length_b 10.457688
_cell_length_c 35.477333
_cell_angle_alpha 90.000000
_cell_angle_beta 90.000000
_cell_angle_gamma 90.000000
_cell_volume 3482.780413
_symmetry_space_group_name_H-M "P N M A"
_symmetry_group_IT_number 62
_symmetry_cell_setting 'orthorhombic'
loop_
_space_group_symop_operation_xyz
x,y,z
1/2-x,-y,1/2+z
1/2+x,1/2-y,1/2-z
-x,1/2+y,-z
-x,-y,-z
1/2+x,y,1/2-z
1/2-x,1/2+y,1/2+z
x,1/2-y,z
loop_
_atom_site_type_symbol
_atom_site_label
_atom_site_fract_x
_atom_site_fract_y
_atom_site_fract_z
Si Si1 0.556297 0.105756 0.296412
Si Si2 0.697492 0.605775 0.417444
Si Si3 0.693196 0.888990 0.171743
Si Si4 0.004379 0.602765 0.396330
Si Si5 0.380911 0.393513 0.499705
Si Si6 0.282518 0.607423 0.923264
Si Si7 0.751555 0.397732 0.231434
Si Si8 0.940923 0.995666 0.128604
O O1 0.580508 0.250000 0.308459
O O2 0.421482 0.089714 0.268448
O O3 0.692086 0.057336 0.272210
O O4 0.535741 0.034978 0.335603
O O5 0.684309 0.750000 0.403981
O O6 0.711279 0.590823 0.462364
O O7 0.552075 0.542428 0.403347
O O8 0.842592 0.550496 0.399336
O O9 0.695052 0.750000 0.192529
O O10 0.549660 0.900445 0.147322
O O11 0.831023 0.888704 0.143874
O O12 0.689506 0.008194 0.199826
O O13 0.018173 0.750000 0.411993
O O14 0.101350 0.503780 0.419412
O O15 0.500000 0.500000 0.500000
O O16 0.448267 0.250000 0.498230
O O17 0.279408 0.416026 0.464521
O O18 0.349951 0.750000 0.920204
O O19 0.159443 0.602229 0.890987
O O20 0.705004 0.250000 0.222834
#
# Coordination Sequence:
#
# PCOD8250585 Si02
#       8
#     8   8   8   8   8   8   8   8
#     4   9  18  32  50  73  99 132 169 209 255 309
#     4  10  20  35  54  78 108 140 178 222 266 315
#     4   9  18  33  52  75 101 134 175 212 254 312
#     4   9  20  36  54  77 107 144 180 215 263 320
#     4  10  20  35  55  80 108 140 179 223 266 314
#     4  10  20  35  55  80 109 141 179 223 268 314
#     4   9  18  33  52  72  99 133 169 206 254 312
#     4  10  18  32  56  77 105 136 175 219 264 314
#
# _framework density 18.376123
#
# number of rings (size 3 to 8) (size 9 to 14) (size 15 to 20)
#    0.000    2.500    1.250    0.750    0.000    5.500 
#    0.000    5.000    0.000    0.000    0.000    0.000 
#    0.000    0.000    0.000    0.000    0.000    0.000 
#
# Total GULP energy -792962.815817 kJ/mol
# GULP energy per Si atom -12390.043997 kJ/mol
# Density = 1.833430 g / cm^3
# Si number density = 18.376123 Si / 1000 Ang^3
#
#
#
# Elastic Constant Matrix: (Units=GPa)
#
#
# Indices 1 2 3 4 5 6 
#
# 1 61.5222 25.7603 16.8231 0.0000 0.0000 0.0000
# 2 25.7603 83.1224 16.1987 0.0000 0.0000 0.0000
# 3 16.8231 16.1987 72.5952 0.0000 0.0000 0.0000
# 4 0.0000 0.0000 0.0000 24.0706 0.0000 0.0000
# 5 0.0000 0.0000 0.0000 0.0000 29.6074 0.0000
# 6 0.0000 0.0000 0.0000 0.0000 0.0000 20.0116
#
#
#
# Elastic Compliance Matrix: (Units=1/GPa)
#
#
# Indices 1 2 3 4 5 6 
#
# 1 0.019405 -0.005371 -0.003298 0.000000 0.000000 0.000000
# 2 -0.005371 0.014064 -0.001894 0.000000 0.000000 0.000000
# 3 -0.003298 -0.001894 0.014962 0.000000 0.000000 0.000000
# 4 0.000000 0.000000 0.000000 0.041544 0.000000 0.000000
# 5 0.000000 0.000000 0.000000 0.000000 0.033775 0.000000
# 6 0.000000 0.000000 0.000000 0.000000 0.000000 0.049971
#
#
# Mechanical properties :
#
#
# Convention : Reuss Voigt Hill
#
# Bulk Modulus (GPa) = 36.62327 37.20047 36.91187
# Shear Modulus (GPa) = 24.51586 25.30176 24.90881
#
# Velocity S-wave (km/s) = 3.65652 3.71466 3.68570
# Velocity P-wave (km/s) = 6.14816 6.21982 6.18409
#
# Compressibility (1/GPa) = 0.02730504
#
# Stress axis : x y z
#
# Youngs Moduli (GPa) = 51.53266 71.10365 66.83641
#
# Poissons Ratio (x) = 0.38190 0.22046
# Poissons Ratio (y) = 0.27678 0.12656
# Poissons Ratio (z) = 0.16998 0.13464
#
# Static dielectric constant tensor:
#      x y z
#    x 3.398860 0.000000 0.000000 
#    y 0.000000 3.425340 0.000000 
#    z 0.000000 0.000000 3.429450 
# 
# 
# High freq. dielectric constant tensor:
#      x y z
#    x 1.701750 0.000000 0.000000 
#    y 0.000000 1.709170 0.000000 
#    z 0.000000 0.000000 1.710000 
# 
# From -- ./inp_files/32270.got.cif
#   From: 2010.03.12/outbox.cif.g09.slc.cpg/sg62_17_cif.got.tgz:32270.got - 2010.04.10 19:12:36.
