data_PCOD8250848
_publ_section_title
;
Structure prediction by ZEFSAII (Michael W. Deem and Ramdas Pophale) SiO2 
 PCOD8250848
Probable space group: P N M A
;
_chemical_formula_sum "Si O2"
_cell_formula_units_Z 48
_cell_length_a 13.677862
_cell_length_b 9.265602
_cell_length_c 23.347795
_cell_angle_alpha 90.000000
_cell_angle_beta 90.000000
_cell_angle_gamma 90.000000
_cell_volume 2958.950708
_symmetry_space_group_name_H-M "P N M A"
_symmetry_group_IT_number 62
_symmetry_cell_setting 'orthorhombic'
loop_
_space_group_symop_operation_xyz
x,y,z
1/2-x,-y,1/2+z
1/2+x,1/2-y,1/2-z
-x,1/2+y,-z
-x,-y,-z
1/2+x,y,1/2-z
1/2-x,1/2+y,1/2+z
x,1/2-y,z
loop_
_atom_site_type_symbol
_atom_site_label
_atom_site_fract_x
_atom_site_fract_y
_atom_site_fract_z
Si Si1 0.609675 0.583223 0.555110
Si Si2 0.614648 0.418737 0.442385
Si Si3 0.213910 0.919276 0.827812
Si Si4 0.108310 0.416051 0.729918
Si Si5 0.294680 0.414294 0.659601
Si Si6 0.611913 0.582915 0.220703
O O1 0.617353 0.750000 0.537579
O O2 0.647669 0.489195 0.502120
O O3 0.498079 0.543433 0.570820
O O4 0.677559 0.545410 0.608640
O O5 0.633759 0.250000 0.446608
O O6 0.681363 0.480012 0.391984
O O7 0.219684 0.750000 0.816068
O O8 0.137131 0.986071 0.783479
O O9 0.321308 0.987549 0.821058
O O10 0.111825 0.250000 0.750718
O O11 0.181909 0.440177 0.677116
O O12 0.000294 0.458087 0.708628
O O13 0.312122 0.250000 0.639746
O O14 0.363556 0.452342 0.713378
O O15 0.634493 0.750000 0.207737
#
# Coordination Sequence:
#
# PCOD8250848 Si02
#       6
#     8   8   8   8   8   8
#     4   9  19  33  46  65  94 123 150 184 230 277
#     4  10  19  30  47  69  91 119 154 189 225 270
#     4  10  19  30  47  71  97 123 151 189 235 277
#     4   9  18  32  49  69  94 126 159 188 224 273
#     4   9  17  29  46  68  94 122 149 184 230 271
#     4   9  18  32  49  69  94 125 159 190 224 272
#
# _framework density 16.221968
#
# number of rings (size 3 to 8) (size 9 to 14) (size 15 to 20)
#    0.000    2.667    0.000    3.000    0.000    5.333 
#    0.000    0.000    0.000    1.000    0.000    0.000 
#    0.000    0.000    0.000    0.000    0.000    0.000 
#
# Total GULP energy -595298.245365 kJ/mol
# GULP energy per Si atom -12402.046778 kJ/mol
# Density = 1.618505 g / cm^3
# Si number density = 16.221968 Si / 1000 Ang^3
#
#
#
# Elastic Constant Matrix: (Units=GPa)
#
#
# Indices 1 2 3 4 5 6 
#
# 1 117.5124 52.6315 62.5750 0.0000 0.0000 0.0000
# 2 52.6315 87.5739 70.4908 0.0000 0.0000 0.0000
# 3 62.5750 70.4908 110.4427 0.0000 0.0000 0.0000
# 4 0.0000 0.0000 0.0000 31.7262 0.0000 0.0000
# 5 0.0000 0.0000 0.0000 0.0000 20.9575 0.0000
# 6 0.0000 0.0000 0.0000 0.0000 0.0000 25.4170
#
#
#
# Elastic Compliance Matrix: (Units=1/GPa)
#
#
# Indices 1 2 3 4 5 6 
#
# 1 0.012775 -0.003808 -0.004808 0.000000 0.000000 0.000000
# 2 -0.003808 0.024619 -0.013556 0.000000 0.000000 0.000000
# 3 -0.004808 -0.013556 0.020430 0.000000 0.000000 0.000000
# 4 0.000000 0.000000 0.000000 0.031520 0.000000 0.000000
# 5 0.000000 0.000000 0.000000 0.000000 0.047716 0.000000
# 6 0.000000 0.000000 0.000000 0.000000 0.000000 0.039344
#
#
# Mechanical properties :
#
#
# Convention : Reuss Voigt Hill
#
# Bulk Modulus (GPa) = 74.17390 76.32486 75.24938
# Shear Modulus (GPa) = 22.19850 24.27559 23.23705
#
# Velocity S-wave (km/s) = 3.70323 3.87261 3.78887
# Velocity P-wave (km/s) = 8.00680 8.19443 8.10116
#
# Compressibility (1/GPa) = 0.01348183
#
# Stress axis : x y z
#
# Youngs Moduli (GPa) = 78.27518 40.61942 48.94650
#
# Poissons Ratio (x) = 0.15468 0.23533
# Poissons Ratio (y) = 0.29807 0.66350
# Poissons Ratio (z) = 0.37634 0.55062
#
# Static dielectric constant tensor:
#      x y z
#    x 3.127560 0.000000 0.000000 
#    y 0.000000 3.086010 0.000000 
#    z 0.000000 0.000000 2.889710 
# 
# 
# High freq. dielectric constant tensor:
#      x y z
#    x 1.617660 0.000000 0.000000 
#    y 0.000000 1.630330 0.000000 
#    z 0.000000 0.000000 1.608450 
# 
# From -- ./inp_files/26852.got.cif
#   From: 2010.03.12/outbox.cif.g09.slc.cpg/sg62_14_cif.got.tgz:26852.got - 2010.04.10 19:12:36.
