data_PCOD8250137
_publ_section_title
;
Structure prediction by ZEFSAII (Michael W. Deem and Ramdas Pophale) SiO2 
 PCOD8250137
Probable space group: P N M A
;
_chemical_formula_sum "Si O2"
_cell_formula_units_Z 64
_cell_length_a 18.156338
_cell_length_b 9.293528
_cell_length_c 26.421477
_cell_angle_alpha 90.000000
_cell_angle_beta 90.000000
_cell_angle_gamma 90.000000
_cell_volume 4458.265852
_symmetry_space_group_name_H-M "P N M A"
_symmetry_group_IT_number 62
_symmetry_cell_setting 'orthorhombic'
loop_
_space_group_symop_operation_xyz
x,y,z
1/2-x,-y,1/2+z
1/2+x,1/2-y,1/2-z
-x,1/2+y,-z
-x,-y,-z
1/2+x,y,1/2-z
1/2-x,1/2+y,1/2+z
x,1/2-y,z
loop_
_atom_site_type_symbol
_atom_site_label
_atom_site_fract_x
_atom_site_fract_y
_atom_site_fract_z
Si Si1 0.909534 0.078524 0.740874
Si Si2 0.807220 0.091098 0.200484
Si Si3 0.427683 0.584025 0.944179
Si Si4 0.792983 0.912904 0.799386
Si Si5 0.072982 0.417752 0.558206
Si Si6 0.921478 0.583352 0.253651
Si Si7 0.673003 0.418257 0.850619
Si Si8 0.835166 0.918056 0.650502
O O1 0.897436 0.250000 0.741817
O O2 0.994339 0.033966 0.747320
O O3 0.866175 0.004756 0.787379
O O4 0.883368 0.017259 0.687163
O O5 0.838438 0.250000 0.190345
O O6 0.757164 0.087318 0.250099
O O7 0.752027 0.042772 0.155079
O O8 0.877567 0.989298 0.207076
O O9 0.450444 0.750000 0.942358
O O10 0.498461 0.496796 0.925517
O O11 0.359553 0.551128 0.907024
O O12 0.403878 0.539627 0.001027
O O13 0.813642 0.750000 0.815634
O O14 0.747871 0.990794 0.844265
O O15 0.056474 0.250000 0.564122
O O16 0.138850 0.463269 0.595431
O O17 0.914168 0.750000 0.243410
O O18 0.886387 0.540678 0.307535
O O19 0.692885 0.250000 0.848106
O O20 0.846868 0.750000 0.665633
#
# Coordination Sequence:
#
# PCOD8250137 Si02
#       8
#     8   8   8   8   8   8   8   8
#     4  10  18  27  40  58  79 103 130 160 194 231
#     4   8  15  26  38  52  72  98 127 158 188 223
#     4   9  17  28  41  57  80 108 136 169 203 232
#     4   9  17  28  40  56  77 101 130 161 193 231
#     4   9  17  28  41  58  80 106 137 170 201 233
#     4   9  17  26  37  55  77 100 127 158 190 227
#     4   9  16  27  41  56  77 105 135 164 194 229
#     4   9  17  28  40  56  78 105 136 164 193 230
#
# _framework density 14.355356
#
# number of rings (size 3 to 8) (size 9 to 14) (size 15 to 20)
#    0.000    3.000    0.000    2.250    0.000    6.000 
#    0.000    2.500    0.000    0.000    0.000    0.000 
#    0.000    1.000    0.000    2.000    0.000    2.625 
#
# Total GULP energy -793344.227569 kJ/mol
# GULP energy per Si atom -12396.003556 kJ/mol
# Density = 1.432268 g / cm^3
# Si number density = 14.355356 Si / 1000 Ang^3
#
#
#
# Elastic Constant Matrix: (Units=GPa)
#
#
# Indices 1 2 3 4 5 6 
#
# 1 95.5234 47.4627 46.6973 0.0000 0.0000 0.0000
# 2 47.4627 58.0286 31.0400 0.0000 0.0000 0.0000
# 3 46.6973 31.0400 69.0367 0.0000 0.0000 0.0000
# 4 0.0000 0.0000 0.0000 16.2662 0.0000 0.0000
# 5 0.0000 0.0000 0.0000 0.0000 25.6775 0.0000
# 6 0.0000 0.0000 0.0000 0.0000 0.0000 25.3557
#
#
#
# Elastic Compliance Matrix: (Units=1/GPa)
#
#
# Indices 1 2 3 4 5 6 
#
# 1 0.020815 -0.012500 -0.008459 0.000000 0.000000 0.000000
# 2 -0.012500 0.030196 -0.005122 0.000000 0.000000 0.000000
# 3 -0.008459 -0.005122 0.022510 0.000000 0.000000 0.000000
# 4 0.000000 0.000000 0.000000 0.061477 0.000000 0.000000
# 5 0.000000 0.000000 0.000000 0.000000 0.038945 0.000000
# 6 0.000000 0.000000 0.000000 0.000000 0.000000 0.039439
#
#
# Mechanical properties :
#
#
# Convention : Reuss Voigt Hill
#
# Bulk Modulus (GPa) = 46.81795 52.55431 49.68613
# Shear Modulus (GPa) = 18.33762 19.95245 19.14504
#
# Velocity S-wave (km/s) = 3.57796 3.73218 3.65588
# Velocity P-wave (km/s) = 7.05361 7.43379 7.24619
#
# Compressibility (1/GPa) = 0.02135933
#
# Stress axis : x y z
#
# Youngs Moduli (GPa) = 48.04264 33.11645 44.42504
#
# Poissons Ratio (x) = 0.41395 0.37580
# Poissons Ratio (y) = 0.60053 0.22753
# Poissons Ratio (z) = 0.40641 0.16961
#
# Static dielectric constant tensor:
#      x y z
#    x 2.859010 0.000000 0.000000 
#    y 0.000000 2.901980 0.000000 
#    z 0.000000 0.000000 2.748820 
# 
# 
# High freq. dielectric constant tensor:
#      x y z
#    x 1.534500 0.000000 0.000000 
#    y 0.000000 1.555980 0.000000 
#    z 0.000000 0.000000 1.516670 
# 
# From -- ./inp_files/31341.got.cif
#   From: 2010.03.12/outbox.cif.g09.slc.cpg/sg62_16_cif.got.tgz:31341.got - 2010.04.10 19:12:36.
