data_PCOD8250246
_publ_section_title
;
Structure prediction by ZEFSAII (Michael W. Deem and Ramdas Pophale) SiO2 
 PCOD8250246
Probable space group: P N M A
;
_chemical_formula_sum "Si O2"
_cell_formula_units_Z 64
_cell_length_a 23.265974
_cell_length_b 9.225631
_cell_length_c 19.275745
_cell_angle_alpha 90.000000
_cell_angle_beta 90.000000
_cell_angle_gamma 90.000000
_cell_volume 4137.409343
_symmetry_space_group_name_H-M "P N M A"
_symmetry_group_IT_number 62
_symmetry_cell_setting 'orthorhombic'
loop_
_space_group_symop_operation_xyz
x,y,z
1/2-x,-y,1/2+z
1/2+x,1/2-y,1/2-z
-x,1/2+y,-z
-x,-y,-z
1/2+x,y,1/2-z
1/2-x,1/2+y,1/2+z
x,1/2-y,z
loop_
_atom_site_type_symbol
_atom_site_label
_atom_site_fract_x
_atom_site_fract_y
_atom_site_fract_z
Si Si1 0.752937 0.420848 0.995474
Si Si2 0.435590 0.918390 0.372131
Si Si3 0.827380 0.916441 0.212867
Si Si4 0.841521 0.921291 0.773104
Si Si5 0.773848 0.919717 0.642401
Si Si6 0.762017 0.580786 0.344781
Si Si7 0.617313 0.579147 0.499562
Si Si8 0.065171 0.919221 0.148300
O O1 0.758395 0.250000 0.995452
O O2 0.715316 0.471037 0.062513
O O3 0.817747 0.482971 0.000549
O O4 0.722535 0.469497 0.923412
O O5 0.434066 0.750000 0.392447
O O6 0.392600 0.953864 0.308184
O O7 0.498621 0.963755 0.346700
O O8 0.419502 0.006118 0.440349
O O9 0.812924 0.750000 0.196927
O O10 0.816577 0.949787 0.294725
O O11 0.785310 0.010203 0.166427
O O12 0.843411 0.750000 0.785166
O O13 0.826939 0.961057 0.692550
O O14 0.792725 0.989055 0.821534
O O15 0.902568 0.990945 0.791718
O O16 0.762500 0.750000 0.645812
O O17 0.744169 0.750000 0.342928
O O18 0.615022 0.750000 0.511716
O O19 0.589267 0.535736 0.426546
O O20 0.074887 0.750000 0.162712
#
# Coordination Sequence:
#
# PCOD8250246 Si02
#       8
#     8   8   8   8   8   8   8   8
#     4   9  15  26  45  65  84 112 144 169 203 257
#     4  10  20  31  43  63  89 116 147 183 214 243
#     4   9  17  28  43  64  86 110 141 176 212 250
#     4  10  19  29  43  64  86 108 141 182 216 248
#     4   9  17  29  44  62  85 110 137 174 216 253
#     4   9  16  29  47  63  85 114 142 171 211 261
#     4  10  18  29  44  61  84 119 153 174 201 249
#     4  10  20  33  45  58  85 121 152 178 209 249
#
# _framework density 15.468617
#
# number of rings (size 3 to 8) (size 9 to 14) (size 15 to 20)
#    0.000    2.500    2.500    0.750    0.000    1.500 
#    0.000    0.625    0.000    0.000    0.000    0.875 
#    0.000    0.000    0.000    0.000    0.000    0.000 
#
# Total GULP energy -793230.404503 kJ/mol
# GULP energy per Si atom -12394.225070 kJ/mol
# Density = 1.543341 g / cm^3
# Si number density = 15.468617 Si / 1000 Ang^3
#
#
#
# Elastic Constant Matrix: (Units=GPa)
#
#
# Indices 1 2 3 4 5 6 
#
# 1 82.8414 24.9563 59.0294 0.0000 0.0000 0.0000
# 2 24.9563 30.2205 30.8468 0.0000 0.0000 0.0000
# 3 59.0294 30.8468 134.8188 0.0000 0.0000 0.0000
# 4 0.0000 0.0000 0.0000 17.0091 0.0000 0.0000
# 5 0.0000 0.0000 0.0000 0.0000 23.0288 0.0000
# 6 0.0000 0.0000 0.0000 0.0000 0.0000 15.1249
#
#
#
# Elastic Compliance Matrix: (Units=1/GPa)
#
#
# Indices 1 2 3 4 5 6 
#
# 1 0.019480 -0.009630 -0.006326 0.000000 0.000000 0.000000
# 2 -0.009630 0.047933 -0.006751 0.000000 0.000000 0.000000
# 3 -0.006326 -0.006751 0.011732 0.000000 0.000000 0.000000
# 4 0.000000 0.000000 0.000000 0.058792 0.000000 0.000000
# 5 0.000000 0.000000 0.000000 0.000000 0.043424 0.000000
# 6 0.000000 0.000000 0.000000 0.000000 0.000000 0.066116
#
#
# Mechanical properties :
#
#
# Convention : Reuss Voigt Hill
#
# Bulk Modulus (GPa) = 29.64555 53.06063 41.35309
# Shear Modulus (GPa) = 16.44017 19.90244 18.17130
#
# Velocity S-wave (km/s) = 3.26361 3.59086 3.43114
# Velocity P-wave (km/s) = 5.77997 7.18115 6.51832
#
# Compressibility (1/GPa) = 0.03373187
#
# Stress axis : x y z
#
# Youngs Moduli (GPa) = 51.33543 20.86242 85.23927
#
# Poissons Ratio (x) = 0.20090 0.53921
# Poissons Ratio (y) = 0.49434 0.57544
# Poissons Ratio (z) = 0.32474 0.14084
#
# Static dielectric constant tensor:
#      x y z
#    x 2.901440 0.000000 0.000000 
#    y 0.000000 2.888110 0.000000 
#    z 0.000000 0.000000 3.403590 
# 
# 
# High freq. dielectric constant tensor:
#      x y z
#    x 1.565220 0.000000 0.000000 
#    y 0.000000 1.584630 0.000000 
#    z 0.000000 0.000000 1.596090 
# 
# From -- ./inp_files/27929.got.cif
#   From: 2010.03.12/outbox.cif.g09.slc.cpg/sg62_14_cif.got.tgz:27929.got - 2010.04.10 19:12:36.
