data_PCOD8250434
_publ_section_title
;
Structure prediction by ZEFSAII (Michael W. Deem and Ramdas Pophale) SiO2 
 PCOD8250434
Probable space group: P N M A
;
_chemical_formula_sum "Si O2"
_cell_formula_units_Z 64
_cell_length_a 16.467069
_cell_length_b 22.013798
_cell_length_c 9.928008
_cell_angle_alpha 90.000000
_cell_angle_beta 90.000000
_cell_angle_gamma 90.000000
_cell_volume 3598.930010
_symmetry_space_group_name_H-M "P N M A"
_symmetry_group_IT_number 62
_symmetry_cell_setting 'orthorhombic'
loop_
_space_group_symop_operation_xyz
x,y,z
1/2-x,-y,1/2+z
1/2+x,1/2-y,1/2-z
-x,1/2+y,-z
-x,-y,-z
1/2+x,y,1/2-z
1/2-x,1/2+y,1/2+z
x,1/2-y,z
loop_
_atom_site_type_symbol
_atom_site_label
_atom_site_fract_x
_atom_site_fract_y
_atom_site_fract_z
Si Si1 0.655911 0.599832 0.088708
Si Si2 0.809674 0.681189 0.059577
Si Si3 0.978561 0.607545 0.357919
Si Si4 0.870832 0.002807 0.372505
Si Si5 0.453105 0.905084 0.447123
Si Si6 0.902032 0.042732 0.093040
Si Si7 0.829802 0.816423 0.376531
Si Si8 0.721019 0.580134 0.376246
O O1 0.564193 0.624929 0.073561
O O2 0.664367 0.582924 0.245535
O O3 0.722462 0.648298 0.036146
O O4 0.659408 0.537733 0.004314
O O5 0.808083 0.750000 0.997821
O O6 0.882542 0.640085 0.995701
O O7 0.827442 0.685547 0.216008
O O8 0.952155 0.537966 0.393827
O O9 0.984920 0.617858 0.197153
O O10 0.913840 0.653364 0.423999
O O11 0.799829 0.957015 0.328496
O O12 0.884396 0.051399 0.251700
O O13 0.527970 0.909017 0.552009
O O14 0.421117 0.972778 0.431659
O O15 0.822669 0.052575 0.004178
O O16 0.824129 0.750000 0.441289
O O17 0.751359 0.853680 0.425337
#
# Coordination Sequence:
#
# PCOD8250434 Si02
#       8
#     8   8   8   8   8   8   8   8
#     4  11  19  31  50  75 101 125 164 201 245 293
#     4   9  18  32  50  72  97 130 169 209 242 281
#     4   9  17  30  47  71 102 128 155 201 249 293
#     4  10  20  31  46  75 106 131 154 195 250 297
#     4   9  17  32  50  71  99 130 165 202 240 290
#     4  10  18  31  52  75  99 131 162 195 246 299
#     4   8  16  30  48  71  99 124 157 204 250 283
#     4  10  18  31  50  73 101 129 160 199 240 287
#
# _framework density 17.783064
#
# number of rings (size 3 to 8) (size 9 to 14) (size 15 to 20)
#    0.000    2.500    1.250    4.125    0.000    0.500 
#    0.000    0.625    0.000    1.500    0.000    0.000 
#    0.000    0.000    0.000    0.000    0.000    0.000 
#
# Total GULP energy -793182.941036 kJ/mol
# GULP energy per Si atom -12393.483454 kJ/mol
# Density = 1.774259 g / cm^3
# Si number density = 17.783064 Si / 1000 Ang^3
#
#
#
# Elastic Constant Matrix: (Units=GPa)
#
#
# Indices 1 2 3 4 5 6 
#
# 1 103.3428 31.8674 23.7244 0.0000 0.0000 0.0000
# 2 31.8674 67.6003 24.5579 0.0000 0.0000 0.0000
# 3 23.7244 24.5579 30.2158 0.0000 0.0000 0.0000
# 4 0.0000 0.0000 0.0000 13.1001 0.0000 0.0000
# 5 0.0000 0.0000 0.0000 0.0000 19.3487 0.0000
# 6 0.0000 0.0000 0.0000 0.0000 0.0000 22.4091
#
#
#
# Elastic Compliance Matrix: (Units=1/GPa)
#
#
# Indices 1 2 3 4 5 6 
#
# 1 0.012286 -0.003246 -0.007009 0.000000 0.000000 0.000000
# 2 -0.003246 0.021848 -0.015208 0.000000 0.000000 0.000000
# 3 -0.007009 -0.015208 0.050959 0.000000 0.000000 0.000000
# 4 0.000000 0.000000 0.000000 0.076335 0.000000 0.000000
# 5 0.000000 0.000000 0.000000 0.000000 0.051683 0.000000
# 6 0.000000 0.000000 0.000000 0.000000 0.000000 0.044625
#
#
# Mechanical properties :
#
#
# Convention : Reuss Voigt Hill
#
# Bulk Modulus (GPa) = 29.26779 40.16205 34.71492
# Shear Modulus (GPa) = 15.62246 19.03885 17.33066
#
# Velocity S-wave (km/s) = 2.96717 3.27558 3.12518
# Velocity P-wave (km/s) = 5.31345 6.07778 5.70842
#
# Compressibility (1/GPa) = 0.03416725
#
# Stress axis : x y z
#
# Youngs Moduli (GPa) = 81.39044 45.77107 19.62354
#
# Poissons Ratio (x) = 0.14856 0.13754
# Poissons Ratio (y) = 0.26417 0.29844
# Poissons Ratio (z) = 0.57046 0.69611
#
# Static dielectric constant tensor:
#      x y z
#    x 3.464980 0.000000 0.000000 
#    y 0.000000 3.481880 0.000000 
#    z 0.000000 0.000000 2.980280 
# 
# 
# High freq. dielectric constant tensor:
#      x y z
#    x 1.703170 0.000000 0.000000 
#    y 0.000000 1.670790 0.000000 
#    z 0.000000 0.000000 1.644440 
# 
# From -- ./inp_files/8106.got.cif
#   From: 2010.03.12/outbox.cif.g09.slc.cpg/sg62_5_cif.got.tgz:8106.got - 2010.04.10 19:12:36.
