data_PCOD8250009
_publ_section_title
;
Structure prediction by ZEFSAII (Michael W. Deem and Ramdas Pophale) SiO2 
 PCOD8250009
Probable space group: P N M A
;
_chemical_formula_sum "Si O2"
_cell_formula_units_Z 64
_cell_length_a 23.605418
_cell_length_b 9.091802
_cell_length_c 19.210783
_cell_angle_alpha 90.000000
_cell_angle_beta 90.000000
_cell_angle_gamma 90.000000
_cell_volume 4122.937304
_symmetry_space_group_name_H-M "P N M A"
_symmetry_group_IT_number 62
_symmetry_cell_setting 'orthorhombic'
loop_
_space_group_symop_operation_xyz
x,y,z
1/2-x,-y,1/2+z
1/2+x,1/2-y,1/2-z
-x,1/2+y,-z
-x,-y,-z
1/2+x,y,1/2-z
1/2-x,1/2+y,1/2+z
x,1/2-y,z
loop_
_atom_site_type_symbol
_atom_site_label
_atom_site_fract_x
_atom_site_fract_y
_atom_site_fract_z
Si Si1 0.740839 0.077066 0.497319
Si Si2 0.837301 0.580923 0.759203
Si Si3 0.886721 0.924961 0.002279
Si Si4 0.831788 0.423270 0.219730
Si Si5 0.061450 0.578365 0.866578
Si Si6 0.565556 0.423721 0.356206
Si Si7 0.729991 0.922385 0.147689
Si Si8 0.772528 0.081966 0.351622
O O1 0.733872 0.250000 0.484553
O O2 0.677413 0.013976 0.506695
O O3 0.778666 0.044099 0.565463
O O4 0.770620 0.005835 0.428278
O O5 0.843933 0.750000 0.736545
O O6 0.894806 0.516202 0.793532
O O7 0.822770 0.489256 0.689851
O O8 0.788556 0.562513 0.816483
O O9 0.889483 0.750000 0.008115
O O10 0.922902 0.989983 0.064963
O O11 0.914261 0.984691 0.930834
O O12 0.817215 0.250000 0.215467
O O13 0.895872 0.457550 0.197010
O O14 0.789588 0.505856 0.168047
O O15 0.820418 0.482513 0.298826
O O16 0.062798 0.750000 0.885569
O O17 0.999085 0.529292 0.841503
O O18 0.573590 0.250000 0.357563
O O19 0.733721 0.750000 0.162632
O O20 0.788178 0.250000 0.363716
#
# Coordination Sequence:
#
# PCOD8250009 Si02
#       8
#     8   8   8   8   8   8   8   8
#     4   9  15  24  41  62  81 106 142 173 200 246
#     4   9  16  29  46  61  79 110 145 175 207 250
#     4  10  17  28  43  60  83 119 154 173 197 247
#     4   9  17  28  43  61  84 112 141 173 209 249
#     4  10  19  29  41  64  91 114 143 183 216 241
#     4   9  17  29  46  62  83 117 154 179 202 245
#     4  10  18  27  42  63  85 105 132 177 219 251
#     4   8  13  24  42  59  75 103 143 174 198 240
#
# _framework density 15.522914
#
# number of rings (size 3 to 8) (size 9 to 14) (size 15 to 20)
#    0.000    2.750    2.500    1.500    0.000    0.000 
#    0.000    1.250    0.000    6.000    0.000    0.875 
#    0.000    0.000    0.000    0.000    0.000    0.000 
#
# Total GULP energy -793113.906538 kJ/mol
# GULP energy per Si atom -12392.404790 kJ/mol
# Density = 1.548758 g / cm^3
# Si number density = 15.522914 Si / 1000 Ang^3
#
#
#
# Elastic Constant Matrix: (Units=GPa)
#
#
# Indices 1 2 3 4 5 6 
#
# 1 104.1989 21.8902 69.1164 0.0000 0.0000 0.0000
# 2 21.8902 29.9564 29.6307 0.0000 0.0000 0.0000
# 3 69.1164 29.6307 123.8012 0.0000 0.0000 0.0000
# 4 0.0000 0.0000 0.0000 17.9811 0.0000 0.0000
# 5 0.0000 0.0000 0.0000 0.0000 26.7784 0.0000
# 6 0.0000 0.0000 0.0000 0.0000 0.0000 14.0023
#
#
#
# Elastic Compliance Matrix: (Units=1/GPa)
#
#
# Indices 1 2 3 4 5 6 
#
# 1 0.015537 -0.003634 -0.007804 0.000000 0.000000 0.000000
# 2 -0.003634 0.044586 -0.008642 0.000000 0.000000 0.000000
# 3 -0.007804 -0.008642 0.014503 0.000000 0.000000 0.000000
# 4 0.000000 0.000000 0.000000 0.055614 0.000000 0.000000
# 5 0.000000 0.000000 0.000000 0.000000 0.037343 0.000000
# 6 0.000000 0.000000 0.000000 0.000000 0.000000 0.071417
#
#
# Mechanical properties :
#
#
# Convention : Reuss Voigt Hill
#
# Bulk Modulus (GPa) = 29.01547 55.47010 42.24279
# Shear Modulus (GPa) = 17.20281 20.90698 19.05489
#
# Velocity S-wave (km/s) = 3.33261 3.67392 3.50742
# Velocity P-wave (km/s) = 5.79145 7.33545 6.60870
#
# Compressibility (1/GPa) = 0.03446438
#
# Stress axis : x y z
#
# Youngs Moduli (GPa) = 64.36141 22.42868 68.95100
#
# Poissons Ratio (x) = 0.08151 0.53812
# Poissons Ratio (y) = 0.23389 0.59590
# Poissons Ratio (z) = 0.50231 0.19384
#
# Static dielectric constant tensor:
#      x y z
#    x 2.984750 0.000000 0.000000 
#    y 0.000000 2.685400 0.000000 
#    z 0.000000 0.000000 3.209780 
# 
# 
# High freq. dielectric constant tensor:
#      x y z
#    x 1.573830 0.000000 0.000000 
#    y 0.000000 1.562450 0.000000 
#    z 0.000000 0.000000 1.597040 
# 
# From -- ./inp_files/24870.got.cif
#   From: 2010.03.12/outbox.cif.g09.slc.cpg/sg62_13_cif.got.tgz:24870.got - 2010.04.10 19:12:36.
