data_PCOD8250705
_publ_section_title
;
Structure prediction by ZEFSAII (Michael W. Deem and Ramdas Pophale) SiO2 
 PCOD8250705
Probable space group: P N M A
;
_chemical_formula_sum "Si O2"
_cell_formula_units_Z 64
_cell_length_a 15.370839
_cell_length_b 8.921510
_cell_length_c 23.796248
_cell_angle_alpha 90.000000
_cell_angle_beta 90.000000
_cell_angle_gamma 90.000000
_cell_volume 3263.205518
_symmetry_space_group_name_H-M "P N M A"
_symmetry_group_IT_number 62
_symmetry_cell_setting 'orthorhombic'
loop_
_space_group_symop_operation_xyz
x,y,z
1/2-x,-y,1/2+z
1/2+x,1/2-y,1/2-z
-x,1/2+y,-z
-x,-y,-z
1/2+x,y,1/2-z
1/2-x,1/2+y,1/2+z
x,1/2-y,z
loop_
_atom_site_type_symbol
_atom_site_label
_atom_site_fract_x
_atom_site_fract_y
_atom_site_fract_z
Si Si1 0.335879 0.575438 0.249039
Si Si2 0.249600 0.074447 0.932212
Si Si3 0.400576 0.573364 0.627116
Si Si4 0.588715 0.926298 0.142806
Si Si5 0.077320 0.421875 0.863246
Si Si6 0.844691 0.926881 0.749378
Si Si7 0.256399 0.072047 0.551960
Si Si8 0.102447 0.426610 0.629059
O O1 0.309690 0.750000 0.245844
O O2 0.407424 0.549078 0.297179
O O3 0.251108 0.482909 0.265404
O O4 0.373504 0.511409 0.190780
O O5 0.255872 0.250000 0.946366
O O6 0.333581 0.019753 0.897259
O O7 0.164079 0.035832 0.896913
O O8 0.247681 0.979347 0.988334
O O9 0.390510 0.750000 0.620365
O O10 0.499921 0.527198 0.615331
O O11 0.372394 0.516775 0.688827
O O12 0.341444 0.494597 0.580870
O O13 0.594717 0.750000 0.153948
O O14 0.496679 0.971741 0.113906
O O15 0.590537 0.005319 0.203290
O O16 0.051310 0.250000 0.874316
O O17 0.848878 0.750000 0.745716
O O18 0.261596 0.250000 0.554879
O O19 0.169813 0.008863 0.583254
O O20 0.111745 0.250000 0.630976
#
# Coordination Sequence:
#
# PCOD8250705 Si02
#       8
#     8   8   8   8   8   8   8   8
#     4  10  18  35  61  88 117 153 194 236 286 348
#     4  10  22  40  61  86 117 153 196 243 295 346
#     4  11  24  40  59  87 121 157 192 239 299 350
#     4  10  20  39  64  87 116 156 196 238 285 346
#     4  10  21  38  62  90 115 152 198 239 289 350
#     4  11  22  35  56  89 124 154 187 235 295 351
#     4  11  23  40  62  86 115 154 201 247 289 345
#     4   9  19  35  61  91 115 147 196 241 281 338
#
# _framework density 19.612617
#
# number of rings (size 3 to 8) (size 9 to 14) (size 15 to 20)
#    0.000    1.750    2.500    1.875    0.000    5.000 
#    0.000    1.875    0.000    0.000    0.000    0.000 
#    0.000    0.000    0.000    0.000    0.000    0.000 
#
# Total GULP energy -793791.940954 kJ/mol
# GULP energy per Si atom -12402.999077 kJ/mol
# Density = 1.956798 g / cm^3
# Si number density = 19.612617 Si / 1000 Ang^3
#
#
#
# Elastic Constant Matrix: (Units=GPa)
#
#
# Indices 1 2 3 4 5 6 
#
# 1 128.3616 31.8929 46.9550 0.0000 0.0000 0.0000
# 2 31.8929 48.7832 38.1199 0.0000 0.0000 0.0000
# 3 46.9550 38.1199 120.4922 0.0000 0.0000 0.0000
# 4 0.0000 0.0000 0.0000 32.3452 0.0000 0.0000
# 5 0.0000 0.0000 0.0000 0.0000 16.2091 0.0000
# 6 0.0000 0.0000 0.0000 0.0000 0.0000 13.2372
#
#
#
# Elastic Compliance Matrix: (Units=1/GPa)
#
#
# Indices 1 2 3 4 5 6 
#
# 1 0.009789 -0.004541 -0.002378 0.000000 0.000000 0.000000
# 2 -0.004541 0.029338 -0.007512 0.000000 0.000000 0.000000
# 3 -0.002378 -0.007512 0.011602 0.000000 0.000000 0.000000
# 4 0.000000 0.000000 0.000000 0.030916 0.000000 0.000000
# 5 0.000000 0.000000 0.000000 0.000000 0.061694 0.000000
# 6 0.000000 0.000000 0.000000 0.000000 0.000000 0.075545
#
#
# Mechanical properties :
#
#
# Convention : Reuss Voigt Hill
#
# Bulk Modulus (GPa) = 45.73152 59.06361 52.39756
# Shear Modulus (GPa) = 19.60519 24.40293 22.00406
#
# Velocity S-wave (km/s) = 3.16511 3.53121 3.35316
# Velocity P-wave (km/s) = 6.06013 6.84152 6.46265
#
# Compressibility (1/GPa) = 0.02186676
#
# Stress axis : x y z
#
# Youngs Moduli (GPa) = 102.15885 34.08577 86.18911
#
# Poissons Ratio (x) = 0.15480 0.20494
# Poissons Ratio (y) = 0.46395 0.64743
# Poissons Ratio (z) = 0.24291 0.25604
#
# Static dielectric constant tensor:
#      x y z
#    x 3.727220 0.000000 0.000000 
#    y 0.000000 3.340910 0.000000 
#    z 0.000000 0.000000 3.637240 
# 
# 
# High freq. dielectric constant tensor:
#      x y z
#    x 1.776940 0.000000 0.000000 
#    y 0.000000 1.744780 0.000000 
#    z 0.000000 0.000000 1.763990 
# 
# From -- ./inp_files/29909.got.cif
#   From: 2010.03.12/outbox.cif.g09.slc.cpg/sg62_15_cif.got.tgz:29909.got - 2010.04.10 19:12:36.
