data_PCOD8250287
_publ_section_title
;
Structure prediction by ZEFSAII (Michael W. Deem and Ramdas Pophale) SiO2 
 PCOD8250287
Probable space group: P N M A
;
_chemical_formula_sum "Si O2"
_cell_formula_units_Z 56
_cell_length_a 15.248459
_cell_length_b 9.409817
_cell_length_c 21.609928
_cell_angle_alpha 90.000000
_cell_angle_beta 90.000000
_cell_angle_gamma 90.000000
_cell_volume 3100.705030
_symmetry_space_group_name_H-M "P N M A"
_symmetry_group_IT_number 62
_symmetry_cell_setting 'orthorhombic'
loop_
_space_group_symop_operation_xyz
x,y,z
1/2-x,-y,1/2+z
1/2+x,1/2-y,1/2-z
-x,1/2+y,-z
-x,-y,-z
1/2+x,y,1/2-z
1/2-x,1/2+y,1/2+z
x,1/2-y,z
loop_
_atom_site_type_symbol
_atom_site_label
_atom_site_fract_x
_atom_site_fract_y
_atom_site_fract_z
Si Si1 0.455337 0.593779 0.550979
Si Si2 0.250072 0.416653 0.189955
Si Si3 0.548959 0.417648 0.308656
Si Si4 0.915149 0.918845 0.277951
Si Si5 0.874434 0.590782 0.521854
Si Si6 0.247101 0.093210 0.048684
Si Si7 0.002560 0.591559 0.405959
O O1 0.500000 0.500000 0.500000
O O2 0.497520 0.750000 0.547131
O O3 0.467161 0.535254 0.620461
O O4 0.354267 0.601952 0.533844
O O5 0.269828 0.250000 0.199388
O O6 0.150004 0.450582 0.210529
O O7 0.318848 0.509857 0.229970
O O8 0.262696 0.460916 0.118417
O O9 0.530092 0.250000 0.299491
O O10 0.483210 0.513627 0.269728
O O11 0.907436 0.750000 0.267128
O O12 0.950247 0.958636 0.345832
O O13 0.850994 0.750000 0.542142
O O14 0.786214 0.512423 0.501946
O O15 0.938666 0.587025 0.463944
O O16 0.916660 0.514222 0.581502
O O17 0.290007 0.250000 0.041100
O O18 0.040170 0.750000 0.396301
#
# Coordination Sequence:
#
# PCOD8250287 Si02
#       7
#     8   8   8   8   8   8   8
#     4   9  19  36  57  80 104 132 170 216 263 311
#     4   9  18  34  56  77 101 139 181 219 261 315
#     4   9  20  38  57  80 108 139 179 220 261 318
#     4  11  21  34  54  81 110 140 176 221 271 315
#     4  10  18  29  47  74 103 134 172 211 249 298
#     4   9  17  31  52  76 103 135 171 213 262 310
#     4   9  19  32  45  69 107 139 166 206 252 303
#
# _framework density 18.060409
#
# number of rings (size 3 to 8) (size 9 to 14) (size 15 to 20)
#    0.000    2.571    1.429    2.571    0.000    3.429 
#    0.000    4.286    0.000    0.000    0.000    0.000 
#    0.000    0.000    0.000    0.000    0.000    0.000 
#
# Total GULP energy -694201.811240 kJ/mol
# GULP energy per Si atom -12396.460915 kJ/mol
# Density = 1.801930 g / cm^3
# Si number density = 18.060409 Si / 1000 Ang^3
#
#
#
# Elastic Constant Matrix: (Units=GPa)
#
#
# Indices 1 2 3 4 5 6 
#
# 1 96.5181 61.6237 47.9825 0.0000 0.0000 0.0000
# 2 61.6237 100.6969 45.9636 0.0000 0.0000 0.0000
# 3 47.9825 45.9636 56.3043 0.0000 0.0000 0.0000
# 4 0.0000 0.0000 0.0000 28.4008 0.0000 0.0000
# 5 0.0000 0.0000 0.0000 0.0000 33.2655 0.0000
# 6 0.0000 0.0000 0.0000 0.0000 0.0000 32.7702
#
#
#
# Elastic Compliance Matrix: (Units=1/GPa)
#
#
# Indices 1 2 3 4 5 6 
#
# 1 0.020988 -0.007459 -0.011796 0.000000 0.000000 0.000000
# 2 -0.007459 0.018480 -0.008729 0.000000 0.000000 0.000000
# 3 -0.011796 -0.008729 0.034940 0.000000 0.000000 0.000000
# 4 0.000000 0.000000 0.000000 0.035210 0.000000 0.000000
# 5 0.000000 0.000000 0.000000 0.000000 0.030061 0.000000
# 6 0.000000 0.000000 0.000000 0.000000 0.000000 0.030516
#
#
# Mechanical properties :
#
#
# Convention : Reuss Voigt Hill
#
# Bulk Modulus (GPa) = 54.23731 62.73986 58.48859
# Shear Modulus (GPa) = 21.52292 25.41726 23.47009
#
# Velocity S-wave (km/s) = 3.45587 3.75553 3.60881
# Velocity P-wave (km/s) = 6.78383 7.32255 7.05833
#
# Compressibility (1/GPa) = 0.01843749
#
# Stress axis : x y z
#
# Youngs Moduli (GPa) = 47.64697 54.11168 28.62080
#
# Poissons Ratio (x) = 0.40364 0.33762
# Poissons Ratio (y) = 0.35542 0.24984
# Poissons Ratio (z) = 0.56206 0.47236
#
# Static dielectric constant tensor:
#      x y z
#    x 3.310870 0.000000 0.000000 
#    y 0.000000 3.650440 0.000000 
#    z 0.000000 0.000000 3.144120 
# 
# 
# High freq. dielectric constant tensor:
#      x y z
#    x 1.693010 0.000000 0.000000 
#    y 0.000000 1.702690 0.000000 
#    z 0.000000 0.000000 1.676720 
# 
# From -- ./inp_files/27223.got.cif
#   From: 2010.03.12/outbox.cif.g09.slc.cpg/sg62_14_cif.got.tgz:27223.got - 2010.04.10 19:12:36.
