data_PCOD8250565
_publ_section_title
;
Structure prediction by ZEFSAII (Michael W. Deem and Ramdas Pophale) SiO2 
 PCOD8250565
Probable space group: P N M A
;
_chemical_formula_sum "Si O2"
_cell_formula_units_Z 64
_cell_length_a 11.785870
_cell_length_b 8.992123
_cell_length_c 33.583264
_cell_angle_alpha 90.000000
_cell_angle_beta 90.000000
_cell_angle_gamma 90.000000
_cell_volume 3559.154074
_symmetry_space_group_name_H-M "P N M A"
_symmetry_group_IT_number 62
_symmetry_cell_setting 'orthorhombic'
loop_
_space_group_symop_operation_xyz
x,y,z
1/2-x,-y,1/2+z
1/2+x,1/2-y,1/2-z
-x,1/2+y,-z
-x,-y,-z
1/2+x,y,1/2-z
1/2-x,1/2+y,1/2+z
x,1/2-y,z
loop_
_atom_site_type_symbol
_atom_site_label
_atom_site_fract_x
_atom_site_fract_y
_atom_site_fract_z
Si Si1 0.615511 0.077458 0.170274
Si Si2 0.188994 0.576023 0.770670
Si Si3 0.645351 0.576628 0.817468
Si Si4 0.045208 0.077186 0.832425
Si Si5 0.884933 0.924669 0.953160
Si Si6 0.315768 0.425922 0.626708
Si Si7 0.743783 0.424138 0.607387
Si Si8 0.354702 0.424495 0.465762
O O1 0.635099 0.250000 0.160316
O O2 0.695114 0.028009 0.207272
O O3 0.487903 0.042696 0.182545
O O4 0.646393 0.983271 0.131022
O O5 0.168007 0.750000 0.772034
O O6 0.195023 0.523063 0.724988
O O7 0.079503 0.505377 0.791988
O O8 0.670489 0.750000 0.825350
O O9 0.701649 0.478825 0.851864
O O10 0.047420 0.250000 0.822945
O O11 0.132274 0.035949 0.867389
O O12 0.921517 0.023126 0.846062
O O13 0.861980 0.750000 0.954202
O O14 0.018359 0.961705 0.951003
O O15 0.821882 0.995525 0.915766
O O16 0.830500 0.997641 0.992251
O O17 0.315269 0.250000 0.620070
O O18 0.756545 0.250000 0.599379
O O19 0.734565 0.508585 0.565501
O O20 0.334630 0.250000 0.470379
#
# Coordination Sequence:
#
# PCOD8250565 Si02
#       8
#     8   8   8   8   8   8   8   8
#     4   9  19  36  53  76 107 138 179 227 271 319
#     4   9  19  34  56  79 102 135 177 226 272 318
#     4  10  22  37  55  78 105 141 183 228 274 324
#     4   9  19  33  50  75 107 139 174 218 267 317
#     4  10  20  33  52  79 113 147 180 219 265 322
#     4  11  22  36  53  77 111 147 180 222 271 325
#     4  10  18  32  54  78 107 141 178 219 264 318
#     4  10  19  31  52  82 113 145 177 217 268 319
#
# _framework density 17.981801999999998
#
# number of rings (size 3 to 8) (size 9 to 14) (size 15 to 20)
#    0.000    2.250    1.250    1.500    1.750    3.500 
#    0.000    0.000    0.000    0.750    0.000    0.000 
#    0.000    0.000    0.000    0.000    0.000    0.000 
#
# Total GULP energy -793828.479394 kJ/mol
# GULP energy per Si atom -12403.569991 kJ/mol
# Density = 1.794087 g / cm^3
# Si number density = 17.981802 Si / 1000 Ang^3
#
#
#
# Elastic Constant Matrix: (Units=GPa)
#
#
# Indices 1 2 3 4 5 6 
#
# 1 73.9659 31.0779 48.4694 0.0000 0.0000 0.0000
# 2 31.0779 70.3693 59.0425 0.0000 0.0000 0.0000
# 3 48.4694 59.0425 146.8293 0.0000 0.0000 0.0000
# 4 0.0000 0.0000 0.0000 33.0332 0.0000 0.0000
# 5 0.0000 0.0000 0.0000 0.0000 25.4964 0.0000
# 6 0.0000 0.0000 0.0000 0.0000 0.0000 25.6647
#
#
#
# Elastic Compliance Matrix: (Units=1/GPa)
#
#
# Indices 1 2 3 4 5 6 
#
# 1 0.018153 -0.004511 -0.004178 0.000000 0.000000 0.000000
# 2 -0.004511 0.022568 -0.007586 0.000000 0.000000 0.000000
# 3 -0.004178 -0.007586 0.011240 0.000000 0.000000 0.000000
# 4 0.000000 0.000000 0.000000 0.030273 0.000000 0.000000
# 5 0.000000 0.000000 0.000000 0.000000 0.039221 0.000000
# 6 0.000000 0.000000 0.000000 0.000000 0.000000 0.038964
#
#
# Mechanical properties :
#
#
# Convention : Reuss Voigt Hill
#
# Bulk Modulus (GPa) = 51.51851 63.14934 57.33392
# Shear Modulus (GPa) = 25.07015 27.01051 26.04033
#
# Velocity S-wave (km/s) = 3.73794 3.87990 3.80958
# Velocity P-wave (km/s) = 6.88057 7.43413 7.16270
#
# Compressibility (1/GPa) = 0.01941050
#
# Stress axis : x y z
#
# Youngs Moduli (GPa) = 55.08615 44.31089 88.96563
#
# Poissons Ratio (x) = 0.19990 0.37174
# Poissons Ratio (y) = 0.24851 0.67486
# Poissons Ratio (z) = 0.23018 0.33613
#
# Static dielectric constant tensor:
#      x y z
#    x 3.137710 0.000000 0.000000 
#    y 0.000000 3.285590 0.000000 
#    z 0.000000 0.000000 3.371780 
# 
# 
# High freq. dielectric constant tensor:
#      x y z
#    x 1.669560 0.000000 0.000000 
#    y 0.000000 1.700110 0.000000 
#    z 0.000000 0.000000 1.700230 
# 
# From -- ./inp_files/32577.got.cif
#   From: 2010.03.12/outbox.cif.g09.slc.cpg/sg62_17_cif.got.tgz:32577.got - 2010.04.10 19:12:36.
