data_PCOD8250521
_publ_section_title
;
Structure prediction by ZEFSAII (Michael W. Deem and Ramdas Pophale) SiO2 
 PCOD8250521
Probable space group: P N M A
;
_chemical_formula_sum "Si O2"
_cell_formula_units_Z 64
_cell_length_a 19.179176
_cell_length_b 9.041502
_cell_length_c 22.954963
_cell_angle_alpha 90.000000
_cell_angle_beta 90.000000
_cell_angle_gamma 90.000000
_cell_volume 3980.587037
_symmetry_space_group_name_H-M "P N M A"
_symmetry_group_IT_number 62
_symmetry_cell_setting 'orthorhombic'
loop_
_space_group_symop_operation_xyz
x,y,z
1/2-x,-y,1/2+z
1/2+x,1/2-y,1/2-z
-x,1/2+y,-z
-x,-y,-z
1/2+x,y,1/2-z
1/2-x,1/2+y,1/2+z
x,1/2-y,z
loop_
_atom_site_type_symbol
_atom_site_label
_atom_site_fract_x
_atom_site_fract_y
_atom_site_fract_z
Si Si1 0.351489 0.421011 0.065379
Si Si2 0.652267 0.577208 0.735314
Si Si3 0.365023 0.420718 0.931831
Si Si4 0.721763 0.417503 0.160503
Si Si5 0.730693 0.425034 0.838796
Si Si6 0.000359 0.075897 0.255132
Si Si7 0.353835 0.579851 0.717695
Si Si8 0.500083 0.074895 0.113789
O O1 0.341583 0.250000 0.082786
O O2 0.293675 0.517746 0.098358
O O3 0.428770 0.474634 0.082930
O O4 0.339511 0.447892 0.997301
O O5 0.660230 0.750000 0.752175
O O6 0.698619 0.541448 0.678386
O O7 0.677524 0.485313 0.790604
O O8 0.571826 0.535007 0.722396
O O9 0.379929 0.250000 0.919494
O O10 0.302769 0.474193 0.890127
O O11 0.436107 0.507944 0.921741
O O12 0.717051 0.250000 0.137282
O O13 0.673317 0.437639 0.216638
O O14 0.730679 0.250000 0.837556
O O15 0.809014 0.482084 0.826705
O O16 0.009180 0.250000 0.261357
O O17 0.066485 0.018187 0.217768
O O18 0.000041 0.010484 0.320499
O O19 0.348863 0.750000 0.697406
O O20 0.508944 0.250000 0.112835
#
# Coordination Sequence:
#
# PCOD8250521 Si02
#       8
#     8   8   8   8   8   8   8   8
#     4  10  21  36  50  64  90 132 169 198 234 278
#     4   9  17  32  52  70  93 125 161 195 232 283
#     4  11  22  32  46  69  97 128 163 201 239 275
#     4   9  17  30  48  69  93 127 162 192 231 279
#     4  11  21  31  46  71  96 122 156 199 242 276
#     4   9  15  28  52  74  90 122 163 193 224 276
#     4   9  17  31  50  69  92 124 157 188 232 286
#     4  10  18  32  50  66  92 128 166 198 227 274
#
# _framework density 16.078029999999998
#
# number of rings (size 3 to 8) (size 9 to 14) (size 15 to 20)
#    0.000    2.250    2.500    2.625    0.000    3.500 
#    0.000    0.625    0.000    0.000    0.000    0.875 
#    0.000    0.000    0.000    0.000    0.000    0.000 
#
# Total GULP energy -793536.869927 kJ/mol
# GULP energy per Si atom -12399.013593 kJ/mol
# Density = 1.604144 g / cm^3
# Si number density = 16.078030 Si / 1000 Ang^3
#
#
#
# Elastic Constant Matrix: (Units=GPa)
#
#
# Indices 1 2 3 4 5 6 
#
# 1 128.7356 37.6584 47.8004 0.0000 0.0000 0.0000
# 2 37.6584 60.7063 36.6613 0.0000 0.0000 0.0000
# 3 47.8004 36.6613 71.4026 0.0000 0.0000 0.0000
# 4 0.0000 0.0000 0.0000 23.2625 0.0000 0.0000
# 5 0.0000 0.0000 0.0000 0.0000 24.2279 0.0000
# 6 0.0000 0.0000 0.0000 0.0000 0.0000 15.5347
#
#
#
# Elastic Compliance Matrix: (Units=1/GPa)
#
#
# Indices 1 2 3 4 5 6 
#
# 1 0.010796 -0.003381 -0.005491 0.000000 0.000000 0.000000
# 2 -0.003381 0.024935 -0.010539 0.000000 0.000000 0.000000
# 3 -0.005491 -0.010539 0.023093 0.000000 0.000000 0.000000
# 4 0.000000 0.000000 0.000000 0.042988 0.000000 0.000000
# 5 0.000000 0.000000 0.000000 0.000000 0.041275 0.000000
# 6 0.000000 0.000000 0.000000 0.000000 0.000000 0.064372
#
#
# Mechanical properties :
#
#
# Convention : Reuss Voigt Hill
#
# Bulk Modulus (GPa) = 49.99944 56.12050 53.05997
# Shear Modulus (GPa) = 19.76692 21.85331 20.81012
#
# Velocity S-wave (km/s) = 3.51014 3.69074 3.60157
# Velocity P-wave (km/s) = 6.89881 7.28992 7.09706
#
# Compressibility (1/GPa) = 0.02000022
#
# Stress axis : x y z
#
# Youngs Moduli (GPa) = 92.62857 40.10452 43.30361
#
# Poissons Ratio (x) = 0.13558 0.23780
# Poissons Ratio (y) = 0.31315 0.45640
# Poissons Ratio (z) = 0.50866 0.42268
#
# Static dielectric constant tensor:
#      x y z
#    x 3.282480 0.000000 0.000000 
#    y 0.000000 2.898220 0.000000 
#    z 0.000000 0.000000 2.863290 
# 
# 
# High freq. dielectric constant tensor:
#      x y z
#    x 1.620900 0.000000 0.000000 
#    y 0.000000 1.604190 0.000000 
#    z 0.000000 0.000000 1.588510 
# 
# From -- ./inp_files/27942.got.cif
#   From: 2010.03.12/outbox.cif.g09.slc.cpg/sg62_14_cif.got.tgz:27942.got - 2010.04.10 19:12:36.
