data_PCOD8250078
_publ_section_title
;
Structure prediction by ZEFSAII (Michael W. Deem and Ramdas Pophale) SiO2 
 PCOD8250078
Probable space group: P N M A
;
_chemical_formula_sum "Si O2"
_cell_formula_units_Z 64
_cell_length_a 18.919407
_cell_length_b 22.031608
_cell_length_c 8.317135
_cell_angle_alpha 90.000000
_cell_angle_beta 90.000000
_cell_angle_gamma 90.000000
_cell_volume 3466.789452
_symmetry_space_group_name_H-M "P N M A"
_symmetry_group_IT_number 62
_symmetry_cell_setting 'orthorhombic'
loop_
_space_group_symop_operation_xyz
x,y,z
1/2-x,-y,1/2+z
1/2+x,1/2-y,1/2-z
-x,1/2+y,-z
-x,-y,-z
1/2+x,y,1/2-z
1/2-x,1/2+y,1/2+z
x,1/2-y,z
loop_
_atom_site_type_symbol
_atom_site_label
_atom_site_fract_x
_atom_site_fract_y
_atom_site_fract_z
Si Si1 0.430979 0.580027 0.465251
Si Si2 0.010901 0.683258 0.897993
Si Si3 0.223296 0.455211 0.021917
Si Si4 0.163295 0.818576 0.052216
Si Si5 0.143549 0.906880 0.344117
Si Si6 0.021710 0.506101 0.248003
Si Si7 0.064473 0.595079 0.654310
Si Si8 0.202170 0.574899 0.847992
O O1 0.454213 0.649460 0.490272
O O2 0.346796 0.579643 0.468068
O O3 0.467028 0.540135 0.602433
O O4 0.463256 0.557085 0.295882
O O5 0.980981 0.750000 0.864390
O O6 0.020705 0.650822 0.726402
O O7 0.084628 0.685787 0.988947
O O8 0.241548 0.438701 0.206644
O O9 0.282630 0.433858 0.899490
O O10 0.211685 0.527419 0.995419
O O11 0.194856 0.750000 0.070626
O O12 0.159064 0.852742 0.222097
O O13 0.211352 0.857887 0.926684
O O14 0.097201 0.963396 0.280402
O O15 0.101256 0.879025 0.495075
O O16 0.987885 0.462084 0.386885
O O17 0.122721 0.568926 0.779945
#
# Coordination Sequence:
#
# PCOD8250078 Si02
#       8
#     8   8   8   8   8   8   8   8
#     4  10  18  31  55  79 103 143 179 228 275 329
#     4   9  18  34  55  75  98 137 186 231 268 320
#     4  11  21  33  55  84 117 141 178 234 292 334
#     4  10  20  36  56  76 105 146 190 228 269 327
#     4  11  21  33  53  86 112 146 184 224 280 344
#     4  10  17  32  54  78 111 140 182 226 279 329
#     4   9  19  31  52  80 110 136 177 232 284 325
#     4  10  19  34  52  80 109 142 180 227 282 338
#
# _framework density 18.460885000000001
#
# number of rings (size 3 to 8) (size 9 to 14) (size 15 to 20)
#    0.000    2.000    2.500    2.625    0.000    0.500 
#    0.000    3.125    0.000    0.000    0.000    0.000 
#    0.000    0.000    0.000    0.000    0.000    0.000 
#
# Total GULP energy -793265.471743 kJ/mol
# GULP energy per Si atom -12394.772996 kJ/mol
# Density = 1.841887 g / cm^3
# Si number density = 18.460885 Si / 1000 Ang^3
#
#
#
# Elastic Constant Matrix: (Units=GPa)
#
#
# Indices 1 2 3 4 5 6 
#
# 1 82.2526 44.3182 21.8554 0.0000 0.0000 0.0000
# 2 44.3182 153.6222 54.1510 0.0000 0.0000 0.0000
# 3 21.8554 54.1510 72.7467 0.0000 0.0000 0.0000
# 4 0.0000 0.0000 0.0000 22.9941 0.0000 0.0000
# 5 0.0000 0.0000 0.0000 0.0000 26.3489 0.0000
# 6 0.0000 0.0000 0.0000 0.0000 0.0000 22.0564
#
#
#
# Elastic Compliance Matrix: (Units=1/GPa)
#
#
# Indices 1 2 3 4 5 6 
#
# 1 0.014547 -0.003601 -0.001690 0.000000 0.000000 0.000000
# 2 -0.003601 0.009716 -0.006151 0.000000 0.000000 0.000000
# 3 -0.001690 -0.006151 0.018833 0.000000 0.000000 0.000000
# 4 0.000000 0.000000 0.000000 0.043489 0.000000 0.000000
# 5 0.000000 0.000000 0.000000 0.000000 0.037952 0.000000
# 6 0.000000 0.000000 0.000000 0.000000 0.000000 0.045338
#
#
# Mechanical properties :
#
#
# Convention : Reuss Voigt Hill
#
# Bulk Modulus (GPa) = 49.47421 61.03006 55.25213
# Shear Modulus (GPa) = 25.06306 26.83301 25.94803
#
# Velocity S-wave (km/s) = 3.68860 3.81662 3.75316
# Velocity P-wave (km/s) = 6.70811 7.24935 6.98397
#
# Compressibility (1/GPa) = 0.02021255
#
# Stress axis : x y z
#
# Youngs Moduli (GPa) = 68.74323 102.91825 53.09942
#
# Poissons Ratio (x) = 0.37060 0.08973
# Poissons Ratio (y) = 0.24754 0.32661
# Poissons Ratio (z) = 0.11617 0.63304
#
# Static dielectric constant tensor:
#      x y z
#    x 3.295930 0.000000 0.000000 
#    y 0.000000 3.647080 0.000000 
#    z 0.000000 0.000000 3.398540 
# 
# 
# High freq. dielectric constant tensor:
#      x y z
#    x 1.704630 0.000000 0.000000 
#    y 0.000000 1.703930 0.000000 
#    z 0.000000 0.000000 1.713540 
# 
# From -- ./inp_files/8082.got.cif
#   From: 2010.03.12/outbox.cif.g09.slc.cpg/sg62_5_cif.got.tgz:8082.got - 2010.04.10 19:12:36.
