data_PCOD8250266
_publ_section_title
;
Structure prediction by ZEFSAII (Michael W. Deem and Ramdas Pophale) SiO2 
 PCOD8250266
Probable space group: P N M A
;
_chemical_formula_sum "Si O2"
_cell_formula_units_Z 48
_cell_length_a 23.705778
_cell_length_b 8.836966
_cell_length_c 13.796249
_cell_angle_alpha 90.000000
_cell_angle_beta 90.000000
_cell_angle_gamma 90.000000
_cell_volume 2890.136942
_symmetry_space_group_name_H-M "P N M A"
_symmetry_group_IT_number 62
_symmetry_cell_setting 'orthorhombic'
loop_
_space_group_symop_operation_xyz
x,y,z
1/2-x,-y,1/2+z
1/2+x,1/2-y,1/2-z
-x,1/2+y,-z
-x,-y,-z
1/2+x,y,1/2-z
1/2-x,1/2+y,1/2+z
x,1/2-y,z
loop_
_atom_site_type_symbol
_atom_site_label
_atom_site_fract_x
_atom_site_fract_y
_atom_site_fract_z
Si Si1 0.056387 0.074285 0.606950
Si Si2 0.277501 0.929026 0.609298
Si Si3 0.940585 0.925796 0.615483
Si Si4 0.671909 0.073966 0.796268
Si Si5 0.162212 0.570710 0.281113
Si Si6 0.230270 0.426270 0.894937
O O1 0.040186 0.250000 0.616170
O O2 0.072339 0.034628 0.496321
O O3 0.108621 0.029445 0.675007
O O4 0.003844 0.975331 0.642618
O O5 0.285040 0.750000 0.615706
O O6 0.285303 0.993896 0.499816
O O7 0.214796 0.973169 0.642486
O O8 0.325736 0.006122 0.674127
O O9 0.933094 0.750000 0.637456
O O10 0.898386 0.017690 0.683125
O O11 0.684412 0.250000 0.819246
O O12 0.680143 0.040555 0.681721
O O13 0.163857 0.750000 0.274706
O O14 0.210862 0.506788 0.353175
O O15 0.240029 0.250000 0.909507
#
# Coordination Sequence:
#
# PCOD8250266 Si02
#       6
#     8   8   8   8   8   8
#     4   9  18  31  48  69  94 124 154 186 227 275
#     4  10  18  29  46  69  94 119 149 185 227 268
#     4  10  19  30  46  70  96 121 152 190 230 271
#     4   9  17  31  48  67  92 122 154 184 221 270
#     4  10  19  32  48  67  93 124 155 186 226 273
#     4   8  16  29  46  67  91 119 148 183 225 267
#
# _framework density 16.608208999999999
#
# number of rings (size 3 to 8) (size 9 to 14) (size 15 to 20)
#    0.000    2.667    0.000    3.500    0.000    1.333 
#    0.000    7.500    0.000    1.000    0.000    0.000 
#    0.000    0.000    0.000    0.000    0.000    0.000 
#
# Total GULP energy -595151.194256 kJ/mol
# GULP energy per Si atom -12398.983214 kJ/mol
# Density = 1.657041 g / cm^3
# Si number density = 16.608209 Si / 1000 Ang^3
#
#
#
# Elastic Constant Matrix: (Units=GPa)
#
#
# Indices 1 2 3 4 5 6 
#
# 1 101.0944 32.4071 62.6059 0.0000 0.0000 0.0000
# 2 32.4071 54.3715 34.7672 0.0000 0.0000 0.0000
# 3 62.6059 34.7672 129.4545 0.0000 0.0000 0.0000
# 4 0.0000 0.0000 0.0000 21.0772 0.0000 0.0000
# 5 0.0000 0.0000 0.0000 0.0000 27.6837 0.0000
# 6 0.0000 0.0000 0.0000 0.0000 0.0000 28.2388
#
#
#
# Elastic Compliance Matrix: (Units=1/GPa)
#
#
# Indices 1 2 3 4 5 6 
#
# 1 0.015286 -0.005293 -0.005971 0.000000 0.000000 0.000000
# 2 -0.005293 0.024038 -0.003896 0.000000 0.000000 0.000000
# 3 -0.005971 -0.003896 0.011659 0.000000 0.000000 0.000000
# 4 0.000000 0.000000 0.000000 0.047445 0.000000 0.000000
# 5 0.000000 0.000000 0.000000 0.000000 0.036122 0.000000
# 6 0.000000 0.000000 0.000000 0.000000 0.000000 0.035412
#
#
# Mechanical properties :
#
#
# Convention : Reuss Voigt Hill
#
# Bulk Modulus (GPa) = 48.39612 60.49788 54.44700
# Shear Modulus (GPa) = 24.13472 25.74260 24.93866
#
# Velocity S-wave (km/s) = 3.81620 3.94127 3.87923
# Velocity P-wave (km/s) = 6.97287 7.56419 7.27454
#
# Compressibility (1/GPa) = 0.02066281
#
# Stress axis : x y z
#
# Youngs Moduli (GPa) = 65.41814 41.60067 85.77206
#
# Poissons Ratio (x) = 0.22019 0.51216
# Poissons Ratio (y) = 0.34625 0.33418
# Poissons Ratio (z) = 0.39062 0.16208
#
# Static dielectric constant tensor:
#      x y z
#    x 3.027290 0.000000 0.000000 
#    y 0.000000 3.021990 0.000000 
#    z 0.000000 0.000000 3.289790 
# 
# 
# High freq. dielectric constant tensor:
#      x y z
#    x 1.627690 0.000000 0.000000 
#    y 0.000000 1.634800 0.000000 
#    z 0.000000 0.000000 1.633390 
# 
# From -- ./inp_files/15121.got.cif
#   From: 2010.03.12/outbox.cif.g09.slc.cpg/sg62_8_cif.got.tgz:15121.got - 2010.04.10 19:12:36.
