data_PCOD8250080
_publ_section_title
;
Structure prediction by ZEFSAII (Michael W. Deem and Ramdas Pophale) SiO2 
 PCOD8250080
Probable space group: P N M A
;
_chemical_formula_sum "Si O2"
_cell_formula_units_Z 48
_cell_length_a 17.848605
_cell_length_b 18.421244
_cell_length_c 7.947424
_cell_angle_alpha 90.000000
_cell_angle_beta 90.000000
_cell_angle_gamma 90.000000
_cell_volume 2613.061415
_symmetry_space_group_name_H-M "P N M A"
_symmetry_group_IT_number 62
_symmetry_cell_setting 'orthorhombic'
loop_
_space_group_symop_operation_xyz
x,y,z
1/2-x,-y,1/2+z
1/2+x,1/2-y,1/2-z
-x,1/2+y,-z
-x,-y,-z
1/2+x,y,1/2-z
1/2-x,1/2+y,1/2+z
x,1/2-y,z
loop_
_atom_site_type_symbol
_atom_site_label
_atom_site_fract_x
_atom_site_fract_y
_atom_site_fract_z
Si Si1 0.472315 0.541722 0.340648
Si Si2 0.654036 0.534858 0.845893
Si Si3 0.269233 0.881555 0.132176
Si Si4 0.860352 0.669203 0.066601
Si Si5 0.704979 0.104995 0.232961
Si Si6 0.367223 0.448455 0.781654
O O1 0.500000 0.500000 0.500000
O O2 0.426462 0.481600 0.234880
O O3 0.425103 0.611899 0.393635
O O4 0.545009 0.567331 0.239927
O O5 0.697730 0.460635 0.852924
O O6 0.706259 0.587404 0.736583
O O7 0.648509 0.572655 0.026374
O O8 0.300042 0.831252 0.281644
O O9 0.179760 0.894333 0.159249
O O10 0.297307 0.852983 0.948124
O O11 0.895043 0.750000 0.058283
O O12 0.820203 0.655042 0.887593
O O13 0.652865 0.033364 0.245466
#
# Coordination Sequence:
#
# PCOD8250080 Si02
#       6
#     8   8   8   8   8   8
#     4  11  20  33  55  87 116 147 190 236 286 338
#     4   9  18  30  55  87 115 136 180 236 284 323
#     4   9  19  33  57  85 108 143 182 231 275 335
#     4  11  23  39  55  79 114 152 189 233 290 344
#     4  10  18  34  57  84 109 142 189 236 276 328
#     4  10  17  32  56  88 115 138 185 238 284 325
#
# _framework density 18.369259
#
# number of rings (size 3 to 8) (size 9 to 14) (size 15 to 20)
#    0.000    2.000    3.333    1.500    4.667    0.667 
#    0.000    0.833    0.000    3.000    0.000    0.000 
#    0.000    0.000    0.000    0.000    0.000    0.000 
#
# Total GULP energy -594698.588880 kJ/mol
# GULP energy per Si atom -12389.553935 kJ/mol
# Density = 1.832745 g / cm^3
# Si number density = 18.369259 Si / 1000 Ang^3
#
#
#
# Elastic Constant Matrix: (Units=GPa)
#
#
# Indices 1 2 3 4 5 6 
#
# 1 98.1415 24.9661 13.7184 0.0000 0.0000 0.0000
# 2 24.9661 61.3059 35.4370 0.0000 0.0000 0.0000
# 3 13.7184 35.4370 113.6499 0.0000 0.0000 0.0000
# 4 0.0000 0.0000 0.0000 10.4382 0.0000 0.0000
# 5 0.0000 0.0000 0.0000 0.0000 28.5710 0.0000
# 6 0.0000 0.0000 0.0000 0.0000 0.0000 8.0074
#
#
#
# Elastic Compliance Matrix: (Units=1/GPa)
#
#
# Indices 1 2 3 4 5 6 
#
# 1 0.011368 -0.004680 0.000087 0.000000 0.000000 0.000000
# 2 -0.004680 0.021824 -0.006240 0.000000 0.000000 0.000000
# 3 0.000087 -0.006240 0.010734 0.000000 0.000000 0.000000
# 4 0.000000 0.000000 0.000000 0.095802 0.000000 0.000000
# 5 0.000000 0.000000 0.000000 0.000000 0.035001 0.000000
# 6 0.000000 0.000000 0.000000 0.000000 0.000000 0.124884
#
#
# Mechanical properties :
#
#
# Convention : Reuss Voigt Hill
#
# Bulk Modulus (GPa) = 44.92235 46.81559 45.86897
# Shear Modulus (GPa) = 15.21150 22.66837 18.93993
#
# Velocity S-wave (km/s) = 2.88079 3.51670 3.21451
# Velocity P-wave (km/s) = 5.96435 6.48311 6.22913
#
# Compressibility (1/GPa) = 0.02226063
#
# Stress axis : x y z
#
# Youngs Moduli (GPa) = 87.96888 45.82019 93.16021
#
# Poissons Ratio (x) = 0.21442 -0.00810
# Poissons Ratio (y) = 0.41166 0.58134
# Poissons Ratio (z) = -0.00765 0.28593
#
# Static dielectric constant tensor:
#      x y z
#    x 0.574700 0.000000 0.000000 
#    y 0.000000 2.888720 0.000000 
#    z 0.000000 0.000000 3.887810 
# 
# 
# High freq. dielectric constant tensor:
#      x y z
#    x 1.710990 0.000000 0.000000 
#    y 0.000000 1.657400 0.000000 
#    z 0.000000 0.000000 1.735320 
# 
# From -- ./inp_files/7845.got.cif
#   From: 2010.03.12/outbox.cif.g09.slc.cpg/sg62_4_cif.got.tgz:7845.got - 2010.04.10 19:12:36.
