data_PCOD8250414
_publ_section_title
;
Structure prediction by ZEFSAII (Michael W. Deem and Ramdas Pophale) SiO2 
 PCOD8250414
Probable space group: P N M A
;
_chemical_formula_sum "Si O2"
_cell_formula_units_Z 48
_cell_length_a 8.615898
_cell_length_b 15.634982
_cell_length_c 17.541699
_cell_angle_alpha 90.000000
_cell_angle_beta 90.000000
_cell_angle_gamma 90.000000
_cell_volume 2363.031925
_symmetry_space_group_name_H-M "P N M A"
_symmetry_group_IT_number 62
_symmetry_cell_setting 'orthorhombic'
loop_
_space_group_symop_operation_xyz
x,y,z
1/2-x,-y,1/2+z
1/2+x,1/2-y,1/2-z
-x,1/2+y,-z
-x,-y,-z
1/2+x,y,1/2-z
1/2-x,1/2+y,1/2+z
x,1/2-y,z
loop_
_atom_site_type_symbol
_atom_site_label
_atom_site_fract_x
_atom_site_fract_y
_atom_site_fract_z
Si Si1 0.995763 0.575839 0.833200
Si Si2 0.142410 0.472275 0.947693
Si Si3 0.986588 0.946582 0.298023
Si Si4 0.675276 0.568024 0.916599
Si Si5 0.102924 0.750000 0.635839
Si Si6 0.427586 0.750000 0.723188
Si Si7 0.795533 0.851303 0.176164
O O1 0.148998 0.543577 0.879620
O O2 0.952656 0.516671 0.761544
O O3 0.848818 0.577497 0.887420
O O4 0.029827 0.670415 0.805266
O O5 0.111775 0.384072 0.899693
O O6 0.302782 0.465193 0.995760
O O7 0.000000 0.500000 0.000000
O O8 0.866163 0.883639 0.256089
O O9 0.122868 0.888387 0.330845
O O10 0.914586 0.996357 0.369726
O O11 0.600824 0.663488 0.915142
O O12 0.250846 0.750000 0.694035
O O13 0.943688 0.750000 0.684899
O O14 0.795253 0.750000 0.175966
#
# Coordination Sequence:
#
# PCOD8250414 Si02
#       7
#     8   8   8   8   4   4   8
#     4   9  18  35  56  87 116 157 199 243 301 367
#     4   9  21  39  61  85 120 158 202 239 311 368
#     4  11  20  37  63  88 120 159 209 254 309 358
#     4  10  19  35  59  85 117 157 197 249 302 368
#     4  10  20  30  56  88 114 147 195 240 302 359
#     4  10  18  30  54  86 116 141 191 248 294 357
#     4  11  24  40  64  90 121 163 211 259 300 360
#
# _framework density 20.312887
#
# number of rings (size 3 to 8) (size 9 to 14) (size 15 to 20)
#    0.000    2.000    3.333    0.500    1.167    0.667 
#    1.500    0.000    3.667    0.000    0.000    0.000 
#    0.000    0.000    0.000    0.000    0.000    0.000 
#
# Total GULP energy -594652.576898 kJ/mol
# GULP energy per Si atom -12388.595352 kJ/mol
# Density = 2.026665 g / cm^3
# Si number density = 20.312887 Si / 1000 Ang^3
#
#
#
# Elastic Constant Matrix: (Units=GPa)
#
#
# Indices 1 2 3 4 5 6 
#
# 1 42.2436 35.9106 20.9425 0.0000 0.0000 0.0000
# 2 35.9106 169.0744 41.4729 0.0000 0.0000 0.0000
# 3 20.9425 41.4729 75.5679 0.0000 0.0000 0.0000
# 4 0.0000 0.0000 0.0000 27.6202 0.0000 0.0000
# 5 0.0000 0.0000 0.0000 0.0000 30.6206 0.0000
# 6 0.0000 0.0000 0.0000 0.0000 0.0000 21.9116
#
#
#
# Elastic Compliance Matrix: (Units=1/GPa)
#
#
# Indices 1 2 3 4 5 6 
#
# 1 0.030898 -0.005156 -0.005733 0.000000 0.000000 0.000000
# 2 -0.005156 0.007695 -0.002794 0.000000 0.000000 0.000000
# 3 -0.005733 -0.002794 0.016355 0.000000 0.000000 0.000000
# 4 0.000000 0.000000 0.000000 0.036205 0.000000 0.000000
# 5 0.000000 0.000000 0.000000 0.000000 0.032658 0.000000
# 6 0.000000 0.000000 0.000000 0.000000 0.000000 0.045638
#
#
# Mechanical properties :
#
#
# Convention : Reuss Voigt Hill
#
# Bulk Modulus (GPa) = 36.25645 53.72644 44.99145
# Shear Modulus (GPa) = 24.27067 28.60114 26.43590
#
# Velocity S-wave (km/s) = 3.46040 3.75644 3.61145
# Velocity P-wave (km/s) = 5.81838 6.73211 6.29185
#
# Compressibility (1/GPa) = 0.02758130
#
# Stress axis : x y z
#
# Youngs Moduli (GPa) = 32.36493 129.95237 61.14169
#
# Poissons Ratio (x) = 0.67007 0.35052
# Poissons Ratio (y) = 0.16688 0.17084
# Poissons Ratio (z) = 0.18555 0.36312
#
# Static dielectric constant tensor:
#      x y z
#    x 3.439500 0.000000 0.000000 
#    y 0.000000 4.287820 0.000000 
#    z 0.000000 0.000000 4.094630 
# 
# 
# High freq. dielectric constant tensor:
#      x y z
#    x 1.769170 0.000000 0.000000 
#    y 0.000000 1.796180 0.000000 
#    z 0.000000 0.000000 1.799100 
# 
# From -- ./inp_files/22234.got.cif
#   From: 2010.03.12/outbox.cif.g09.slc.cpg/sg62_12_cif.got.tgz:22234.got - 2010.04.10 19:12:36.
