data_PCOD8250349
_publ_section_title
;
Structure prediction by ZEFSAII (Michael W. Deem and Ramdas Pophale) SiO2 
 PCOD8250349
Probable space group: P N M A
;
_chemical_formula_sum "Si O2"
_cell_formula_units_Z 48
_cell_length_a 10.495726
_cell_length_b 9.041731
_cell_length_c 28.235963
_cell_angle_alpha 90.000000
_cell_angle_beta 90.000000
_cell_angle_gamma 90.000000
_cell_volume 2679.579650
_symmetry_space_group_name_H-M "P N M A"
_symmetry_group_IT_number 62
_symmetry_cell_setting 'orthorhombic'
loop_
_space_group_symop_operation_xyz
x,y,z
1/2-x,-y,1/2+z
1/2+x,1/2-y,1/2-z
-x,1/2+y,-z
-x,-y,-z
1/2+x,y,1/2-z
1/2-x,1/2+y,1/2+z
x,1/2-y,z
loop_
_atom_site_type_symbol
_atom_site_label
_atom_site_fract_x
_atom_site_fract_y
_atom_site_fract_z
Si Si1 0.240401 0.574468 0.142172
Si Si2 0.249340 0.423411 0.854037
Si Si3 0.503625 0.073829 0.700584
Si Si4 0.637785 0.078297 0.444924
Si Si5 0.995583 0.926413 0.307643
Si Si6 0.874037 0.920551 0.051139
O O1 0.240366 0.750000 0.137871
O O2 0.121217 0.516636 0.173079
O O3 0.233886 0.507274 0.089527
O O4 0.368760 0.515138 0.166684
O O5 0.252995 0.250000 0.844247
O O6 0.381704 0.492046 0.835342
O O7 0.234131 0.457581 0.910015
O O8 0.129391 0.489980 0.825210
O O9 0.504458 0.250000 0.700242
O O10 0.500979 0.013087 0.754071
O O11 0.641192 0.250000 0.432351
O O12 0.682424 0.048004 0.499029
O O13 0.494781 0.021421 0.437798
O O14 0.996069 0.750000 0.307628
O O15 0.918870 0.750000 0.055815
#
# Coordination Sequence:
#
# PCOD8250349 Si02
#       6
#     8   8   8   8   8   8
#     4  10  18  30  48  72  99 123 153 194 237 277
#     4   9  15  26  44  67  96 123 149 188 236 277
#     4   9  15  25  44  70  97 122 152 193 234 271
#     4  10  19  30  48  71  94 122 160 198 235 282
#     4   9  17  26  42  72 101 122 150 192 236 277
#     4   9  17  31  50  71  93 122 159 199 238 275
#
# _framework density 17.913257000000002
#
# number of rings (size 3 to 8) (size 9 to 14) (size 15 to 20)
#    0.000    2.667    1.667    1.500    0.000    4.667 
#    0.000    0.833    0.000    2.000    0.000    0.000 
#    0.000    0.000    0.000    0.000    0.000    0.000 
#
# Total GULP energy -595087.220785 kJ/mol
# GULP energy per Si atom -12397.650433 kJ/mol
# Density = 1.787249 g / cm^3
# Si number density = 17.913257 Si / 1000 Ang^3
#
#
#
# Elastic Constant Matrix: (Units=GPa)
#
#
# Indices 1 2 3 4 5 6 
#
# 1 149.5277 17.3515 86.7569 0.0000 0.0000 0.0000
# 2 17.3515 20.8376 24.6956 0.0000 0.0000 0.0000
# 3 86.7569 24.6956 166.1252 0.0000 0.0000 0.0000
# 4 0.0000 0.0000 0.0000 21.9032 0.0000 0.0000
# 5 0.0000 0.0000 0.0000 0.0000 20.5821 0.0000
# 6 0.0000 0.0000 0.0000 0.0000 0.0000 8.9502
#
#
#
# Elastic Compliance Matrix: (Units=1/GPa)
#
#
# Indices 1 2 3 4 5 6 
#
# 1 0.009703 -0.002518 -0.004693 0.000000 0.000000 0.000000
# 2 -0.002518 0.058906 -0.007442 0.000000 0.000000 0.000000
# 3 -0.004693 -0.007442 0.009577 0.000000 0.000000 0.000000
# 4 0.000000 0.000000 0.000000 0.045656 0.000000 0.000000
# 5 0.000000 0.000000 0.000000 0.000000 0.048586 0.000000
# 6 0.000000 0.000000 0.000000 0.000000 0.000000 0.111729
#
#
# Mechanical properties :
#
#
# Convention : Reuss Voigt Hill
#
# Bulk Modulus (GPa) = 20.45799 66.01097 43.23448
# Shear Modulus (GPa) = 15.16276 24.13286 19.64781
#
# Velocity S-wave (km/s) = 2.91255 3.67441 3.31544
# Velocity P-wave (km/s) = 4.77032 7.41162 6.23250
#
# Compressibility (1/GPa) = 0.04888066
#
# Stress axis : x y z
#
# Youngs Moduli (GPa) = 103.06408 16.97607 104.42089
#
# Poissons Ratio (x) = 0.04274 0.49003
# Poissons Ratio (y) = 0.25949 0.77710
# Poissons Ratio (z) = 0.48366 0.12634
#
# Static dielectric constant tensor:
#      x y z
#    x 3.372750 0.000000 0.000000 
#    y 0.000000 2.792060 0.000000 
#    z 0.000000 0.000000 3.599830 
# 
# 
# High freq. dielectric constant tensor:
#      x y z
#    x 1.680520 0.000000 0.000000 
#    y 0.000000 1.634290 0.000000 
#    z 0.000000 0.000000 1.712470 
# 
# From -- ./inp_files/30995.got.cif
#   From: 2010.03.12/outbox.cif.g09.slc.cpg/sg62_16_cif.got.tgz:30995.got - 2010.04.10 19:12:36.
