data_PCOD8250191
_publ_section_title
;
Structure prediction by ZEFSAII (Michael W. Deem and Ramdas Pophale) SiO2 
 PCOD8250191
Probable space group: P N M A
;
_chemical_formula_sum "Si O2"
_cell_formula_units_Z 56
_cell_length_a 19.420056
_cell_length_b 8.860764
_cell_length_c 19.422493
_cell_angle_alpha 90.000000
_cell_angle_beta 90.000000
_cell_angle_gamma 90.000000
_cell_volume 3342.155259
_symmetry_space_group_name_H-M "P N M A"
_symmetry_group_IT_number 62
_symmetry_cell_setting 'orthorhombic'
loop_
_space_group_symop_operation_xyz
x,y,z
1/2-x,-y,1/2+z
1/2+x,1/2-y,1/2-z
-x,1/2+y,-z
-x,-y,-z
1/2+x,y,1/2-z
1/2-x,1/2+y,1/2+z
x,1/2-y,z
loop_
_atom_site_type_symbol
_atom_site_label
_atom_site_fract_x
_atom_site_fract_y
_atom_site_fract_z
Si Si1 0.159824 0.576612 0.272355
Si Si2 0.445691 0.070450 0.551125
Si Si3 0.764923 0.427780 0.132758
Si Si4 0.793000 0.429192 0.979900
Si Si5 0.628621 0.430324 0.732551
Si Si6 0.229986 0.077185 0.656145
Si Si7 0.523524 0.570766 0.296118
O O1 0.159985 0.750000 0.296936
O O2 0.193227 0.477286 0.332660
O O3 0.201535 0.559569 0.201570
O O4 0.082694 0.516228 0.256984
O O5 0.450779 0.250000 0.547663
O O6 0.370633 0.010794 0.528764
O O7 0.462238 0.008698 0.627524
O O8 0.500000 0.000000 0.500000
O O9 0.774456 0.250000 0.139999
O O10 0.830611 0.507118 0.166908
O O11 0.762342 0.479075 0.053140
O O12 0.794600 0.250000 0.971899
O O13 0.744863 0.498262 0.918495
O O14 0.633744 0.250000 0.728889
O O15 0.664941 0.493949 0.802476
O O16 0.550241 0.488583 0.730841
O O17 0.211573 0.250000 0.643699
O O18 0.524905 0.750000 0.298793
#
# Coordination Sequence:
#
# PCOD8250191 Si02
#       7
#     8   8   8   8   8   8   8
#     4   9  16  30  50  66  85 116 155 193 227 262
#     4  10  18  28  43  64  94 123 147 175 219 274
#     4  10  19  29  43  65  92 118 150 187 223 268
#     4   9  16  27  43  62  86 121 153 177 213 269
#     4   9  17  29  48  70  90 114 149 189 227 265
#     4   8  13  25  45  64  81 112 155 185 209 256
#     4   9  16  28  48  71  90 114 151 193 227 263
#
# _framework density 16.755655000000001
#
# number of rings (size 3 to 8) (size 9 to 14) (size 15 to 20)
#    0.000    2.857    1.429    2.143    0.000    0.000 
#    0.000    2.143    0.000    7.714    0.000    0.000 
#    0.000    0.000    0.000    0.000    0.000    0.143 
#
# Total GULP energy -694054.435284 kJ/mol
# GULP energy per Si atom -12393.829201 kJ/mol
# Density = 1.671752 g / cm^3
# Si number density = 16.755655 Si / 1000 Ang^3
#
#
#
# Elastic Constant Matrix: (Units=GPa)
#
#
# Indices 1 2 3 4 5 6 
#
# 1 128.9922 17.8848 77.9822 0.0000 0.0000 0.0000
# 2 17.8848 20.6466 21.0191 0.0000 0.0000 0.0000
# 3 77.9822 21.0191 134.3003 0.0000 0.0000 0.0000
# 4 0.0000 0.0000 0.0000 17.8760 0.0000 0.0000
# 5 0.0000 0.0000 0.0000 0.0000 26.6641 0.0000
# 6 0.0000 0.0000 0.0000 0.0000 0.0000 17.1860
#
#
#
# Elastic Compliance Matrix: (Units=1/GPa)
#
#
# Indices 1 2 3 4 5 6 
#
# 1 0.012217 -0.003998 -0.006468 0.000000 0.000000 0.000000
# 2 -0.003998 0.058922 -0.006900 0.000000 0.000000 0.000000
# 3 -0.006468 -0.006900 0.012282 0.000000 0.000000 0.000000
# 4 0.000000 0.000000 0.000000 0.055941 0.000000 0.000000
# 5 0.000000 0.000000 0.000000 0.000000 0.037504 0.000000
# 6 0.000000 0.000000 0.000000 0.000000 0.000000 0.058187
#
#
# Mechanical properties :
#
#
# Convention : Reuss Voigt Hill
#
# Bulk Modulus (GPa) = 20.53895 57.52348 39.03121
# Shear Modulus (GPa) = 17.48160 23.48208 20.48184
#
# Velocity S-wave (km/s) = 3.23356 3.74765 3.50005
# Velocity P-wave (km/s) = 5.12111 7.28915 6.29911
#
# Compressibility (1/GPa) = 0.04868798
#
# Stress axis : x y z
#
# Youngs Moduli (GPa) = 81.85266 16.97152 81.42148
#
# Poissons Ratio (x) = 0.06785 0.52665
# Poissons Ratio (y) = 0.32724 0.56184
# Poissons Ratio (z) = 0.52944 0.11711
#
# Static dielectric constant tensor:
#      x y z
#    x 3.365730 0.000000 0.000000 
#    y 0.000000 2.748190 0.000000 
#    z 0.000000 0.000000 3.314330 
# 
# 
# High freq. dielectric constant tensor:
#      x y z
#    x 1.643150 0.000000 0.000000 
#    y 0.000000 1.602960 0.000000 
#    z 0.000000 0.000000 1.643230 
# 
# From -- ./inp_files/24607.got.cif
#   From: 2010.03.12/outbox.cif.g09.slc.cpg/sg62_13_cif.got.tgz:24607.got - 2010.04.10 19:12:36.
