data_PCOD8250075
_publ_section_title
;
Structure prediction by ZEFSAII (Michael W. Deem and Ramdas Pophale) SiO2 
 PCOD8250075
Probable space group: P N M A
;
_chemical_formula_sum "Si O2"
_cell_formula_units_Z 56
_cell_length_a 9.665563
_cell_length_b 14.634322
_cell_length_c 23.269154
_cell_angle_alpha 90.000000
_cell_angle_beta 90.000000
_cell_angle_gamma 90.000000
_cell_volume 3291.397663
_symmetry_space_group_name_H-M "P N M A"
_symmetry_group_IT_number 62
_symmetry_cell_setting 'orthorhombic'
loop_
_space_group_symop_operation_xyz
x,y,z
1/2-x,-y,1/2+z
1/2+x,1/2-y,1/2-z
-x,1/2+y,-z
-x,-y,-z
1/2+x,y,1/2-z
1/2-x,1/2+y,1/2+z
x,1/2-y,z
loop_
_atom_site_type_symbol
_atom_site_label
_atom_site_fract_x
_atom_site_fract_y
_atom_site_fract_z
Si Si1 0.770559 0.853612 0.080348
Si Si2 0.760843 0.973860 0.410512
Si Si3 0.239750 0.645658 0.974644
Si Si4 0.618209 0.145139 0.699737
Si Si5 0.305282 0.143504 0.699529
Si Si6 0.054821 0.493707 0.436446
Si Si7 0.943203 0.909451 0.973035
O O1 0.722515 0.750000 0.090134
O O2 0.856678 0.892879 0.135171
O O3 0.632951 0.912546 0.076437
O O4 0.862063 0.855513 0.022730
O O5 0.753391 0.905373 0.464594
O O6 0.713541 0.916688 0.356458
O O7 0.916191 0.012061 0.397730
O O8 0.661177 0.062246 0.421312
O O9 0.290020 0.750000 0.980209
O O10 0.340810 0.592831 0.929463
O O11 0.079572 0.645803 0.952040
O O12 0.661036 0.250000 0.697867
O O13 0.462142 0.131308 0.719641
O O14 0.714372 0.100575 0.748865
O O15 0.270820 0.250000 0.685747
O O16 0.000000 0.500000 0.500000
O O17 0.000000 0.000000 0.000000
#
# Coordination Sequence:
#
# PCOD8250075 Si02
#       7
#     8   8   8   8   8   8   8
#     4  11  20  32  52  73 104 144 172 208 258 304
#     4  10  20  33  49  71 106 141 166 214 254 298
#     4  10  19  32  51  73 101 138 172 207 260 310
#     4   9  20  33  48  73 101 136 181 212 242 301
#     4  10  20  34  50  72 103 141 179 211 248 302
#     4  10  20  34  46  74 104 134 173 213 250 307
#     4  10  17  32  50  71  99 135 170 215 248 301
#
# _framework density 17.014047999999999
#
# number of rings (size 3 to 8) (size 9 to 14) (size 15 to 20)
#    0.000    2.000    4.286    2.571    2.000    4.000 
#    0.000    0.000    0.000    0.000    0.000    0.000 
#    0.000    5.714    0.000    0.000    0.000    0.000 
#
# Total GULP energy -693908.008785 kJ/mol
# GULP energy per Si atom -12391.214443 kJ/mol
# Density = 1.697532 g / cm^3
# Si number density = 17.014048 Si / 1000 Ang^3
#
#
#
# Elastic Constant Matrix: (Units=GPa)
#
#
# Indices 1 2 3 4 5 6 
#
# 1 127.9673 37.9829 40.9311 0.0000 0.0000 0.0000
# 2 37.9829 69.9613 27.0007 0.0000 0.0000 0.0000
# 3 40.9311 27.0007 74.5709 0.0000 0.0000 0.0000
# 4 0.0000 0.0000 0.0000 20.2761 0.0000 0.0000
# 5 0.0000 0.0000 0.0000 0.0000 27.2143 0.0000
# 6 0.0000 0.0000 0.0000 0.0000 0.0000 23.5308
#
#
#
# Elastic Compliance Matrix: (Units=1/GPa)
#
#
# Indices 1 2 3 4 5 6 
#
# 1 0.010353 -0.003985 -0.004240 0.000000 0.000000 0.000000
# 2 -0.003985 0.018149 -0.004384 0.000000 0.000000 0.000000
# 3 -0.004240 -0.004384 0.017325 0.000000 0.000000 0.000000
# 4 0.000000 0.000000 0.000000 0.049319 0.000000 0.000000
# 5 0.000000 0.000000 0.000000 0.000000 0.036745 0.000000
# 6 0.000000 0.000000 0.000000 0.000000 0.000000 0.042498
#
#
# Mechanical properties :
#
#
# Convention : Reuss Voigt Hill
#
# Bulk Modulus (GPa) = 48.52193 53.81432 51.16812
# Shear Modulus (GPa) = 24.21574 25.30987 24.76280
#
# Velocity S-wave (km/s) = 3.77673 3.86111 3.81915
# Velocity P-wave (km/s) = 6.89920 7.18161 7.04182
#
# Compressibility (1/GPa) = 0.02060924
#
# Stress axis : x y z
#
# Youngs Moduli (GPa) = 96.58644 55.09950 57.72038
#
# Poissons Ratio (x) = 0.21955 0.24474
# Poissons Ratio (y) = 0.38486 0.25306
# Poissons Ratio (z) = 0.40954 0.24157
#
# Static dielectric constant tensor:
#      x y z
#    x 3.909860 0.000000 0.000000 
#    y 0.000000 3.171690 0.000000 
#    z 0.000000 0.000000 3.029630 
# 
# 
# High freq. dielectric constant tensor:
#      x y z
#    x 1.681210 0.000000 0.000000 
#    y 0.000000 1.625640 0.000000 
#    z 0.000000 0.000000 1.619150 
# 
# From -- ./inp_files/29036.got.cif
#   From: 2010.03.12/outbox.cif.g09.slc.cpg/sg62_15_cif.got.tgz:29036.got - 2010.04.10 19:12:36.
