data_PCOD8250549
_publ_section_title
;
Structure prediction by ZEFSAII (Michael W. Deem and Ramdas Pophale) SiO2 
 PCOD8250549
Probable space group: P N M A
;
_chemical_formula_sum "Si O2"
_cell_formula_units_Z 64
_cell_length_a 16.787755
_cell_length_b 8.965955
_cell_length_c 22.282983
_cell_angle_alpha 90.000000
_cell_angle_beta 90.000000
_cell_angle_gamma 90.000000
_cell_volume 3353.995737
_symmetry_space_group_name_H-M "P N M A"
_symmetry_group_IT_number 62
_symmetry_cell_setting 'orthorhombic'
loop_
_space_group_symop_operation_xyz
x,y,z
1/2-x,-y,1/2+z
1/2+x,1/2-y,1/2-z
-x,1/2+y,-z
-x,-y,-z
1/2+x,y,1/2-z
1/2-x,1/2+y,1/2+z
x,1/2-y,z
loop_
_atom_site_type_symbol
_atom_site_label
_atom_site_fract_x
_atom_site_fract_y
_atom_site_fract_z
Si Si1 0.802327 0.916108 0.709899
Si Si2 0.584716 0.928282 0.821483
Si Si3 0.543436 0.423139 0.695900
Si Si4 0.701321 0.428010 0.029258
Si Si5 0.864104 0.419193 0.820161
Si Si6 0.807858 0.577493 0.122084
Si Si7 0.433610 0.915733 0.886683
Si Si8 0.717997 0.079203 0.894386
O O1 0.764483 0.750000 0.711565
O O2 0.885017 0.913405 0.674846
O O3 0.819869 0.969070 0.776223
O O4 0.741743 0.030991 0.680437
O O5 0.582501 0.750000 0.819993
O O6 0.517592 0.992419 0.868623
O O7 0.568520 0.984175 0.754339
O O8 0.669416 0.984773 0.845374
O O9 0.549040 0.250000 0.714034
O O10 0.455775 0.467324 0.671729
O O11 0.600567 0.457282 0.639081
O O12 0.703386 0.250000 0.035012
O O13 0.779816 0.486411 0.063629
O O14 0.620480 0.493424 0.061235
O O15 0.702724 0.484301 0.961073
O O16 0.860336 0.250000 0.795162
O O17 0.813047 0.432285 0.881602
O O18 0.793371 0.750000 0.108415
O O19 0.452240 0.750000 0.909799
O O20 0.689179 0.250000 0.890277
#
# Coordination Sequence:
#
# PCOD8250549 Si02
#       8
#     8   8   8   8   8   8   8   8
#     4  10  18  32  53  78 108 139 173 215 269 322
#     4  11  21  34  54  82 113 140 175 222 271 323
#     4  10  21  36  54  79 111 142 174 219 272 325
#     4   9  19  38  58  75 104 145 187 224 264 316
#     4  10  20  35  54  76 106 143 181 219 267 323
#     4  10  20  34  54  79 105 136 178 224 267 315
#     4   8  16  31  51  76 105 136 170 213 259 309
#     4  10  22  38  55  77 107 145 184 224 269 320
#
# _framework density 19.081717999999999
#
# number of rings (size 3 to 8) (size 9 to 14) (size 15 to 20)
#    0.000    2.250    1.250    2.625    0.000    5.500 
#    0.000    1.250    0.000    0.000    0.000    0.000 
#    0.000    0.000    0.000    0.000    0.000    0.000 
#
# Total GULP energy -793218.734148 kJ/mol
# GULP energy per Si atom -12394.042721 kJ/mol
# Density = 1.903829 g / cm^3
# Si number density = 19.081718 Si / 1000 Ang^3
#
#
#
# Elastic Constant Matrix: (Units=GPa)
#
#
# Indices 1 2 3 4 5 6 
#
# 1 115.8718 27.8963 44.9731 0.0000 0.0000 0.0000
# 2 27.8963 47.1373 25.7625 0.0000 0.0000 0.0000
# 3 44.9731 25.7625 64.3129 0.0000 0.0000 0.0000
# 4 0.0000 0.0000 0.0000 22.8740 0.0000 0.0000
# 5 0.0000 0.0000 0.0000 0.0000 21.2332 0.0000
# 6 0.0000 0.0000 0.0000 0.0000 0.0000 22.0044
#
#
#
# Elastic Compliance Matrix: (Units=1/GPa)
#
#
# Indices 1 2 3 4 5 6 
#
# 1 0.012229 -0.003282 -0.007237 0.000000 0.000000 0.000000
# 2 -0.003282 0.028042 -0.008938 0.000000 0.000000 0.000000
# 3 -0.007237 -0.008938 0.024190 0.000000 0.000000 0.000000
# 4 0.000000 0.000000 0.000000 0.043718 0.000000 0.000000
# 5 0.000000 0.000000 0.000000 0.000000 0.047096 0.000000
# 6 0.000000 0.000000 0.000000 0.000000 0.000000 0.045445
#
#
# Mechanical properties :
#
#
# Convention : Reuss Voigt Hill
#
# Bulk Modulus (GPa) = 39.14319 47.17621 43.15970
# Shear Modulus (GPa) = 20.14908 21.80167 20.97537
#
# Velocity S-wave (km/s) = 3.25304 3.38382 3.31907
# Velocity P-wave (km/s) = 5.88793 6.32802 6.11194
#
# Compressibility (1/GPa) = 0.02554723
#
# Stress axis : x y z
#
# Youngs Moduli (GPa) = 81.77093 35.66084 41.33923
#
# Poissons Ratio (x) = 0.11704 0.29917
# Poissons Ratio (y) = 0.26838 0.36949
# Poissons Ratio (z) = 0.59178 0.31873
#
# Static dielectric constant tensor:
#      x y z
#    x 3.744270 0.000000 0.000000 
#    y 0.000000 3.382780 0.000000 
#    z 0.000000 0.000000 3.356420 
# 
# 
# High freq. dielectric constant tensor:
#      x y z
#    x 1.747900 0.000000 0.000000 
#    y 0.000000 1.728190 0.000000 
#    z 0.000000 0.000000 1.723830 
# 
# From -- ./inp_files/29720.got.cif
#   From: 2010.03.12/outbox.cif.g09.slc.cpg/sg62_15_cif.got.tgz:29720.got - 2010.04.10 19:12:36.
