data_PCOD8250180
_publ_section_title
;
Structure prediction by ZEFSAII (Michael W. Deem and Ramdas Pophale) SiO2 
 PCOD8250180
Probable space group: P N M A
;
_chemical_formula_sum "Si O2"
_cell_formula_units_Z 56
_cell_length_a 18.455558
_cell_length_b 8.581860
_cell_length_c 21.184151
_cell_angle_alpha 90.000000
_cell_angle_beta 90.000000
_cell_angle_gamma 90.000000
_cell_volume 3355.209705
_symmetry_space_group_name_H-M "P N M A"
_symmetry_group_IT_number 62
_symmetry_cell_setting 'orthorhombic'
loop_
_space_group_symop_operation_xyz
x,y,z
1/2-x,-y,1/2+z
1/2+x,1/2-y,1/2-z
-x,1/2+y,-z
-x,-y,-z
1/2+x,y,1/2-z
1/2-x,1/2+y,1/2+z
x,1/2-y,z
loop_
_atom_site_type_symbol
_atom_site_label
_atom_site_fract_x
_atom_site_fract_y
_atom_site_fract_z
Si Si1 0.847432 0.565704 0.627541
Si Si2 0.214214 0.930861 0.196209
Si Si3 0.574539 0.432157 0.747047
Si Si4 0.580225 0.436158 0.000958
Si Si5 0.919304 0.933239 0.756219
Si Si6 0.849945 0.569161 0.374441
Si Si7 0.706265 0.929646 0.688939
O O1 0.854953 0.750000 0.627280
O O2 0.879463 0.495899 0.562846
O O3 0.894346 0.503152 0.687174
O O4 0.761712 0.520441 0.632579
O O5 0.221353 0.750000 0.216666
O O6 0.263028 0.958984 0.133298
O O7 0.130222 0.981966 0.189719
O O8 0.246788 0.044982 0.248490
O O9 0.558569 0.250000 0.749071
O O10 0.501759 0.522834 0.730839
O O11 0.606479 0.496846 0.813574
O O12 0.633082 0.467821 0.691574
O O13 0.579724 0.250000 0.001663
O O14 0.622034 0.505675 0.939673
O O15 0.500000 0.500000 0.000000
O O16 0.909301 0.750000 0.762759
O O17 0.867743 0.750000 0.377250
O O18 0.683533 0.750000 0.683145
#
# Coordination Sequence:
#
# PCOD8250180 Si02
#       7
#     8   8   8   8   8   8   8
#     4   8  16  28  43  61  85 114 145 173 205 246
#     4   9  16  28  43  61  83 111 143 177 213 254
#     4  10  18  28  42  64  88 113 141 175 215 256
#     4  10  18  30  44  62  87 116 145 174 201 238
#     4  10  18  28  42  64  88 113 141 175 215 256
#     4   8  16  28  43  61  85 114 145 173 205 246
#     4   9  16  28  43  61  83 111 143 177 213 254
#
# _framework density 16.690462
#
# number of rings (size 3 to 8) (size 9 to 14) (size 15 to 20)
#    0.000    2.857    0.000    4.286    0.000    0.000 
#    0.000    7.143    0.000    0.000    0.000    1.000 
#    0.000    0.000    0.000    0.000    0.000    0.000 
#
# Total GULP energy -693853.782501 kJ/mol
# GULP energy per Si atom -12390.246116 kJ/mol
# Density = 1.665247 g / cm^3
# Si number density = 16.690462 Si / 1000 Ang^3
#
#
#
# Elastic Constant Matrix: (Units=GPa)
#
#
# Indices 1 2 3 4 5 6 
#
# 1 143.0113 20.1564 62.7216 0.0000 0.0000 0.0000
# 2 20.1564 34.5979 17.7024 0.0000 0.0000 0.0000
# 3 62.7216 17.7024 74.8024 0.0000 0.0000 0.0000
# 4 0.0000 0.0000 0.0000 11.8572 0.0000 0.0000
# 5 0.0000 0.0000 0.0000 0.0000 29.4541 0.0000
# 6 0.0000 0.0000 0.0000 0.0000 0.0000 29.3320
#
#
#
# Elastic Compliance Matrix: (Units=1/GPa)
#
#
# Indices 1 2 3 4 5 6 
#
# 1 0.011174 -0.001952 -0.008908 0.000000 0.000000 0.000000
# 2 -0.001952 0.033227 -0.006226 0.000000 0.000000 0.000000
# 3 -0.008908 -0.006226 0.022311 0.000000 0.000000 0.000000
# 4 0.000000 0.000000 0.000000 0.084337 0.000000 0.000000
# 5 0.000000 0.000000 0.000000 0.000000 0.033951 0.000000
# 6 0.000000 0.000000 0.000000 0.000000 0.000000 0.034092
#
#
# Mechanical properties :
#
#
# Convention : Reuss Voigt Hill
#
# Bulk Modulus (GPa) = 30.73174 50.39693 40.56433
# Shear Modulus (GPa) = 18.93143 24.25075 21.59109
#
# Velocity S-wave (km/s) = 3.37154 3.81592 3.60059
# Velocity P-wave (km/s) = 5.79734 7.04809 6.45309
#
# Compressibility (1/GPa) = 0.03253965
#
# Stress axis : x y z
#
# Youngs Moduli (GPa) = 89.49108 30.09630 44.82092
#
# Poissons Ratio (x) = 0.05876 0.39925
# Poissons Ratio (y) = 0.17472 0.27906
# Poissons Ratio (z) = 0.79715 0.18739
#
# Static dielectric constant tensor:
#      x y z
#    x 3.388330 0.000000 0.000000 
#    y 0.000000 2.938200 0.000000 
#    z 0.000000 0.000000 3.214290 
# 
# 
# High freq. dielectric constant tensor:
#      x y z
#    x 1.652090 0.000000 0.000000 
#    y 0.000000 1.630160 0.000000 
#    z 0.000000 0.000000 1.596460 
# 
# From -- ./inp_files/27554.got.cif
#   From: 2010.03.12/outbox.cif.g09.slc.cpg/sg62_14_cif.got.tgz:27554.got - 2010.04.10 19:12:36.
