data_PCOD8250729
_publ_section_title
;
Structure prediction by ZEFSAII (Michael W. Deem and Ramdas Pophale) SiO2 
 PCOD8250729
Probable space group: P N M A
;
_chemical_formula_sum "Si O2"
_cell_formula_units_Z 44
_cell_length_a 15.346759
_cell_length_b 14.401152
_cell_length_c 10.524589
_cell_angle_alpha 90.000000
_cell_angle_beta 90.000000
_cell_angle_gamma 90.000000
_cell_volume 2326.050035
_symmetry_space_group_name_H-M "P N M A"
_symmetry_group_IT_number 62
_symmetry_cell_setting 'orthorhombic'
loop_
_space_group_symop_operation_xyz
x,y,z
1/2-x,-y,1/2+z
1/2+x,1/2-y,1/2-z
-x,1/2+y,-z
-x,-y,-z
1/2+x,y,1/2-z
1/2-x,1/2+y,1/2+z
x,1/2-y,z
loop_
_atom_site_type_symbol
_atom_site_label
_atom_site_fract_x
_atom_site_fract_y
_atom_site_fract_z
Si Si1 0.072769 0.415123 0.651050
Si Si2 0.693922 0.750000 0.057961
Si Si3 0.940613 0.750000 0.672170
Si Si4 0.132323 0.750000 0.148088
Si Si5 0.319604 0.750000 0.065790
Si Si6 0.434364 0.114127 0.047205
Si Si7 0.884913 0.750000 0.952917
Si Si8 0.993325 0.904897 0.076956
O O1 0.151797 0.342537 0.641404
O O2 0.094389 0.510795 0.580668
O O3 0.056810 0.434476 0.797103
O O4 0.987060 0.373695 0.584521
O O5 0.668803 0.750000 0.207161
O O6 0.656534 0.662481 0.981239
O O7 0.795633 0.750000 0.030665
O O8 0.862705 0.750000 0.571756
O O9 0.884704 0.750000 0.800475
O O10 0.004659 0.839556 0.656749
O O11 0.215368 0.750000 0.054331
O O12 0.079325 0.844942 0.115909
O O13 0.934294 0.842192 0.989724
O O14 0.000000 0.000000 0.000000
#
# Coordination Sequence:
#
# PCOD8250729 Si02
#       8
#     8   4   4   4   4   8   4   8
#     4  10  18  37  59  90 112 152 205 235 296 357
#     4  11  20  39  62  92 117 154 198 253 300 349
#     4   9  19  40  54  84 121 152 200 243 303 353
#     4  11  22  41  61  87 119 153 205 241 298 362
#     4  10  21  37  63  84 119 159 194 258 294 345
#     4   9  19  34  66  85 113 157 196 249 290 354
#     4  11  24  39  58  89 124 160 199 251 299 357
#     4  11  23  39  61  85 124 162 195 245 300 359
#
# _framework density 18.916188999999999
#
# number of rings (size 3 to 8) (size 9 to 14) (size 15 to 20)
#    0.000    1.818    1.818    3.818    0.000    1.455 
#    9.818    0.000    0.000    0.000    0.000    0.000 
#    0.000    0.000    0.000    0.000    0.000    0.000 
#
# Total GULP energy -545242.884051 kJ/mol
# GULP energy per Si atom -12391.883728 kJ/mol
# Density = 1.887313 g / cm^3
# Si number density = 18.916189 Si / 1000 Ang^3
#
#
#
# Elastic Constant Matrix: (Units=GPa)
#
#
# Indices 1 2 3 4 5 6 
#
# 1 111.1222 52.4258 45.3323 0.0000 0.0000 0.0000
# 2 52.4258 123.1974 35.2666 0.0000 0.0000 0.0000
# 3 45.3323 35.2666 120.1932 0.0000 0.0000 0.0000
# 4 0.0000 0.0000 0.0000 9.7965 0.0000 0.0000
# 5 0.0000 0.0000 0.0000 0.0000 24.8540 0.0000
# 6 0.0000 0.0000 0.0000 0.0000 0.0000 34.5075
#
#
#
# Elastic Compliance Matrix: (Units=1/GPa)
#
#
# Indices 1 2 3 4 5 6 
#
# 1 0.012428 -0.004309 -0.003423 0.000000 0.000000 0.000000
# 2 -0.004309 0.010355 -0.001413 0.000000 0.000000 0.000000
# 3 -0.003423 -0.001413 0.010026 0.000000 0.000000 0.000000
# 4 0.000000 0.000000 0.000000 0.102078 0.000000 0.000000
# 5 0.000000 0.000000 0.000000 0.000000 0.040235 0.000000
# 6 0.000000 0.000000 0.000000 0.000000 0.000000 0.028979
#
#
# Mechanical properties :
#
#
# Convention : Reuss Voigt Hill
#
# Bulk Modulus (GPa) = 68.87687 68.95134 68.91410
# Shear Modulus (GPa) = 22.00399 28.59748 25.30073
#
# Velocity S-wave (km/s) = 3.41432 3.89240 3.66118
# Velocity P-wave (km/s) = 7.21347 7.53201 7.37446
#
# Compressibility (1/GPa) = 0.01451866
#
# Stress axis : x y z
#
# Youngs Moduli (GPa) = 80.46024 96.56951 99.74343
#
# Poissons Ratio (x) = 0.41611 0.34145
# Poissons Ratio (y) = 0.34670 0.14096
# Poissons Ratio (z) = 0.27544 0.13647
#
# Static dielectric constant tensor:
#      x y z
#    x 3.343170 0.000000 0.000000 
#    y 0.000000 3.512580 0.000000 
#    z 0.000000 0.000000 3.440440 
# 
# 
# High freq. dielectric constant tensor:
#      x y z
#    x 1.719200 0.000000 0.000000 
#    y 0.000000 1.747840 0.000000 
#    z 0.000000 0.000000 1.740340 
# 
# From -- ./inp_files/13233.got.cif
#   From: 2010.03.12/outbox.cif.g09.slc.cpg/sg62_7_cif.got.tgz:13233.got - 2010.04.10 19:12:36.
