data_PCOD8250473
_publ_section_title
;
Structure prediction by ZEFSAII (Michael W. Deem and Ramdas Pophale) SiO2 
 PCOD8250473
Probable space group: P N M A
;
_chemical_formula_sum "Si O2"
_cell_formula_units_Z 64
_cell_length_a 14.777881
_cell_length_b 9.261819
_cell_length_c 23.647649
_cell_angle_alpha 90.000000
_cell_angle_beta 90.000000
_cell_angle_gamma 90.000000
_cell_volume 3236.655114
_symmetry_space_group_name_H-M "P N M A"
_symmetry_group_IT_number 62
_symmetry_cell_setting 'orthorhombic'
loop_
_space_group_symop_operation_xyz
x,y,z
1/2-x,-y,1/2+z
1/2+x,1/2-y,1/2-z
-x,1/2+y,-z
-x,-y,-z
1/2+x,y,1/2-z
1/2-x,1/2+y,1/2+z
x,1/2-y,z
loop_
_atom_site_type_symbol
_atom_site_label
_atom_site_fract_x
_atom_site_fract_y
_atom_site_fract_z
Si Si1 0.122092 0.911234 0.536623
Si Si2 0.182587 0.415831 0.358638
Si Si3 0.028256 0.588466 0.416700
Si Si4 0.364865 0.412048 0.420579
Si Si5 0.278629 0.920136 0.260612
Si Si6 0.301660 0.418755 0.538620
Si Si7 0.954722 0.580264 0.177297
Si Si8 0.652318 0.579896 0.337688
O O1 0.138474 0.750000 0.560644
O O2 0.065987 0.900947 0.479428
O O3 0.215044 0.988637 0.522979
O O4 0.067549 0.005357 0.582796
O O5 0.157620 0.250000 0.346550
O O6 0.093358 0.499631 0.376317
O O7 0.258500 0.428788 0.406835
O O8 0.216614 0.489784 0.302050
O O9 0.013993 0.750000 0.391932
O O10 0.397380 0.250000 0.406290
O O11 0.374311 0.444277 0.487916
O O12 0.424080 0.519641 0.383435
O O13 0.264606 0.750000 0.271592
O O14 0.384445 0.963214 0.272079
O O15 0.241493 0.965435 0.198438
O O16 0.274947 0.250000 0.541972
O O17 0.340518 0.477855 0.598143
O O18 0.953960 0.750000 0.169396
O O19 0.057019 0.523709 0.189839
O O20 0.647091 0.750000 0.339764
#
# Coordination Sequence:
#
# PCOD8250473 Si02
#       8
#     8   8   8   8   8   8   8   8
#     4  10  20  32  48  74 110 144 179 224 270 322
#     4  10  18  31  52  77 106 137 175 226 275 325
#     4  10  19  31  50  75 105 143 183 222 270 326
#     4   9  18  31  51  78 107 140 176 218 272 334
#     4   9  18  35  56  77 103 138 181 228 274 323
#     4  10  19  34  53  74 108 149 184 222 277 338
#     4   9  18  34  57  80 105 138 179 231 278 321
#     4   9  19  36  56  79 108 142 186 233 274 328
#
# _framework density 19.773499999999999
#
# number of rings (size 3 to 8) (size 9 to 14) (size 15 to 20)
#    0.000    2.500    1.250    1.125    0.000    2.500 
#    2.250    1.875    0.000    0.000    0.000    0.000 
#    0.000    0.000    0.000    0.000    0.000    0.000 
#
# Total GULP energy -793163.913635 kJ/mol
# GULP energy per Si atom -12393.186151 kJ/mol
# Density = 1.972849 g / cm^3
# Si number density = 19.773500 Si / 1000 Ang^3
#
#
#
# Elastic Constant Matrix: (Units=GPa)
#
#
# Indices 1 2 3 4 5 6 
#
# 1 72.3013 19.3284 28.1276 0.0000 0.0000 0.0000
# 2 19.3284 65.2756 11.5743 0.0000 0.0000 0.0000
# 3 28.1276 11.5743 92.3607 0.0000 0.0000 0.0000
# 4 0.0000 0.0000 0.0000 22.1144 0.0000 0.0000
# 5 0.0000 0.0000 0.0000 0.0000 21.1942 0.0000
# 6 0.0000 0.0000 0.0000 0.0000 0.0000 14.8608
#
#
#
# Elastic Compliance Matrix: (Units=1/GPa)
#
#
# Indices 1 2 3 4 5 6 
#
# 1 0.016716 -0.004139 -0.004572 0.000000 0.000000 0.000000
# 2 -0.004139 0.016693 -0.000831 0.000000 0.000000 0.000000
# 3 -0.004572 -0.000831 0.012324 0.000000 0.000000 0.000000
# 4 0.000000 0.000000 0.000000 0.045219 0.000000 0.000000
# 5 0.000000 0.000000 0.000000 0.000000 0.047183 0.000000
# 6 0.000000 0.000000 0.000000 0.000000 0.000000 0.067291
#
#
# Mechanical properties :
#
#
# Convention : Reuss Voigt Hill
#
# Bulk Modulus (GPa) = 37.52685 38.66647 38.09666
# Shear Modulus (GPa) = 21.42306 23.02770 22.22538
#
# Velocity S-wave (km/s) = 3.29511 3.41629 3.35625
# Velocity P-wave (km/s) = 5.78762 5.92946 5.85897
#
# Compressibility (1/GPa) = 0.02664758
#
# Stress axis : x y z
#
# Youngs Moduli (GPa) = 59.82219 59.90659 81.14464
#
# Poissons Ratio (x) = 0.24796 0.37100
# Poissons Ratio (y) = 0.24761 0.06746
# Poissons Ratio (z) = 0.27351 0.04980
#
# Static dielectric constant tensor:
#      x y z
#    x 3.761110 0.000000 0.000000 
#    y 0.000000 3.591560 0.000000 
#    z 0.000000 0.000000 3.695470 
# 
# 
# High freq. dielectric constant tensor:
#      x y z
#    x 1.763010 0.000000 0.000000 
#    y 0.000000 1.759420 0.000000 
#    z 0.000000 0.000000 1.754010 
# 
# From -- ./inp_files/29830.got.cif
#   From: 2010.03.12/outbox.cif.g09.slc.cpg/sg62_15_cif.got.tgz:29830.got - 2010.04.10 19:12:36.
