data_PCOD8250495
_publ_section_title
;
Structure prediction by ZEFSAII (Michael W. Deem and Ramdas Pophale) SiO2 
 PCOD8250495
Probable space group: P N M A
;
_chemical_formula_sum "Si O2"
_cell_formula_units_Z 64
_cell_length_a 26.262542
_cell_length_b 14.154391
_cell_length_c 8.020054
_cell_angle_alpha 90.000000
_cell_angle_beta 90.000000
_cell_angle_gamma 90.000000
_cell_volume 2981.296984
_symmetry_space_group_name_H-M "P N M A"
_symmetry_group_IT_number 62
_symmetry_cell_setting 'orthorhombic'
loop_
_space_group_symop_operation_xyz
x,y,z
1/2-x,-y,1/2+z
1/2+x,1/2-y,1/2-z
-x,1/2+y,-z
-x,-y,-z
1/2+x,y,1/2-z
1/2-x,1/2+y,1/2+z
x,1/2-y,z
loop_
_atom_site_type_symbol
_atom_site_label
_atom_site_fract_x
_atom_site_fract_y
_atom_site_fract_z
Si Si1 0.364046 0.645259 0.119531
Si Si2 0.859498 0.360981 0.380616
Si Si3 0.401265 0.989534 0.380435
Si Si4 0.679587 0.974283 0.369251
Si Si5 0.466093 0.641121 0.958838
Si Si6 0.992356 0.022964 0.769120
Si Si7 0.599417 0.855518 0.236827
Si Si8 0.285916 0.507743 0.987324
O O1 0.346486 0.750000 0.158870
O O2 0.392106 0.605366 0.279643
O O3 0.404382 0.638814 0.967653
O O4 0.312463 0.589628 0.090135
O O5 0.851221 0.250000 0.338141
O O6 0.883593 0.416327 0.223093
O O7 0.898594 0.373739 0.536553
O O8 0.805344 0.407223 0.437414
O O9 0.368595 0.973822 0.547193
O O10 0.462988 0.988403 0.410171
O O11 0.656050 0.872395 0.314740
O O12 0.725597 0.973956 0.500729
O O13 0.699794 0.025350 0.204445
O O14 0.485520 0.750000 0.946506
O O15 0.489894 0.592149 0.120807
O O16 0.482050 0.583181 0.795168
O O17 0.940008 0.073316 0.830491
O O18 0.582421 0.750000 0.277703
#
# Coordination Sequence:
#
# PCOD8250495 Si02
#       8
#     8   8   8   8   8   8   8   8
#     4   9  18  35  59  86 114 145 185 230 277 335
#     4   9  18  35  60  90 120 150 190 237 284 336
#     4  10  21  35  56  86 119 155 192 234 280 337
#     4  11  23  40  59  81 112 146 189 238 289 345
#     4   9  16  28  52  86 117 150 195 236 276 338
#     4  10  18  31  53  80 117 160 194 233 287 337
#     4  10  21  37  59  87 119 155 195 238 285 341
#     4  10  20  38  61  81 108 146 185 236 293 342
#
# _framework density 21.467167
#
# number of rings (size 3 to 8) (size 9 to 14) (size 15 to 20)
#    0.000    2.250    0.000    5.625    0.000    3.500 
#    0.000    5.625    0.000    3.000    0.000    0.000 
#    0.000    0.000    0.000    0.000    0.000    0.000 
#
# Total GULP energy -793012.846136 kJ/mol
# GULP energy per Si atom -12390.825721 kJ/mol
# Density = 2.141831 g / cm^3
# Si number density = 21.467167 Si / 1000 Ang^3
#
#
#
# Elastic Constant Matrix: (Units=GPa)
#
#
# Indices 1 2 3 4 5 6 
#
# 1 146.4507 39.7624 35.3745 0.0000 0.0000 0.0000
# 2 39.7624 128.9186 5.8008 0.0000 0.0000 0.0000
# 3 35.3745 5.8008 34.7387 0.0000 0.0000 0.0000
# 4 0.0000 0.0000 0.0000 15.5823 0.0000 0.0000
# 5 0.0000 0.0000 0.0000 0.0000 42.3344 0.0000
# 6 0.0000 0.0000 0.0000 0.0000 0.0000 18.4340
#
#
#
# Elastic Compliance Matrix: (Units=1/GPa)
#
#
# Indices 1 2 3 4 5 6 
#
# 1 0.009855 -0.002608 -0.009600 0.000000 0.000000 0.000000
# 2 -0.002608 0.008506 0.001235 0.000000 0.000000 0.000000
# 3 -0.009600 0.001235 0.038356 0.000000 0.000000 0.000000
# 4 0.000000 0.000000 0.000000 0.064175 0.000000 0.000000
# 5 0.000000 0.000000 0.000000 0.000000 0.023621 0.000000
# 6 0.000000 0.000000 0.000000 0.000000 0.000000 0.054248
#
#
# Mechanical properties :
#
#
# Convention : Reuss Voigt Hill
#
# Bulk Modulus (GPa) = 28.75940 52.44261 40.60101
# Shear Modulus (GPa) = 21.52425 30.54816 26.03620
#
# Velocity S-wave (km/s) = 3.16991 3.77638 3.48636
# Velocity P-wave (km/s) = 5.17917 6.59523 5.92962
#
# Compressibility (1/GPa) = 0.03477124
#
# Stress axis : x y z
#
# Youngs Moduli (GPa) = 101.47074 117.57045 26.07172
#
# Poissons Ratio (x) = 0.30658 0.25029
# Poissons Ratio (y) = 0.26460 -0.03220
# Poissons Ratio (z) = 0.97412 -0.14521
#
# Static dielectric constant tensor:
#      x y z
#    x 4.144180 0.000000 0.000000 
#    y 0.000000 3.798970 0.000000 
#    z 0.000000 0.000000 3.741280 
# 
# 
# High freq. dielectric constant tensor:
#      x y z
#    x 1.853380 0.000000 0.000000 
#    y 0.000000 1.825750 0.000000 
#    z 0.000000 0.000000 1.832100 
# 
# From -- ./inp_files/9490.got.cif
#   From: 2010.03.12/outbox.cif.g09.slc.cpg/sg62_5_cif.got.tgz:9490.got - 2010.04.10 19:12:36.
