data_PCOD8250142
_publ_section_title
;
Structure prediction by ZEFSAII (Michael W. Deem and Ramdas Pophale) SiO2 
 PCOD8250142
Probable space group: P N M A
;
_chemical_formula_sum "Si O2"
_cell_formula_units_Z 64
_cell_length_a 18.275116
_cell_length_b 9.043816
_cell_length_c 26.219469
_cell_angle_alpha 90.000000
_cell_angle_beta 90.000000
_cell_angle_gamma 90.000000
_cell_volume 4333.469580
_symmetry_space_group_name_H-M "P N M A"
_symmetry_group_IT_number 62
_symmetry_cell_setting 'orthorhombic'
loop_
_space_group_symop_operation_xyz
x,y,z
1/2-x,-y,1/2+z
1/2+x,1/2-y,1/2-z
-x,1/2+y,-z
-x,-y,-z
1/2+x,y,1/2-z
1/2-x,1/2+y,1/2+z
x,1/2-y,z
loop_
_atom_site_type_symbol
_atom_site_label
_atom_site_fract_x
_atom_site_fract_y
_atom_site_fract_z
Si Si1 0.090479 0.074290 0.744812
Si Si2 0.084043 0.579927 0.547492
Si Si3 0.584199 0.421320 0.055519
Si Si4 0.075727 0.923265 0.252878
Si Si5 0.305658 0.586732 0.699448
Si Si6 0.162023 0.925388 0.352419
Si Si7 0.662702 0.923329 0.849489
Si Si8 0.787841 0.416794 0.198194
O O1 0.099403 0.250000 0.747022
O O2 0.007080 0.021950 0.752665
O O3 0.115119 0.019319 0.689378
O O4 0.136353 0.001640 0.790805
O O5 0.092873 0.750000 0.530326
O O6 0.105677 0.474195 0.501024
O O7 0.137811 0.538779 0.593574
O O8 0.001348 0.549936 0.565719
O O9 0.604816 0.250000 0.061700
O O10 0.629835 0.517664 0.094882
O O11 0.080641 0.750000 0.249924
O O12 0.108369 0.978470 0.306846
O O13 0.123714 0.983175 0.205401
O O14 0.335780 0.750000 0.687968
O O15 0.249302 0.535316 0.654983
O O16 0.258029 0.584247 0.750350
O O17 0.170023 0.750000 0.354031
O O18 0.242316 0.996259 0.344938
O O19 0.650981 0.750000 0.836312
O O20 0.804156 0.250000 0.179471
#
# Coordination Sequence:
#
# PCOD8250142 Si02
#       8
#     8   8   8   8   8   8   8   8
#     4  10  18  27  40  60  84 109 137 168 202 241
#     4   9  18  31  44  58  81 111 141 175 211 244
#     4  10  19  29  42  61  83 108 140 176 210 244
#     4   9  18  28  39  58  83 109 137 167 199 240
#     4   8  15  26  40  57  77 102 133 167 200 237
#     4  10  18  29  44  60  81 111 142 171 207 246
#     4   9  17  29  43  59  79 107 141 172 205 243
#     4   9  17  29  42  58  80 106 137 171 204 240
#
# _framework density 14.768767
#
# number of rings (size 3 to 8) (size 9 to 14) (size 15 to 20)
#    0.000    2.750    0.000    3.000    0.000    5.500 
#    0.000    0.000    0.000    0.000    0.000    0.000 
#    0.000    1.000    0.000    3.000    0.000    4.625 
#
# Total GULP energy -793467.881043 kJ/mol
# GULP energy per Si atom -12397.935641 kJ/mol
# Density = 1.473515 g / cm^3
# Si number density = 14.768767 Si / 1000 Ang^3
#
#
#
# Elastic Constant Matrix: (Units=GPa)
#
#
# Indices 1 2 3 4 5 6 
#
# 1 103.3369 42.9376 45.8048 0.0000 0.0000 0.0000
# 2 42.9376 60.6029 29.3442 0.0000 0.0000 0.0000
# 3 45.8048 29.3442 65.2710 0.0000 0.0000 0.0000
# 4 0.0000 0.0000 0.0000 22.9428 0.0000 0.0000
# 5 0.0000 0.0000 0.0000 0.0000 25.2111 0.0000
# 6 0.0000 0.0000 0.0000 0.0000 0.0000 25.1546
#
#
#
# Elastic Compliance Matrix: (Units=1/GPa)
#
#
# Indices 1 2 3 4 5 6 
#
# 1 0.016485 -0.007769 -0.008076 0.000000 0.000000 0.000000
# 2 -0.007769 0.024754 -0.005677 0.000000 0.000000 0.000000
# 3 -0.008076 -0.005677 0.023540 0.000000 0.000000 0.000000
# 4 0.000000 0.000000 0.000000 0.043587 0.000000 0.000000
# 5 0.000000 0.000000 0.000000 0.000000 0.039665 0.000000
# 6 0.000000 0.000000 0.000000 0.000000 0.000000 0.039754
#
#
# Mechanical properties :
#
#
# Convention : Reuss Voigt Hill
#
# Bulk Modulus (GPa) = 46.00685 51.70932 48.85809
# Shear Modulus (GPa) = 21.00194 22.06999 21.53597
#
# Velocity S-wave (km/s) = 3.77510 3.86990 3.82279
# Velocity P-wave (km/s) = 7.08667 7.42003 7.25526
#
# Compressibility (1/GPa) = 0.02173589
#
# Stress axis : x y z
#
# Youngs Moduli (GPa) = 60.66151 40.39723 42.48105
#
# Poissons Ratio (x) = 0.31386 0.34306
# Poissons Ratio (y) = 0.47131 0.24115
# Poissons Ratio (z) = 0.48988 0.22932
#
# Static dielectric constant tensor:
#      x y z
#    x 2.993350 0.000000 0.000000 
#    y 0.000000 2.951500 0.000000 
#    z 0.000000 0.000000 2.667310 
# 
# 
# High freq. dielectric constant tensor:
#      x y z
#    x 1.554520 0.000000 0.000000 
#    y 0.000000 1.576120 0.000000 
#    z 0.000000 0.000000 1.530170 
# 
# From -- ./inp_files/30027.got.cif
#   From: 2010.03.12/outbox.cif.g09.slc.cpg/sg62_16_cif.got.tgz:30027.got - 2010.04.10 19:12:36.
