data_PCOD8250429
_publ_section_title
;
Structure prediction by ZEFSAII (Michael W. Deem and Ramdas Pophale) SiO2 
 PCOD8250429
Probable space group: P N M A
;
_chemical_formula_sum "Si O2"
_cell_formula_units_Z 48
_cell_length_a 23.439062
_cell_length_b 8.609625
_cell_length_c 13.867905
_cell_angle_alpha 90.000000
_cell_angle_beta 90.000000
_cell_angle_gamma 90.000000
_cell_volume 2798.564505
_symmetry_space_group_name_H-M "P N M A"
_symmetry_group_IT_number 62
_symmetry_cell_setting 'orthorhombic'
loop_
_space_group_symop_operation_xyz
x,y,z
1/2-x,-y,1/2+z
1/2+x,1/2-y,1/2-z
-x,1/2+y,-z
-x,-y,-z
1/2+x,y,1/2-z
1/2-x,1/2+y,1/2+z
x,1/2-y,z
loop_
_atom_site_type_symbol
_atom_site_label
_atom_site_fract_x
_atom_site_fract_y
_atom_site_fract_z
Si Si1 0.230051 0.931789 0.105198
Si Si2 0.223543 0.933104 0.891233
Si Si3 0.160287 0.433414 0.718121
Si Si4 0.669101 0.931096 0.206890
Si Si5 0.436610 0.068570 0.099463
Si Si6 0.566988 0.069388 0.103591
O O1 0.238164 0.750000 0.093373
O O2 0.289731 0.996663 0.147620
O O3 0.179328 0.971784 0.180249
O O4 0.216048 0.000195 0.999956
O O5 0.212705 0.750000 0.884700
O O6 0.176493 0.020529 0.827027
O O7 0.287773 0.970444 0.858539
O O8 0.152013 0.250000 0.711629
O O9 0.101723 0.517799 0.689584
O O10 0.681271 0.750000 0.188488
O O11 0.604687 0.974757 0.180124
O O12 0.430801 0.250000 0.077958
O O13 0.501617 0.024269 0.124663
O O14 0.415826 0.976724 0.004961
O O15 0.578909 0.250000 0.118046
#
# Coordination Sequence:
#
# PCOD8250429 Si02
#       6
#     8   8   8   8   8   8
#     4   8  17  31  47  68  95 126 157 194 236 280
#     4  10  18  31  50  71  97 129 163 198 240 285
#     4  10  19  32  49  72 101 128 158 198 243 288
#     4  10  19  32  49  71  98 128 163 199 240 288
#     4  10  20  33  50  72  97 128 163 196 237 291
#     4  10  20  33  49  72 100 127 158 199 244 288
#
# _framework density 17.151648999999999
#
# number of rings (size 3 to 8) (size 9 to 14) (size 15 to 20)
#    0.000    2.333    0.000    4.500    0.000    3.333 
#    0.000    9.167    0.000    1.000    0.000    0.000 
#    0.000    0.000    0.000    0.000    0.000    0.000 
#
# Total GULP energy -595236.805414 kJ/mol
# GULP energy per Si atom -12400.766779 kJ/mol
# Density = 1.711261 g / cm^3
# Si number density = 17.151649 Si / 1000 Ang^3
#
#
#
# Elastic Constant Matrix: (Units=GPa)
#
#
# Indices 1 2 3 4 5 6 
#
# 1 90.2602 20.4420 56.1032 0.0000 0.0000 0.0000
# 2 20.4420 36.4281 17.8346 0.0000 0.0000 0.0000
# 3 56.1032 17.8346 129.6861 0.0000 0.0000 0.0000
# 4 0.0000 0.0000 0.0000 25.8608 0.0000 0.0000
# 5 0.0000 0.0000 0.0000 0.0000 28.8041 0.0000
# 6 0.0000 0.0000 0.0000 0.0000 0.0000 27.8773
#
#
#
# Elastic Compliance Matrix: (Units=1/GPa)
#
#
# Indices 1 2 3 4 5 6 
#
# 1 0.016334 -0.006118 -0.006225 0.000000 0.000000 0.000000
# 2 -0.006118 0.031725 -0.001716 0.000000 0.000000 0.000000
# 3 -0.006225 -0.001716 0.010640 0.000000 0.000000 0.000000
# 4 0.000000 0.000000 0.000000 0.038669 0.000000 0.000000
# 5 0.000000 0.000000 0.000000 0.000000 0.034717 0.000000
# 6 0.000000 0.000000 0.000000 0.000000 0.000000 0.035872
#
#
# Mechanical properties :
#
#
# Convention : Reuss Voigt Hill
#
# Bulk Modulus (GPa) = 32.70083 49.45933 41.08008
# Shear Modulus (GPa) = 24.24037 27.30808 25.77423
#
# Velocity S-wave (km/s) = 3.76346 3.99451 3.88071
# Velocity P-wave (km/s) = 6.16376 7.08335 6.63950
#
# Compressibility (1/GPa) = 0.03058026
#
# Stress axis : x y z
#
# Youngs Moduli (GPa) = 61.22246 31.52108 93.98690
#
# Poissons Ratio (x) = 0.19286 0.58504
# Poissons Ratio (y) = 0.37458 0.16128
# Poissons Ratio (z) = 0.38109 0.05409
#
# Static dielectric constant tensor:
#      x y z
#    x 3.124560 0.000000 0.000000 
#    y 0.000000 3.123550 0.000000 
#    z 0.000000 0.000000 3.341970 
# 
# 
# High freq. dielectric constant tensor:
#      x y z
#    x 1.648380 0.000000 0.000000 
#    y 0.000000 1.664390 0.000000 
#    z 0.000000 0.000000 1.654180 
# 
# From -- ./inp_files/20041.got.cif
#   From: 2010.03.12/outbox.cif.g09.slc.cpg/sg62_11_cif.got.tgz:20041.got - 2010.04.10 19:12:36.
