data_PCOD8250309
_publ_section_title
;
Structure prediction by ZEFSAII (Michael W. Deem and Ramdas Pophale) SiO2 
 PCOD8250309
Probable space group: P N M A
;
_chemical_formula_sum "Si O2"
_cell_formula_units_Z 48
_cell_length_a 9.559221
_cell_length_b 7.703383
_cell_length_c 34.524000
_cell_angle_alpha 90.000000
_cell_angle_beta 90.000000
_cell_angle_gamma 90.000000
_cell_volume 2542.290069
_symmetry_space_group_name_H-M "P N M A"
_symmetry_group_IT_number 62
_symmetry_cell_setting 'orthorhombic'
loop_
_space_group_symop_operation_xyz
x,y,z
1/2-x,-y,1/2+z
1/2+x,1/2-y,1/2-z
-x,1/2+y,-z
-x,-y,-z
1/2+x,y,1/2-z
1/2-x,1/2+y,1/2+z
x,1/2-y,z
loop_
_atom_site_type_symbol
_atom_site_label
_atom_site_fract_x
_atom_site_fract_y
_atom_site_fract_z
Si Si1 0.322150 0.448898 0.083060
Si Si2 0.159835 0.547678 0.499952
Si Si3 0.651703 0.558337 0.346010
Si Si4 0.168533 0.049274 0.845816
Si Si5 0.639329 0.955427 0.083072
Si Si6 0.337750 0.250000 0.287418
Si Si7 0.335024 0.750000 0.709595
O O1 0.274643 0.250000 0.087576
O O2 0.243892 0.559366 0.115356
O O3 0.489209 0.456754 0.089038
O O4 0.276901 0.527564 0.040402
O O5 0.182289 0.750000 0.503725
O O6 0.214509 0.482681 0.457711
O O7 0.000000 0.500000 0.500000
O O8 0.663991 0.750000 0.327208
O O9 0.491986 0.518843 0.357721
O O10 0.706414 0.419838 0.314980
O O11 0.198469 0.250000 0.834318
O O12 0.260083 0.988722 0.882248
O O13 0.207290 0.924359 0.810146
O O14 0.616001 0.750000 0.081631
O O15 0.257900 0.250000 0.247387
O O16 0.502713 0.250000 0.278870
#
# Coordination Sequence:
#
# PCOD8250309 Si02
#       7
#     8   8   8   8   8   4   4
#     4  10  18  29  49  78 107 140 183 224 266 313
#     4   8  15  27  44  68 104 140 174 223 267 304
#     4  10  20  37  57  77 107 143 175 213 264 319
#     4   9  20  37  57  79 106 142 177 213 264 320
#     4   9  17  31  50  75 105 141 184 224 266 312
#     4  10  22  38  60  80 112 136 172 218 270 318
#     4  10  22  40  56  84 106 138 172 218 266 324
#
# _framework density 18.880616
#
# number of rings (size 3 to 8) (size 9 to 14) (size 15 to 20)
#    0.000    2.667    0.833    0.500    1.167    2.667 
#    0.000    0.833    0.000    0.000    0.000    0.000 
#    0.000    0.000    0.000    0.000    0.000    0.000 
#
# Total GULP energy -594692.926867 kJ/mol
# GULP energy per Si atom -12389.435976 kJ/mol
# Density = 1.883764 g / cm^3
# Si number density = 18.880616 Si / 1000 Ang^3
#
#
#
# Elastic Constant Matrix: (Units=GPa)
#
#
# Indices 1 2 3 4 5 6 
#
# 1 463.3990 323.3074 1033.7664 0.0000 0.0000 0.0000
# 2 323.3074 296.7118 757.4732 0.0000 0.0000 0.0000
# 3 1033.7664 757.4732 2466.6075 0.0000 0.0000 0.0000
# 4 0.0000 0.0000 0.0000 -6.4547 0.0000 0.0000
# 5 0.0000 0.0000 0.0000 0.0000 31.4553 0.0000
# 6 0.0000 0.0000 0.0000 0.0000 0.0000 19.8507
#
#
#
# Elastic Compliance Matrix: (Units=1/GPa)
#
#
# Indices 1 2 3 4 5 6 
#
# 1 0.033773 -0.003081 -0.013208 0.000000 0.000000 0.000000
# 2 -0.003081 0.015882 -0.003586 0.000000 0.000000 0.000000
# 3 -0.013208 -0.003586 0.007042 0.000000 0.000000 0.000000
# 4 0.000000 0.000000 0.000000 -0.154926 0.000000 0.000000
# 5 0.000000 0.000000 0.000000 0.000000 0.031791 0.000000
# 6 0.000000 0.000000 0.000000 0.000000 0.000000 0.050376
#
#
# Mechanical properties :
#
#
# Convention : Reuss Voigt Hill
#
# Bulk Modulus (GPa) = 59.00743 828.42359 443.71551
# Shear Modulus (GPa) = 170.42848 83.11502 126.77175
#
# Velocity S-wave (km/s) = 9.51117 6.64206 8.20303
# Velocity P-wave (km/s) = 12.32628 22.32811 18.03443
#
# Compressibility (1/GPa) = 0.01694702
#
# Stress axis : x y z
#
# Youngs Moduli (GPa) = 29.60951 62.96436 141.99833
#
# Poissons Ratio (x) = 0.19398 1.87556
# Poissons Ratio (y) = 0.09122 0.50922
# Poissons Ratio (z) = 0.39109 0.22579
#
# Static dielectric constant tensor:
#      x y z
#    x 3.158100 0.000000 0.000000 
#    y 0.000000 3.633960 0.000000 
#    z 0.000000 0.000000 3.719060 
# 
# 
# High freq. dielectric constant tensor:
#      x y z
#    x 1.698870 0.000000 0.000000 
#    y 0.000000 1.740940 0.000000 
#    z 0.000000 0.000000 1.739530 
# 
# From -- ./inp_files/32071.got.cif
#   From: 2010.03.12/outbox.cif.g09.slc.cpg/sg62_17_cif.got.tgz:32071.got - 2010.04.10 19:12:36.
