data_PCOD8250462
_publ_section_title
;
Structure prediction by ZEFSAII (Michael W. Deem and Ramdas Pophale) SiO2 
 PCOD8250462
Probable space group: P N M A
;
_chemical_formula_sum "Si O2"
_cell_formula_units_Z 48
_cell_length_a 18.430564
_cell_length_b 8.568562
_cell_length_c 16.369537
_cell_angle_alpha 90.000000
_cell_angle_beta 90.000000
_cell_angle_gamma 90.000000
_cell_volume 2585.133436
_symmetry_space_group_name_H-M "P N M A"
_symmetry_group_IT_number 62
_symmetry_cell_setting 'orthorhombic'
loop_
_space_group_symop_operation_xyz
x,y,z
1/2-x,-y,1/2+z
1/2+x,1/2-y,1/2-z
-x,1/2+y,-z
-x,-y,-z
1/2+x,y,1/2-z
1/2-x,1/2+y,1/2+z
x,1/2-y,z
loop_
_atom_site_type_symbol
_atom_site_label
_atom_site_fract_x
_atom_site_fract_y
_atom_site_fract_z
Si Si1 0.337436 0.930844 0.658879
Si Si2 0.420175 0.433856 0.506701
Si Si3 0.660440 0.928799 0.172188
Si Si4 0.792254 0.569325 0.419798
Si Si5 0.079581 0.933655 0.492917
Si Si6 0.789928 0.930307 0.067146
O O1 0.347602 0.750000 0.639980
O O2 0.386806 0.025642 0.595113
O O3 0.362539 0.966632 0.751077
O O4 0.252715 0.981150 0.651337
O O5 0.500000 0.500000 0.500000
O O6 0.421010 0.250000 0.493816
O O7 0.373639 0.514007 0.432539
O O8 0.643533 0.750000 0.193978
O O9 0.613488 0.983342 0.094174
O O10 0.746857 0.950003 0.152408
O O11 0.797108 0.750000 0.396847
O O12 0.873147 0.502047 0.431979
O O13 0.748244 0.543735 0.502782
O O14 0.078908 0.750000 0.502136
O O15 0.000000 0.000000 0.500000
O O16 0.783900 0.750000 0.037842
#
# Coordination Sequence:
#
# PCOD8250462 Si02
#       6
#     8   8   8   8   8   8
#     4  11  21  34  54  79 106 136 175 220 262 308
#     4  11  21  35  55  78 107 140 176 215 261 316
#     4   9  19  35  54  77 106 138 171 214 265 311
#     4  10  18  31  52  75 101 134 172 210 252 304
#     4  10  20  35  55  79 108 140 176 216 261 315
#     4   9  17  32  53  76 102 132 170 211 253 304
#
# _framework density 18.567708
#
# number of rings (size 3 to 8) (size 9 to 14) (size 15 to 20)
#    0.000    2.000    0.000    8.500    0.000    4.000 
#    0.000    1.667    0.000   10.000    0.000    0.000 
#    0.000    0.000    0.000    0.000    0.000    0.000 
#
# Total GULP energy -594977.099745 kJ/mol
# GULP energy per Si atom -12395.356245 kJ/mol
# Density = 1.852545 g / cm^3
# Si number density = 18.567708 Si / 1000 Ang^3
#
#
#
# Elastic Constant Matrix: (Units=GPa)
#
#
# Indices 1 2 3 4 5 6 
#
# 1 137.1174 31.8766 28.4123 0.0000 0.0000 0.0000
# 2 31.8766 95.9166 24.0128 0.0000 0.0000 0.0000
# 3 28.4123 24.0128 69.5806 0.0000 0.0000 0.0000
# 4 0.0000 0.0000 0.0000 27.2866 0.0000 0.0000
# 5 0.0000 0.0000 0.0000 0.0000 18.1972 0.0000
# 6 0.0000 0.0000 0.0000 0.0000 0.0000 34.9298
#
#
#
# Elastic Compliance Matrix: (Units=1/GPa)
#
#
# Indices 1 2 3 4 5 6 
#
# 1 0.008336 -0.002100 -0.002679 0.000000 0.000000 0.000000
# 2 -0.002100 0.011941 -0.003263 0.000000 0.000000 0.000000
# 3 -0.002679 -0.003263 0.016592 0.000000 0.000000 0.000000
# 4 0.000000 0.000000 0.000000 0.036648 0.000000 0.000000
# 5 0.000000 0.000000 0.000000 0.000000 0.054954 0.000000
# 6 0.000000 0.000000 0.000000 0.000000 0.000000 0.028629
#
#
# Mechanical properties :
#
#
# Convention : Reuss Voigt Hill
#
# Bulk Modulus (GPa) = 48.11383 52.35756 50.23569
# Shear Modulus (GPa) = 27.76043 30.63691 29.19867
#
# Velocity S-wave (km/s) = 3.87084 4.06644 3.96984
# Velocity P-wave (km/s) = 6.77840 7.09276 6.93736
#
# Compressibility (1/GPa) = 0.02078404
#
# Stress axis : x y z
#
# Youngs Moduli (GPa) = 119.95654 83.74842 60.26944
#
# Poissons Ratio (x) = 0.17585 0.16149
# Poissons Ratio (y) = 0.25187 0.19668
# Poissons Ratio (z) = 0.32141 0.27330
#
# Static dielectric constant tensor:
#      x y z
#    x 3.675530 0.000000 0.000000 
#    y 0.000000 3.465590 0.000000 
#    z 0.000000 0.000000 3.233350 
# 
# 
# High freq. dielectric constant tensor:
#      x y z
#    x 1.716960 0.000000 0.000000 
#    y 0.000000 1.733840 0.000000 
#    z 0.000000 0.000000 1.691710 
# 
# From -- ./inp_files/24230.got.cif
#   From: 2010.03.12/outbox.cif.g09.slc.cpg/sg62_13_cif.got.tgz:24230.got - 2010.04.10 19:12:36.
