data_PCOD8250509
_publ_section_title
;
Structure prediction by ZEFSAII (Michael W. Deem and Ramdas Pophale) SiO2 
 PCOD8250509
Probable space group: P N M A
;
_chemical_formula_sum "Si O2"
_cell_formula_units_Z 40
_cell_length_a 15.049076
_cell_length_b 18.248994
_cell_length_c 7.127033
_cell_angle_alpha 90.000000
_cell_angle_beta 90.000000
_cell_angle_gamma 90.000000
_cell_volume 1957.300619
_symmetry_space_group_name_H-M "P N M A"
_symmetry_group_IT_number 62
_symmetry_cell_setting 'orthorhombic'
loop_
_space_group_symop_operation_xyz
x,y,z
1/2-x,-y,1/2+z
1/2+x,1/2-y,1/2-z
-x,1/2+y,-z
-x,-y,-z
1/2+x,y,1/2-z
1/2-x,1/2+y,1/2+z
x,1/2-y,z
loop_
_atom_site_type_symbol
_atom_site_label
_atom_site_fract_x
_atom_site_fract_y
_atom_site_fract_z
Si Si1 0.327563 0.954464 0.766150
Si Si2 0.058188 0.832428 0.517582
Si Si3 0.886820 0.607320 0.344103
Si Si4 0.238520 0.606345 0.411494
Si Si5 0.018698 0.972028 0.710872
O O1 0.341767 0.907880 0.954992
O O2 0.277179 0.029283 0.808586
O O3 0.270031 0.905645 0.624919
O O4 0.425491 0.972756 0.676424
O O5 0.054542 0.750000 0.596772
O O6 0.150114 0.844606 0.406046
O O7 0.975454 0.844387 0.374974
O O8 0.056275 0.889067 0.694122
O O9 0.815007 0.647715 0.210483
O O10 0.910414 0.532584 0.222101
O O11 0.000000 0.000000 0.500000
#
# Coordination Sequence:
#
# PCOD8250509 Si02
#       5
#     8   8   8   8   8
#     4  10  18  31  57  85 108 137 180 233 277 317
#     4  10  20  37  55  77 118 154 177 230 289 327
#     4  10  20  37  58  81 114 142 191 229 277 330
#     4  12  19  33  58  88 109 141 187 235 273 332
#     4   8  15  35  52  78 105 138 182 222 267 321
#
# _framework density 20.436309000000001
#
# number of rings (size 3 to 8) (size 9 to 14) (size 15 to 20)
#    0.000    2.400    8.000    0.000    0.000    1.600 
#    0.000    6.000    0.000    4.800    0.000    0.000 
#    0.000    0.000    0.000    0.000    0.000    0.000 
#
# Total GULP energy -495539.214296 kJ/mol
# GULP energy per Si atom -12388.480357 kJ/mol
# Density = 2.038980 g / cm^3
# Si number density = 20.436309 Si / 1000 Ang^3
#
#
#
# Elastic Constant Matrix: (Units=GPa)
#
#
# Indices 1 2 3 4 5 6 
#
# 1 137.4547 18.1579 30.0751 0.0000 0.0000 0.0000
# 2 18.1579 77.9679 6.0713 0.0000 0.0000 0.0000
# 3 30.0751 6.0713 50.6919 0.0000 0.0000 0.0000
# 4 0.0000 0.0000 0.0000 9.2164 0.0000 0.0000
# 5 0.0000 0.0000 0.0000 0.0000 25.1008 0.0000
# 6 0.0000 0.0000 0.0000 0.0000 0.0000 9.3948
#
#
#
# Elastic Compliance Matrix: (Units=1/GPa)
#
#
# Indices 1 2 3 4 5 6 
#
# 1 0.008557 -0.001612 -0.004883 0.000000 0.000000 0.000000
# 2 -0.001612 0.013250 -0.000630 0.000000 0.000000 0.000000
# 3 -0.004883 -0.000630 0.022700 0.000000 0.000000 0.000000
# 4 0.000000 0.000000 0.000000 0.108503 0.000000 0.000000
# 5 0.000000 0.000000 0.000000 0.000000 0.039839 0.000000
# 6 0.000000 0.000000 0.000000 0.000000 0.000000 0.106441
#
#
# Mechanical properties :
#
#
# Convention : Reuss Voigt Hill
#
# Bulk Modulus (GPa) = 33.05309 41.63591 37.34450
# Shear Modulus (GPa) = 15.44986 22.86308 19.15647
#
# Velocity S-wave (km/s) = 2.75253 3.34840 3.06498
# Velocity P-wave (km/s) = 5.12940 5.94700 5.55326
#
# Compressibility (1/GPa) = 0.03025435
#
# Stress axis : x y z
#
# Youngs Moduli (GPa) = 116.86836 75.46941 44.05321
#
# Poissons Ratio (x) = 0.12169 0.21513
# Poissons Ratio (y) = 0.18845 0.02777
# Poissons Ratio (z) = 0.57072 0.04757
#
# Static dielectric constant tensor:
#      x y z
#    x 4.419240 0.000000 0.000000 
#    y 0.000000 3.561790 0.000000 
#    z 0.000000 0.000000 3.245560 
# 
# 
# High freq. dielectric constant tensor:
#      x y z
#    x 1.831600 0.000000 0.000000 
#    y 0.000000 1.753580 0.000000 
#    z 0.000000 0.000000 1.757690 
# 
# From -- ./inp_files/1643.got.cif
#   From: 2010.03.12/outbox.cif.g09.slc.cpg/sg62_1_cif.got.tgz:1643.got - 2010.04.10 19:12:36.
