data_PCOD8250094
_publ_section_title
;
Structure prediction by ZEFSAII (Michael W. Deem and Ramdas Pophale) SiO2 
 PCOD8250094
Probable space group: P N M A
;
_chemical_formula_sum "Si O2"
_cell_formula_units_Z 64
_cell_length_a 15.928416
_cell_length_b 21.567194
_cell_length_c 9.601856
_cell_angle_alpha 90.000000
_cell_angle_beta 90.000000
_cell_angle_gamma 90.000000
_cell_volume 3298.537479
_symmetry_space_group_name_H-M "P N M A"
_symmetry_group_IT_number 62
_symmetry_cell_setting 'orthorhombic'
loop_
_space_group_symop_operation_xyz
x,y,z
1/2-x,-y,1/2+z
1/2+x,1/2-y,1/2-z
-x,1/2+y,-z
-x,-y,-z
1/2+x,y,1/2-z
1/2-x,1/2+y,1/2+z
x,1/2-y,z
loop_
_atom_site_type_symbol
_atom_site_label
_atom_site_fract_x
_atom_site_fract_y
_atom_site_fract_z
Si Si1 0.829542 0.082450 0.094680
Si Si2 0.096703 0.678597 0.716652
Si Si3 0.628789 0.621864 0.064442
Si Si4 0.904052 0.534743 0.218135
Si Si5 0.801231 0.600835 0.991327
Si Si6 0.187254 0.495904 0.513881
Si Si7 0.949000 0.819857 0.926691
Si Si8 0.944803 0.114758 0.848251
O O1 0.864493 0.096348 0.940551
O O2 0.734958 0.055132 0.082020
O O3 0.829900 0.142519 0.196603
O O4 0.895730 0.035352 0.164708
O O5 0.124771 0.750000 0.703635
O O6 0.077066 0.648133 0.566821
O O7 0.009357 0.671640 0.796501
O O8 0.630732 0.545643 0.072864
O O9 0.724606 0.645971 0.038666
O O10 0.589768 0.647449 0.207717
O O11 0.844293 0.580246 0.133944
O O12 0.872505 0.538980 0.377460
O O13 0.000630 0.554941 0.199117
O O14 0.868336 0.636698 0.896657
O O15 0.761065 0.539609 0.913775
O O16 0.916974 0.750000 0.942245
O O17 0.997034 0.837110 0.069065
#
# Coordination Sequence:
#
# PCOD8250094 Si02
#       8
#     8   8   8   8   8   8   8   8
#     4  10  18  35  57  77 110 149 189 228 269 340
#     4  10  21  37  56  79 109 145 187 234 278 330
#     4  10  20  36  51  85 116 141 181 228 285 331
#     4  10  17  34  52  81 115 141 179 223 278 333
#     4   8  18  33  52  77 104 142 180 217 267 326
#     4   9  19  32  52  79 116 141 173 223 280 325
#     4   9  19  38  58  75 100 144 192 228 266 325
#     4  10  21  31  55  83 109 142 181 228 278 331
#
# _framework density 19.402538
#
# number of rings (size 3 to 8) (size 9 to 14) (size 15 to 20)
#    0.750    1.750    1.250    1.125    0.000    2.500 
#    0.000    3.750    0.000    7.500    0.000    0.000 
#    0.000    0.000    0.000    0.000    0.000    0.000 
#
# Total GULP energy -792915.147998 kJ/mol
# GULP energy per Si atom -12389.299187 kJ/mol
# Density = 1.935838 g / cm^3
# Si number density = 19.402538 Si / 1000 Ang^3
#
#
#
# Elastic Constant Matrix: (Units=GPa)
#
#
# Indices 1 2 3 4 5 6 
#
# 1 39.8369 13.6590 23.8580 0.0000 0.0000 0.0000
# 2 13.6590 64.9812 20.2127 0.0000 0.0000 0.0000
# 3 23.8580 20.2127 100.3829 0.0000 0.0000 0.0000
# 4 0.0000 0.0000 0.0000 18.3323 0.0000 0.0000
# 5 0.0000 0.0000 0.0000 0.0000 18.3754 0.0000
# 6 0.0000 0.0000 0.0000 0.0000 0.0000 20.2131
#
#
#
# Elastic Compliance Matrix: (Units=1/GPa)
#
#
# Indices 1 2 3 4 5 6 
#
# 1 0.030414 -0.004422 -0.006338 0.000000 0.000000 0.000000
# 2 -0.004422 0.017060 -0.002384 0.000000 0.000000 0.000000
# 3 -0.006338 -0.002384 0.011948 0.000000 0.000000 0.000000
# 4 0.000000 0.000000 0.000000 0.054549 0.000000 0.000000
# 5 0.000000 0.000000 0.000000 0.000000 0.054421 0.000000
# 6 0.000000 0.000000 0.000000 0.000000 0.000000 0.049473
#
#
# Mechanical properties :
#
#
# Convention : Reuss Voigt Hill
#
# Bulk Modulus (GPa) = 30.17989 35.62892 32.90440
# Shear Modulus (GPa) = 19.59263 21.21557 20.40410
#
# Velocity S-wave (km/s) = 3.18118 3.31031 3.24639
# Velocity P-wave (km/s) = 5.39273 5.74576 5.57204
#
# Compressibility (1/GPa) = 0.03313465
#
# Stress axis : x y z
#
# Youngs Moduli (GPa) = 32.87921 58.61626 83.69343
#
# Poissons Ratio (x) = 0.25917 0.53047
# Poissons Ratio (y) = 0.14538 0.19955
# Poissons Ratio (z) = 0.20840 0.13976
#
# Static dielectric constant tensor:
#      x y z
#    x 3.506770 0.000000 0.000000 
#    y 0.000000 3.470780 0.000000 
#    z 0.000000 0.000000 3.363370 
# 
# 
# High freq. dielectric constant tensor:
#      x y z
#    x 1.744030 0.000000 0.000000 
#    y 0.000000 1.731540 0.000000 
#    z 0.000000 0.000000 1.746060 
# 
# From -- ./inp_files/8164.got.cif
#   From: 2010.03.12/outbox.cif.g09.slc.cpg/sg62_5_cif.got.tgz:8164.got - 2010.04.10 19:12:36.
