data_PCOD8250768
_publ_section_title
;
Structure prediction by ZEFSAII (Michael W. Deem and Ramdas Pophale) SiO2 
 PCOD8250768
Probable space group: P N M A
;
_chemical_formula_sum "Si O2"
_cell_formula_units_Z 48
_cell_length_a 12.079637
_cell_length_b 8.984878
_cell_length_c 24.118369
_cell_angle_alpha 90.000000
_cell_angle_beta 90.000000
_cell_angle_gamma 90.000000
_cell_volume 2617.664622
_symmetry_space_group_name_H-M "P N M A"
_symmetry_group_IT_number 62
_symmetry_cell_setting 'orthorhombic'
loop_
_space_group_symop_operation_xyz
x,y,z
1/2-x,-y,1/2+z
1/2+x,1/2-y,1/2-z
-x,1/2+y,-z
-x,-y,-z
1/2+x,y,1/2-z
1/2-x,1/2+y,1/2+z
x,1/2-y,z
loop_
_atom_site_type_symbol
_atom_site_label
_atom_site_fract_x
_atom_site_fract_y
_atom_site_fract_z
Si Si1 0.368419 0.073579 0.859626
Si Si2 0.283707 0.426956 0.579111
Si Si3 0.767408 0.574675 0.035299
Si Si4 0.526265 0.073598 0.606187
Si Si5 0.109222 0.427620 0.669711
Si Si6 0.336792 0.927467 0.291233
O O1 0.372176 0.250000 0.856139
O O2 0.489840 0.006831 0.848171
O O3 0.282627 0.014959 0.812885
O O4 0.326648 0.026550 0.920632
O O5 0.285289 0.250000 0.576186
O O6 0.241055 0.488758 0.520884
O O7 0.405441 0.492695 0.592904
O O8 0.200556 0.484584 0.626407
O O9 0.764782 0.750000 0.024206
O O10 0.887400 0.524380 0.058601
O O11 0.520243 0.250000 0.608140
O O12 0.568208 0.015985 0.666230
O O13 0.106361 0.250000 0.671057
O O14 0.139745 0.492232 0.730264
O O15 0.336948 0.750000 0.289896
#
# Coordination Sequence:
#
# PCOD8250768 Si02
#       6
#     8   8   8   8   8   8
#     4   8  15  27  41  59  84 116 150 176 209 263
#     4  10  19  28  42  69  95 111 140 187 222 248
#     4   9  17  31  47  61  85 123 153 174 208 260
#     4   8  15  27  43  64  89 115 145 181 219 256
#     4   9  17  25  38  63  92 116 139 177 225 262
#     4   8  14  24  40  60  87 118 141 172 222 268
#
# _framework density 18.336955
#
# number of rings (size 3 to 8) (size 9 to 14) (size 15 to 20)
#    0.000    3.333    0.000    2.500    2.333    0.667 
#    0.000    0.000    0.000    0.000    0.000    5.833 
#    0.000    0.000    0.000    0.000    0.000    0.000 
#
# Total GULP energy -594947.274523 kJ/mol
# GULP energy per Si atom -12394.734886 kJ/mol
# Density = 1.829522 g / cm^3
# Si number density = 18.336955 Si / 1000 Ang^3
#
#
#
# Elastic Constant Matrix: (Units=GPa)
#
#
# Indices 1 2 3 4 5 6 
#
# 1 117.0390 10.3947 73.8569 0.0000 0.0000 0.0000
# 2 10.3947 6.9817 15.8768 0.0000 0.0000 0.0000
# 3 73.8569 15.8768 172.9807 0.0000 0.0000 0.0000
# 4 0.0000 0.0000 0.0000 21.3395 0.0000 0.0000
# 5 0.0000 0.0000 0.0000 0.0000 25.3258 0.0000
# 6 0.0000 0.0000 0.0000 0.0000 0.0000 7.0509
#
#
#
# Elastic Compliance Matrix: (Units=1/GPa)
#
#
# Indices 1 2 3 4 5 6 
#
# 1 0.012028 -0.007873 -0.004413 0.000000 0.000000 0.000000
# 2 -0.007873 0.186167 -0.013726 0.000000 0.000000 0.000000
# 3 -0.004413 -0.013726 0.008925 0.000000 0.000000 0.000000
# 4 0.000000 0.000000 0.000000 0.046861 0.000000 0.000000
# 5 0.000000 0.000000 0.000000 0.000000 0.039485 0.000000
# 6 0.000000 0.000000 0.000000 0.000000 0.000000 0.141826
#
#
# Mechanical properties :
#
#
# Convention : Reuss Voigt Hill
#
# Bulk Modulus (GPa) = 6.44757 55.25091 30.84924
# Shear Modulus (GPa) = 9.27619 23.86810 16.57215
#
# Velocity S-wave (km/s) = 2.25160 3.61174 3.00952
# Velocity P-wave (km/s) = 3.20678 6.89849 5.37925
#
# Compressibility (1/GPa) = 0.15509710
#
# Stress axis : x y z
#
# Youngs Moduli (GPa) = 83.13792 5.37153 112.04478
#
# Poissons Ratio (x) = 0.04229 0.49446
# Poissons Ratio (y) = 0.65453 1.53789
# Poissons Ratio (z) = 0.36689 0.07373
#
# Static dielectric constant tensor:
#      x y z
#    x 3.803880 0.000000 0.000000 
#    y 0.000000 2.594410 0.000000 
#    z 0.000000 0.000000 3.546370 
# 
# 
# High freq. dielectric constant tensor:
#      x y z
#    x 1.719890 0.000000 0.000000 
#    y 0.000000 1.628890 0.000000 
#    z 0.000000 0.000000 1.722630 
# 
# From -- ./inp_files/23837.got.cif
#   From: 2010.03.12/outbox.cif.g09.slc.cpg/sg62_12_cif.got.tgz:23837.got - 2010.04.10 19:12:36.
