data_PCOD8250298
_publ_section_title
;
Structure prediction by ZEFSAII (Michael W. Deem and Ramdas Pophale) SiO2 
 PCOD8250298
Probable space group: P N M A
;
_chemical_formula_sum "Si O2"
_cell_formula_units_Z 48
_cell_length_a 16.643874
_cell_length_b 8.830140
_cell_length_c 18.219842
_cell_angle_alpha 90.000000
_cell_angle_beta 90.000000
_cell_angle_gamma 90.000000
_cell_volume 2677.728957
_symmetry_space_group_name_H-M "P N M A"
_symmetry_group_IT_number 62
_symmetry_cell_setting 'orthorhombic'
loop_
_space_group_symop_operation_xyz
x,y,z
1/2-x,-y,1/2+z
1/2+x,1/2-y,1/2-z
-x,1/2+y,-z
-x,-y,-z
1/2+x,y,1/2-z
1/2-x,1/2+y,1/2+z
x,1/2-y,z
loop_
_atom_site_type_symbol
_atom_site_label
_atom_site_fract_x
_atom_site_fract_y
_atom_site_fract_z
Si Si1 0.497829 0.574807 0.078378
Si Si2 0.819409 0.924269 0.417046
Si Si3 0.735830 0.427365 0.548368
Si Si4 0.333532 0.072738 0.667439
Si Si5 0.584808 0.570179 0.479998
Si Si6 0.144073 0.929805 0.328191
O O1 0.517235 0.750000 0.066943
O O2 0.409353 0.548511 0.112692
O O3 0.564584 0.502888 0.132244
O O4 0.500000 0.500000 0.000000
O O5 0.806377 0.750000 0.441947
O O6 0.759057 0.965198 0.351128
O O7 0.801273 0.029426 0.486799
O O8 0.717384 0.250000 0.543696
O O9 0.652345 0.516564 0.537964
O O10 0.775381 0.472210 0.626562
O O11 0.347574 0.250000 0.673831
O O12 0.390407 0.011806 0.601630
O O13 0.352625 0.997508 0.746425
O O14 0.500000 0.500000 0.500000
O O15 0.579333 0.750000 0.483294
O O16 0.136928 0.750000 0.322827
#
# Coordination Sequence:
#
# PCOD8250298 Si02
#       6
#     8   8   8   8   8   8
#     4  10  18  29  48  75 101 131 166 204 250 300
#     4   9  17  30  49  71  97 133 169 204 251 301
#     4  10  18  30  52  77 100 131 167 206 253 302
#     4   8  16  32  50  72 100 130 166 213 256 292
#     4  10  20  36  57  78 101 132 173 214 254 299
#     4   9  17  30  48  75 105 129 166 214 255 295
#
# _framework density 17.925637999999999
#
# number of rings (size 3 to 8) (size 9 to 14) (size 15 to 20)
#    0.000    2.667    1.667    2.000    0.000    0.000 
#    3.000    0.000    0.000   15.000    0.000    0.000 
#    0.000    0.000    0.000    0.000    0.000    0.000 
#
# Total GULP energy -594945.162464 kJ/mol
# GULP energy per Si atom -12394.690885 kJ/mol
# Density = 1.788484 g / cm^3
# Si number density = 17.925638 Si / 1000 Ang^3
#
#
#
# Elastic Constant Matrix: (Units=GPa)
#
#
# Indices 1 2 3 4 5 6 
#
# 1 157.5923 35.0711 87.3221 0.0000 0.0000 0.0000
# 2 35.0711 40.5443 24.0531 0.0000 0.0000 0.0000
# 3 87.3221 24.0531 145.2447 0.0000 0.0000 0.0000
# 4 0.0000 0.0000 0.0000 18.4674 0.0000 0.0000
# 5 0.0000 0.0000 0.0000 0.0000 24.8884 0.0000
# 6 0.0000 0.0000 0.0000 0.0000 0.0000 25.5597
#
#
#
# Elastic Compliance Matrix: (Units=1/GPa)
#
#
# Indices 1 2 3 4 5 6 
#
# 1 0.010698 -0.006031 -0.005433 0.000000 0.000000 0.000000
# 2 -0.006031 0.030751 -0.001467 0.000000 0.000000 0.000000
# 3 -0.005433 -0.001467 0.010394 0.000000 0.000000 0.000000
# 4 0.000000 0.000000 0.000000 0.054149 0.000000 0.000000
# 5 0.000000 0.000000 0.000000 0.000000 0.040179 0.000000
# 6 0.000000 0.000000 0.000000 0.000000 0.000000 0.039124
#
#
# Mechanical properties :
#
#
# Convention : Reuss Voigt Hill
#
# Bulk Modulus (GPa) = 38.48769 70.69710 54.59239
# Shear Modulus (GPa) = 22.74608 26.91211 24.82909
#
# Velocity S-wave (km/s) = 3.56605 3.87889 3.72575
# Velocity P-wave (km/s) = 6.20266 7.71918 7.00210
#
# Compressibility (1/GPa) = 0.02598234
#
# Stress axis : x y z
#
# Youngs Moduli (GPa) = 93.47535 32.51910 96.20749
#
# Poissons Ratio (x) = 0.19611 0.52270
# Poissons Ratio (y) = 0.56372 0.14112
# Poissons Ratio (z) = 0.50785 0.04770
#
# Static dielectric constant tensor:
#      x y z
#    x 3.755960 0.000000 0.000000 
#    y 0.000000 3.073390 0.000000 
#    z 0.000000 0.000000 3.542830 
# 
# 
# High freq. dielectric constant tensor:
#      x y z
#    x 1.704740 0.000000 0.000000 
#    y 0.000000 1.664050 0.000000 
#    z 0.000000 0.000000 1.681200 
# 
# From -- ./inp_files/23690.got.cif
#   From: 2010.03.12/outbox.cif.g09.slc.cpg/sg62_12_cif.got.tgz:23690.got - 2010.04.10 19:12:36.
