data_PCOD8250673
_publ_section_title
;
Structure prediction by ZEFSAII (Michael W. Deem and Ramdas Pophale) SiO2 
 PCOD8250673
Probable space group: P N M A
;
_chemical_formula_sum "Si O2"
_cell_formula_units_Z 40
_cell_length_a 16.660871
_cell_length_b 9.817577
_cell_length_c 11.612068
_cell_angle_alpha 90.000000
_cell_angle_beta 90.000000
_cell_angle_gamma 90.000000
_cell_volume 1899.378809
_symmetry_space_group_name_H-M "P N M A"
_symmetry_group_IT_number 62
_symmetry_cell_setting 'orthorhombic'
loop_
_space_group_symop_operation_xyz
x,y,z
1/2-x,-y,1/2+z
1/2+x,1/2-y,1/2-z
-x,1/2+y,-z
-x,-y,-z
1/2+x,y,1/2-z
1/2-x,1/2+y,1/2+z
x,1/2-y,z
loop_
_atom_site_type_symbol
_atom_site_label
_atom_site_fract_x
_atom_site_fract_y
_atom_site_fract_z
Si Si1 0.934846 0.750000 0.290568
Si Si2 0.687833 0.750000 0.695435
Si Si3 0.954911 0.470019 0.820767
Si Si4 0.247923 0.250000 0.785794
Si Si5 0.509541 0.750000 0.729553
Si Si6 0.635405 0.750000 0.436041
Si Si7 0.396022 0.750000 0.952410
Si Si8 0.805600 0.527220 0.662692
O O1 0.844134 0.750000 0.249067
O O2 0.942510 0.750000 0.428472
O O3 0.978159 0.885528 0.247406
O O4 0.603700 0.750000 0.762267
O O5 0.678171 0.750000 0.557220
O O6 0.738657 0.616392 0.730314
O O7 0.922329 0.384085 0.929558
O O8 0.879407 0.497501 0.742640
O O9 0.991429 0.618275 0.850892
O O10 0.300764 0.250000 0.668892
O O11 0.266279 0.380917 0.867273
O O12 0.460318 0.750000 0.848371
O O13 0.338935 0.884782 0.945492
#
# Coordination Sequence:
#
# PCOD8250673 Si02
#       8
#     4   4   8   4   4   4   4   8
#     4  11  20  35  61  83 108 151 199 223 271 346
#     4  11  20  35  57  81 108 149 190 226 280 351
#     4   9  20  38  55  79 112 148 184 237 284 324
#     4  10  18  34  58  80 104 144 188 230 268 330
#     4  10  20  34  54  82 114 140 184 240 284 320
#     4   9  20  37  57  75 106 151 187 221 281 344
#     4   9  20  37  55  81 116 151 178 228 288 337
#     4   9  19  35  54  76 112 144 177 224 284 331
#
# _framework density 21.059518000000001
#
# number of rings (size 3 to 8) (size 9 to 14) (size 15 to 20)
#    0.000    2.400    0.000    3.600    0.000    4.000 
#    0.000    6.000    0.000    9.600    0.000    0.000 
#    0.000    0.000    0.000    0.000    0.000    0.000 
#
# Total GULP energy -495596.988018 kJ/mol
# GULP energy per Si atom -12389.924700 kJ/mol
# Density = 2.101159 g / cm^3
# Si number density = 21.059518 Si / 1000 Ang^3
#
#
#
# Elastic Constant Matrix: (Units=GPa)
#
#
# Indices 1 2 3 4 5 6 
#
# 1 135.8595 59.7402 16.3778 0.0000 0.0000 0.0000
# 2 59.7402 192.7502 17.7451 0.0000 0.0000 0.0000
# 3 16.3778 17.7451 49.7559 0.0000 0.0000 0.0000
# 4 0.0000 0.0000 0.0000 -0.6076 0.0000 0.0000
# 5 0.0000 0.0000 0.0000 0.0000 24.2598 0.0000
# 6 0.0000 0.0000 0.0000 0.0000 0.0000 57.3183
#
#
#
# Elastic Compliance Matrix: (Units=1/GPa)
#
#
# Indices 1 2 3 4 5 6 
#
# 1 0.008704 -0.002517 -0.001968 0.000000 0.000000 0.000000
# 2 -0.002517 0.006092 -0.001344 0.000000 0.000000 0.000000
# 3 -0.001968 -0.001344 0.021225 0.000000 0.000000 0.000000
# 4 0.000000 0.000000 0.000000 -1.645933 0.000000 0.000000
# 5 0.000000 0.000000 0.000000 0.000000 0.041221 0.000000
# 6 0.000000 0.000000 0.000000 0.000000 0.000000 0.017446
#
#
# Mechanical properties :
#
#
# Convention : Reuss Voigt Hill
#
# Bulk Modulus (GPa) = 41.04347 62.89910 51.97129
# Shear Modulus (GPa) = -3.26484 35.16093 15.94804
#
# Velocity S-wave (km/s) = -1.24646 4.09050 2.75487
# Velocity P-wave (km/s) = 4.17852 7.22785 5.90347
#
# Compressibility (1/GPa) = 0.02436441
#
# Stress axis : x y z
#
# Youngs Moduli (GPa) = 114.88493 164.15470 47.11381
#
# Poissons Ratio (x) = 0.41312 0.09270
# Poissons Ratio (y) = 0.28913 0.06333
# Poissons Ratio (z) = 0.22605 0.22066
#
# Static dielectric constant tensor:
#      x y z
#    x 4.178800 0.000000 0.000000 
#    y 0.000000 4.144460 0.000000 
#    z 0.000000 0.000000 3.190450 
# 
# 
# High freq. dielectric constant tensor:
#      x y z
#    x 1.853610 0.000000 0.000000 
#    y 0.000000 1.849170 0.000000 
#    z 0.000000 0.000000 1.765970 
# 
# From -- ./inp_files/13948.got.cif
#   From: 2010.03.12/outbox.cif.g09.slc.cpg/sg62_7_cif.got.tgz:13948.got - 2010.04.10 19:12:36.
