data_PCOD8250069
_publ_section_title
;
Structure prediction by ZEFSAII (Michael W. Deem and Ramdas Pophale) SiO2 
 PCOD8250069
Probable space group: P N M A
;
_chemical_formula_sum "Si O2"
_cell_formula_units_Z 64
_cell_length_a 15.549277
_cell_length_b 8.885914
_cell_length_c 24.038512
_cell_angle_alpha 90.000000
_cell_angle_beta 90.000000
_cell_angle_gamma 90.000000
_cell_volume 3321.390102
_symmetry_space_group_name_H-M "P N M A"
_symmetry_group_IT_number 62
_symmetry_cell_setting 'orthorhombic'
loop_
_space_group_symop_operation_xyz
x,y,z
1/2-x,-y,1/2+z
1/2+x,1/2-y,1/2-z
-x,1/2+y,-z
-x,-y,-z
1/2+x,y,1/2-z
1/2-x,1/2+y,1/2+z
x,1/2-y,z
loop_
_atom_site_type_symbol
_atom_site_label
_atom_site_fract_x
_atom_site_fract_y
_atom_site_fract_z
Si Si1 0.412366 0.571525 0.118654
Si Si2 0.846613 0.928031 0.499420
Si Si3 0.095430 0.572671 0.880974
Si Si4 0.405550 0.926685 0.609893
Si Si5 0.744982 0.928802 0.817411
Si Si6 0.410505 0.928972 0.882228
Si Si7 0.750577 0.928761 0.691373
Si Si8 0.346969 0.071226 0.500322
O O1 0.412039 0.750000 0.123748
O O2 0.398572 0.518042 0.054843
O O3 0.337865 0.506558 0.156969
O O4 0.502434 0.505060 0.139754
O O5 0.841833 0.750000 0.503056
O O6 0.891801 0.988822 0.555292
O O7 0.750101 0.991368 0.495051
O O8 0.109550 0.750000 0.882599
O O9 0.164030 0.504447 0.837227
O O10 0.998031 0.531665 0.862787
O O11 0.113764 0.509955 0.942711
O O12 0.398040 0.750000 0.600037
O O13 0.330078 0.984185 0.650211
O O14 0.402263 0.005082 0.550341
O O15 0.733725 0.750000 0.820684
O O16 0.755133 0.986816 0.754411
O O17 0.420904 0.750000 0.880188
O O18 0.333905 0.985186 0.842322
O O19 0.748531 0.750000 0.690229
O O20 0.349906 0.250000 0.504133
#
# Coordination Sequence:
#
# PCOD8250069 Si02
#       8
#     8   8   8   8   8   8   8   8
#     4  11  22  36  54  79 111 145 177 215 266 322
#     4   9  17  31  54  80 106 138 176 214 261 320
#     4   9  17  31  54  80 106 135 171 216 266 314
#     4  10  20  32  49  79 111 134 166 219 266 305
#     4  10  21  36  54  78 106 139 181 223 263 306
#     4  10  19  35  59  84 107 136 178 225 268 315
#     4   9  18  34  57  80 103 136 179 223 263 308
#     4  10  17  31  55  78 103 141 176 205 256 327
#
# _framework density 19.26904
#
# number of rings (size 3 to 8) (size 9 to 14) (size 15 to 20)
#    0.000    2.250    2.500    1.125    0.000    1.000 
#    0.000    5.625    0.000    3.750    0.000    0.000 
#    0.000    0.000    0.000    0.000    0.000    0.000 
#
# Total GULP energy -793562.626842 kJ/mol
# GULP energy per Si atom -12399.416044 kJ/mol
# Density = 1.922518 g / cm^3
# Si number density = 19.269040 Si / 1000 Ang^3
#
#
#
# Elastic Constant Matrix: (Units=GPa)
#
#
# Indices 1 2 3 4 5 6 
#
# 1 170.1465 25.2606 74.8099 0.0000 0.0000 0.0000
# 2 25.2606 20.6995 21.3340 0.0000 0.0000 0.0000
# 3 74.8099 21.3340 150.3848 0.0000 0.0000 0.0000
# 4 0.0000 0.0000 0.0000 21.5572 0.0000 0.0000
# 5 0.0000 0.0000 0.0000 0.0000 15.2860 0.0000
# 6 0.0000 0.0000 0.0000 0.0000 0.0000 18.2104
#
#
#
# Elastic Compliance Matrix: (Units=1/GPa)
#
#
# Indices 1 2 3 4 5 6 
#
# 1 0.008279 -0.006862 -0.003145 0.000000 0.000000 0.000000
# 2 -0.006862 0.062271 -0.005421 0.000000 0.000000 0.000000
# 3 -0.003145 -0.005421 0.008983 0.000000 0.000000 0.000000
# 4 0.000000 0.000000 0.000000 0.046388 0.000000 0.000000
# 5 0.000000 0.000000 0.000000 0.000000 0.065419 0.000000
# 6 0.000000 0.000000 0.000000 0.000000 0.000000 0.054914
#
#
# Mechanical properties :
#
#
# Convention : Reuss Voigt Hill
#
# Bulk Modulus (GPa) = 20.54305 64.89332 42.71819
# Shear Modulus (GPa) = 17.04542 25.66580 21.35561
#
# Velocity S-wave (km/s) = 2.97745 3.65358 3.33270
# Velocity P-wave (km/s) = 4.74390 7.17975 6.08496
#
# Compressibility (1/GPa) = 0.04867826
#
# Stress axis : x y z
#
# Youngs Moduli (GPa) = 120.79137 16.05894 111.32096
#
# Poissons Ratio (x) = 0.11019 0.35009
# Poissons Ratio (y) = 0.82882 0.60342
# Poissons Ratio (z) = 0.37988 0.08705
#
# Static dielectric constant tensor:
#      x y z
#    x 3.721720 0.000000 0.000000 
#    y 0.000000 3.016460 0.000000 
#    z 0.000000 0.000000 3.700460 
# 
# 
# High freq. dielectric constant tensor:
#      x y z
#    x 1.768240 0.000000 0.000000 
#    y 0.000000 1.700510 0.000000 
#    z 0.000000 0.000000 1.750030 
# 
# From -- ./inp_files/29721.got.cif
#   From: 2010.03.12/outbox.cif.g09.slc.cpg/sg62_15_cif.got.tgz:29721.got - 2010.04.10 19:12:36.
