data_PCOD8250007
_publ_section_title
;
Structure prediction by ZEFSAII (Michael W. Deem and Ramdas Pophale) SiO2 
 PCOD8250007
Probable space group: P N M A
;
_chemical_formula_sum "Si O2"
_cell_formula_units_Z 56
_cell_length_a 14.070189
_cell_length_b 18.230420
_cell_length_c 13.570691
_cell_angle_alpha 90.000000
_cell_angle_beta 90.000000
_cell_angle_gamma 90.000000
_cell_volume 3480.956269
_symmetry_space_group_name_H-M "P N M A"
_symmetry_group_IT_number 62
_symmetry_cell_setting 'orthorhombic'
loop_
_space_group_symop_operation_xyz
x,y,z
1/2-x,-y,1/2+z
1/2+x,1/2-y,1/2-z
-x,1/2+y,-z
-x,-y,-z
1/2+x,y,1/2-z
1/2-x,1/2+y,1/2+z
x,1/2-y,z
loop_
_atom_site_type_symbol
_atom_site_label
_atom_site_fract_x
_atom_site_fract_y
_atom_site_fract_z
Si Si1 0.178885 0.668075 0.953115
Si Si2 0.029099 0.333231 0.963923
Si Si3 0.900474 0.969642 0.958047
Si Si4 0.773261 0.665320 0.347542
Si Si5 0.800372 0.021653 0.140245
Si Si6 0.860983 0.047808 0.756456
Si Si7 0.434953 0.911405 0.258950
O O1 0.183379 0.750000 0.907570
O O2 0.189903 0.610475 0.863227
O O3 0.260658 0.656288 0.035000
O O4 0.081691 0.656261 0.013273
O O5 0.062989 0.250000 0.974405
O O6 0.048624 0.361396 0.854374
O O7 0.091103 0.381100 0.040955
O O8 0.877785 0.995978 0.849867
O O9 0.814319 0.994453 0.028223
O O10 0.000000 0.000000 0.000000
O O11 0.763359 0.750000 0.316129
O O12 0.695246 0.621358 0.284379
O O13 0.877434 0.634641 0.321891
O O14 0.695649 0.998791 0.175148
O O15 0.879414 0.986320 0.212225
O O16 0.963470 0.068454 0.711351
#
# Coordination Sequence:
#
# PCOD8250007 Si02
#       7
#     8   8   8   8   8   8   8
#     4  10  17  30  48  69  96 126 164 206 244 288
#     4  10  17  27  50  74  96 124 159 208 258 288
#     4  11  16  33  51  71 104 127 167 210 245 292
#     4  10  19  28  46  72  99 127 160 201 250 297
#     4  10  19  31  50  73  97 129 164 203 249 288
#     4  11  19  31  52  72 100 131 165 202 252 297
#     4  10  18  30  46  72 103 124 158 203 251 305
#
# _framework density 16.087533000000001
#
# number of rings (size 3 to 8) (size 9 to 14) (size 15 to 20)
#    0.000    1.714    7.143    0.429    0.000    0.571 
#    0.000    1.429    0.000    0.857    0.000    0.000 
#    0.000    0.000    0.000    0.000    0.000    0.000 
#
# Total GULP energy -694251.961330 kJ/mol
# GULP energy per Si atom -12397.356452 kJ/mol
# Density = 1.605092 g / cm^3
# Si number density = 16.087533 Si / 1000 Ang^3
#
#
#
# Elastic Constant Matrix: (Units=GPa)
#
#
# Indices 1 2 3 4 5 6 
#
# 1 102.1140 51.9928 33.9702 0.0000 0.0000 0.0000
# 2 51.9928 142.7481 39.6310 0.0000 0.0000 0.0000
# 3 33.9702 39.6310 46.2297 0.0000 0.0000 0.0000
# 4 0.0000 0.0000 0.0000 22.5093 0.0000 0.0000
# 5 0.0000 0.0000 0.0000 0.0000 20.5521 0.0000
# 6 0.0000 0.0000 0.0000 0.0000 0.0000 22.6392
#
#
#
# Elastic Compliance Matrix: (Units=1/GPa)
#
#
# Indices 1 2 3 4 5 6 
#
# 1 0.013823 -0.002907 -0.007666 0.000000 0.000000 0.000000
# 2 -0.002907 0.009805 -0.006269 0.000000 0.000000 0.000000
# 3 -0.007666 -0.006269 0.032638 0.000000 0.000000 0.000000
# 4 0.000000 0.000000 0.000000 0.044426 0.000000 0.000000
# 5 0.000000 0.000000 0.000000 0.000000 0.048657 0.000000
# 6 0.000000 0.000000 0.000000 0.000000 0.000000 0.044171
#
#
# Mechanical properties :
#
#
# Convention : Reuss Voigt Hill
#
# Bulk Modulus (GPa) = 44.28123 60.25332 52.26727
# Shear Modulus (GPa) = 21.30100 24.17331 22.73715
#
# Velocity S-wave (km/s) = 3.64272 3.88056 3.76352
# Velocity P-wave (km/s) = 6.72886 7.59033 7.17254
#
# Compressibility (1/GPa) = 0.02258293
#
# Stress axis : x y z
#
# Youngs Moduli (GPa) = 72.34317 101.99384 30.63874
#
# Poissons Ratio (x) = 0.29645 0.23487
# Poissons Ratio (y) = 0.21027 0.19208
# Poissons Ratio (z) = 0.55456 0.63943
#
# Static dielectric constant tensor:
#      x y z
#    x 3.209100 0.000000 0.000000 
#    y 0.000000 3.413210 0.000000 
#    z 0.000000 0.000000 2.835780 
# 
# 
# High freq. dielectric constant tensor:
#      x y z
#    x 1.610470 0.000000 0.000000 
#    y 0.000000 1.632130 0.000000 
#    z 0.000000 0.000000 1.577970 
# 
# From -- ./inp_files/19198.got.cif
#   From: 2010.03.12/outbox.cif.g09.slc.cpg/sg62_10_cif.got.tgz:19198.got - 2010.04.10 19:12:36.
