data_PCOD8250310
_publ_section_title
;
Structure prediction by ZEFSAII (Michael W. Deem and Ramdas Pophale) SiO2 
 PCOD8250310
Probable space group: P N M A
;
_chemical_formula_sum "Si O2"
_cell_formula_units_Z 56
_cell_length_a 14.146890
_cell_length_b 9.069497
_cell_length_c 20.838241
_cell_angle_alpha 90.000000
_cell_angle_beta 90.000000
_cell_angle_gamma 90.000000
_cell_volume 2673.654188
_symmetry_space_group_name_H-M "P N M A"
_symmetry_group_IT_number 62
_symmetry_cell_setting 'orthorhombic'
loop_
_space_group_symop_operation_xyz
x,y,z
1/2-x,-y,1/2+z
1/2+x,1/2-y,1/2-z
-x,1/2+y,-z
-x,-y,-z
1/2+x,y,1/2-z
1/2-x,1/2+y,1/2+z
x,1/2-y,z
loop_
_atom_site_type_symbol
_atom_site_label
_atom_site_fract_x
_atom_site_fract_y
_atom_site_fract_z
Si Si1 0.628284 0.088452 0.652321
Si Si2 0.982711 0.418221 0.625356
Si Si3 0.331176 0.576212 0.647731
Si Si4 0.996436 0.923731 0.757945
Si Si5 0.789498 0.423573 0.556441
Si Si6 0.685741 0.079471 0.923547
Si Si7 0.041746 0.587825 0.057357
O O1 0.660050 0.250000 0.678724
O O2 0.713179 0.019030 0.609558
O O3 0.536971 0.110087 0.609945
O O4 0.594057 0.986318 0.711299
O O5 0.976470 0.250000 0.650326
O O6 0.073248 0.441979 0.580237
O O7 0.987130 0.525512 0.685592
O O8 0.892721 0.460883 0.583134
O O9 0.317275 0.750000 0.646768
O O10 0.398641 0.526210 0.706508
O O11 0.228775 0.496966 0.641877
O O12 0.375458 0.516869 0.581764
O O13 0.006149 0.750000 0.762143
O O14 0.774189 0.250000 0.544303
O O15 0.776111 0.506907 0.489307
O O16 0.714763 0.250000 0.923292
O O17 0.080120 0.750000 0.036920
O O18 0.000000 0.500000 0.000000
#
# Coordination Sequence:
#
# PCOD8250310 Si02
#       7
#     8   8   8   8   8   8   8
#     4   9  19  35  56  82 113 148 186 229 283 344
#     4  10  23  41  60  83 116 156 195 236 286 343
#     4  10  21  37  56  81 114 151 191 238 289 343
#     4  10  22  39  60  86 115 150 193 238 287 339
#     4  10  21  39  62  87 116 153 192 235 288 343
#     4  11  23  38  59  88 117 151 194 239 288 343
#     4  10  18  29  49  79 114 151 188 231 284 343
#
# _framework density 20.945118000000001
#
# number of rings (size 3 to 8) (size 9 to 14) (size 15 to 20)
#    0.000    2.000    0.000    3.000    0.000    6.857 
#    0.000    4.286    0.000    0.000    0.000    0.000 
#    0.000    0.000    0.000    0.000    0.000    0.000 
#
# Total GULP energy -694076.550724 kJ/mol
# GULP energy per Si atom -12394.224120 kJ/mol
# Density = 2.089745 g / cm^3
# Si number density = 20.945118 Si / 1000 Ang^3
#
#
#
# Elastic Constant Matrix: (Units=GPa)
#
#
# Indices 1 2 3 4 5 6 
#
# 1 98.6490 24.9536 14.0887 0.0000 0.0000 0.0000
# 2 24.9536 70.6522 33.2682 0.0000 0.0000 0.0000
# 3 14.0887 33.2682 74.3947 0.0000 0.0000 0.0000
# 4 0.0000 0.0000 0.0000 32.1967 0.0000 0.0000
# 5 0.0000 0.0000 0.0000 0.0000 18.0506 0.0000
# 6 0.0000 0.0000 0.0000 0.0000 0.0000 28.2422
#
#
#
# Elastic Compliance Matrix: (Units=1/GPa)
#
#
# Indices 1 2 3 4 5 6 
#
# 1 0.011143 -0.003727 -0.000444 0.000000 0.000000 0.000000
# 2 -0.003727 0.019175 -0.007869 0.000000 0.000000 0.000000
# 3 -0.000444 -0.007869 0.017045 0.000000 0.000000 0.000000
# 4 0.000000 0.000000 0.000000 0.031059 0.000000 0.000000
# 5 0.000000 0.000000 0.000000 0.000000 0.055400 0.000000
# 6 0.000000 0.000000 0.000000 0.000000 0.000000 0.035408
#
#
# Mechanical properties :
#
#
# Convention : Reuss Voigt Hill
#
# Bulk Modulus (GPa) = 42.94780 43.14632 43.04706
# Shear Modulus (GPa) = 24.86685 27.12359 25.99522
#
# Velocity S-wave (km/s) = 3.44937 3.60249 3.52676
# Velocity P-wave (km/s) = 6.03437 6.16022 6.09762
#
# Compressibility (1/GPa) = 0.02328408
#
# Stress axis : x y z
#
# Youngs Moduli (GPa) = 89.74252 52.15001 58.66872
#
# Poissons Ratio (x) = 0.19434 0.02603
# Poissons Ratio (y) = 0.33444 0.46168
# Poissons Ratio (z) = 0.03982 0.41038
#
# Static dielectric constant tensor:
#      x y z
#    x 3.949480 0.000000 0.000000 
#    y 0.000000 3.980670 0.000000 
#    z 0.000000 0.000000 3.443620 
# 
# 
# High freq. dielectric constant tensor:
#      x y z
#    x 1.833510 0.000000 0.000000 
#    y 0.000000 1.819370 0.000000 
#    z 0.000000 0.000000 1.805710 
# 
# From -- ./inp_files/27141.got.cif
#   From: 2010.03.12/outbox.cif.g09.slc.cpg/sg62_14_cif.got.tgz:27141.got - 2010.04.10 19:12:36.
