data_PCOD8250649
_publ_section_title
;
Structure prediction by ZEFSAII (Michael W. Deem and Ramdas Pophale) SiO2 
 PCOD8250649
Probable space group: P N M A
;
_chemical_formula_sum "Si O2"
_cell_formula_units_Z 56
_cell_length_a 9.475555
_cell_length_b 16.965215
_cell_length_c 17.459670
_cell_angle_alpha 90.000000
_cell_angle_beta 90.000000
_cell_angle_gamma 90.000000
_cell_volume 2806.726245
_symmetry_space_group_name_H-M "P N M A"
_symmetry_group_IT_number 62
_symmetry_cell_setting 'orthorhombic'
loop_
_space_group_symop_operation_xyz
x,y,z
1/2-x,-y,1/2+z
1/2+x,1/2-y,1/2-z
-x,1/2+y,-z
-x,-y,-z
1/2+x,y,1/2-z
1/2-x,1/2+y,1/2+z
x,1/2-y,z
loop_
_atom_site_type_symbol
_atom_site_label
_atom_site_fract_x
_atom_site_fract_y
_atom_site_fract_z
Si Si1 0.546862 0.609396 0.061511
Si Si2 0.916047 0.559299 0.203834
Si Si3 0.198605 0.436375 0.037893
Si Si4 0.565588 0.962365 0.854627
Si Si5 0.373081 0.840820 0.918957
Si Si6 0.103850 0.936773 0.931652
Si Si7 0.864156 0.339778 0.720471
O O1 0.506621 0.519643 0.082293
O O2 0.550813 0.659722 0.139844
O O3 0.700938 0.611456 0.020906
O O4 0.429228 0.645889 0.005565
O O5 0.932899 0.495499 0.270356
O O6 0.918306 0.510561 0.125932
O O7 0.772937 0.607414 0.211116
O O8 0.043029 0.622470 0.210983
O O9 0.274941 0.444219 0.119791
O O10 0.046919 0.394068 0.051889
O O11 0.165474 0.524620 0.008733
O O12 0.473265 0.883102 0.856901
O O13 0.374170 0.750000 0.898296
O O14 0.213969 0.871284 0.904749
O O15 0.826158 0.250000 0.742546
#
# Coordination Sequence:
#
# PCOD8250649 Si02
#       7
#     8   8   8   8   8   8   8
#     4  10  18  38  60  85 112 158 197 236 283 362
#     4  11  22  38  60  84 117 160 200 234 286 361
#     4  10  18  33  61  82 113 148 202 239 278 335
#     4  10  19  37  61  84 110 157 207 238 279 357
#     4  11  21  37  60  88 115 146 197 257 299 335
#     4  11  20  35  58  87 115 155 197 241 291 350
#     4  11  22  37  56  86 122 153 189 240 294 347
#
# _framework density 19.952069999999999
#
# number of rings (size 3 to 8) (size 9 to 14) (size 15 to 20)
#    0.000    1.429    4.286    3.429    0.000    0.000 
#    0.000    4.286    0.000    0.000    0.000    0.000 
#    0.000    0.000    0.000    0.000    0.000    0.000 
#
# Total GULP energy -694301.939327 kJ/mol
# GULP energy per Si atom -12398.248917 kJ/mol
# Density = 1.990666 g / cm^3
# Si number density = 19.952070 Si / 1000 Ang^3
#
#
#
# Elastic Constant Matrix: (Units=GPa)
#
#
# Indices 1 2 3 4 5 6 
#
# 1 119.4881 35.0608 26.7688 0.0000 0.0000 0.0000
# 2 35.0608 110.6663 28.2990 0.0000 0.0000 0.0000
# 3 26.7688 28.2990 45.2045 0.0000 0.0000 0.0000
# 4 0.0000 0.0000 0.0000 13.8676 0.0000 0.0000
# 5 0.0000 0.0000 0.0000 0.0000 19.6384 0.0000
# 6 0.0000 0.0000 0.0000 0.0000 0.0000 20.4477
#
#
#
# Elastic Compliance Matrix: (Units=1/GPa)
#
#
# Indices 1 2 3 4 5 6 
#
# 1 0.009997 -0.001968 -0.004687 0.000000 0.000000 0.000000
# 2 -0.001968 0.011146 -0.005812 0.000000 0.000000 0.000000
# 3 -0.004687 -0.005812 0.028536 0.000000 0.000000 0.000000
# 4 0.000000 0.000000 0.000000 0.072111 0.000000 0.000000
# 5 0.000000 0.000000 0.000000 0.000000 0.050921 0.000000
# 6 0.000000 0.000000 0.000000 0.000000 0.000000 0.048905
#
#
# Mechanical properties :
#
#
# Convention : Reuss Voigt Hill
#
# Bulk Modulus (GPa) = 40.41578 50.62401 45.51989
# Shear Modulus (GPa) = 19.62334 23.13943 21.38139
#
# Velocity S-wave (km/s) = 3.13952 3.40921 3.27714
# Velocity P-wave (km/s) = 5.78295 6.39725 6.09784
#
# Compressibility (1/GPa) = 0.02474281
#
# Stress axis : x y z
#
# Youngs Moduli (GPa) = 100.03240 89.71813 35.04362
#
# Poissons Ratio (x) = 0.17661 0.16427
# Poissons Ratio (y) = 0.19691 0.20367
# Poissons Ratio (z) = 0.46890 0.52144
#
# Static dielectric constant tensor:
#      x y z
#    x 3.934230 0.000000 0.000000 
#    y 0.000000 3.379850 0.000000 
#    z 0.000000 0.000000 3.581490 
# 
# 
# High freq. dielectric constant tensor:
#      x y z
#    x 1.796320 0.000000 0.000000 
#    y 0.000000 1.745300 0.000000 
#    z 0.000000 0.000000 1.766620 
# 
# From -- ./inp_files/26116.got.cif
#   From: 2010.03.12/outbox.cif.g09.slc.cpg/sg62_14_cif.got.tgz:26116.got - 2010.04.10 19:12:36.
