data_PCOD8250933
_publ_section_title
;
Structure prediction by ZEFSAII (Michael W. Deem and Ramdas Pophale) SiO2 
 PCOD8250933
Probable space group: P N M A
;
_chemical_formula_sum "Si O2"
_cell_formula_units_Z 48
_cell_length_a 13.755798
_cell_length_b 8.856600
_cell_length_c 23.779446
_cell_angle_alpha 90.000000
_cell_angle_beta 90.000000
_cell_angle_gamma 90.000000
_cell_volume 2897.040408
_symmetry_space_group_name_H-M "P N M A"
_symmetry_group_IT_number 62
_symmetry_cell_setting 'orthorhombic'
loop_
_space_group_symop_operation_xyz
x,y,z
1/2-x,-y,1/2+z
1/2+x,1/2-y,1/2-z
-x,1/2+y,-z
-x,-y,-z
1/2+x,y,1/2-z
1/2-x,1/2+y,1/2+z
x,1/2-y,z
loop_
_atom_site_type_symbol
_atom_site_label
_atom_site_fract_x
_atom_site_fract_y
_atom_site_fract_z
Si Si1 0.882999 0.428397 0.778493
Si Si2 0.101644 0.073332 0.770614
Si Si3 0.385798 0.073982 0.945713
Si Si4 0.794218 0.071975 0.332711
Si Si5 0.787615 0.073351 0.665127
Si Si6 0.111645 0.424468 0.561698
O O1 0.866107 0.250000 0.783465
O O2 0.814563 0.508475 0.823994
O O3 0.853823 0.487529 0.716329
O O4 0.994262 0.474899 0.790156
O O5 0.106066 0.250000 0.755730
O O6 0.175003 0.033858 0.821762
O O7 0.131439 0.987719 0.714217
O O8 0.365300 0.250000 0.957664
O O9 0.321412 0.005213 0.894475
O O10 0.497561 0.047525 0.929334
O O11 0.355907 0.979137 0.000155
O O12 0.791025 0.250000 0.329453
O O13 0.829752 0.021673 0.393550
O O14 0.805361 0.250000 0.660355
O O15 0.139042 0.250000 0.568907
#
# Coordination Sequence:
#
# PCOD8250933 Si02
#       6
#     8   8   8   8   8   8
#     4   9  17  31  50  70  94 125 159 191 227 277
#     4   9  17  31  51  72  94 124 159 192 231 282
#     4   9  17  30  48  70  95 121 151 191 237 282
#     4  11  21  31  46  70  99 127 156 194 237 278
#     4   8  14  26  46  70  93 118 148 184 230 279
#     4  10  19  31  47  67  93 126 161 193 230 280
#
# _framework density 16.568632999999998
#
# number of rings (size 3 to 8) (size 9 to 14) (size 15 to 20)
#    0.000    2.667    0.000    4.000    0.000    4.000 
#    0.000    3.333    0.000    1.000    0.000    0.000 
#    0.000    0.000    0.000    0.000    0.000    0.000 
#
# Total GULP energy -595136.743655 kJ/mol
# GULP energy per Si atom -12398.682159 kJ/mol
# Density = 1.653092 g / cm^3
# Si number density = 16.568633 Si / 1000 Ang^3
#
#
#
# Elastic Constant Matrix: (Units=GPa)
#
#
# Indices 1 2 3 4 5 6 
#
# 1 123.0420 43.5059 63.3307 0.0000 0.0000 0.0000
# 2 43.5059 59.8357 34.5977 0.0000 0.0000 0.0000
# 3 63.3307 34.5977 107.0805 0.0000 0.0000 0.0000
# 4 0.0000 0.0000 0.0000 26.1946 0.0000 0.0000
# 5 0.0000 0.0000 0.0000 0.0000 26.3925 0.0000
# 6 0.0000 0.0000 0.0000 0.0000 0.0000 15.3703
#
#
#
# Elastic Compliance Matrix: (Units=1/GPa)
#
#
# Indices 1 2 3 4 5 6 
#
# 1 0.013392 -0.006342 -0.005871 0.000000 0.000000 0.000000
# 2 -0.006342 0.023556 -0.003860 0.000000 0.000000 0.000000
# 3 -0.005871 -0.003860 0.014058 0.000000 0.000000 0.000000
# 4 0.000000 0.000000 0.000000 0.038176 0.000000 0.000000
# 5 0.000000 0.000000 0.000000 0.000000 0.037890 0.000000
# 6 0.000000 0.000000 0.000000 0.000000 0.000000 0.065061
#
#
# Mechanical properties :
#
#
# Convention : Reuss Voigt Hill
#
# Bulk Modulus (GPa) = 53.02442 63.64741 58.33592
# Shear Modulus (GPa) = 21.68594 23.49308 22.58951
#
# Velocity S-wave (km/s) = 3.62174 3.76962 3.69642
# Velocity P-wave (km/s) = 7.04000 7.57922 7.31458
#
# Compressibility (1/GPa) = 0.01885923
#
# Stress axis : x y z
#
# Youngs Moduli (GPa) = 74.67290 42.45276 71.13271
#
# Poissons Ratio (x) = 0.26925 0.41763
# Poissons Ratio (y) = 0.47359 0.27456
# Poissons Ratio (z) = 0.43841 0.16386
#
# Static dielectric constant tensor:
#      x y z
#    x 3.203670 0.000000 0.000000 
#    y 0.000000 2.958690 0.000000 
#    z 0.000000 0.000000 3.141040 
# 
# 
# High freq. dielectric constant tensor:
#      x y z
#    x 1.631090 0.000000 0.000000 
#    y 0.000000 1.623280 0.000000 
#    z 0.000000 0.000000 1.630100 
# 
# From -- ./inp_files/26847.got.cif
#   From: 2010.03.12/outbox.cif.g09.slc.cpg/sg62_14_cif.got.tgz:26847.got - 2010.04.10 19:12:36.
