data_PCOD8250570
_publ_section_title
;
Structure prediction by ZEFSAII (Michael W. Deem and Ramdas Pophale) SiO2 
 PCOD8250570
Probable space group: P N M A
;
_chemical_formula_sum "Si O2"
_cell_formula_units_Z 64
_cell_length_a 24.113113
_cell_length_b 11.223781
_cell_length_c 11.794799
_cell_angle_alpha 90.000000
_cell_angle_beta 90.000000
_cell_angle_gamma 90.000000
_cell_volume 3192.147934
_symmetry_space_group_name_H-M "P N M A"
_symmetry_group_IT_number 62
_symmetry_cell_setting 'orthorhombic'
loop_
_space_group_symop_operation_xyz
x,y,z
1/2-x,-y,1/2+z
1/2+x,1/2-y,1/2-z
-x,1/2+y,-z
-x,-y,-z
1/2+x,y,1/2-z
1/2-x,1/2+y,1/2+z
x,1/2-y,z
loop_
_atom_site_type_symbol
_atom_site_label
_atom_site_fract_x
_atom_site_fract_y
_atom_site_fract_z
Si Si1 0.818330 0.523896 0.464539
Si Si2 0.974246 0.611425 0.072478
Si Si3 0.514536 0.474643 0.823099
Si Si4 0.707674 0.614506 0.381323
Si Si5 0.431563 0.881891 0.957872
Si Si6 0.757973 0.113222 0.644151
Si Si7 0.880301 0.384731 0.279528
Si Si8 0.643694 0.486575 0.563986
O O1 0.765790 0.610885 0.450061
O O2 0.866517 0.595340 0.527242
O O3 0.799349 0.414061 0.542088
O O4 0.838523 0.471662 0.345252
O O5 0.991305 0.750000 0.037482
O O6 0.991708 0.594867 0.204177
O O7 0.907964 0.603686 0.056205
O O8 0.000000 0.500000 0.000000
O O9 0.455584 0.525779 0.865226
O O10 0.556480 0.585686 0.811546
O O11 0.537605 0.387787 0.920615
O O12 0.686762 0.750000 0.375725
O O13 0.718679 0.552624 0.259344
O O14 0.659366 0.538099 0.441124
O O15 0.439571 0.750000 0.909076
O O16 0.759321 0.250000 0.673032
O O17 0.695017 0.081707 0.618025
O O18 0.867454 0.250000 0.313305
O O19 0.871967 0.403141 0.145541
#
# Coordination Sequence:
#
# PCOD8250570 Si02
#       8
#     8   8   8   8   8   8   8   8
#     4  10  20  33  51  82 114 148 194 237 291 356
#     4  11  25  44  66  91 121 160 207 253 304 365
#     4   9  21  37  57  87 116 152 200 243 297 362
#     4  10  20  35  56  83 115 153 197 241 290 351
#     4  10  19  35  59  85 118 153 190 245 301 354
#     4  10  20  36  57  79 110 148 186 233 286 346
#     4  10  18  32  54  81 113 152 194 247 299 352
#     4  10  21  38  59  85 114 150 197 242 294 352
#
# _framework density 20.049195999999998
#
# number of rings (size 3 to 8) (size 9 to 14) (size 15 to 20)
#    0.000    2.000    1.250    2.250    0.000    4.000 
#    0.000    3.125    0.000    0.000    0.000    0.000 
#    0.000    0.000    0.000    0.000    0.000    0.000 
#
# Total GULP energy -793290.102300 kJ/mol
# GULP energy per Si atom -12395.157848 kJ/mol
# Density = 2.000356 g / cm^3
# Si number density = 20.049196 Si / 1000 Ang^3
#
#
#
# Elastic Constant Matrix: (Units=GPa)
#
#
# Indices 1 2 3 4 5 6 
#
# 1 59.5872 19.7654 22.6872 0.0000 0.0000 0.0000
# 2 19.7654 95.4883 22.8497 0.0000 0.0000 0.0000
# 3 22.6872 22.8497 90.8318 0.0000 0.0000 0.0000
# 4 0.0000 0.0000 0.0000 24.0811 0.0000 0.0000
# 5 0.0000 0.0000 0.0000 0.0000 28.6220 0.0000
# 6 0.0000 0.0000 0.0000 0.0000 0.0000 18.6627
#
#
#
# Elastic Compliance Matrix: (Units=1/GPa)
#
#
# Indices 1 2 3 4 5 6 
#
# 1 0.019336 -0.003029 -0.004067 0.000000 0.000000 0.000000
# 2 -0.003029 0.011618 -0.002166 0.000000 0.000000 0.000000
# 3 -0.004067 -0.002166 0.012570 0.000000 0.000000 0.000000
# 4 0.000000 0.000000 0.000000 0.041526 0.000000 0.000000
# 5 0.000000 0.000000 0.000000 0.000000 0.034938 0.000000
# 6 0.000000 0.000000 0.000000 0.000000 0.000000 0.053583
#
#
# Mechanical properties :
#
#
# Convention : Reuss Voigt Hill
#
# Bulk Modulus (GPa) = 40.00242 41.83466 40.91854
# Shear Modulus (GPa) = 24.94652 26.31348 25.63000
#
# Velocity S-wave (km/s) = 3.53124 3.62670 3.57929
# Velocity P-wave (km/s) = 6.05158 6.20069 6.12659
#
# Compressibility (1/GPa) = 0.02499849
#
# Stress axis : x y z
#
# Youngs Moduli (GPa) = 51.71826 86.07492 79.55331
#
# Poissons Ratio (x) = 0.26072 0.32358
# Poissons Ratio (y) = 0.15665 0.17231
# Poissons Ratio (z) = 0.21036 0.18644
#
# Static dielectric constant tensor:
#      x y z
#    x 3.638830 0.000000 0.000000 
#    y 0.000000 3.387920 0.000000 
#    z 0.000000 0.000000 3.776770 
# 
# 
# High freq. dielectric constant tensor:
#      x y z
#    x 1.781090 0.000000 0.000000 
#    y 0.000000 1.769150 0.000000 
#    z 0.000000 0.000000 1.783600 
# 
# From -- ./inp_files/15327.got.cif
#   From: 2010.03.12/outbox.cif.g09.slc.cpg/sg62_8_cif.got.tgz:15327.got - 2010.04.10 19:12:36.
