data_PCOD8250308
_publ_section_title
;
Structure prediction by ZEFSAII (Michael W. Deem and Ramdas Pophale) SiO2 
 PCOD8250308
Probable space group: P N M A
;
_chemical_formula_sum "Si O2"
_cell_formula_units_Z 64
_cell_length_a 22.373850
_cell_length_b 9.533149
_cell_length_c 16.599084
_cell_angle_alpha 90.000000
_cell_angle_beta 90.000000
_cell_angle_gamma 90.000000
_cell_volume 3540.472503
_symmetry_space_group_name_H-M "P N M A"
_symmetry_group_IT_number 62
_symmetry_cell_setting 'orthorhombic'
loop_
_space_group_symop_operation_xyz
x,y,z
1/2-x,-y,1/2+z
1/2+x,1/2-y,1/2-z
-x,1/2+y,-z
-x,-y,-z
1/2+x,y,1/2-z
1/2-x,1/2+y,1/2+z
x,1/2-y,z
loop_
_atom_site_type_symbol
_atom_site_label
_atom_site_fract_x
_atom_site_fract_y
_atom_site_fract_z
Si Si1 0.801655 0.916218 0.536293
Si Si2 0.213585 0.092041 0.179324
Si Si3 0.379579 0.908659 0.819487
Si Si4 0.034971 0.586467 0.213945
Si Si5 0.628144 0.591484 0.418431
Si Si6 0.670383 0.588815 0.588783
Si Si7 0.400453 0.910582 0.284776
Si Si8 0.318275 0.589690 0.144372
O O1 0.800278 0.750000 0.540288
O O2 0.853697 0.970153 0.596618
O O3 0.735481 0.969941 0.561215
O O4 0.820960 0.967694 0.447221
O O5 0.227770 0.250000 0.151661
O O6 0.176663 0.089857 0.260696
O O7 0.179136 0.015355 0.107591
O O8 0.273993 0.007454 0.196001
O O9 0.404395 0.750000 0.828536
O O10 0.432402 0.006000 0.786591
O O11 0.036103 0.750000 0.236257
O O12 0.066317 0.555966 0.127591
O O13 0.967529 0.529914 0.207184
O O14 0.648402 0.750000 0.396041
O O15 0.622932 0.576526 0.514735
O O16 0.675727 0.750000 0.617503
O O17 0.645133 0.498216 0.661400
O O18 0.397883 0.750000 0.314694
O O19 0.381635 0.921495 0.190505
O O20 0.295047 0.750000 0.144724
#
# Coordination Sequence:
#
# PCOD8250308 Si02
#       8
#     8   8   8   8   8   8   8   8
#     4   9  17  32  53  76 101 129 168 209 248 307
#     4  10  18  29  49  77 105 127 159 211 261 298
#     4   9  18  32  52  75  97 128 168 212 255 295
#     4   9  19  36  53  72 102 137 176 214 248 298
#     4   9  17  32  54  75 100 139 174 201 248 312
#     4  10  19  33  54  78 104 134 169 208 254 311
#     4  10  22  36  51  74 104 138 173 214 257 297
#     4  10  19  34  53  71 100 141 174 200 251 318
#
# _framework density 18.076682999999999
#
# number of rings (size 3 to 8) (size 9 to 14) (size 15 to 20)
#    0.000    2.500    1.250    1.125    0.000    3.500 
#    0.000    1.875    0.000    0.000    0.000    0.000 
#    0.000    0.000    0.000    0.000    0.000    0.000 
#
# Total GULP energy -793372.041467 kJ/mol
# GULP energy per Si atom -12396.438148 kJ/mol
# Density = 1.803554 g / cm^3
# Si number density = 18.076683 Si / 1000 Ang^3
#
#
#
# Elastic Constant Matrix: (Units=GPa)
#
#
# Indices 1 2 3 4 5 6 
#
# 1 85.5050 28.9363 54.0431 0.0000 0.0000 0.0000
# 2 28.9363 61.6404 31.8145 0.0000 0.0000 0.0000
# 3 54.0431 31.8145 99.7665 0.0000 0.0000 0.0000
# 4 0.0000 0.0000 0.0000 21.4849 0.0000 0.0000
# 5 0.0000 0.0000 0.0000 0.0000 22.3224 0.0000
# 6 0.0000 0.0000 0.0000 0.0000 0.0000 21.9914
#
#
#
# Elastic Compliance Matrix: (Units=1/GPa)
#
#
# Indices 1 2 3 4 5 6 
#
# 1 0.018667 -0.004242 -0.008759 0.000000 0.000000 0.000000
# 2 -0.004242 0.020383 -0.004202 0.000000 0.000000 0.000000
# 3 -0.008759 -0.004202 0.016108 0.000000 0.000000 0.000000
# 4 0.000000 0.000000 0.000000 0.046544 0.000000 0.000000
# 5 0.000000 0.000000 0.000000 0.000000 0.044798 0.000000
# 6 0.000000 0.000000 0.000000 0.000000 0.000000 0.045472
#
#
# Mechanical properties :
#
#
# Convention : Reuss Voigt Hill
#
# Bulk Modulus (GPa) = 48.18831 52.94440 50.56636
# Shear Modulus (GPa) = 21.43190 21.96760 21.69975
#
# Velocity S-wave (km/s) = 3.44700 3.48982 3.46848
# Velocity P-wave (km/s) = 6.52365 6.75210 6.63886
#
# Compressibility (1/GPa) = 0.02075192
#
# Stress axis : x y z
#
# Youngs Moduli (GPa) = 53.57070 49.05959 62.08049
#
# Poissons Ratio (x) = 0.20812 0.54376
# Poissons Ratio (y) = 0.22725 0.26087
# Poissons Ratio (z) = 0.46923 0.20615
#
# Static dielectric constant tensor:
#      x y z
#    x 3.278040 0.000000 0.000000 
#    y 0.000000 3.327890 0.000000 
#    z 0.000000 0.000000 3.426870 
# 
# 
# High freq. dielectric constant tensor:
#      x y z
#    x 1.684320 0.000000 0.000000 
#    y 0.000000 1.685680 0.000000 
#    z 0.000000 0.000000 1.699410 
# 
# From -- ./inp_files/20796.got.cif
#   From: 2010.03.12/outbox.cif.g09.slc.cpg/sg62_11_cif.got.tgz:20796.got - 2010.04.10 19:12:36.
