data_PCOD8250896
_publ_section_title
;
Structure prediction by ZEFSAII (Michael W. Deem and Ramdas Pophale) SiO2 
 PCOD8250896
Probable space group: P N M A
;
_chemical_formula_sum "Si O2"
_cell_formula_units_Z 64
_cell_length_a 33.450644
_cell_length_b 9.068388
_cell_length_c 11.860657
_cell_angle_alpha 90.000000
_cell_angle_beta 90.000000
_cell_angle_gamma 90.000000
_cell_volume 3597.852242
_symmetry_space_group_name_H-M "P N M A"
_symmetry_group_IT_number 62
_symmetry_cell_setting 'orthorhombic'
loop_
_space_group_symop_operation_xyz
x,y,z
1/2-x,-y,1/2+z
1/2+x,1/2-y,1/2-z
-x,1/2+y,-z
-x,-y,-z
1/2+x,y,1/2-z
1/2-x,1/2+y,1/2+z
x,1/2-y,z
loop_
_atom_site_type_symbol
_atom_site_label
_atom_site_fract_x
_atom_site_fract_y
_atom_site_fract_z
Si Si1 0.819752 0.576004 0.110915
Si Si2 0.627305 0.581148 0.178616
Si Si3 0.470184 0.579597 0.141918
Si Si4 0.334829 0.079336 0.048486
Si Si5 0.548226 0.422148 0.112959
Si Si6 0.812877 0.077746 0.873446
Si Si7 0.234727 0.925410 0.706996
Si Si8 0.387431 0.580844 0.222040
O O1 0.809714 0.750000 0.107860
O O2 0.786436 0.491180 0.182748
O O3 0.863772 0.544486 0.162960
O O4 0.820094 0.510718 0.987147
O O5 0.614511 0.750000 0.161153
O O6 0.587741 0.484545 0.171094
O O7 0.647402 0.556320 0.299429
O O8 0.659967 0.536655 0.082620
O O9 0.482603 0.750000 0.143314
O O10 0.509071 0.486526 0.175600
O O11 0.434775 0.544489 0.232047
O O12 0.453658 0.534250 0.018496
O O13 0.340361 0.250000 0.070671
O O14 0.291283 0.032743 0.095622
O O15 0.370225 0.005202 0.116656
O O16 0.548533 0.250000 0.132726
O O17 0.804241 0.250000 0.896711
O O18 0.776628 0.006250 0.805057
O O19 0.240474 0.750000 0.720882
O O20 0.381749 0.750000 0.189069
#
# Coordination Sequence:
#
# PCOD8250896 Si02
#       8
#     8   8   8   8   8   8   8   8
#     4  10  21  38  58  79 108 142 182 229 272 319
#     4  10  21  36  53  75 108 147 178 218 272 323
#     4   9  17  30  49  77 111 142 171 211 267 324
#     4   9  18  32  52  77 105 136 172 215 266 321
#     4  10  19  30  49  78 111 142 177 217 261 323
#     4  11  24  39  56  79 108 146 187 226 274 327
#     4  10  21  37  58  83 108 138 178 226 276 326
#     4   9  17  32  54  79 105 138 175 216 265 317
#
# _framework density 17.78839
#
# number of rings (size 3 to 8) (size 9 to 14) (size 15 to 20)
#    0.000    2.250    1.250    1.500    1.750    3.000 
#    0.000    0.000    0.000    0.750    0.000    0.000 
#    0.000    0.000    0.000    0.000    0.000    0.000 
#
# Total GULP energy -793507.965054 kJ/mol
# GULP energy per Si atom -12398.561954 kJ/mol
# Density = 1.774790 g / cm^3
# Si number density = 17.788390 Si / 1000 Ang^3
#
#
#
# Elastic Constant Matrix: (Units=GPa)
#
#
# Indices 1 2 3 4 5 6 
#
# 1 111.6604 44.8290 31.0606 0.0000 0.0000 0.0000
# 2 44.8290 61.3229 26.8664 0.0000 0.0000 0.0000
# 3 31.0606 26.8664 71.5608 0.0000 0.0000 0.0000
# 4 0.0000 0.0000 0.0000 23.9377 0.0000 0.0000
# 5 0.0000 0.0000 0.0000 0.0000 18.3833 0.0000
# 6 0.0000 0.0000 0.0000 0.0000 0.0000 32.2060
#
#
#
# Elastic Compliance Matrix: (Units=1/GPa)
#
#
# Indices 1 2 3 4 5 6 
#
# 1 0.013037 -0.008439 -0.002490 0.000000 0.000000 0.000000
# 2 -0.008439 0.024980 -0.005716 0.000000 0.000000 0.000000
# 3 -0.002490 -0.005716 0.017201 0.000000 0.000000 0.000000
# 4 0.000000 0.000000 0.000000 0.041775 0.000000 0.000000
# 5 0.000000 0.000000 0.000000 0.000000 0.054397 0.000000
# 6 0.000000 0.000000 0.000000 0.000000 0.000000 0.031050
#
#
# Mechanical properties :
#
#
# Convention : Reuss Voigt Hill
#
# Bulk Modulus (GPa) = 45.60351 50.00624 47.80487
# Shear Modulus (GPa) = 22.41757 24.35792 23.38775
#
# Velocity S-wave (km/s) = 3.55383 3.70444 3.62992
# Velocity P-wave (km/s) = 6.52165 6.81689 6.67090
#
# Compressibility (1/GPa) = 0.02192814
#
# Stress axis : x y z
#
# Youngs Moduli (GPa) = 76.70757 40.03123 58.13695
#
# Poissons Ratio (x) = 0.33783 0.14477
# Poissons Ratio (y) = 0.64735 0.33229
# Poissons Ratio (z) = 0.19101 0.22880
#
# Static dielectric constant tensor:
#      x y z
#    x 3.419170 0.000000 0.000000 
#    y 0.000000 3.372570 0.000000 
#    z 0.000000 0.000000 3.204770 
# 
# 
# High freq. dielectric constant tensor:
#      x y z
#    x 1.692030 0.000000 0.000000 
#    y 0.000000 1.697480 0.000000 
#    z 0.000000 0.000000 1.661420 
# 
# From -- ./inp_files/15874.got.cif
#   From: 2010.03.12/outbox.cif.g09.slc.cpg/sg62_8_cif.got.tgz:15874.got - 2010.04.10 19:12:36.
