data_PCOD8250792
_publ_section_title
;
Structure prediction by ZEFSAII (Michael W. Deem and Ramdas Pophale) SiO2 
 PCOD8250792
Probable space group: P N M A
;
_chemical_formula_sum "Si O2"
_cell_formula_units_Z 64
_cell_length_a 14.358109
_cell_length_b 9.303171
_cell_length_c 29.750883
_cell_angle_alpha 90.000000
_cell_angle_beta 90.000000
_cell_angle_gamma 90.000000
_cell_volume 3974.002260
_symmetry_space_group_name_H-M "P N M A"
_symmetry_group_IT_number 62
_symmetry_cell_setting 'orthorhombic'
loop_
_space_group_symop_operation_xyz
x,y,z
1/2-x,-y,1/2+z
1/2+x,1/2-y,1/2-z
-x,1/2+y,-z
-x,-y,-z
1/2+x,y,1/2-z
1/2-x,1/2+y,1/2+z
x,1/2-y,z
loop_
_atom_site_type_symbol
_atom_site_label
_atom_site_fract_x
_atom_site_fract_y
_atom_site_fract_z
Si Si1 0.687026 0.420872 0.370334
Si Si2 0.590690 0.915858 0.549754
Si Si3 0.684772 0.909123 0.635989
Si Si4 0.993437 0.909168 0.816545
Si Si5 0.506744 0.914505 0.230460
Si Si6 0.191095 0.416370 0.696774
Si Si7 0.901904 0.082276 0.947565
Si Si8 0.788416 0.080779 0.710539
O O1 0.697744 0.250000 0.376502
O O2 0.598308 0.466935 0.340869
O O3 0.775787 0.485291 0.344395
O O4 0.675450 0.497045 0.418583
O O5 0.557973 0.750000 0.556128
O O6 0.678447 0.950789 0.582978
O O7 0.627045 0.941508 0.499331
O O8 0.504283 0.018735 0.561120
O O9 0.727631 0.750000 0.642898
O O10 0.576538 0.910213 0.648504
O O11 0.744242 0.017683 0.665413
O O12 0.974631 0.750000 0.797515
O O13 0.022215 0.009211 0.775940
O O14 0.520896 0.750000 0.243442
O O15 0.420839 0.935537 0.196431
O O16 0.604352 0.973574 0.211012
O O17 0.218866 0.250000 0.688911
O O18 0.235962 0.470905 0.744060
O O19 0.902329 0.250000 0.934246
O O20 0.779808 0.250000 0.705837
#
# Coordination Sequence:
#
# PCOD8250792 Si02
#       8
#     8   8   8   8   8   8   8   8
#     4  11  21  33  48  69  99 131 163 200 239 283
#     4   9  18  33  48  69 100 130 161 198 240 286
#     4  10  19  32  48  68  97 131 162 194 234 281
#     4  10  19  29  45  67  95 129 162 196 233 277
#     4  10  20  34  48  66  97 128 158 205 243 273
#     4  10  20  33  49  69  94 126 164 199 237 285
#     4  10  19  30  49  72  97 129 162 197 240 290
#     4  10  20  32  48  71  96 125 163 201 238 283
#
# _framework density 16.104671
#
# number of rings (size 3 to 8) (size 9 to 14) (size 15 to 20)
#    0.000    2.000    3.750    0.750    0.000    3.000 
#    0.000    0.000    0.000    0.000    0.000    0.875 
#    0.000    0.000    0.000    0.000    0.000    0.000 
#
# Total GULP energy -793467.389575 kJ/mol
# GULP energy per Si atom -12397.927962 kJ/mol
# Density = 1.606802 g / cm^3
# Si number density = 16.104671 Si / 1000 Ang^3
#
#
#
# Elastic Constant Matrix: (Units=GPa)
#
#
# Indices 1 2 3 4 5 6 
#
# 1 71.8924 25.3927 33.3441 0.0000 0.0000 0.0000
# 2 25.3927 63.1900 45.7642 0.0000 0.0000 0.0000
# 3 33.3441 45.7642 100.5621 0.0000 0.0000 0.0000
# 4 0.0000 0.0000 0.0000 28.2675 0.0000 0.0000
# 5 0.0000 0.0000 0.0000 0.0000 24.7279 0.0000
# 6 0.0000 0.0000 0.0000 0.0000 0.0000 22.1103
#
#
#
# Elastic Compliance Matrix: (Units=1/GPa)
#
#
# Indices 1 2 3 4 5 6 
#
# 1 0.017132 -0.004132 -0.003800 0.000000 0.000000 0.000000
# 2 -0.004132 0.024602 -0.009826 0.000000 0.000000 0.000000
# 3 -0.003800 -0.009826 0.015676 0.000000 0.000000 0.000000
# 4 0.000000 0.000000 0.000000 0.035376 0.000000 0.000000
# 5 0.000000 0.000000 0.000000 0.000000 0.040440 0.000000
# 6 0.000000 0.000000 0.000000 0.000000 0.000000 0.045228
#
#
# Mechanical properties :
#
#
# Convention : Reuss Voigt Hill
#
# Bulk Modulus (GPa) = 45.67615 49.40517 47.54066
# Shear Modulus (GPa) = 22.59712 23.76406 23.18059
#
# Velocity S-wave (km/s) = 3.74992 3.84552 3.79802
# Velocity P-wave (km/s) = 6.86824 7.10363 6.98693
#
# Compressibility (1/GPa) = 0.02189326
#
# Stress axis : x y z
#
# Youngs Moduli (GPa) = 58.37158 40.64715 63.79324
#
# Poissons Ratio (x) = 0.16796 0.24241
# Poissons Ratio (y) = 0.24121 0.62682
# Poissons Ratio (z) = 0.22181 0.39939
#
# Static dielectric constant tensor:
#      x y z
#    x 2.923960 0.000000 0.000000 
#    y 0.000000 3.084160 0.000000 
#    z 0.000000 0.000000 3.057960 
# 
# 
# High freq. dielectric constant tensor:
#      x y z
#    x 1.591710 0.000000 0.000000 
#    y 0.000000 1.624430 0.000000 
#    z 0.000000 0.000000 1.610590 
# 
# From -- ./inp_files/32684.got.cif
#   From: 2010.03.12/outbox.cif.g09.slc.cpg/sg62_17_cif.got.tgz:32684.got - 2010.04.10 19:12:36.
