data_PCOD8250494
_publ_section_title
;
Structure prediction by ZEFSAII (Michael W. Deem and Ramdas Pophale) SiO2 
 PCOD8250494
Probable space group: P N M A
;
_chemical_formula_sum "Si O2"
_cell_formula_units_Z 64
_cell_length_a 8.611972
_cell_length_b 18.515525
_cell_length_c 21.324568
_cell_angle_alpha 90.000000
_cell_angle_beta 90.000000
_cell_angle_gamma 90.000000
_cell_volume 3400.312890
_symmetry_space_group_name_H-M "P N M A"
_symmetry_group_IT_number 62
_symmetry_cell_setting 'orthorhombic'
loop_
_space_group_symop_operation_xyz
x,y,z
1/2-x,-y,1/2+z
1/2+x,1/2-y,1/2-z
-x,1/2+y,-z
-x,-y,-z
1/2+x,y,1/2-z
1/2-x,1/2+y,1/2+z
x,1/2-y,z
loop_
_atom_site_type_symbol
_atom_site_label
_atom_site_fract_x
_atom_site_fract_y
_atom_site_fract_z
Si Si1 0.409702 0.832686 0.977010
Si Si2 0.716493 0.328576 0.893391
Si Si3 0.632410 0.829138 0.154508
Si Si4 0.929243 0.473895 0.710440
Si Si5 0.726773 0.456574 0.096746
Si Si6 0.220680 0.891215 0.466456
Si Si7 0.056762 0.051444 0.054668
Si Si8 0.780522 0.473157 0.836500
O O1 0.410766 0.750000 0.953073
O O2 0.372559 0.886521 0.920627
O O3 0.577378 0.853580 0.001329
O O4 0.280109 0.843066 0.031746
O O5 0.789812 0.250000 0.877501
O O6 0.536007 0.328470 0.876186
O O7 0.809014 0.389609 0.855692
O O8 0.675931 0.750000 0.182456
O O9 0.631112 0.890459 0.207713
O O10 0.755459 0.850255 0.099391
O O11 0.818500 0.522430 0.667279
O O12 0.903850 0.495634 0.782819
O O13 0.105965 0.484845 0.688580
O O14 0.906161 0.430090 0.095982
O O15 0.690657 0.523696 0.049711
O O16 0.362666 0.882852 0.516177
O O17 0.188533 0.019557 0.101194
O O18 0.000000 0.000000 0.000000
#
# Coordination Sequence:
#
# PCOD8250494 Si02
#       8
#     8   8   8   8   8   8   8   8
#     4  10  18  31  53  80 107 139 175 214 263 324
#     4   8  15  27  46  71 103 139 174 212 257 304
#     4   8  15  29  47  72 105 142 179 214 252 307
#     4  10  21  33  53  75 104 144 184 223 269 320
#     4  10  19  33  50  74 104 137 175 216 262 314
#     4   9  16  29  51  77 104 137 174 217 262 305
#     4  10  20  32  52  77 106 136 173 227 275 313
#     4  11  20  34  51  76 105 138 183 229 268 323
#
# _framework density 18.821798999999999
#
# number of rings (size 3 to 8) (size 9 to 14) (size 15 to 20)
#    0.000    2.500    0.000    5.250    0.000    0.500 
#    0.000    1.250    0.000   17.250    0.000    8.750 
#    0.000    0.000    0.000    0.000    0.000    0.000 
#
# Total GULP energy -792936.149754 kJ/mol
# GULP energy per Si atom -12389.627340 kJ/mol
# Density = 1.877896 g / cm^3
# Si number density = 18.821799 Si / 1000 Ang^3
#
#
#
# Elastic Constant Matrix: (Units=GPa)
#
#
# Indices 1 2 3 4 5 6 
#
# 1 41.7861 -0.0682 12.2072 0.0000 0.0000 0.0000
# 2 -0.0682 57.2039 8.1425 0.0000 0.0000 0.0000
# 3 12.2072 8.1425 74.2070 0.0000 0.0000 0.0000
# 4 0.0000 0.0000 0.0000 16.3567 0.0000 0.0000
# 5 0.0000 0.0000 0.0000 0.0000 30.7647 0.0000
# 6 0.0000 0.0000 0.0000 0.0000 0.0000 8.4473
#
#
#
# Elastic Compliance Matrix: (Units=1/GPa)
#
#
# Indices 1 2 3 4 5 6 
#
# 1 0.025162 0.000629 -0.004208 0.000000 0.000000 0.000000
# 2 0.000629 0.017774 -0.002054 0.000000 0.000000 0.000000
# 3 -0.004208 -0.002054 0.014393 0.000000 0.000000 0.000000
# 4 0.000000 0.000000 0.000000 0.061137 0.000000 0.000000
# 5 0.000000 0.000000 0.000000 0.000000 0.032505 0.000000
# 6 0.000000 0.000000 0.000000 0.000000 0.000000 0.118382
#
#
# Mechanical properties :
#
#
# Convention : Reuss Voigt Hill
#
# Bulk Modulus (GPa) = 21.70909 23.75112 22.73010
# Shear Modulus (GPa) = 16.89339 21.30809 19.10074
#
# Velocity S-wave (km/s) = 2.99915 3.36831 3.18908
# Velocity P-wave (km/s) = 4.85307 5.27008 5.06587
#
# Compressibility (1/GPa) = 0.04606366
#
# Stress axis : x y z
#
# Youngs Moduli (GPa) = 39.74276 56.26066 69.47619
#
# Poissons Ratio (x) = -0.03539 0.29237
# Poissons Ratio (y) = -0.02500 0.14269
# Poissons Ratio (z) = 0.16724 0.11555
#
# Static dielectric constant tensor:
#      x y z
#    x 3.541510 0.000000 0.000000 
#    y 0.000000 3.504480 0.000000 
#    z 0.000000 0.000000 3.480500 
# 
# 
# High freq. dielectric constant tensor:
#      x y z
#    x 1.719090 0.000000 0.000000 
#    y 0.000000 1.702150 0.000000 
#    z 0.000000 0.000000 1.718280 
# 
# From -- ./inp_files/26205.got.cif
#   From: 2010.03.12/outbox.cif.g09.slc.cpg/sg62_14_cif.got.tgz:26205.got - 2010.04.10 19:12:36.
