data_PCOD8250561
_publ_section_title
;
Structure prediction by ZEFSAII (Michael W. Deem and Ramdas Pophale) SiO2 
 PCOD8250561
Probable space group: P N M A
;
_chemical_formula_sum "Si O2"
_cell_formula_units_Z 64
_cell_length_a 19.550365
_cell_length_b 9.353967
_cell_length_c 20.489854
_cell_angle_alpha 90.000000
_cell_angle_beta 90.000000
_cell_angle_gamma 90.000000
_cell_volume 3747.050681
_symmetry_space_group_name_H-M "P N M A"
_symmetry_group_IT_number 62
_symmetry_cell_setting 'orthorhombic'
loop_
_space_group_symop_operation_xyz
x,y,z
1/2-x,-y,1/2+z
1/2+x,1/2-y,1/2-z
-x,1/2+y,-z
-x,-y,-z
1/2+x,y,1/2-z
1/2-x,1/2+y,1/2+z
x,1/2-y,z
loop_
_atom_site_type_symbol
_atom_site_label
_atom_site_fract_x
_atom_site_fract_y
_atom_site_fract_z
Si Si1 0.202854 0.080226 0.692326
Si Si2 0.215531 0.582304 0.928105
Si Si3 0.560281 0.913655 0.381718
Si Si4 0.209744 0.582708 0.318232
Si Si5 0.795713 0.418167 0.925408
Si Si6 0.069941 0.585965 0.878175
Si Si7 0.429435 0.083783 0.225143
Si Si8 0.560739 0.586977 0.228286
O O1 0.190309 0.250000 0.690419
O O2 0.244404 0.034431 0.756848
O O3 0.244257 0.023010 0.629363
O O4 0.131027 0.999145 0.688910
O O5 0.222911 0.750000 0.913641
O O6 0.268535 0.499538 0.883082
O O7 0.138272 0.531802 0.913649
O O8 0.232822 0.543896 0.003036
O O9 0.548452 0.750000 0.401724
O O10 0.627603 0.980031 0.416150
O O11 0.571665 0.931431 0.304966
O O12 0.493943 0.998527 0.406370
O O13 0.218913 0.750000 0.330235
O O14 0.131088 0.542282 0.306121
O O15 0.802521 0.250000 0.914592
O O16 0.055203 0.750000 0.894037
O O17 0.079927 0.558731 0.801775
O O18 0.427796 0.250000 0.206073
O O19 0.501369 0.016819 0.201812
O O20 0.540671 0.750000 0.211627
#
# Coordination Sequence:
#
# PCOD8250561 Si02
#       8
#     8   8   8   8   8   8   8   8
#     4  10  18  32  54  76  97 128 170 211 247 288
#     4  10  20  34  50  70 103 139 167 200 249 304
#     4   9  16  29  49  71  95 129 171 205 236 281
#     4  10  19  32  53  77 100 127 168 214 249 288
#     4   9  18  33  52  73  98 133 172 207 246 295
#     4   9  18  30  43  67 103 137 164 194 239 294
#     4  10  19  31  48  75 106 132 161 201 250 301
#     4   9  17  31  51  75 100 128 164 209 251 288
#
# _framework density 17.080099000000001
#
# number of rings (size 3 to 8) (size 9 to 14) (size 15 to 20)
#    0.000    2.500    2.500    0.375    0.000    2.000 
#    0.000    1.875    0.000    0.750    0.000    0.000 
#    0.000    0.000    0.000    0.000    0.000    0.000 
#
# Total GULP energy -793624.659847 kJ/mol
# GULP energy per Si atom -12400.385310 kJ/mol
# Density = 1.704122 g / cm^3
# Si number density = 17.080099 Si / 1000 Ang^3
#
#
#
# Elastic Constant Matrix: (Units=GPa)
#
#
# Indices 1 2 3 4 5 6 
#
# 1 123.0396 50.2280 49.5880 0.0000 0.0000 0.0000
# 2 50.2280 53.2938 27.1786 0.0000 0.0000 0.0000
# 3 49.5880 27.1786 67.0172 0.0000 0.0000 0.0000
# 4 0.0000 0.0000 0.0000 18.8213 0.0000 0.0000
# 5 0.0000 0.0000 0.0000 0.0000 23.0000 0.0000
# 6 0.0000 0.0000 0.0000 0.0000 0.0000 27.0099
#
#
#
# Elastic Compliance Matrix: (Units=1/GPa)
#
#
# Indices 1 2 3 4 5 6 
#
# 1 0.015411 -0.010980 -0.006950 0.000000 0.000000 0.000000
# 2 -0.010980 0.031480 -0.004642 0.000000 0.000000 0.000000
# 3 -0.006950 -0.004642 0.021947 0.000000 0.000000 0.000000
# 4 0.000000 0.000000 0.000000 0.053131 0.000000 0.000000
# 5 0.000000 0.000000 0.000000 0.000000 0.043478 0.000000
# 6 0.000000 0.000000 0.000000 0.000000 0.000000 0.037024
#
#
# Mechanical properties :
#
#
# Convention : Reuss Voigt Hill
#
# Bulk Modulus (GPa) = 42.20662 55.25997 48.73330
# Shear Modulus (GPa) = 19.56857 21.52329 20.54593
#
# Velocity S-wave (km/s) = 3.38848 3.55369 3.47207
# Velocity P-wave (km/s) = 6.33038 7.01869 6.68340
#
# Compressibility (1/GPa) = 0.02369296
#
# Stress axis : x y z
#
# Youngs Moduli (GPa) = 64.88960 31.76667 45.56501
#
# Poissons Ratio (x) = 0.34879 0.31668
# Poissons Ratio (y) = 0.71248 0.21152
# Poissons Ratio (z) = 0.45099 0.14746
#
# Static dielectric constant tensor:
#      x y z
#    x 3.267650 0.000000 0.000000 
#    y 0.000000 3.055870 0.000000 
#    z 0.000000 0.000000 3.014560 
# 
# 
# High freq. dielectric constant tensor:
#      x y z
#    x 1.664890 0.000000 0.000000 
#    y 0.000000 1.642500 0.000000 
#    z 0.000000 0.000000 1.636220 
# 
# From -- ./inp_files/24802.got.cif
#   From: 2010.03.12/outbox.cif.g09.slc.cpg/sg62_13_cif.got.tgz:24802.got - 2010.04.10 19:12:36.
