data_PCOD8250058
_publ_section_title
;
Structure prediction by ZEFSAII (Michael W. Deem and Ramdas Pophale) SiO2 
 PCOD8250058
Probable space group: P N M A
;
_chemical_formula_sum "Si O2"
_cell_formula_units_Z 56
_cell_length_a 12.021138
_cell_length_b 13.571288
_cell_length_c 19.236721
_cell_angle_alpha 90.000000
_cell_angle_beta 90.000000
_cell_angle_gamma 90.000000
_cell_volume 3138.323406
_symmetry_space_group_name_H-M "P N M A"
_symmetry_group_IT_number 62
_symmetry_cell_setting 'orthorhombic'
loop_
_space_group_symop_operation_xyz
x,y,z
1/2-x,-y,1/2+z
1/2+x,1/2-y,1/2-z
-x,1/2+y,-z
-x,-y,-z
1/2+x,y,1/2-z
1/2-x,1/2+y,1/2+z
x,1/2-y,z
loop_
_atom_site_type_symbol
_atom_site_label
_atom_site_fract_x
_atom_site_fract_y
_atom_site_fract_z
Si Si1 0.871581 0.981724 0.988976
Si Si2 0.323440 0.136660 0.617551
Si Si3 0.020793 0.137170 0.780335
Si Si4 0.102408 0.457716 0.648568
Si Si5 0.567495 0.640913 0.060526
Si Si6 0.699165 0.637142 0.918594
Si Si7 0.704697 0.140418 0.612057
O O1 0.822260 0.082540 0.957380
O O2 0.826909 0.896560 0.935274
O O3 0.828716 0.951959 0.064487
O O4 0.000000 0.000000 0.000000
O O5 0.338853 0.250000 0.600447
O O6 0.425675 0.100643 0.666217
O O7 0.207227 0.115753 0.655670
O O8 0.996967 0.250000 0.756434
O O9 0.024320 0.062474 0.715198
O O10 0.142426 0.129586 0.815205
O O11 0.145547 0.570433 0.642790
O O12 0.031077 0.434232 0.578960
O O13 0.514766 0.750000 0.058770
O O14 0.662063 0.635166 0.121185
O O15 0.625603 0.617834 0.987183
O O16 0.698202 0.750000 0.893826
O O17 0.675128 0.250000 0.579519
#
# Coordination Sequence:
#
# PCOD8250058 Si02
#       7
#     8   8   8   8   8   8   8
#     4  10  17  30  53  77 102 133 173 214 256 311
#     4  10  21  33  48  77 109 135 167 214 269 311
#     4  10  20  32  48  73 107 139 166 208 266 321
#     4  11  21  33  53  77 105 137 177 212 258 316
#     4   9  17  31  53  79 102 131 172 215 258 308
#     4   9  20  36  54  75 103 141 182 218 259 307
#     4   9  18  32  51  76 106 140 174 209 259 319
#
# _framework density 17.843924000000001
#
# number of rings (size 3 to 8) (size 9 to 14) (size 15 to 20)
#    0.000    2.286    1.429    3.000    2.000    0.571 
#    0.000    0.000    0.000    5.143    0.000    0.000 
#    0.000    0.000    0.000    0.000    0.000    0.000 
#
# Total GULP energy -693761.682112 kJ/mol
# GULP energy per Si atom -12388.601466 kJ/mol
# Density = 1.780331 g / cm^3
# Si number density = 17.843924 Si / 1000 Ang^3
#
#
#
# Elastic Constant Matrix: (Units=GPa)
#
#
# Indices 1 2 3 4 5 6 
#
# 1 75.5912 40.8650 21.2090 0.0000 0.0000 0.0000
# 2 40.8650 108.8488 44.8176 0.0000 0.0000 0.0000
# 3 21.2090 44.8176 59.7488 0.0000 0.0000 0.0000
# 4 0.0000 0.0000 0.0000 26.3447 0.0000 0.0000
# 5 0.0000 0.0000 0.0000 0.0000 23.6153 0.0000
# 6 0.0000 0.0000 0.0000 0.0000 0.0000 23.0308
#
#
#
# Elastic Compliance Matrix: (Units=1/GPa)
#
#
# Indices 1 2 3 4 5 6 
#
# 1 0.016727 -0.005549 -0.001775 0.000000 0.000000 0.000000
# 2 -0.005549 0.015133 -0.009382 0.000000 0.000000 0.000000
# 3 -0.001775 -0.009382 0.024404 0.000000 0.000000 0.000000
# 4 0.000000 0.000000 0.000000 0.037958 0.000000 0.000000
# 5 0.000000 0.000000 0.000000 0.000000 0.042346 0.000000
# 6 0.000000 0.000000 0.000000 0.000000 0.000000 0.043420
#
#
# Mechanical properties :
#
#
# Convention : Reuss Voigt Hill
#
# Bulk Modulus (GPa) = 43.75904 50.88577 47.32241
# Shear Modulus (GPa) = 22.62268 23.75129 23.18698
#
# Velocity S-wave (km/s) = 3.56449 3.65232 3.60868
# Velocity P-wave (km/s) = 6.44339 6.80919 6.62881
#
# Compressibility (1/GPa) = 0.02285242
#
# Stress axis : x y z
#
# Youngs Moduli (GPa) = 59.78401 66.08054 40.97663
#
# Poissons Ratio (x) = 0.36666 0.07275
# Poissons Ratio (y) = 0.33173 0.38443
# Poissons Ratio (z) = 0.10614 0.61995
#
# Static dielectric constant tensor:
#      x y z
#    x 3.510330 0.000000 0.000000 
#    y 0.000000 3.285100 0.000000 
#    z 0.000000 0.000000 3.154410 
# 
# 
# High freq. dielectric constant tensor:
#      x y z
#    x 1.701310 0.000000 0.000000 
#    y 0.000000 1.674050 0.000000 
#    z 0.000000 0.000000 1.663440 
# 
# From -- ./inp_files/26632.got.cif
#   From: 2010.03.12/outbox.cif.g09.slc.cpg/sg62_14_cif.got.tgz:26632.got - 2010.04.10 19:12:36.
