data_PCOD8250749
_publ_section_title
;
Structure prediction by ZEFSAII (Michael W. Deem and Ramdas Pophale) SiO2 
 PCOD8250749
Probable space group: P N M A
;
_chemical_formula_sum "Si O2"
_cell_formula_units_Z 40
_cell_length_a 14.419007
_cell_length_b 14.096933
_cell_length_c 9.134310
_cell_angle_alpha 90.000000
_cell_angle_beta 90.000000
_cell_angle_gamma 90.000000
_cell_volume 1856.674338
_symmetry_space_group_name_H-M "P N M A"
_symmetry_group_IT_number 62
_symmetry_cell_setting 'orthorhombic'
loop_
_space_group_symop_operation_xyz
x,y,z
1/2-x,-y,1/2+z
1/2+x,1/2-y,1/2-z
-x,1/2+y,-z
-x,-y,-z
1/2+x,y,1/2-z
1/2-x,1/2+y,1/2+z
x,1/2-y,z
loop_
_atom_site_type_symbol
_atom_site_label
_atom_site_fract_x
_atom_site_fract_y
_atom_site_fract_z
Si Si1 0.780849 0.949340 0.620376
Si Si2 0.359064 0.946987 0.197111
Si Si3 0.063613 0.588305 0.308828
Si Si4 0.790078 0.250000 0.178972
Si Si5 0.109047 0.750000 0.104611
Si Si6 0.643408 0.750000 0.000566
Si Si7 0.795188 0.750000 0.223137
O O1 0.797354 0.964296 0.447641
O O2 0.779782 0.838486 0.660441
O O3 0.680455 0.988944 0.671023
O O4 0.859035 0.006721 0.710384
O O5 0.467160 0.967245 0.164705
O O6 0.359823 0.839446 0.252265
O O7 0.059797 0.653974 0.162768
O O8 0.088948 0.655696 0.447036
O O9 0.846781 0.250000 0.328614
O O10 0.878662 0.250000 0.069220
O O11 0.214090 0.750000 0.159399
O O12 0.748266 0.750000 0.063346
#
# Coordination Sequence:
#
# PCOD8250749 Si02
#       7
#     8   8   8   4   4   4   4
#     4  12  23  41  64  98 133 171 225 263 332 390
#     4  12  23  42  73  94 132 177 214 272 329 391
#     4  10  22  43  70  94 129 179 217 260 330 411
#     4  12  24  38  67  93 134 176 209 292 325 359
#     4  10  19  43  68  97 130 167 221 263 324 402
#     4  10  21  41  70  97 128 162 230 267 318 404
#     4  10  18  42  67  87 124 177 212 252 333 395
#
# _framework density 21.543897000000001
#
# number of rings (size 3 to 8) (size 9 to 14) (size 15 to 20)
#    0.000    1.200    6.000    3.000    0.000    0.000 
#    0.000    7.000    8.800    0.000    0.000    0.000 
#    0.000    0.000    0.000    0.000    0.000    0.000 
#
# Total GULP energy -495904.101049 kJ/mol
# GULP energy per Si atom -12397.602526 kJ/mol
# Density = 2.149486 g / cm^3
# Si number density = 21.543897 Si / 1000 Ang^3
#
#
#
# Elastic Constant Matrix: (Units=GPa)
#
#
# Indices 1 2 3 4 5 6 
#
# 1 108.7588 45.4175 46.3559 0.0000 0.0000 0.0000
# 2 45.4175 137.4782 32.3231 0.0000 0.0000 0.0000
# 3 46.3559 32.3231 141.8593 0.0000 0.0000 0.0000
# 4 0.0000 0.0000 0.0000 11.4671 0.0000 0.0000
# 5 0.0000 0.0000 0.0000 0.0000 18.2877 0.0000
# 6 0.0000 0.0000 0.0000 0.0000 0.0000 27.5763
#
#
#
# Elastic Compliance Matrix: (Units=1/GPa)
#
#
# Indices 1 2 3 4 5 6 
#
# 1 0.011866 -0.003179 -0.003153 0.000000 0.000000 0.000000
# 2 -0.003179 0.008537 -0.000906 0.000000 0.000000 0.000000
# 3 -0.003153 -0.000906 0.008286 0.000000 0.000000 0.000000
# 4 0.000000 0.000000 0.000000 0.087206 0.000000 0.000000
# 5 0.000000 0.000000 0.000000 0.000000 0.054682 0.000000
# 6 0.000000 0.000000 0.000000 0.000000 0.000000 0.036263
#
#
# Mechanical properties :
#
#
# Convention : Reuss Voigt Hill
#
# Bulk Modulus (GPa) = 70.36067 70.69883 70.52975
# Shear Modulus (GPa) = 22.11859 29.06621 25.59240
#
# Velocity S-wave (km/s) = 3.20765 3.67708 3.45036
# Velocity P-wave (km/s) = 6.81534 7.13550 6.97725
#
# Compressibility (1/GPa) = 0.01421249
#
# Stress axis : x y z
#
# Youngs Moduli (GPa) = 84.27379 117.13523 120.68282
#
# Poissons Ratio (x) = 0.37234 0.38054
# Poissons Ratio (y) = 0.26788 0.10940
# Poissons Ratio (z) = 0.26574 0.10618
#
# Static dielectric constant tensor:
#      x y z
#    x 3.763020 0.000000 0.000000 
#    y 0.000000 4.145290 0.000000 
#    z 0.000000 0.000000 3.935310 
# 
# 
# High freq. dielectric constant tensor:
#      x y z
#    x 1.828000 0.000000 0.000000 
#    y 0.000000 1.857460 0.000000 
#    z 0.000000 0.000000 1.833760 
# 
# From -- ./inp_files/6161.got.cif
#   From: 2010.03.12/outbox.cif.g09.slc.cpg/sg62_4_cif.got.tgz:6161.got - 2010.04.10 19:12:36.
