data_PCOD8250368
_publ_section_title
;
Structure prediction by ZEFSAII (Michael W. Deem and Ramdas Pophale) SiO2 
 PCOD8250368
Probable space group: P N M A
;
_chemical_formula_sum "Si O2"
_cell_formula_units_Z 64
_cell_length_a 17.715143
_cell_length_b 8.905019
_cell_length_c 23.066988
_cell_angle_alpha 90.000000
_cell_angle_beta 90.000000
_cell_angle_gamma 90.000000
_cell_volume 3638.902359
_symmetry_space_group_name_H-M "P N M A"
_symmetry_group_IT_number 62
_symmetry_cell_setting 'orthorhombic'
loop_
_space_group_symop_operation_xyz
x,y,z
1/2-x,-y,1/2+z
1/2+x,1/2-y,1/2-z
-x,1/2+y,-z
-x,-y,-z
1/2+x,y,1/2-z
1/2-x,1/2+y,1/2+z
x,1/2-y,z
loop_
_atom_site_type_symbol
_atom_site_label
_atom_site_fract_x
_atom_site_fract_y
_atom_site_fract_z
Si Si1 0.106311 0.927039 0.193893
Si Si2 0.760123 0.928927 0.359749
Si Si3 0.170669 0.926931 0.924108
Si Si4 0.251547 0.079370 0.020195
Si Si5 0.899904 0.928207 0.285925
Si Si6 0.941945 0.573482 0.158412
Si Si7 0.184614 0.579045 0.403475
Si Si8 0.060643 0.928660 0.317970
O O1 0.115413 0.750000 0.196846
O O2 0.179977 0.994638 0.162325
O O3 0.100901 0.989381 0.259512
O O4 0.030614 0.968779 0.158717
O O5 0.760753 0.750000 0.361939
O O6 0.825162 0.991711 0.316939
O O7 0.776857 0.989414 0.423592
O O8 0.169192 0.750000 0.930961
O O9 0.094003 0.982805 0.894576
O O10 0.242343 0.980269 0.884635
O O11 0.179305 0.001303 0.988360
O O12 0.230479 0.250000 0.036376
O O13 0.321635 0.073823 0.973905
O O14 0.899630 0.750000 0.287922
O O15 0.903711 0.979242 0.218894
O O16 0.974454 0.989044 0.320033
O O17 0.929767 0.750000 0.148567
O O18 0.199112 0.750000 0.382265
O O19 0.108736 0.514414 0.373490
O O20 0.057561 0.750000 0.316235
#
# Coordination Sequence:
#
# PCOD8250368 Si02
#       8
#     8   8   8   8   8   8   8   8
#     4   8  16  27  47  75 102 126 157 196 235 283
#     4  10  18  30  49  73  99 130 162 198 241 283
#     4  10  19  31  50  73  96 122 158 205 247 282
#     4   9  19  34  49  69  94 128 167 205 240 287
#     4   8  16  27  48  77 103 127 158 197 237 282
#     4   9  16  31  50  74 101 127 159 195 235 286
#     4   8  16  29  51  72  93 125 162 199 240 284
#     4   8  13  27  48  75 101 124 159 201 235 280
#
# _framework density 17.587720000000001
#
# number of rings (size 3 to 8) (size 9 to 14) (size 15 to 20)
#    0.750    2.500    0.000    2.625    1.750    0.000 
#    0.000    2.500    0.000    3.750    0.000    0.000 
#    0.000    0.000    0.000    0.000    0.000    0.000 
#
# Total GULP energy -792863.598371 kJ/mol
# GULP energy per Si atom -12388.493725 kJ/mol
# Density = 1.754769 g / cm^3
# Si number density = 17.587720 Si / 1000 Ang^3
#
#
#
# Elastic Constant Matrix: (Units=GPa)
#
#
# Indices 1 2 3 4 5 6 
#
# 1 87.2566 19.3535 31.2966 0.0000 0.0000 0.0000
# 2 19.3535 41.1189 15.1392 0.0000 0.0000 0.0000
# 3 31.2966 15.1392 62.4958 0.0000 0.0000 0.0000
# 4 0.0000 0.0000 0.0000 21.4678 0.0000 0.0000
# 5 0.0000 0.0000 0.0000 0.0000 19.0169 0.0000
# 6 0.0000 0.0000 0.0000 0.0000 0.0000 9.2461
#
#
#
# Elastic Compliance Matrix: (Units=1/GPa)
#
#
# Indices 1 2 3 4 5 6 
#
# 1 0.014731 -0.004630 -0.006255 0.000000 0.000000 0.000000
# 2 -0.004630 0.028157 -0.004502 0.000000 0.000000 0.000000
# 3 -0.006255 -0.004502 0.020224 0.000000 0.000000 0.000000
# 4 0.000000 0.000000 0.000000 0.046581 0.000000 0.000000
# 5 0.000000 0.000000 0.000000 0.000000 0.052585 0.000000
# 6 0.000000 0.000000 0.000000 0.000000 0.000000 0.108154
#
#
# Mechanical properties :
#
#
# Convention : Reuss Voigt Hill
#
# Bulk Modulus (GPa) = 30.92478 35.82777 33.37627
# Shear Modulus (GPa) = 16.02633 18.28494 17.15564
#
# Velocity S-wave (km/s) = 3.02192 3.22785 3.12658
# Velocity P-wave (km/s) = 5.45869 5.85723 5.66147
#
# Compressibility (1/GPa) = 0.03233653
#
# Stress axis : x y z
#
# Youngs Moduli (GPa) = 67.88354 35.51555 49.44569
#
# Poissons Ratio (x) = 0.16445 0.30930
# Poissons Ratio (y) = 0.31433 0.22260
# Poissons Ratio (z) = 0.42464 0.15989
#
# Static dielectric constant tensor:
#      x y z
#    x 3.495100 0.000000 0.000000 
#    y 0.000000 2.810980 0.000000 
#    z 0.000000 0.000000 3.202390 
# 
# 
# High freq. dielectric constant tensor:
#      x y z
#    x 1.672760 0.000000 0.000000 
#    y 0.000000 1.638080 0.000000 
#    z 0.000000 0.000000 1.669370 
# 
# From -- ./inp_files/30055.got.cif
#   From: 2010.03.12/outbox.cif.g09.slc.cpg/sg62_16_cif.got.tgz:30055.got - 2010.04.10 19:12:36.
