data_PCOD8250516
_publ_section_title
;
Structure prediction by ZEFSAII (Michael W. Deem and Ramdas Pophale) SiO2 
 PCOD8250516
Probable space group: P N M A
;
_chemical_formula_sum "Si O2"
_cell_formula_units_Z 48
_cell_length_a 9.718704
_cell_length_b 22.741222
_cell_length_c 13.080309
_cell_angle_alpha 90.000000
_cell_angle_beta 90.000000
_cell_angle_gamma 90.000000
_cell_volume 2890.947178
_symmetry_space_group_name_H-M "P N M A"
_symmetry_group_IT_number 62
_symmetry_cell_setting 'orthorhombic'
loop_
_space_group_symop_operation_xyz
x,y,z
1/2-x,-y,1/2+z
1/2+x,1/2-y,1/2-z
-x,1/2+y,-z
-x,-y,-z
1/2+x,y,1/2-z
1/2-x,1/2+y,1/2+z
x,1/2-y,z
loop_
_atom_site_type_symbol
_atom_site_label
_atom_site_fract_x
_atom_site_fract_y
_atom_site_fract_z
Si Si1 0.396004 0.500127 0.132756
Si Si2 0.706344 0.816213 0.354902
Si Si3 0.108638 0.010528 0.865768
Si Si4 0.973643 0.183504 0.654923
Si Si5 0.648818 0.568839 0.450466
Si Si6 0.635635 0.927428 0.053834
O O1 0.361838 0.489239 0.251002
O O2 0.298738 0.549319 0.084663
O O3 0.548882 0.525296 0.119314
O O4 0.377102 0.439889 0.068060
O O5 0.688074 0.750000 0.396443
O O6 0.610930 0.827874 0.257581
O O7 0.651716 0.860218 0.443052
O O8 0.865049 0.828425 0.324149
O O9 0.209756 0.061705 0.906635
O O10 0.958345 0.039150 0.872362
O O11 0.117681 0.951427 0.934086
O O12 0.950711 0.250000 0.615097
O O13 0.913336 0.139353 0.570057
#
# Coordination Sequence:
#
# PCOD8250516 Si02
#       6
#     8   8   8   8   8   8
#     4  10  18  32  49  70  97 125 159 196 238 285
#     4  10  20  33  50  71  98 130 162 198 240 286
#     4  10  20  32  49  70 101 129 155 198 239 288
#     4  10  20  33  49  71  98 129 162 198 241 287
#     4  10  20  32  47  73  98 128 161 192 243 287
#     4  10  20  30  49  73  95 127 158 194 240 284
#
# _framework density 16.603553999999999
#
# number of rings (size 3 to 8) (size 9 to 14) (size 15 to 20)
#    0.000    2.000    1.667    3.000    2.333    0.000 
#    0.000    0.000    0.000    1.000    0.000    0.000 
#    0.000    0.000    0.000    0.000    0.000    0.000 
#
# Total GULP energy -595104.792478 kJ/mol
# GULP energy per Si atom -12398.016510 kJ/mol
# Density = 1.656576 g / cm^3
# Si number density = 16.603554 Si / 1000 Ang^3
#
#
#
# Elastic Constant Matrix: (Units=GPa)
#
#
# Indices 1 2 3 4 5 6 
#
# 1 56.9613 27.4745 15.7954 0.0000 0.0000 0.0000
# 2 27.4745 125.7652 55.2082 0.0000 0.0000 0.0000
# 3 15.7954 55.2082 95.5719 0.0000 0.0000 0.0000
# 4 0.0000 0.0000 0.0000 24.6706 0.0000 0.0000
# 5 0.0000 0.0000 0.0000 0.0000 18.6059 0.0000
# 6 0.0000 0.0000 0.0000 0.0000 0.0000 22.5769
#
#
#
# Elastic Compliance Matrix: (Units=1/GPa)
#
#
# Indices 1 2 3 4 5 6 
#
# 1 0.019699 -0.003851 -0.001031 0.000000 0.000000 0.000000
# 2 -0.003851 0.011405 -0.005952 0.000000 0.000000 0.000000
# 3 -0.001031 -0.005952 0.014072 0.000000 0.000000 0.000000
# 4 0.000000 0.000000 0.000000 0.040534 0.000000 0.000000
# 5 0.000000 0.000000 0.000000 0.000000 0.053746 0.000000
# 6 0.000000 0.000000 0.000000 0.000000 0.000000 0.044293
#
#
# Mechanical properties :
#
#
# Convention : Reuss Voigt Hill
#
# Bulk Modulus (GPa) = 42.53799 52.80606 47.67203
# Shear Modulus (GPa) = 23.44622 25.15872 24.30247
#
# Velocity S-wave (km/s) = 3.76190 3.89686 3.82997
# Velocity P-wave (km/s) = 6.67417 7.21945 6.95216
#
# Compressibility (1/GPa) = 0.02350840
#
# Stress axis : x y z
#
# Youngs Moduli (GPa) = 50.76369 87.67819 71.06306
#
# Poissons Ratio (x) = 0.33762 0.07329
# Poissons Ratio (y) = 0.19548 0.42297
# Poissons Ratio (z) = 0.05235 0.52186
#
# Static dielectric constant tensor:
#      x y z
#    x 3.339450 0.000000 0.000000 
#    y 0.000000 3.158870 0.000000 
#    z 0.000000 0.000000 3.002390 
# 
# 
# High freq. dielectric constant tensor:
#      x y z
#    x 1.663450 0.000000 0.000000 
#    y 0.000000 1.624170 0.000000 
#    z 0.000000 0.000000 1.613040 
# 
# From -- ./inp_files/11300.got.cif
#   From: 2010.03.12/outbox.cif.g09.slc.cpg/sg62_6_cif.got.tgz:11300.got - 2010.04.10 19:12:36.
