data_PCOD8250854
_publ_section_title
;
Structure prediction by ZEFSAII (Michael W. Deem and Ramdas Pophale) SiO2 
 PCOD8250854
Probable space group: P N M A
;
_chemical_formula_sum "Si O2"
_cell_formula_units_Z 56
_cell_length_a 22.131893
_cell_length_b 9.034757
_cell_length_c 14.613984
_cell_angle_alpha 90.000000
_cell_angle_beta 90.000000
_cell_angle_gamma 90.000000
_cell_volume 2922.157807
_symmetry_space_group_name_H-M "P N M A"
_symmetry_group_IT_number 62
_symmetry_cell_setting 'orthorhombic'
loop_
_space_group_symop_operation_xyz
x,y,z
1/2-x,-y,1/2+z
1/2+x,1/2-y,1/2-z
-x,1/2+y,-z
-x,-y,-z
1/2+x,y,1/2-z
1/2-x,1/2+y,1/2+z
x,1/2-y,z
loop_
_atom_site_type_symbol
_atom_site_label
_atom_site_fract_x
_atom_site_fract_y
_atom_site_fract_z
Si Si1 0.276582 0.926226 0.824940
Si Si2 0.619466 0.074030 0.302718
Si Si3 0.433901 0.573192 0.505041
Si Si4 0.857344 0.921385 0.511471
Si Si5 0.358939 0.420984 0.347773
Si Si6 0.594731 0.580771 0.852125
Si Si7 0.962964 0.923372 0.642278
O O1 0.278343 0.750000 0.824372
O O2 0.314377 0.981195 0.734774
O O3 0.208133 0.983963 0.827050
O O4 0.307723 0.985336 0.918228
O O5 0.618999 0.250000 0.300573
O O6 0.602033 0.018501 0.404012
O O7 0.569466 0.010328 0.232446
O O8 0.500000 0.500000 0.500000
O O9 0.441771 0.750000 0.503352
O O10 0.392429 0.521292 0.421617
O O11 0.845677 0.750000 0.495535
O O12 0.923434 0.955190 0.552820
O O13 0.854217 0.999572 0.412779
O O14 0.357343 0.250000 0.380875
O O15 0.394930 0.437842 0.254650
O O16 0.597597 0.750000 0.882774
O O17 0.529193 0.506643 0.870827
O O18 0.971152 0.750000 0.659397
#
# Coordination Sequence:
#
# PCOD8250854 Si02
#       7
#     8   8   8   8   8   8   8
#     4   8  16  33  54  75 100 133 173 213 258 312
#     4   8  15  30  53  76  98 132 176 214 253 309
#     4  11  22  36  57  83 110 141 179 224 270 317
#     4   9  17  30  50  72  96 128 163 202 249 304
#     4  10  21  36  53  74 103 138 175 216 259 306
#     4  10  19  30  47  71  99 131 165 206 255 303
#     4   8  14  27  47  71  97 125 160 201 247 301
#
# _framework density 19.163921999999999
#
# number of rings (size 3 to 8) (size 9 to 14) (size 15 to 20)
#    0.000    2.857    0.000    3.429    0.000    4.000 
#    0.000    2.143    0.000   10.286    0.000    0.000 
#    0.000    0.000    0.000    0.000    0.000    0.000 
#
# Total GULP energy -693944.025226 kJ/mol
# GULP energy per Si atom -12391.857593 kJ/mol
# Density = 1.912030 g / cm^3
# Si number density = 19.163922 Si / 1000 Ang^3
#
#
#
# Elastic Constant Matrix: (Units=GPa)
#
#
# Indices 1 2 3 4 5 6 
#
# 1 111.3342 23.5019 31.1884 0.0000 0.0000 0.0000
# 2 23.5019 38.1807 33.6113 0.0000 0.0000 0.0000
# 3 31.1884 33.6113 87.3876 0.0000 0.0000 0.0000
# 4 0.0000 0.0000 0.0000 25.1793 0.0000 0.0000
# 5 0.0000 0.0000 0.0000 0.0000 22.9120 0.0000
# 6 0.0000 0.0000 0.0000 0.0000 0.0000 19.9138
#
#
#
# Elastic Compliance Matrix: (Units=1/GPa)
#
#
# Indices 1 2 3 4 5 6 
#
# 1 0.010531 -0.004798 -0.001913 0.000000 0.000000 0.000000
# 2 -0.004798 0.041786 -0.014359 0.000000 0.000000 0.000000
# 3 -0.001913 -0.014359 0.017649 0.000000 0.000000 0.000000
# 4 0.000000 0.000000 0.000000 0.039715 0.000000 0.000000
# 5 0.000000 0.000000 0.000000 0.000000 0.043645 0.000000
# 6 0.000000 0.000000 0.000000 0.000000 0.000000 0.050216
#
#
# Mechanical properties :
#
#
# Convention : Reuss Voigt Hill
#
# Bulk Modulus (GPa) = 35.93953 45.94509 40.94231
# Shear Modulus (GPa) = 19.61111 23.50773 21.55942
#
# Velocity S-wave (km/s) = 3.20243 3.50618 3.35774
# Velocity P-wave (km/s) = 5.69812 6.35751 6.03682
#
# Compressibility (1/GPa) = 0.02782451
#
# Stress axis : x y z
#
# Youngs Moduli (GPa) = 94.96055 23.93173 56.66082
#
# Poissons Ratio (x) = 0.11483 0.10839
# Poissons Ratio (y) = 0.45564 0.81361
# Poissons Ratio (z) = 0.18165 0.34364
#
# Static dielectric constant tensor:
#      x y z
#    x 3.935630 0.000000 0.000000 
#    y 0.000000 3.011180 0.000000 
#    z 0.000000 0.000000 3.610790 
# 
# 
# High freq. dielectric constant tensor:
#      x y z
#    x 1.752010 0.000000 0.000000 
#    y 0.000000 1.692490 0.000000 
#    z 0.000000 0.000000 1.753330 
# 
# From -- ./inp_files/20432.got.cif
#   From: 2010.03.12/outbox.cif.g09.slc.cpg/sg62_11_cif.got.tgz:20432.got - 2010.04.10 19:12:36.
