data_PCOD8250856
_publ_section_title
;
Structure prediction by ZEFSAII (Michael W. Deem and Ramdas Pophale) SiO2 
 PCOD8250856
Probable space group: P N M A
;
_chemical_formula_sum "Si O2"
_cell_formula_units_Z 64
_cell_length_a 10.104832
_cell_length_b 11.477203
_cell_length_c 30.148524
_cell_angle_alpha 90.000000
_cell_angle_beta 90.000000
_cell_angle_gamma 90.000000
_cell_volume 3496.481346
_symmetry_space_group_name_H-M "P N M A"
_symmetry_group_IT_number 62
_symmetry_cell_setting 'orthorhombic'
loop_
_space_group_symop_operation_xyz
x,y,z
1/2-x,-y,1/2+z
1/2+x,1/2-y,1/2-z
-x,1/2+y,-z
-x,-y,-z
1/2+x,y,1/2-z
1/2-x,1/2+y,1/2+z
x,1/2-y,z
loop_
_atom_site_type_symbol
_atom_site_label
_atom_site_fract_x
_atom_site_fract_y
_atom_site_fract_z
Si Si1 0.143816 0.879361 0.523082
Si Si2 0.917625 0.377637 0.651452
Si Si3 0.107656 0.025220 0.435752
Si Si4 0.646841 0.880688 0.347250
Si Si5 0.353187 0.614149 0.596164
Si Si6 0.639315 0.435133 0.682064
Si Si7 0.852007 0.378224 0.110842
Si Si8 0.371965 0.883440 0.220266
O O1 0.142350 0.750000 0.503994
O O2 0.140847 0.960657 0.480944
O O3 0.277283 0.903487 0.550267
O O4 0.019337 0.894211 0.556101
O O5 0.976314 0.250000 0.641929
O O6 0.926457 0.442401 0.604998
O O7 0.769926 0.361271 0.670546
O O8 0.015225 0.436666 0.687676
O O9 0.238212 0.097255 0.424683
O O10 0.680320 0.750000 0.368735
O O11 0.491568 0.873663 0.336624
O O12 0.727901 0.892339 0.301770
O O13 0.685354 0.999844 0.374034
O O14 0.324734 0.750000 0.614567
O O15 0.508667 0.601339 0.586151
O O16 0.660095 0.556043 0.657168
O O17 0.628425 0.457851 0.734576
O O18 0.835780 0.250000 0.128408
O O19 0.405995 0.750000 0.233152
#
# Coordination Sequence:
#
# PCOD8250856 Si02
#       8
#     8   8   8   8   8   8   8   8
#     4  10  20  35  54  76 104 135 171 211 255 310
#     4  10  19  31  48  72 102 131 162 204 254 303
#     4  10  20  33  53  77 101 132 170 210 255 302
#     4  10  19  32  51  75 103 133 172 219 262 307
#     4   9  19  36  55  74 102 140 174 210 261 315
#     4  10  19  31  50  72  98 133 170 207 256 310
#     4   9  19  36  54  72  99 134 171 211 257 307
#     4  10  19  30  47  72 102 133 166 210 261 307
#
# _framework density 18.304114999999999
#
# number of rings (size 3 to 8) (size 9 to 14) (size 15 to 20)
#    0.000    2.250    0.000    3.375    0.000    2.500 
#    0.000    4.375    0.000    8.250    0.000    0.000 
#    0.000    0.000    0.000    0.000    0.000    0.000 
#
# Total GULP energy -792847.555676 kJ/mol
# GULP energy per Si atom -12388.243057 kJ/mol
# Density = 1.826245 g / cm^3
# Si number density = 18.304115 Si / 1000 Ang^3
#
#
#
# Elastic Constant Matrix: (Units=GPa)
#
#
# Indices 1 2 3 4 5 6 
#
# 1 91.1973 17.6139 35.8654 0.0000 0.0000 0.0000
# 2 17.6139 75.8569 24.6455 0.0000 0.0000 0.0000
# 3 35.8654 24.6455 90.5000 0.0000 0.0000 0.0000
# 4 0.0000 0.0000 0.0000 6.3793 0.0000 0.0000
# 5 0.0000 0.0000 0.0000 0.0000 26.9372 0.0000
# 6 0.0000 0.0000 0.0000 0.0000 0.0000 19.0229
#
#
#
# Elastic Compliance Matrix: (Units=1/GPa)
#
#
# Indices 1 2 3 4 5 6 
#
# 1 0.013142 -0.001491 -0.004802 0.000000 0.000000 0.000000
# 2 -0.001491 0.014632 -0.003394 0.000000 0.000000 0.000000
# 3 -0.004802 -0.003394 0.013877 0.000000 0.000000 0.000000
# 4 0.000000 0.000000 0.000000 0.156757 0.000000 0.000000
# 5 0.000000 0.000000 0.000000 0.000000 0.037123 0.000000
# 6 0.000000 0.000000 0.000000 0.000000 0.000000 0.052568
#
#
# Mechanical properties :
#
#
# Convention : Reuss Voigt Hill
#
# Bulk Modulus (GPa) = 44.89037 45.97819 45.43428
# Shear Modulus (GPa) = 15.87817 22.42984 19.15401
#
# Velocity S-wave (km/s) = 2.94847 3.50437 3.23837
# Velocity P-wave (km/s) = 6.01409 6.44575 6.23366
#
# Compressibility (1/GPa) = 0.02227649
#
# Stress axis : x y z
#
# Youngs Moduli (GPa) = 76.09320 68.34549 72.06213
#
# Poissons Ratio (x) = 0.10193 0.34604
# Poissons Ratio (y) = 0.11348 0.24454
# Poissons Ratio (z) = 0.36540 0.23193
#
# Static dielectric constant tensor:
#      x y z
#    x 3.658620 0.000000 0.000000 
#    y 0.000000 3.515170 0.000000 
#    z 0.000000 0.000000 3.193380 
# 
# 
# High freq. dielectric constant tensor:
#      x y z
#    x 1.729010 0.000000 0.000000 
#    y 0.000000 1.704460 0.000000 
#    z 0.000000 0.000000 1.693720 
# 
# From -- ./inp_files/32230.got.cif
#   From: 2010.03.12/outbox.cif.g09.slc.cpg/sg62_17_cif.got.tgz:32230.got - 2010.04.10 19:12:36.
