data_PCOD8250385
_publ_section_title
;
Structure prediction by ZEFSAII (Michael W. Deem and Ramdas Pophale) SiO2 
 PCOD8250385
Probable space group: P N M A
;
_chemical_formula_sum "Si O2"
_cell_formula_units_Z 64
_cell_length_a 10.418246
_cell_length_b 10.957482
_cell_length_c 31.167717
_cell_angle_alpha 90.000000
_cell_angle_beta 90.000000
_cell_angle_gamma 90.000000
_cell_volume 3558.036228
_symmetry_space_group_name_H-M "P N M A"
_symmetry_group_IT_number 62
_symmetry_cell_setting 'orthorhombic'
loop_
_space_group_symop_operation_xyz
x,y,z
1/2-x,-y,1/2+z
1/2+x,1/2-y,1/2-z
-x,1/2+y,-z
-x,-y,-z
1/2+x,y,1/2-z
1/2-x,1/2+y,1/2+z
x,1/2-y,z
loop_
_atom_site_type_symbol
_atom_site_label
_atom_site_fract_x
_atom_site_fract_y
_atom_site_fract_z
Si Si1 0.058746 0.889637 0.350425
Si Si2 0.794668 0.609816 0.383716
Si Si3 0.122015 0.611078 0.040575
Si Si4 0.066315 0.612970 0.945784
Si Si5 0.808807 0.384727 0.231265
Si Si6 0.552815 0.886048 0.336067
Si Si7 0.186681 0.534866 0.862318
Si Si8 0.946784 0.027312 0.743916
O O1 0.083285 0.750000 0.363740
O O2 0.039040 0.895219 0.299186
O O3 0.933507 0.949003 0.373724
O O4 0.177996 0.967834 0.366458
O O5 0.811140 0.750000 0.369822
O O6 0.756320 0.595408 0.433854
O O7 0.682368 0.548742 0.354114
O O8 0.067565 0.750000 0.049973
O O9 0.031401 0.500969 0.057339
O O10 0.146770 0.596561 0.989866
O O11 0.001187 0.750000 0.945715
O O12 0.164459 0.610513 0.905874
O O13 0.782897 0.250000 0.248596
O O14 0.816890 0.379490 0.179524
O O15 0.692610 0.467632 0.246610
O O16 0.940905 0.427850 0.252902
O O17 0.558422 0.750000 0.353670
O O18 0.543118 0.884574 0.284738
O O19 0.427270 0.939344 0.357627
#
# Coordination Sequence:
#
# PCOD8250385 Si02
#       8
#     8   8   8   8   8   8   8   8
#     4  10  20  33  50  74 107 140 171 213 261 318
#     4   9  17  31  51  74 103 136 170 209 261 315
#     4   9  18  33  56  82 107 137 174 218 269 322
#     4  10  19  33  55  82 109 135 172 222 269 314
#     4  10  20  34  49  66  94 133 175 215 256 311
#     4  10  18  30  51  75 101 129 167 218 259 305
#     4  10  20  32  49  75 103 135 173 209 260 312
#     4  10  20  32  49  71  97 130 173 216 260 306
#
# _framework density 17.987449999999999
#
# number of rings (size 3 to 8) (size 9 to 14) (size 15 to 20)
#    0.000    2.250    1.250    2.250    0.000    0.500 
#    0.000    4.375    0.000    3.750    0.000    0.000 
#    0.000    0.000    0.000    0.000    0.000    0.000 
#
# Total GULP energy -793028.576413 kJ/mol
# GULP energy per Si atom -12391.071506 kJ/mol
# Density = 1.794651 g / cm^3
# Si number density = 17.987450 Si / 1000 Ang^3
#
#
#
# Elastic Constant Matrix: (Units=GPa)
#
#
# Indices 1 2 3 4 5 6 
#
# 1 107.5262 23.9418 35.1081 0.0000 0.0000 0.0000
# 2 23.9418 70.7900 16.3821 0.0000 0.0000 0.0000
# 3 35.1081 16.3821 87.5558 0.0000 0.0000 0.0000
# 4 0.0000 0.0000 0.0000 2.3877 0.0000 0.0000
# 5 0.0000 0.0000 0.0000 0.0000 25.2072 0.0000
# 6 0.0000 0.0000 0.0000 0.0000 0.0000 7.0862
#
#
#
# Elastic Compliance Matrix: (Units=1/GPa)
#
#
# Indices 1 2 3 4 5 6 
#
# 1 0.011237 -0.002883 -0.003966 0.000000 0.000000 0.000000
# 2 -0.002883 0.015505 -0.001745 0.000000 0.000000 0.000000
# 3 -0.003966 -0.001745 0.013338 0.000000 0.000000 0.000000
# 4 0.000000 0.000000 0.000000 0.418818 0.000000 0.000000
# 5 0.000000 0.000000 0.000000 0.000000 0.039671 0.000000
# 6 0.000000 0.000000 0.000000 0.000000 0.000000 0.141120
#
#
# Mechanical properties :
#
#
# Convention : Reuss Voigt Hill
#
# Bulk Modulus (GPa) = 43.68364 46.30402 44.99383
# Shear Modulus (GPa) = 7.52436 19.63221 13.57829
#
# Velocity S-wave (km/s) = 2.04749 3.30728 2.75048
# Velocity P-wave (km/s) = 5.47064 6.35472 5.92918
#
# Compressibility (1/GPa) = 0.02289187
#
# Stress axis : x y z
#
# Youngs Moduli (GPa) = 88.99204 64.49509 74.97208
#
# Poissons Ratio (x) = 0.18591 0.29737
# Poissons Ratio (y) = 0.25652 0.13084
# Poissons Ratio (z) = 0.35298 0.11256
#
# Static dielectric constant tensor:
#      x y z
#    x 3.322130 0.000000 0.000000 
#    y 0.000000 3.181330 0.000000 
#    z 0.000000 0.000000 3.452480 
# 
# 
# High freq. dielectric constant tensor:
#      x y z
#    x 1.684940 0.000000 0.000000 
#    y 0.000000 1.682120 0.000000 
#    z 0.000000 0.000000 1.702120 
# 
# From -- ./inp_files/32236.got.cif
#   From: 2010.03.12/outbox.cif.g09.slc.cpg/sg62_17_cif.got.tgz:32236.got - 2010.04.10 19:12:36.
