data_PCOD8250580
_publ_section_title
;
Structure prediction by ZEFSAII (Michael W. Deem and Ramdas Pophale) SiO2 
 PCOD8250580
Probable space group: P N M A
;
_chemical_formula_sum "Si O2"
_cell_formula_units_Z 64
_cell_length_a 14.791925
_cell_length_b 13.258628
_cell_length_c 17.749330
_cell_angle_alpha 90.000000
_cell_angle_beta 90.000000
_cell_angle_gamma 90.000000
_cell_volume 3481.009799
_symmetry_space_group_name_H-M "P N M A"
_symmetry_group_IT_number 62
_symmetry_cell_setting 'orthorhombic'
loop_
_space_group_symop_operation_xyz
x,y,z
1/2-x,-y,1/2+z
1/2+x,1/2-y,1/2-z
-x,1/2+y,-z
-x,-y,-z
1/2+x,y,1/2-z
1/2-x,1/2+y,1/2+z
x,1/2-y,z
loop_
_atom_site_type_symbol
_atom_site_label
_atom_site_fract_x
_atom_site_fract_y
_atom_site_fract_z
Si Si1 0.539491 0.539336 0.394185
Si Si2 0.226622 0.552742 0.438714
Si Si3 0.533739 0.632980 0.078365
Si Si4 0.786522 0.363177 0.871396
Si Si5 0.783722 0.634839 0.215817
Si Si6 0.510056 0.133393 0.756020
Si Si7 0.644953 0.364593 0.993548
Si Si8 0.904623 0.631114 0.992013
O O1 0.638553 0.577397 0.419332
O O2 0.532989 0.556782 0.304958
O O3 0.542687 0.422702 0.421974
O O4 0.458760 0.602477 0.432222
O O5 0.134161 0.614536 0.452374
O O6 0.264815 0.562688 0.354441
O O7 0.201466 0.435182 0.449671
O O8 0.300874 0.594618 0.497672
O O9 0.512312 0.750000 0.085658
O O10 0.521755 0.589465 0.163096
O O11 0.457529 0.593485 0.018876
O O12 0.821362 0.250000 0.870569
O O13 0.780298 0.399819 0.784552
O O14 0.689688 0.371737 0.911086
O O15 0.763392 0.750000 0.190281
O O16 0.883368 0.625315 0.247957
O O17 0.478282 0.250000 0.743482
O O18 0.648182 0.250000 0.025399
O O19 0.907015 0.750000 0.977747
#
# Coordination Sequence:
#
# PCOD8250580 Si02
#       8
#     8   8   8   8   8   8   8   8
#     4  11  21  34  52  77 107 146 178 216 278 327
#     4  12  21  35  55  85 113 149 182 223 283 330
#     4  10  20  35  58  85 112 142 181 232 285 328
#     4  10  18  33  55  79 107 140 179 222 274 327
#     4  10  19  32  55  83 113 140 176 235 284 327
#     4  10  18  32  55  83 111 138 175 230 284 332
#     4  10  21  37  55  82 113 144 185 227 270 332
#     4  11  23  36  51  78 112 142 183 226 265 328
#
# _framework density 18.385469000000001
#
# number of rings (size 3 to 8) (size 9 to 14) (size 15 to 20)
#    0.000    1.500    3.750    3.375    0.000    2.000 
#    0.000    0.000    0.000    3.000    0.000    1.750 
#    0.000    0.000    0.000    0.000    0.000    0.000 
#
# Total GULP energy -793201.956111 kJ/mol
# GULP energy per Si atom -12393.780564 kJ/mol
# Density = 1.834362 g / cm^3
# Si number density = 18.385469 Si / 1000 Ang^3
#
#
#
# Elastic Constant Matrix: (Units=GPa)
#
#
# Indices 1 2 3 4 5 6 
#
# 1 95.8251 33.3069 19.7919 0.0000 0.0000 0.0000
# 2 33.3069 89.4387 41.0866 0.0000 0.0000 0.0000
# 3 19.7919 41.0866 62.9640 0.0000 0.0000 0.0000
# 4 0.0000 0.0000 0.0000 22.1512 0.0000 0.0000
# 5 0.0000 0.0000 0.0000 0.0000 26.7589 0.0000
# 6 0.0000 0.0000 0.0000 0.0000 0.0000 26.4129
#
#
#
# Elastic Compliance Matrix: (Units=1/GPa)
#
#
# Indices 1 2 3 4 5 6 
#
# 1 0.012053 -0.003925 -0.001228 0.000000 0.000000 0.000000
# 2 -0.003925 0.017245 -0.010020 0.000000 0.000000 0.000000
# 3 -0.001228 -0.010020 0.022806 0.000000 0.000000 0.000000
# 4 0.000000 0.000000 0.000000 0.045144 0.000000 0.000000
# 5 0.000000 0.000000 0.000000 0.000000 0.037371 0.000000
# 6 0.000000 0.000000 0.000000 0.000000 0.000000 0.037860
#
#
# Mechanical properties :
#
#
# Convention : Reuss Voigt Hill
#
# Bulk Modulus (GPa) = 45.95425 48.51095 47.23260
# Shear Modulus (GPa) = 23.80072 25.33409 24.56741
#
# Velocity S-wave (km/s) = 3.60187 3.71609 3.65943
# Velocity P-wave (km/s) = 6.50747 6.69740 6.60312
#
# Compressibility (1/GPa) = 0.02176077
#
# Stress axis : x y z
#
# Youngs Moduli (GPa) = 82.96411 57.98729 43.84776
#
# Poissons Ratio (x) = 0.22758 0.05384
# Poissons Ratio (y) = 0.32560 0.43933
# Poissons Ratio (z) = 0.10187 0.58100
#
# Static dielectric constant tensor:
#      x y z
#    x 3.659260 0.000000 0.000000 
#    y 0.000000 3.187580 0.000000 
#    z 0.000000 0.000000 3.273670 
# 
# 
# High freq. dielectric constant tensor:
#      x y z
#    x 1.741880 0.000000 0.000000 
#    y 0.000000 1.678240 0.000000 
#    z 0.000000 0.000000 1.694290 
# 
# From -- ./inp_files/24105.got.cif
#   From: 2010.03.12/outbox.cif.g09.slc.cpg/sg62_13_cif.got.tgz:24105.got - 2010.04.10 19:12:36.
