data_PCOD8250663
_publ_section_title
;
Structure prediction by ZEFSAII (Michael W. Deem and Ramdas Pophale) SiO2 
 PCOD8250663
Probable space group: P N M A
;
_chemical_formula_sum "Si O2"
_cell_formula_units_Z 56
_cell_length_a 19.196778
_cell_length_b 8.490446
_cell_length_c 19.228157
_cell_angle_alpha 90.000000
_cell_angle_beta 90.000000
_cell_angle_gamma 90.000000
_cell_volume 3133.982061
_symmetry_space_group_name_H-M "P N M A"
_symmetry_group_IT_number 62
_symmetry_cell_setting 'orthorhombic'
loop_
_space_group_symop_operation_xyz
x,y,z
1/2-x,-y,1/2+z
1/2+x,1/2-y,1/2-z
-x,1/2+y,-z
-x,-y,-z
1/2+x,y,1/2-z
1/2-x,1/2+y,1/2+z
x,1/2-y,z
loop_
_atom_site_type_symbol
_atom_site_label
_atom_site_fract_x
_atom_site_fract_y
_atom_site_fract_z
Si Si1 0.652042 0.066752 0.224511
Si Si2 0.637367 0.564741 0.733590
Si Si3 0.291467 0.433194 0.517712
Si Si4 0.244630 0.067412 0.668314
Si Si5 0.484079 0.936456 0.702284
Si Si6 0.941868 0.562689 0.949004
Si Si7 0.742436 0.432006 0.625727
O O1 0.656308 0.250000 0.206020
O O2 0.572567 0.013579 0.239485
O O3 0.696746 0.036540 0.294038
O O4 0.682289 0.969181 0.159581
O O5 0.636505 0.750000 0.747494
O O6 0.669246 0.478367 0.801052
O O7 0.559623 0.496234 0.723050
O O8 0.682624 0.530926 0.664750
O O9 0.292342 0.250000 0.499760
O O10 0.246232 0.469620 0.586474
O O11 0.369511 0.491164 0.526757
O O12 0.254489 0.524571 0.455021
O O13 0.260484 0.250000 0.683319
O O14 0.488283 0.750000 0.696183
O O15 0.460359 0.002666 0.627560
O O16 0.937527 0.750000 0.951540
O O17 0.000000 0.500000 0.000000
O O18 0.724805 0.250000 0.635478
#
# Coordination Sequence:
#
# PCOD8250663 Si02
#       7
#     8   8   8   8   8   8   8
#     4  10  18  34  56  76 102 138 177 217 263 316
#     4  10  19  34  55  78 107 141 176 215 261 319
#     4  11  22  36  53  75 105 142 180 221 269 316
#     4  10  20  34  52  77 105 135 178 224 264 312
#     4   9  19  33  52  77 105 138 176 213 257 315
#     4  11  21  34  51  77 112 146 180 214 261 322
#     4  11  22  35  52  78 107 137 177 222 266 317
#
# _framework density 17.868639999999999
#
# number of rings (size 3 to 8) (size 9 to 14) (size 15 to 20)
#    0.000    1.714    1.429    6.000    0.000    2.857 
#    0.000    5.000    0.000    0.857    0.000    0.000 
#    0.000    0.000    0.000    0.000    0.000    0.000 
#
# Total GULP energy -694495.353842 kJ/mol
# GULP energy per Si atom -12401.702747 kJ/mol
# Density = 1.782797 g / cm^3
# Si number density = 17.868640 Si / 1000 Ang^3
#
#
#
# Elastic Constant Matrix: (Units=GPa)
#
#
# Indices 1 2 3 4 5 6 
#
# 1 80.1534 9.0305 54.6434 0.0000 0.0000 0.0000
# 2 9.0305 36.4449 19.8865 0.0000 0.0000 0.0000
# 3 54.6434 19.8865 121.8885 0.0000 0.0000 0.0000
# 4 0.0000 0.0000 0.0000 29.1744 0.0000 0.0000
# 5 0.0000 0.0000 0.0000 0.0000 25.5511 0.0000
# 6 0.0000 0.0000 0.0000 0.0000 0.0000 20.2565
#
#
#
# Elastic Compliance Matrix: (Units=1/GPa)
#
#
# Indices 1 2 3 4 5 6 
#
# 1 0.017968 -0.000062 -0.008045 0.000000 0.000000 0.000000
# 2 -0.000062 0.030120 -0.004886 0.000000 0.000000 0.000000
# 3 -0.008045 -0.004886 0.012608 0.000000 0.000000 0.000000
# 4 0.000000 0.000000 0.000000 0.034277 0.000000 0.000000
# 5 0.000000 0.000000 0.000000 0.000000 0.039137 0.000000
# 6 0.000000 0.000000 0.000000 0.000000 0.000000 0.049367
#
#
# Mechanical properties :
#
#
# Convention : Reuss Voigt Hill
#
# Bulk Modulus (GPa) = 28.81101 45.06753 36.93927
# Shear Modulus (GPa) = 22.62106 25.32484 23.97295
#
# Velocity S-wave (km/s) = 3.56190 3.76876 3.66679
# Velocity P-wave (km/s) = 5.75108 6.64939 6.21648
#
# Compressibility (1/GPa) = 0.03470896
#
# Stress axis : x y z
#
# Youngs Moduli (GPa) = 55.65601 33.20015 79.31495
#
# Poissons Ratio (x) = 0.00207 0.63807
# Poissons Ratio (y) = 0.00347 0.38755
# Poissons Ratio (z) = 0.44774 0.16223
#
# Static dielectric constant tensor:
#      x y z
#    x 3.454380 0.000000 0.000000 
#    y 0.000000 3.321730 0.000000 
#    z 0.000000 0.000000 3.425900 
# 
# 
# High freq. dielectric constant tensor:
#      x y z
#    x 1.682240 0.000000 0.000000 
#    y 0.000000 1.695580 0.000000 
#    z 0.000000 0.000000 1.684980 
# 
# From -- ./inp_files/24650.got.cif
#   From: 2010.03.12/outbox.cif.g09.slc.cpg/sg62_13_cif.got.tgz:24650.got - 2010.04.10 19:12:36.
