data_PCOD8250161
_publ_section_title
;
Structure prediction by ZEFSAII (Michael W. Deem and Ramdas Pophale) SiO2 
 PCOD8250161
Probable space group: P N M A
;
_chemical_formula_sum "Si O2"
_cell_formula_units_Z 64
_cell_length_a 26.362399
_cell_length_b 8.682887
_cell_length_c 18.478908
_cell_angle_alpha 90.000000
_cell_angle_beta 90.000000
_cell_angle_gamma 90.000000
_cell_volume 4229.854039
_symmetry_space_group_name_H-M "P N M A"
_symmetry_group_IT_number 62
_symmetry_cell_setting 'orthorhombic'
loop_
_space_group_symop_operation_xyz
x,y,z
1/2-x,-y,1/2+z
1/2+x,1/2-y,1/2-z
-x,1/2+y,-z
-x,-y,-z
1/2+x,y,1/2-z
1/2-x,1/2+y,1/2+z
x,1/2-y,z
loop_
_atom_site_type_symbol
_atom_site_label
_atom_site_fract_x
_atom_site_fract_y
_atom_site_fract_z
Si Si1 0.244163 0.567576 0.428360
Si Si2 0.942822 0.428733 0.581655
Si Si3 0.549461 0.570265 0.915505
Si Si4 0.651800 0.069629 0.153634
Si Si5 0.799312 0.420411 0.785111
Si Si6 0.241679 0.569593 0.592802
Si Si7 0.643988 0.065641 0.837110
Si Si8 0.804818 0.918536 0.199223
O O1 0.240153 0.750000 0.415039
O O2 0.190448 0.497620 0.405510
O O3 0.256641 0.527297 0.510741
O O4 0.290260 0.499223 0.377243
O O5 0.933942 0.250000 0.598500
O O6 0.933469 0.465972 0.497291
O O7 0.904678 0.529396 0.628841
O O8 0.999421 0.475226 0.604489
O O9 0.538357 0.750000 0.905067
O O10 0.592942 0.515648 0.861532
O O11 0.659691 0.250000 0.157290
O O12 0.659532 0.003133 0.234323
O O13 0.819226 0.250000 0.805889
O O14 0.789163 0.517542 0.858108
O O15 0.747373 0.406232 0.742351
O O16 0.231473 0.750000 0.602851
O O17 0.190042 0.480142 0.610582
O O18 0.638703 0.250000 0.838468
O O19 0.655342 0.002252 0.754707
O O20 0.826704 0.750000 0.181538
#
# Coordination Sequence:
#
# PCOD8250161 Si02
#       8
#     8   8   8   8   8   8   8   8
#     4   9  17  29  43  60  86 117 145 175 212 251
#     4  10  20  33  46  60  82 112 143 175 215 258
#     4  10  20  32  45  62  84 109 141 182 218 248
#     4  11  20  29  44  64  85 111 146 181 212 251
#     4   9  17  30  44  58  82 113 142 174 214 256
#     4  10  18  27  42  64  87 112 145 181 213 248
#     4  10  18  28  43  60  82 115 148 175 210 256
#     4   7  13  26  41  56  76 107 142 170 200 243
#
# _framework density 15.130546000000001
#
# number of rings (size 3 to 8) (size 9 to 14) (size 15 to 20)
#    0.000    2.500    0.000    5.250    0.000    5.500 
#    0.000    0.625    0.000    0.000    0.000    0.000 
#    0.000    1.000    0.000    2.750    0.000    4.000 
#
# Total GULP energy -793182.839785 kJ/mol
# GULP energy per Si atom -12393.481872 kJ/mol
# Density = 1.509611 g / cm^3
# Si number density = 15.130546 Si / 1000 Ang^3
#
#
#
# Elastic Constant Matrix: (Units=GPa)
#
#
# Indices 1 2 3 4 5 6 
#
# 1 61.7263 12.6579 42.0607 0.0000 0.0000 0.0000
# 2 12.6579 45.6472 22.0472 0.0000 0.0000 0.0000
# 3 42.0607 22.0472 99.8816 0.0000 0.0000 0.0000
# 4 0.0000 0.0000 0.0000 21.1998 0.0000 0.0000
# 5 0.0000 0.0000 0.0000 0.0000 25.1016 0.0000
# 6 0.0000 0.0000 0.0000 0.0000 0.0000 23.1586
#
#
#
# Elastic Compliance Matrix: (Units=1/GPa)
#
#
# Indices 1 2 3 4 5 6 
#
# 1 0.022865 -0.001892 -0.009211 0.000000 0.000000 0.000000
# 2 -0.001892 0.024678 -0.004651 0.000000 0.000000 0.000000
# 3 -0.009211 -0.004651 0.014917 0.000000 0.000000 0.000000
# 4 0.000000 0.000000 0.000000 0.047170 0.000000 0.000000
# 5 0.000000 0.000000 0.000000 0.000000 0.039838 0.000000
# 6 0.000000 0.000000 0.000000 0.000000 0.000000 0.043181
#
#
# Mechanical properties :
#
#
# Convention : Reuss Voigt Hill
#
# Bulk Modulus (GPa) = 32.30651 40.08740 36.19696
# Shear Modulus (GPa) = 21.32440 22.59129 21.95784
#
# Velocity S-wave (km/s) = 3.75822 3.86825 3.81363
# Velocity P-wave (km/s) = 6.34275 6.81931 6.58534
#
# Compressibility (1/GPa) = 0.03095351
#
# Stress axis : x y z
#
# Youngs Moduli (GPa) = 43.73523 40.52213 67.03668
#
# Poissons Ratio (x) = 0.07665 0.61747
# Poissons Ratio (y) = 0.08273 0.31177
# Poissons Ratio (z) = 0.40284 0.18846
#
# Static dielectric constant tensor:
#      x y z
#    x 2.726790 0.000000 0.000000 
#    y 0.000000 2.959820 0.000000 
#    z 0.000000 0.000000 3.165010 
# 
# 
# High freq. dielectric constant tensor:
#      x y z
#    x 1.544900 0.000000 0.000000 
#    y 0.000000 1.585150 0.000000 
#    z 0.000000 0.000000 1.572850 
# 
# From -- ./inp_files/24980.got.cif
#   From: 2010.03.12/outbox.cif.g09.slc.cpg/sg62_13_cif.got.tgz:24980.got - 2010.04.10 19:12:36.
