data_PCOD8250015
_publ_section_title
;
Structure prediction by ZEFSAII (Michael W. Deem and Ramdas Pophale) SiO2 
 PCOD8250015
Probable space group: P N M A
;
_chemical_formula_sum "Si O2"
_cell_formula_units_Z 64
_cell_length_a 9.708623
_cell_length_b 13.498243
_cell_length_c 28.061729
_cell_angle_alpha 90.000000
_cell_angle_beta 90.000000
_cell_angle_gamma 90.000000
_cell_volume 3677.471414
_symmetry_space_group_name_H-M "P N M A"
_symmetry_group_IT_number 62
_symmetry_cell_setting 'orthorhombic'
loop_
_space_group_symop_operation_xyz
x,y,z
1/2-x,-y,1/2+z
1/2+x,1/2-y,1/2-z
-x,1/2+y,-z
-x,-y,-z
1/2+x,y,1/2-z
1/2-x,1/2+y,1/2+z
x,1/2-y,z
loop_
_atom_site_type_symbol
_atom_site_label
_atom_site_fract_x
_atom_site_fract_y
_atom_site_fract_z
Si Si1 0.705024 0.865813 0.775647
Si Si2 0.321721 0.135162 0.566166
Si Si3 0.001649 0.132239 0.403912
Si Si4 0.989123 0.138069 0.076088
Si Si5 0.228851 0.053781 0.465913
Si Si6 0.884084 0.861153 0.027024
Si Si7 0.772577 0.542785 0.873433
Si Si8 0.406761 0.636759 0.802534
O O1 0.744064 0.750000 0.786911
O O2 0.752051 0.939313 0.817628
O O3 0.777538 0.905805 0.727306
O O4 0.541538 0.875935 0.769284
O O5 0.286874 0.250000 0.574682
O O6 0.246324 0.099321 0.518187
O O7 0.486570 0.118373 0.561895
O O8 0.263651 0.072967 0.611228
O O9 0.015952 0.250000 0.409350
O O10 0.074438 0.076543 0.447963
O O11 0.068813 0.089171 0.354635
O O12 0.840017 0.105171 0.403777
O O13 0.989995 0.250000 0.093144
O O14 0.073181 0.077485 0.115002
O O15 0.831314 0.104495 0.072186
O O16 0.061306 0.120796 0.025724
O O17 0.258302 0.936065 0.464239
O O18 0.827208 0.750000 0.034025
O O19 0.375788 0.750000 0.813164
#
# Coordination Sequence:
#
# PCOD8250015 Si02
#       8
#     8   8   8   8   8   8   8   8
#     4   9  17  30  49  70  97 125 153 191 239 296
#     4  10  19  33  50  70  99 130 167 213 247 277
#     4  10  21  33  47  70 107 136 153 196 250 293
#     4  10  17  28  48  69  91 122 170 206 228 276
#     4  11  18  33  48  71  96 135 173 199 242 287
#     4   9  17  31  49  68  95 129 163 211 251 269
#     4  11  19  32  48  71  99 131 164 194 243 294
#     4   8  16  31  46  67  97 126 152 189 241 288
#
# _framework density 17.403262999999999
#
# number of rings (size 3 to 8) (size 9 to 14) (size 15 to 20)
#    0.000    2.250    2.500    4.500    0.000    1.500 
#    0.000    3.125    0.000    0.000    0.000    4.375 
#    0.000    0.000    0.000    0.000    0.000    0.000 
#
# Total GULP energy -793268.105311 kJ/mol
# GULP energy per Si atom -12394.814145 kJ/mol
# Density = 1.736365 g / cm^3
# Si number density = 17.403263 Si / 1000 Ang^3
#
#
#
# Elastic Constant Matrix: (Units=GPa)
#
#
# Indices 1 2 3 4 5 6 
#
# 1 17.9000 -0.6097 -1.4429 0.0000 0.0000 0.0000
# 2 -0.6097 73.6578 15.2420 0.0000 0.0000 0.0000
# 3 -1.4429 15.2420 27.6382 0.0000 0.0000 0.0000
# 4 0.0000 0.0000 0.0000 20.9463 0.0000 0.0000
# 5 0.0000 0.0000 0.0000 0.0000 29.9060 0.0000
# 6 0.0000 0.0000 0.0000 0.0000 0.0000 23.9179
#
#
#
# Elastic Compliance Matrix: (Units=1/GPa)
#
#
# Indices 1 2 3 4 5 6 
#
# 1 0.056104 -0.000160 0.003017 0.000000 0.000000 0.000000
# 2 -0.000160 0.015326 -0.008460 0.000000 0.000000 0.000000
# 3 0.003017 -0.008460 0.041005 0.000000 0.000000 0.000000
# 4 0.000000 0.000000 0.000000 0.047741 0.000000 0.000000
# 5 0.000000 0.000000 0.000000 0.000000 0.033438 0.000000
# 6 0.000000 0.000000 0.000000 0.000000 0.000000 0.041810
#
#
# Mechanical properties :
#
#
# Convention : Reuss Voigt Hill
#
# Bulk Modulus (GPa) = 9.87867 16.17498 13.02682
# Shear Modulus (GPa) = 17.83347 22.02116 19.92732
#
# Velocity S-wave (km/s) = 3.20460 3.56103 3.38751
# Velocity P-wave (km/s) = 4.40241 5.12077 4.77512
#
# Compressibility (1/GPa) = 0.10122825
#
# Stress axis : x y z
#
# Youngs Moduli (GPa) = 17.82417 65.25015 24.38731
#
# Poissons Ratio (x) = 0.01043 -0.07358
# Poissons Ratio (y) = 0.00285 0.20632
# Poissons Ratio (z) = -0.05378 0.55203
#
# Static dielectric constant tensor:
#      x y z
#    x 3.260330 0.000000 0.000000 
#    y 0.000000 3.153740 0.000000 
#    z 0.000000 0.000000 3.136220 
# 
# 
# High freq. dielectric constant tensor:
#      x y z
#    x 1.668300 0.000000 0.000000 
#    y 0.000000 1.648150 0.000000 
#    z 0.000000 0.000000 1.644900 
# 
# From -- ./inp_files/32323.got.cif
#   From: 2010.03.12/outbox.cif.g09.slc.cpg/sg62_17_cif.got.tgz:32323.got - 2010.04.10 19:12:36.
