data_PCOD8250332
_publ_section_title
;
Structure prediction by ZEFSAII (Michael W. Deem and Ramdas Pophale) SiO2 
 PCOD8250332
Probable space group: P N M A
;
_chemical_formula_sum "Si O2"
_cell_formula_units_Z 56
_cell_length_a 8.705794
_cell_length_b 29.135277
_cell_length_c 13.669740
_cell_angle_alpha 90.000000
_cell_angle_beta 90.000000
_cell_angle_gamma 90.000000
_cell_volume 3467.271040
_symmetry_space_group_name_H-M "P N M A"
_symmetry_group_IT_number 62
_symmetry_cell_setting 'orthorhombic'
loop_
_space_group_symop_operation_xyz
x,y,z
1/2-x,-y,1/2+z
1/2+x,1/2-y,1/2-z
-x,1/2+y,-z
-x,-y,-z
1/2+x,y,1/2-z
1/2-x,1/2+y,1/2+z
x,1/2-y,z
loop_
_atom_site_type_symbol
_atom_site_label
_atom_site_fract_x
_atom_site_fract_y
_atom_site_fract_z
Si Si1 0.818942 0.157508 0.143429
Si Si2 0.819630 0.520883 0.352622
Si Si3 0.178738 0.520883 0.351809
Si Si4 0.318919 0.842500 0.642520
Si Si5 0.817743 0.750000 0.642240
Si Si6 0.181272 0.571195 0.545643
Si Si7 0.316840 0.250000 0.141218
Si Si8 0.819197 0.571198 0.546449
O O1 0.750790 0.148048 0.250650
O O2 0.746723 0.203369 0.093344
O O3 0.778096 0.115731 0.072781
O O4 0.000077 0.163407 0.152959
O O5 0.748516 0.536573 0.250595
O O6 0.762221 0.470450 0.385068
O O7 0.777843 0.558384 0.434774
O O8 0.999117 0.518162 0.339441
O O9 0.221419 0.558388 0.433781
O O10 0.236532 0.470445 0.383987
O O11 0.278929 0.884286 0.571661
O O12 0.247014 0.796658 0.592097
O O13 0.751462 0.750000 0.750748
O O14 0.000451 0.750000 0.640837
O O15 0.000304 0.580585 0.559101
#
# Coordination Sequence:
#
# PCOD8250332 Si02
#       8
#     8   8   8   8   4   8   4   8
#     4  11  20  30  45  67  93 121 151 186 223 267
#     4   9  18  31  47  65  91 121 153 190 226 263
#     4   9  18  31  47  65  91 121 153 190 226 263
#     4  11  20  30  45  67  93 121 151 186 223 267
#     4  10  18  30  46  64  89 120 149 182 222 268
#     4   9  18  32  46  65  91 122 154 186 224 267
#     4  10  18  30  46  64  89 120 149 182 222 268
#     4   9  18  32  46  65  91 122 154 186 224 267
#
# _framework density 16.151031
#
# number of rings (size 3 to 8) (size 9 to 14) (size 15 to 20)
#    0.000    2.286    0.000    8.143    0.000    4.571 
#    0.000    2.857    0.000    0.000    0.000    1.000 
#    0.000    0.000    0.000    0.000    0.000    0.000 
#
# Total GULP energy -694251.862837 kJ/mol
# GULP energy per Si atom -12397.354694 kJ/mol
# Density = 1.611427 g / cm^3
# Si number density = 16.151031 Si / 1000 Ang^3
#
#
#
# Elastic Constant Matrix: (Units=GPa)
#
#
# Indices 1 2 3 4 5 6 
#
# 1 101.6754 56.2176 33.8280 0.0000 0.0000 0.0000
# 2 56.2176 129.9573 45.7249 0.0000 0.0000 0.0000
# 3 33.8280 45.7249 89.2595 0.0000 0.0000 0.0000
# 4 0.0000 0.0000 0.0000 9.7506 0.0000 0.0000
# 5 0.0000 0.0000 0.0000 0.0000 25.7062 0.0000
# 6 0.0000 0.0000 0.0000 0.0000 0.0000 28.8261
#
#
#
# Elastic Compliance Matrix: (Units=1/GPa)
#
#
# Indices 1 2 3 4 5 6 
#
# 1 0.013394 -0.004889 -0.002572 0.000000 0.000000 0.000000
# 2 -0.004889 0.011171 -0.003870 0.000000 0.000000 0.000000
# 3 -0.002572 -0.003870 0.014160 0.000000 0.000000 0.000000
# 4 0.000000 0.000000 0.000000 0.102557 0.000000 0.000000
# 5 0.000000 0.000000 0.000000 0.000000 0.038901 0.000000
# 6 0.000000 0.000000 0.000000 0.000000 0.000000 0.034691
#
#
# Mechanical properties :
#
#
# Convention : Reuss Voigt Hill
#
# Bulk Modulus (GPa) = 62.24897 65.82590 64.03743
# Shear Modulus (GPa) = 20.58534 25.19804 22.89169
#
# Velocity S-wave (km/s) = 3.57396 3.95416 3.76886
# Velocity P-wave (km/s) = 7.46032 7.85443 7.65991
#
# Compressibility (1/GPa) = 0.01606452
#
# Stress axis : x y z
#
# Youngs Moduli (GPa) = 74.65944 89.51379 70.62022
#
# Poissons Ratio (x) = 0.43766 0.18160
# Poissons Ratio (y) = 0.36503 0.27329
# Poissons Ratio (z) = 0.19199 0.34640
#
# Static dielectric constant tensor:
#      x y z
#    x 3.006800 0.000000 0.000000 
#    y 0.000000 3.449690 0.000000 
#    z 0.000000 0.000000 2.591680 
# 
# 
# High freq. dielectric constant tensor:
#      x y z
#    x 1.627720 0.000000 0.000000 
#    y 0.000000 1.624410 0.000000 
#    z 0.000000 0.000000 1.586130 
# 
# From -- ./inp_files/17425.got.cif
#   From: 2010.03.12/outbox.cif.g09.slc.cpg/sg62_9_cif.got.tgz:17425.got - 2010.04.10 19:12:36.
