data_PCOD8250878
_publ_section_title
;
Structure prediction by ZEFSAII (Michael W. Deem and Ramdas Pophale) SiO2 
 PCOD8250878
Probable space group: P N M A
;
_chemical_formula_sum "Si O2"
_cell_formula_units_Z 64
_cell_length_a 20.329231
_cell_length_b 9.344579
_cell_length_c 19.411051
_cell_angle_alpha 90.000000
_cell_angle_beta 90.000000
_cell_angle_gamma 90.000000
_cell_volume 3687.480576
_symmetry_space_group_name_H-M "P N M A"
_symmetry_group_IT_number 62
_symmetry_cell_setting 'orthorhombic'
loop_
_space_group_symop_operation_xyz
x,y,z
1/2-x,-y,1/2+z
1/2+x,1/2-y,1/2-z
-x,1/2+y,-z
-x,-y,-z
1/2+x,y,1/2-z
1/2-x,1/2+y,1/2+z
x,1/2-y,z
loop_
_atom_site_type_symbol
_atom_site_label
_atom_site_fract_x
_atom_site_fract_y
_atom_site_fract_z
Si Si1 0.693994 0.919274 0.712876
Si Si2 0.915835 0.912250 0.291483
Si Si3 0.326204 0.584829 0.709871
Si Si4 0.726751 0.088532 0.583713
Si Si5 0.264324 0.914174 0.568343
Si Si6 0.881108 0.085783 0.569970
Si Si7 0.934960 0.083332 0.713635
Si Si8 0.866616 0.585791 0.439446
O O1 0.687816 0.750000 0.710144
O O2 0.761315 0.968760 0.749736
O O3 0.632571 0.977903 0.755212
O O4 0.691315 0.980386 0.635558
O O5 0.896163 0.750000 0.271117
O O6 0.914279 0.929075 0.374043
O O7 0.989654 0.947360 0.267028
O O8 0.338962 0.750000 0.726764
O O9 0.317099 0.558525 0.628291
O O10 0.389890 0.497190 0.731565
O O11 0.708704 0.250000 0.605815
O O12 0.701832 0.056040 0.505822
O O13 0.804542 0.064550 0.585889
O O14 0.238329 0.750000 0.570534
O O15 0.202648 0.015954 0.580685
O O16 0.898261 0.250000 0.553391
O O17 0.920681 0.028673 0.636148
O O18 0.901355 0.992369 0.503776
O O19 0.917238 0.250000 0.717877
O O20 0.854216 0.750000 0.459631
#
# Coordination Sequence:
#
# PCOD8250878 Si02
#       8
#     8   8   8   8   8   8   8   8
#     4  11  21  33  54  80 107 136 171 218 264 306
#     4  10  22  37  52  74 106 142 180 217 257 309
#     4  10  20  34  54  80 107 134 171 219 266 309
#     4   9  17  31  53  77 103 136 171 209 255 311
#     4   9  18  34  53  76 105 137 170 209 262 314
#     4   9  18  32  50  72 103 142 177 209 254 309
#     4  10  21  37  54  74 104 143 181 215 257 312
#     4  10  19  30  48  75 105 137 176 217 252 296
#
# _framework density 17.356023
#
# number of rings (size 3 to 8) (size 9 to 14) (size 15 to 20)
#    0.000    2.250    2.500    1.500    0.000    5.000 
#    0.000    0.000    0.000    0.750    0.000    0.000 
#    0.000    0.000    0.000    0.000    0.000    0.000 
#
# Total GULP energy -793676.100102 kJ/mol
# GULP energy per Si atom -12401.189064 kJ/mol
# Density = 1.731652 g / cm^3
# Si number density = 17.356023 Si / 1000 Ang^3
#
#
#
# Elastic Constant Matrix: (Units=GPa)
#
#
# Indices 1 2 3 4 5 6 
#
# 1 61.3719 34.2273 35.7294 0.0000 0.0000 0.0000
# 2 34.2273 74.9981 45.9896 0.0000 0.0000 0.0000
# 3 35.7294 45.9896 103.4075 0.0000 0.0000 0.0000
# 4 0.0000 0.0000 0.0000 33.0282 0.0000 0.0000
# 5 0.0000 0.0000 0.0000 0.0000 22.9621 0.0000
# 6 0.0000 0.0000 0.0000 0.0000 0.0000 22.3920
#
#
#
# Elastic Compliance Matrix: (Units=1/GPa)
#
#
# Indices 1 2 3 4 5 6 
#
# 1 0.023331 -0.007843 -0.004573 0.000000 0.000000 0.000000
# 2 -0.007843 0.020970 -0.006616 0.000000 0.000000 0.000000
# 3 -0.004573 -0.006616 0.014193 0.000000 0.000000 0.000000
# 4 0.000000 0.000000 0.000000 0.030277 0.000000 0.000000
# 5 0.000000 0.000000 0.000000 0.000000 0.043550 0.000000
# 6 0.000000 0.000000 0.000000 0.000000 0.000000 0.044659
#
#
# Mechanical properties :
#
#
# Convention : Reuss Voigt Hill
#
# Bulk Modulus (GPa) = 48.95047 52.40777 50.67912
# Shear Modulus (GPa) = 22.53725 23.93188 23.23457
#
# Velocity S-wave (km/s) = 3.60742 3.71736 3.66280
# Velocity P-wave (km/s) = 6.75398 6.97755 6.86668
#
# Compressibility (1/GPa) = 0.02042881
#
# Stress axis : x y z
#
# Youngs Moduli (GPa) = 42.86210 47.68630 70.45684
#
# Poissons Ratio (x) = 0.37402 0.32220
# Poissons Ratio (y) = 0.33618 0.46617
# Poissons Ratio (z) = 0.19601 0.31551
#
# Static dielectric constant tensor:
#      x y z
#    x 2.911990 0.000000 0.000000 
#    y 0.000000 3.231190 0.000000 
#    z 0.000000 0.000000 3.383650 
# 
# 
# High freq. dielectric constant tensor:
#      x y z
#    x 1.638130 0.000000 0.000000 
#    y 0.000000 1.672180 0.000000 
#    z 0.000000 0.000000 1.676140 
# 
# From -- ./inp_files/27646.got.cif
#   From: 2010.03.12/outbox.cif.g09.slc.cpg/sg62_14_cif.got.tgz:27646.got - 2010.04.10 19:12:36.
