data_PCOD8250039
_publ_section_title
;
Structure prediction by ZEFSAII (Michael W. Deem and Ramdas Pophale) SiO2 
 PCOD8250039
Probable space group: P N M A
;
_chemical_formula_sum "Si O2"
_cell_formula_units_Z 64
_cell_length_a 8.599677
_cell_length_b 15.525933
_cell_length_c 22.956069
_cell_angle_alpha 90.000000
_cell_angle_beta 90.000000
_cell_angle_gamma 90.000000
_cell_volume 3065.048626
_symmetry_space_group_name_H-M "P N M A"
_symmetry_group_IT_number 62
_symmetry_cell_setting 'orthorhombic'
loop_
_space_group_symop_operation_xyz
x,y,z
1/2-x,-y,1/2+z
1/2+x,1/2-y,1/2-z
-x,1/2+y,-z
-x,-y,-z
1/2+x,y,1/2-z
1/2-x,1/2+y,1/2+z
x,1/2-y,z
loop_
_atom_site_type_symbol
_atom_site_label
_atom_site_fract_x
_atom_site_fract_y
_atom_site_fract_z
Si Si1 0.336893 0.151380 0.079546
Si Si2 0.080682 0.609029 0.453996
Si Si3 0.264573 0.345626 0.511437
Si Si4 0.602261 0.649374 0.370061
Si Si5 0.380027 0.993843 0.790670
Si Si6 0.150025 0.427635 0.408287
Si Si7 0.252852 0.844909 0.339507
Si Si8 0.764843 0.016358 0.326184
O O1 0.280212 0.250000 0.089576
O O2 0.520668 0.147371 0.094921
O O3 0.241599 0.084889 0.121309
O O4 0.315139 0.123971 0.011988
O O5 0.061443 0.509229 0.436862
O O6 0.166192 0.656934 0.401332
O O7 0.908475 0.645961 0.461917
O O8 0.291787 0.250000 0.489367
O O9 0.390807 0.368510 0.560493
O O10 0.288116 0.402919 0.452994
O O11 0.647865 0.750000 0.357217
O O12 0.430889 0.626248 0.348329
O O13 0.721921 0.582020 0.341536
O O14 0.328322 0.093843 0.791913
O O15 0.559639 0.983481 0.804261
O O16 0.340142 0.952320 0.728502
O O17 0.284114 0.948112 0.843912
O O18 0.245806 0.750000 0.312164
#
# Coordination Sequence:
#
# PCOD8250039 Si02
#       8
#     8   8   8   8   8   8   8   8
#     4  10  19  33  56  84 112 148 187 229 274 322
#     4  10  17  30  55  83 112 142 177 221 270 326
#     4  10  17  29  51  79 107 139 175 215 260 316
#     4  10  21  35  55  82 115 147 175 216 275 334
#     4  10  22  37  57  75 102 142 182 230 276 316
#     4   9  17  31  52  80 107 137 179 224 270 322
#     4  10  20  35  54  83 115 143 175 216 274 343
#     4  11  22  40  57  78 108 142 189 235 273 327
#
# _framework density 20.880582
#
# number of rings (size 3 to 8) (size 9 to 14) (size 15 to 20)
#    0.000    2.000    0.000    7.500    0.000    2.000 
#    0.000   10.000    0.000    0.000    0.000    7.875 
#    0.000    0.000    0.000    0.000    0.000    0.000 
#
# Total GULP energy -793167.068284 kJ/mol
# GULP energy per Si atom -12393.235442 kJ/mol
# Density = 2.083306 g / cm^3
# Si number density = 20.880582 Si / 1000 Ang^3
#
#
#
# Elastic Constant Matrix: (Units=GPa)
#
#
# Indices 1 2 3 4 5 6 
#
# 1 36.7771 10.4848 -4.9813 0.0000 0.0000 0.0000
# 2 10.4848 75.5367 22.1755 0.0000 0.0000 0.0000
# 3 -4.9813 22.1755 77.6469 0.0000 0.0000 0.0000
# 4 0.0000 0.0000 0.0000 21.4859 0.0000 0.0000
# 5 0.0000 0.0000 0.0000 0.0000 30.7846 0.0000
# 6 0.0000 0.0000 0.0000 0.0000 0.0000 18.5557
#
#
#
# Elastic Compliance Matrix: (Units=1/GPa)
#
#
# Indices 1 2 3 4 5 6 
#
# 1 0.029062 -0.005001 0.003293 0.000000 0.000000 0.000000
# 2 -0.005001 0.015311 -0.004693 0.000000 0.000000 0.000000
# 3 0.003293 -0.004693 0.014430 0.000000 0.000000 0.000000
# 4 0.000000 0.000000 0.000000 0.046542 0.000000 0.000000
# 5 0.000000 0.000000 0.000000 0.000000 0.032484 0.000000
# 6 0.000000 0.000000 0.000000 0.000000 0.000000 0.053892
#
#
# Mechanical properties :
#
#
# Convention : Reuss Voigt Hill
#
# Bulk Modulus (GPa) = 21.73886 27.25764 24.49825
# Shear Modulus (GPa) = 22.74198 24.98401 23.86300
#
# Velocity S-wave (km/s) = 3.30380 3.46283 3.38425
# Velocity P-wave (km/s) = 4.99871 5.39172 5.19893
#
# Compressibility (1/GPa) = 0.04600057
#
# Stress axis : x y z
#
# Youngs Moduli (GPa) = 34.40868 65.31440 69.29789
#
# Poissons Ratio (x) = 0.32661 -0.22817
# Poissons Ratio (y) = 0.17206 0.32524
# Poissons Ratio (z) = -0.11329 0.30655
#
# Static dielectric constant tensor:
#      x y z
#    x 3.392850 0.000000 0.000000 
#    y 0.000000 3.808650 0.000000 
#    z 0.000000 0.000000 4.126180 
# 
# 
# High freq. dielectric constant tensor:
#      x y z
#    x 1.781730 0.000000 0.000000 
#    y 0.000000 1.811620 0.000000 
#    z 0.000000 0.000000 1.824120 
# 
# From -- ./inp_files/29008.got.cif
#   From: 2010.03.12/outbox.cif.g09.slc.cpg/sg62_15_cif.got.tgz:29008.got - 2010.04.10 19:12:36.
