data_PCOD8250262
_publ_section_title
;
Structure prediction by ZEFSAII (Michael W. Deem and Ramdas Pophale) SiO2 
 PCOD8250262
Probable space group: P N M A
;
_chemical_formula_sum "Si O2"
_cell_formula_units_Z 56
_cell_length_a 18.506033
_cell_length_b 8.433082
_cell_length_c 20.907063
_cell_angle_alpha 90.000000
_cell_angle_beta 90.000000
_cell_angle_gamma 90.000000
_cell_volume 3262.816752
_symmetry_space_group_name_H-M "P N M A"
_symmetry_group_IT_number 62
_symmetry_cell_setting 'orthorhombic'
loop_
_space_group_symop_operation_xyz
x,y,z
1/2-x,-y,1/2+z
1/2+x,1/2-y,1/2-z
-x,1/2+y,-z
-x,-y,-z
1/2+x,y,1/2-z
1/2-x,1/2+y,1/2+z
x,1/2-y,z
loop_
_atom_site_type_symbol
_atom_site_label
_atom_site_fract_x
_atom_site_fract_y
_atom_site_fract_z
Si Si1 0.080105 0.933271 0.000977
Si Si2 0.862204 0.569195 0.125283
Si Si3 0.298941 0.428302 0.176642
Si Si4 0.069571 0.563627 0.748170
Si Si5 0.731297 0.569794 0.205516
Si Si6 0.656577 0.437594 0.377568
Si Si7 0.581605 0.568730 0.253445
O O1 0.078108 0.750000 0.019383
O O2 0.127159 0.026476 0.052675
O O3 0.117120 0.954370 0.932358
O O4 0.000000 0.000000 0.000000
O O5 0.879381 0.750000 0.105708
O O6 0.910429 0.527315 0.186872
O O7 0.776051 0.547598 0.139640
O O8 0.310272 0.250000 0.154175
O O9 0.379344 0.501540 0.188939
O O10 0.260623 0.438836 0.245736
O O11 0.240296 0.504619 0.127328
O O12 0.083867 0.750000 0.758110
O O13 0.986515 0.534051 0.730567
O O14 0.745064 0.750000 0.231425
O O15 0.644827 0.543100 0.200186
O O16 0.655515 0.250000 0.364695
O O17 0.607052 0.519546 0.324222
O O18 0.556863 0.750000 0.256439
#
# Coordination Sequence:
#
# PCOD8250262 Si02
#       7
#     8   8   8   8   8   8   8
#     4  12  24  36  48  66  91 122 155 188 221 262
#     4  10  19  33  49  66  89 121 155 189 224 264
#     4   8  16  29  46  65  88 116 149 184 223 266
#     4  10  18  29  45  69  96 122 149 183 224 268
#     4   8  16  29  46  65  88 116 149 184 223 266
#     4  10  19  33  49  66  89 121 155 189 224 264
#     4  10  18  29  45  69  96 122 149 183 224 268
#
# _framework density 17.163084000000001
#
# number of rings (size 3 to 8) (size 9 to 14) (size 15 to 20)
#    0.000    2.286    0.000    3.857    0.000    2.286 
#    0.000    0.000    0.000    0.000    0.000    1.000 
#    0.000    0.000    0.000    0.000    0.000    0.000 
#
# Total GULP energy -693733.931191 kJ/mol
# GULP energy per Si atom -12388.105914 kJ/mol
# Density = 1.712402 g / cm^3
# Si number density = 17.163084 Si / 1000 Ang^3
#
#
#
# Elastic Constant Matrix: (Units=GPa)
#
#
# Indices 1 2 3 4 5 6 
#
# 1 138.8917 15.8010 46.0177 0.0000 0.0000 0.0000
# 2 15.8010 42.0640 5.9693 0.0000 0.0000 0.0000
# 3 46.0177 5.9693 56.4701 0.0000 0.0000 0.0000
# 4 0.0000 0.0000 0.0000 19.3542 0.0000 0.0000
# 5 0.0000 0.0000 0.0000 0.0000 28.1947 0.0000
# 6 0.0000 0.0000 0.0000 0.0000 0.0000 20.8869
#
#
#
# Elastic Compliance Matrix: (Units=1/GPa)
#
#
# Indices 1 2 3 4 5 6 
#
# 1 0.010152 -0.002680 -0.007989 0.000000 0.000000 0.000000
# 2 -0.002680 0.024843 -0.000442 0.000000 0.000000 0.000000
# 3 -0.007989 -0.000442 0.024266 0.000000 0.000000 0.000000
# 4 0.000000 0.000000 0.000000 0.051668 0.000000 0.000000
# 5 0.000000 0.000000 0.000000 0.000000 0.035468 0.000000
# 6 0.000000 0.000000 0.000000 0.000000 0.000000 0.047877
#
#
# Mechanical properties :
#
#
# Convention : Reuss Voigt Hill
#
# Bulk Modulus (GPa) = 26.99978 41.44463 34.22221
# Shear Modulus (GPa) = 21.84914 24.99635 23.42275
#
# Velocity S-wave (km/s) = 3.57183 3.82042 3.69821
# Velocity P-wave (km/s) = 5.72504 6.60763 6.18211
#
# Compressibility (1/GPa) = 0.03703733
#
# Stress axis : x y z
#
# Youngs Moduli (GPa) = 98.50487 40.25337 41.21009
#
# Poissons Ratio (x) = 0.10786 0.32925
# Poissons Ratio (y) = 0.26396 0.01823
# Poissons Ratio (z) = 0.78700 0.01781
#
# Static dielectric constant tensor:
#      x y z
#    x 3.590910 0.000000 0.000000 
#    y 0.000000 3.252950 0.000000 
#    z 0.000000 0.000000 2.878740 
# 
# 
# High freq. dielectric constant tensor:
#      x y z
#    x 1.675690 0.000000 0.000000 
#    y 0.000000 1.669670 0.000000 
#    z 0.000000 0.000000 1.609110 
# 
# From -- ./inp_files/22609.got.cif
#   From: 2010.03.12/outbox.cif.g09.slc.cpg/sg62_12_cif.got.tgz:22609.got - 2010.04.10 19:12:36.
