data_PCOD8250151
_publ_section_title
;
Structure prediction by ZEFSAII (Michael W. Deem and Ramdas Pophale) SiO2 
 PCOD8250151
Probable space group: P N M A
;
_chemical_formula_sum "Si O2"
_cell_formula_units_Z 64
_cell_length_a 26.155366
_cell_length_b 9.163081
_cell_length_c 18.320699
_cell_angle_alpha 90.000000
_cell_angle_beta 90.000000
_cell_angle_gamma 90.000000
_cell_volume 4390.807191
_symmetry_space_group_name_H-M "P N M A"
_symmetry_group_IT_number 62
_symmetry_cell_setting 'orthorhombic'
loop_
_space_group_symop_operation_xyz
x,y,z
1/2-x,-y,1/2+z
1/2+x,1/2-y,1/2-z
-x,1/2+y,-z
-x,-y,-z
1/2+x,y,1/2-z
1/2-x,1/2+y,1/2+z
x,1/2-y,z
loop_
_atom_site_type_symbol
_atom_site_label
_atom_site_fract_x
_atom_site_fract_y
_atom_site_fract_z
Si Si1 0.440307 0.420946 0.425405
Si Si2 0.248525 0.079923 0.926158
Si Si3 0.856864 0.585420 0.156091
Si Si4 0.738834 0.582958 0.424715
Si Si5 0.294654 0.582279 0.801593
Si Si6 0.055803 0.081717 0.071457
Si Si7 0.211785 0.414035 0.719303
Si Si8 0.651901 0.417967 0.338791
O O1 0.432574 0.250000 0.431479
O O2 0.403502 0.479624 0.362130
O O3 0.498560 0.464326 0.405284
O O4 0.424433 0.490371 0.502456
O O5 0.258106 0.250000 0.935014
O O6 0.193429 0.044354 0.891020
O O7 0.293721 0.015222 0.874702
O O8 0.253317 0.007814 0.004687
O O9 0.873818 0.750000 0.137825
O O10 0.843900 0.567429 0.242787
O O11 0.728276 0.750000 0.446923
O O12 0.787268 0.571968 0.368594
O O13 0.688164 0.521968 0.386016
O O14 0.290919 0.750000 0.825642
O O15 0.246886 0.541169 0.750955
O O16 0.343656 0.552972 0.748744
O O17 0.056990 0.250000 0.047558
O O18 0.093286 0.050384 0.139221
O O19 0.232101 0.250000 0.741332
O O20 0.666957 0.250000 0.356132
#
# Coordination Sequence:
#
# PCOD8250151 Si02
#       8
#     8   8   8   8   8   8   8   8
#     4  10  19  28  40  59  79 101 134 171 197 221
#     4  10  19  29  40  56  81 110 134 158 196 239
#     4   9  17  29  42  54  75 108 136 157 191 236
#     4  10  18  27  41  61  82 103 133 168 194 226
#     4   9  16  26  41  59  76  98 132 167 193 226
#     4   9  18  31  42  54  78 108 133 161 199 236
#     4   8  16  29  41  55  78 106 130 157 197 237
#     4   9  17  29  43  57  77 107 136 161 197 240
#
# _framework density 14.575908
#
# number of rings (size 3 to 8) (size 9 to 14) (size 15 to 20)
#    0.000    2.750    0.000    3.000    0.000    7.500 
#    0.000    0.000    0.000    0.000    0.000    0.000 
#    0.000    1.000    0.000    2.000    0.000    2.750 
#
# Total GULP energy -793156.824924 kJ/mol
# GULP energy per Si atom -12393.075389 kJ/mol
# Density = 1.454273 g / cm^3
# Si number density = 14.575908 Si / 1000 Ang^3
#
#
#
# Elastic Constant Matrix: (Units=GPa)
#
#
# Indices 1 2 3 4 5 6 
#
# 1 65.8845 34.3429 45.1813 0.0000 0.0000 0.0000
# 2 34.3429 75.7478 47.9895 0.0000 0.0000 0.0000
# 3 45.1813 47.9895 99.3434 0.0000 0.0000 0.0000
# 4 0.0000 0.0000 0.0000 24.4731 0.0000 0.0000
# 5 0.0000 0.0000 0.0000 0.0000 24.4733 0.0000
# 6 0.0000 0.0000 0.0000 0.0000 0.0000 18.4520
#
#
#
# Elastic Compliance Matrix: (Units=1/GPa)
#
#
# Indices 1 2 3 4 5 6 
#
# 1 0.023610 -0.005622 -0.008022 0.000000 0.000000 0.000000
# 2 -0.005622 0.020363 -0.007280 0.000000 0.000000 0.000000
# 3 -0.008022 -0.007280 0.017231 0.000000 0.000000 0.000000
# 4 0.000000 0.000000 0.000000 0.040861 0.000000 0.000000
# 5 0.000000 0.000000 0.000000 0.000000 0.040861 0.000000
# 6 0.000000 0.000000 0.000000 0.000000 0.000000 0.054195
#
#
# Mechanical properties :
#
#
# Convention : Reuss Voigt Hill
#
# Bulk Modulus (GPa) = 51.66289 55.11145 53.38717
# Shear Modulus (GPa) = 20.37332 21.04382 20.70857
#
# Velocity S-wave (km/s) = 3.74269 3.80378 3.77336
# Velocity P-wave (km/s) = 7.36193 7.56199 7.46263
#
# Compressibility (1/GPa) = 0.01935625
#
# Stress axis : x y z
#
# Youngs Moduli (GPa) = 42.35541 49.10963 58.03509
#
# Poissons Ratio (x) = 0.27610 0.46555
# Poissons Ratio (y) = 0.23813 0.42247
# Poissons Ratio (z) = 0.33977 0.35750
#
# Static dielectric constant tensor:
#      x y z
#    x 2.691070 0.000000 0.000000 
#    y 0.000000 2.952590 0.000000 
#    z 0.000000 0.000000 2.958040 
# 
# 
# High freq. dielectric constant tensor:
#      x y z
#    x 1.516780 0.000000 0.000000 
#    y 0.000000 1.572820 0.000000 
#    z 0.000000 0.000000 1.548270 
# 
# From -- ./inp_files/21246.got.cif
#   From: 2010.03.12/outbox.cif.g09.slc.cpg/sg62_11_cif.got.tgz:21246.got - 2010.04.10 19:12:36.
