data_PCOD8250162
_publ_section_title
;
Structure prediction by ZEFSAII (Michael W. Deem and Ramdas Pophale) SiO2 
 PCOD8250162
Probable space group: P N M A
;
_chemical_formula_sum "Si O2"
_cell_formula_units_Z 64
_cell_length_a 18.367416
_cell_length_b 8.863445
_cell_length_c 26.113224
_cell_angle_alpha 90.000000
_cell_angle_beta 90.000000
_cell_angle_gamma 90.000000
_cell_volume 4251.195826
_symmetry_space_group_name_H-M "P N M A"
_symmetry_group_IT_number 62
_symmetry_cell_setting 'orthorhombic'
loop_
_space_group_symop_operation_xyz
x,y,z
1/2-x,-y,1/2+z
1/2+x,1/2-y,1/2-z
-x,1/2+y,-z
-x,-y,-z
1/2+x,y,1/2-z
1/2-x,1/2+y,1/2+z
x,1/2-y,z
loop_
_atom_site_type_symbol
_atom_site_label
_atom_site_fract_x
_atom_site_fract_y
_atom_site_fract_z
Si Si1 0.670954 0.574214 0.649013
Si Si2 0.842962 0.928568 0.850155
Si Si3 0.296592 0.415952 0.803730
Si Si4 0.579245 0.924154 0.440188
Si Si5 0.710669 0.419624 0.801744
Si Si6 0.570750 0.569808 0.258539
Si Si7 0.584598 0.928859 0.749028
Si Si8 0.572716 0.575316 0.556946
O O1 0.679827 0.750000 0.652884
O O2 0.753103 0.511532 0.654043
O O3 0.618052 0.519048 0.694601
O O4 0.637168 0.523627 0.594898
O O5 0.840910 0.750000 0.843416
O O6 0.866642 0.973212 0.907300
O O7 0.762316 0.994927 0.841959
O O8 0.902426 0.996477 0.811375
O O9 0.304934 0.250000 0.827198
O O10 0.251018 0.412744 0.751925
O O11 0.376110 0.480588 0.788458
O O12 0.587540 0.750000 0.424227
O O13 0.600572 0.950365 0.499364
O O14 0.496374 0.972860 0.430523
O O15 0.693899 0.250000 0.821420
O O16 0.636099 0.513476 0.795121
O O17 0.572159 0.750000 0.265253
O O18 0.491856 0.510779 0.244164
O O19 0.574708 0.750000 0.752631
O O20 0.551143 0.750000 0.566278
#
# Coordination Sequence:
#
# PCOD8250162 Si02
#       8
#     8   8   8   8   8   8   8   8
#     4   9  17  28  42  59  81 109 139 171 207 245
#     4  11  20  30  44  61  83 111 145 182 217 253
#     4   8  16  28  41  58  80 106 137 171 204 243
#     4  10  19  30  44  61  83 112 144 177 214 253
#     4   9  17  30  44  59  82 111 142 174 209 251
#     4  10  19  30  43  61  85 113 144 175 210 252
#     4  10  18  27  42  65  89 113 141 173 210 249
#     4   9  18  31  44  61  85 111 142 179 213 247
#
# _framework density 15.054587
#
# number of rings (size 3 to 8) (size 9 to 14) (size 15 to 20)
#    0.000    2.500    0.000    4.125    0.000    6.000 
#    0.000    0.000    0.000    0.000    0.000    0.000 
#    0.000    1.000    0.000    3.000    0.000    4.625 
#
# Total GULP energy -793461.678922 kJ/mol
# GULP energy per Si atom -12397.838733 kJ/mol
# Density = 1.502032 g / cm^3
# Si number density = 15.054587 Si / 1000 Ang^3
#
#
#
# Elastic Constant Matrix: (Units=GPa)
#
#
# Indices 1 2 3 4 5 6 
#
# 1 104.1352 40.1462 49.7441 0.0000 0.0000 0.0000
# 2 40.1462 74.7305 32.5834 0.0000 0.0000 0.0000
# 3 49.7441 32.5834 67.6059 0.0000 0.0000 0.0000
# 4 0.0000 0.0000 0.0000 19.6376 0.0000 0.0000
# 5 0.0000 0.0000 0.0000 0.0000 24.3912 0.0000
# 6 0.0000 0.0000 0.0000 0.0000 0.0000 28.7559
#
#
#
# Elastic Compliance Matrix: (Units=1/GPa)
#
#
# Indices 1 2 3 4 5 6 
#
# 1 0.015847 -0.004342 -0.009568 0.000000 0.000000 0.000000
# 2 -0.004342 0.018131 -0.005544 0.000000 0.000000 0.000000
# 3 -0.009568 -0.005544 0.024503 0.000000 0.000000 0.000000
# 4 0.000000 0.000000 0.000000 0.050923 0.000000 0.000000
# 5 0.000000 0.000000 0.000000 0.000000 0.040998 0.000000
# 6 0.000000 0.000000 0.000000 0.000000 0.000000 0.034775
#
#
# Mechanical properties :
#
#
# Convention : Reuss Voigt Hill
#
# Bulk Modulus (GPa) = 51.08541 54.60209 52.84375
# Shear Modulus (GPa) = 21.68169 22.82348 22.25259
#
# Velocity S-wave (km/s) = 3.79912 3.89787 3.84881
# Velocity P-wave (km/s) = 7.29737 7.52370 7.41139
#
# Compressibility (1/GPa) = 0.01957506
#
# Stress axis : x y z
#
# Youngs Moduli (GPa) = 63.10336 55.15420 40.81072
#
# Poissons Ratio (x) = 0.23946 0.39046
# Poissons Ratio (y) = 0.27397 0.22625
# Poissons Ratio (z) = 0.60375 0.30577
#
# Static dielectric constant tensor:
#      x y z
#    x 2.978680 0.000000 0.000000 
#    y 0.000000 3.027670 0.000000 
#    z 0.000000 0.000000 2.771120 
# 
# 
# High freq. dielectric constant tensor:
#      x y z
#    x 1.566410 0.000000 0.000000 
#    y 0.000000 1.589960 0.000000 
#    z 0.000000 0.000000 1.540310 
# 
# From -- ./inp_files/30041.got.cif
#   From: 2010.03.12/outbox.cif.g09.slc.cpg/sg62_16_cif.got.tgz:30041.got - 2010.04.10 19:12:36.
