data_PCOD8250389
_publ_section_title
;
Structure prediction by ZEFSAII (Michael W. Deem and Ramdas Pophale) SiO2 
 PCOD8250389
Probable space group: P N M A
;
_chemical_formula_sum "Si O2"
_cell_formula_units_Z 48
_cell_length_a 18.445335
_cell_length_b 8.715659
_cell_length_c 16.636184
_cell_angle_alpha 90.000000
_cell_angle_beta 90.000000
_cell_angle_gamma 90.000000
_cell_volume 2674.487007
_symmetry_space_group_name_H-M "P N M A"
_symmetry_group_IT_number 62
_symmetry_cell_setting 'orthorhombic'
loop_
_space_group_symop_operation_xyz
x,y,z
1/2-x,-y,1/2+z
1/2+x,1/2-y,1/2-z
-x,1/2+y,-z
-x,-y,-z
1/2+x,y,1/2-z
1/2-x,1/2+y,1/2+z
x,1/2-y,z
loop_
_atom_site_type_symbol
_atom_site_label
_atom_site_fract_x
_atom_site_fract_y
_atom_site_fract_z
Si Si1 0.672260 0.928604 0.335784
Si Si2 0.797034 0.070800 0.420586
Si Si3 0.921189 0.931637 0.510257
Si Si4 0.215314 0.927707 0.933704
Si Si5 0.831936 0.429260 0.654936
Si Si6 0.575587 0.925276 0.480793
O O1 0.685339 0.750000 0.354003
O O2 0.641905 0.957127 0.246303
O O3 0.613866 0.994421 0.400395
O O4 0.750841 0.010054 0.344543
O O5 0.811794 0.250000 0.410808
O O6 0.874090 0.985898 0.432974
O O7 0.749768 0.034097 0.498423
O O8 0.925272 0.750000 0.512239
O O9 0.887656 0.990570 0.594326
O O10 0.000000 0.000000 0.500000
O O11 0.237551 0.750000 0.946317
O O12 0.251068 0.994051 0.852239
O O13 0.128347 0.946091 0.941217
O O14 0.827790 0.250000 0.634574
O O15 0.558645 0.750000 0.463597
O O16 0.500000 0.000000 0.500000
#
# Coordination Sequence:
#
# PCOD8250389 Si02
#       6
#     8   8   8   8   8   8
#     4   9  19  35  52  73 103 135 167 209 258 304
#     4  10  18  30  51  76  98 126 168 208 245 297
#     4  11  21  35  54  76 105 137 171 211 257 308
#     4   9  17  31  49  70  98 129 161 202 250 296
#     4  10  19  33  54  77 100 131 171 211 255 306
#     4   9  18  32  50  72  99 132 166 201 245 295
#
# _framework density 17.947365999999999
#
# number of rings (size 3 to 8) (size 9 to 14) (size 15 to 20)
#    0.000    2.333    0.000    7.000    0.000    4.667 
#    0.000    1.667    0.000    6.000    0.000    0.000 
#    0.000    0.000    0.000    0.000    0.000    0.000 
#
# Total GULP energy -594781.060647 kJ/mol
# GULP energy per Si atom -12391.272097 kJ/mol
# Density = 1.790652 g / cm^3
# Si number density = 17.947366 Si / 1000 Ang^3
#
#
#
# Elastic Constant Matrix: (Units=GPa)
#
#
# Indices 1 2 3 4 5 6 
#
# 1 146.9725 62.4006 49.8772 0.0000 0.0000 0.0000
# 2 62.4006 115.6014 44.6183 0.0000 0.0000 0.0000
# 3 49.8772 44.6183 80.7412 0.0000 0.0000 0.0000
# 4 0.0000 0.0000 0.0000 24.6584 0.0000 0.0000
# 5 0.0000 0.0000 0.0000 0.0000 19.3185 0.0000
# 6 0.0000 0.0000 0.0000 0.0000 0.0000 34.9524
#
#
#
# Elastic Compliance Matrix: (Units=1/GPa)
#
#
# Indices 1 2 3 4 5 6 
#
# 1 0.009726 -0.003726 -0.003949 0.000000 0.000000 0.000000
# 2 -0.003726 0.012423 -0.004563 0.000000 0.000000 0.000000
# 3 -0.003949 -0.004563 0.017347 0.000000 0.000000 0.000000
# 4 0.000000 0.000000 0.000000 0.040554 0.000000 0.000000
# 5 0.000000 0.000000 0.000000 0.000000 0.051764 0.000000
# 6 0.000000 0.000000 0.000000 0.000000 0.000000 0.028610
#
#
# Mechanical properties :
#
#
# Convention : Reuss Voigt Hill
#
# Bulk Modulus (GPa) = 66.58389 73.01192 69.79790
# Shear Modulus (GPa) = 26.32862 28.21378 27.27120
#
# Velocity S-wave (km/s) = 3.83429 3.96918 3.90232
# Velocity P-wave (km/s) = 7.53541 7.85973 7.69928
#
# Compressibility (1/GPa) = 0.01501865
#
# Stress axis : x y z
#
# Youngs Moduli (GPa) = 102.81598 80.49666 57.64781
#
# Poissons Ratio (x) = 0.29991 0.22767
# Poissons Ratio (y) = 0.38307 0.26307
# Poissons Ratio (z) = 0.40606 0.36734
#
# Static dielectric constant tensor:
#      x y z
#    x 3.570740 0.000000 0.000000 
#    y 0.000000 3.294700 0.000000 
#    z 0.000000 0.000000 5.098790 
# 
# 
# High freq. dielectric constant tensor:
#      x y z
#    x 1.687850 0.000000 0.000000 
#    y 0.000000 1.705030 0.000000 
#    z 0.000000 0.000000 1.671560 
# 
# From -- ./inp_files/24193.got.cif
#   From: 2010.03.12/outbox.cif.g09.slc.cpg/sg62_13_cif.got.tgz:24193.got - 2010.04.10 19:12:36.
