data_PCOD8250665
_publ_section_title
;
Structure prediction by ZEFSAII (Michael W. Deem and Ramdas Pophale) SiO2 
 PCOD8250665
Probable space group: P N M A
;
_chemical_formula_sum "Si O2"
_cell_formula_units_Z 56
_cell_length_a 18.939969
_cell_length_b 8.746343
_cell_length_c 17.293942
_cell_angle_alpha 90.000000
_cell_angle_beta 90.000000
_cell_angle_gamma 90.000000
_cell_volume 2864.836009
_symmetry_space_group_name_H-M "P N M A"
_symmetry_group_IT_number 62
_symmetry_cell_setting 'orthorhombic'
loop_
_space_group_symop_operation_xyz
x,y,z
1/2-x,-y,1/2+z
1/2+x,1/2-y,1/2-z
-x,1/2+y,-z
-x,-y,-z
1/2+x,y,1/2-z
1/2-x,1/2+y,1/2+z
x,1/2-y,z
loop_
_atom_site_type_symbol
_atom_site_label
_atom_site_fract_x
_atom_site_fract_y
_atom_site_fract_z
Si Si1 0.649352 0.930832 0.035339
Si Si2 0.299241 0.931367 0.407842
Si Si3 0.898882 0.931654 0.377523
Si Si4 0.278519 0.931920 0.235751
Si Si5 0.949871 0.069116 0.672242
Si Si6 0.373346 0.068933 0.675461
Si Si7 0.923921 0.931056 0.983607
O O1 0.642565 0.750000 0.024597
O O2 0.730696 0.982886 0.043254
O O3 0.608195 0.989220 0.111291
O O4 0.614183 0.013097 0.963524
O O5 0.300589 0.750000 0.402509
O O6 0.293811 0.999577 0.321189
O O7 0.369544 0.991465 0.450692
O O8 0.899212 0.750000 0.376374
O O9 0.838608 0.996210 0.320961
O O10 0.973486 0.998933 0.348175
O O11 0.278925 0.750000 0.239889
O O12 0.203549 0.987474 0.202939
O O13 0.952005 0.250000 0.667980
O O14 0.928634 0.018682 0.758434
O O15 0.375000 0.250000 0.660245
O O16 0.394706 0.981351 0.598756
O O17 0.929816 0.750000 0.986273
O O18 0.000000 0.000000 0.000000
#
# Coordination Sequence:
#
# PCOD8250665 Si02
#       7
#     8   8   8   8   8   8   8
#     4  10  18  34  56  78 107 141 179 219 267 329
#     4   9  18  34  57  81 105 142 190 228 265 328
#     4  10  20  31  50  80 109 136 175 223 269 320
#     4   9  17  32  56  82 106 140 188 228 262 319
#     4   9  18  32  54  81 106 141 183 219 263 330
#     4  10  19  36  60  82 107 143 188 232 275 325
#     4  11  24  39  58  84 115 150 190 235 283 334
#
# _framework density 19.547364999999999
#
# number of rings (size 3 to 8) (size 9 to 14) (size 15 to 20)
#    0.000    2.286    1.429    1.714    2.000    0.000 
#    0.000    2.143    0.000    2.571    0.000    0.000 
#    0.000    0.000    0.000    0.000    0.000    0.000 
#
# Total GULP energy -694377.711825 kJ/mol
# GULP energy per Si atom -12399.601997 kJ/mol
# Density = 1.950287 g / cm^3
# Si number density = 19.547365 Si / 1000 Ang^3
#
#
#
# Elastic Constant Matrix: (Units=GPa)
#
#
# Indices 1 2 3 4 5 6 
#
# 1 165.2788 24.5847 77.4539 0.0000 0.0000 0.0000
# 2 24.5847 22.9846 22.1991 0.0000 0.0000 0.0000
# 3 77.4539 22.1991 149.6737 0.0000 0.0000 0.0000
# 4 0.0000 0.0000 0.0000 28.4513 0.0000 0.0000
# 5 0.0000 0.0000 0.0000 0.0000 35.7423 0.0000
# 6 0.0000 0.0000 0.0000 0.0000 0.0000 14.7528
#
#
#
# Elastic Compliance Matrix: (Units=1/GPa)
#
#
# Indices 1 2 3 4 5 6 
#
# 1 0.008585 -0.005710 -0.003596 0.000000 0.000000 0.000000
# 2 -0.005710 0.054579 -0.005140 0.000000 0.000000 0.000000
# 3 -0.003596 -0.005140 0.009304 0.000000 0.000000 0.000000
# 4 0.000000 0.000000 0.000000 0.035148 0.000000 0.000000
# 5 0.000000 0.000000 0.000000 0.000000 0.027978 0.000000
# 6 0.000000 0.000000 0.000000 0.000000 0.000000 0.067784
#
#
# Mechanical properties :
#
#
# Convention : Reuss Voigt Hill
#
# Bulk Modulus (GPa) = 22.94794 65.15694 44.05244
# Shear Modulus (GPa) = 20.25981 30.03593 25.14787
#
# Velocity S-wave (km/s) = 3.22288 3.92417 3.59069
# Velocity P-wave (km/s) = 5.06107 7.34420 6.30681
#
# Compressibility (1/GPa) = 0.04357690
#
# Stress axis : x y z
#
# Youngs Moduli (GPa) = 116.48696 18.32207 107.47754
#
# Poissons Ratio (x) = 0.10461 0.38645
# Poissons Ratio (y) = 0.66509 0.55247
# Poissons Ratio (z) = 0.41884 0.09418
#
# Static dielectric constant tensor:
#      x y z
#    x 4.005070 0.000000 0.000000 
#    y 0.000000 3.053000 0.000000 
#    z 0.000000 0.000000 3.769930 
# 
# 
# High freq. dielectric constant tensor:
#      x y z
#    x 1.780700 0.000000 0.000000 
#    y 0.000000 1.707290 0.000000 
#    z 0.000000 0.000000 1.777210 
# 
# From -- ./inp_files/20296.got.cif
#   From: 2010.03.12/outbox.cif.g09.slc.cpg/sg62_11_cif.got.tgz:20296.got - 2010.04.10 19:12:36.
