data_PCOD8250095
_publ_section_title
;
Structure prediction by ZEFSAII (Michael W. Deem and Ramdas Pophale) SiO2 
 PCOD8250095
Probable space group: P N M A
;
_chemical_formula_sum "Si O2"
_cell_formula_units_Z 56
_cell_length_a 17.286579
_cell_length_b 18.763104
_cell_length_c 8.397926
_cell_angle_alpha 90.000000
_cell_angle_beta 90.000000
_cell_angle_gamma 90.000000
_cell_volume 2723.866287
_symmetry_space_group_name_H-M "P N M A"
_symmetry_group_IT_number 62
_symmetry_cell_setting 'orthorhombic'
loop_
_space_group_symop_operation_xyz
x,y,z
1/2-x,-y,1/2+z
1/2+x,1/2-y,1/2-z
-x,1/2+y,-z
-x,-y,-z
1/2+x,y,1/2-z
1/2-x,1/2+y,1/2+z
x,1/2-y,z
loop_
_atom_site_type_symbol
_atom_site_label
_atom_site_fract_x
_atom_site_fract_y
_atom_site_fract_z
Si Si1 0.172766 0.973496 0.434351
Si Si2 0.079292 0.579223 0.906333
Si Si3 0.269714 0.331547 0.418877
Si Si4 0.374948 0.613838 0.095205
Si Si5 0.299370 0.578466 0.653471
Si Si6 0.972932 0.079204 0.453493
Si Si7 0.575366 0.086384 0.567249
O O1 0.252546 0.940247 0.493805
O O2 0.105224 0.912570 0.437940
O O3 0.148848 0.032075 0.566286
O O4 0.184277 0.008567 0.261625
O O5 0.155147 0.622021 0.963143
O O6 0.048935 0.596017 0.728819
O O7 0.097207 0.496246 0.912654
O O8 0.015081 0.599601 0.038205
O O9 0.295434 0.250000 0.407197
O O10 0.198076 0.338119 0.542448
O O11 0.242799 0.359269 0.247716
O O12 0.394628 0.628992 0.279063
O O13 0.455140 0.631069 0.998838
O O14 0.379881 0.611487 0.591816
O O15 0.000000 0.000000 0.500000
#
# Coordination Sequence:
#
# PCOD8250095 Si02
#       7
#     8   8   8   8   8   8   8
#     4  10  18  31  56  89 123 155 188 254 309 369
#     4  11  21  35  59  98 129 158 196 256 329 379
#     4  11  24  44  61  81 122 174 220 255 301 373
#     4  10  20  37  59  85 121 165 199 246 310 366
#     4  11  21  35  59  91 125 156 204 251 317 371
#     4  10  17  34  55  88 128 154 188 243 314 378
#     4  11  21  35  62  99 123 152 196 262 330 383
#
# _framework density 20.559014000000001
#
# number of rings (size 3 to 8) (size 9 to 14) (size 15 to 20)
#    0.000    1.429    4.286    5.143    2.000    0.000 
#    0.000    4.286    0.000    0.000    0.000    0.000 
#    0.000    0.000    0.000    0.000    0.000    0.000 
#
# Total GULP energy -693867.369849 kJ/mol
# GULP energy per Si atom -12390.488747 kJ/mol
# Density = 2.051222 g / cm^3
# Si number density = 20.559014 Si / 1000 Ang^3
#
#
#
# Elastic Constant Matrix: (Units=GPa)
#
#
# Indices 1 2 3 4 5 6 
#
# 1 153.8734 36.8566 53.0900 0.0000 0.0000 0.0000
# 2 36.8566 47.8009 9.0869 0.0000 0.0000 0.0000
# 3 53.0900 9.0869 99.9944 0.0000 0.0000 0.0000
# 4 0.0000 0.0000 0.0000 8.6152 0.0000 0.0000
# 5 0.0000 0.0000 0.0000 0.0000 36.9201 0.0000
# 6 0.0000 0.0000 0.0000 0.0000 0.0000 12.0314
#
#
#
# Elastic Compliance Matrix: (Units=1/GPa)
#
#
# Indices 1 2 3 4 5 6 
#
# 1 0.009630 -0.006567 -0.004516 0.000000 0.000000 0.000000
# 2 -0.006567 0.025766 0.001145 0.000000 0.000000 0.000000
# 3 -0.004516 0.001145 0.012294 0.000000 0.000000 0.000000
# 4 0.000000 0.000000 0.000000 0.116074 0.000000 0.000000
# 5 0.000000 0.000000 0.000000 0.000000 0.027085 0.000000
# 6 0.000000 0.000000 0.000000 0.000000 0.000000 0.083116
#
#
# Mechanical properties :
#
#
# Convention : Reuss Voigt Hill
#
# Bulk Modulus (GPa) = 35.95266 55.52617 45.73942
# Shear Modulus (GPa) = 16.49557 25.02237 20.75897
#
# Velocity S-wave (km/s) = 2.83566 3.49248 3.18107
# Velocity P-wave (km/s) = 5.31477 6.58256 5.98234
#
# Compressibility (1/GPa) = 0.02781435
#
# Stress axis : x y z
#
# Youngs Moduli (GPa) = 103.84394 38.81152 81.33911
#
# Poissons Ratio (x) = 0.25486 0.36733
# Poissons Ratio (y) = 0.68189 -0.09313
# Poissons Ratio (z) = 0.46896 -0.04444
#
# Static dielectric constant tensor:
#      x y z
#    x 4.482710 0.000000 0.000000 
#    y 0.000000 3.023800 0.000000 
#    z 0.000000 0.000000 3.696400 
# 
# 
# High freq. dielectric constant tensor:
#      x y z
#    x 1.842160 0.000000 0.000000 
#    y 0.000000 1.714000 0.000000 
#    z 0.000000 0.000000 1.806770 
# 
# From -- ./inp_files/8056.got.cif
#   From: 2010.03.12/outbox.cif.g09.slc.cpg/sg62_5_cif.got.tgz:8056.got - 2010.04.10 19:12:36.
