data_PCOD8250275
_publ_section_title
;
Structure prediction by ZEFSAII (Michael W. Deem and Ramdas Pophale) SiO2 
 PCOD8250275
Probable space group: P N M A
;
_chemical_formula_sum "Si O2"
_cell_formula_units_Z 56
_cell_length_a 13.700640
_cell_length_b 8.662329
_cell_length_c 29.503087
_cell_angle_alpha 90.000000
_cell_angle_beta 90.000000
_cell_angle_gamma 90.000000
_cell_volume 3501.410174
_symmetry_space_group_name_H-M "P N M A"
_symmetry_group_IT_number 62
_symmetry_cell_setting 'orthorhombic'
loop_
_space_group_symop_operation_xyz
x,y,z
1/2-x,-y,1/2+z
1/2+x,1/2-y,1/2-z
-x,1/2+y,-z
-x,-y,-z
1/2+x,y,1/2-z
1/2-x,1/2+y,1/2+z
x,1/2-y,z
loop_
_atom_site_type_symbol
_atom_site_label
_atom_site_fract_x
_atom_site_fract_y
_atom_site_fract_z
Si Si1 0.390948 0.429972 0.266362
Si Si2 0.284013 0.567373 0.183026
Si Si3 0.386252 0.929998 0.733848
Si Si4 0.606450 0.430474 0.002701
Si Si5 0.894319 0.568727 0.404000
Si Si6 0.114539 0.567503 0.406810
Si Si7 0.278921 0.067590 0.817060
O O1 0.374172 0.250000 0.256407
O O2 0.361217 0.526251 0.222094
O O3 0.502385 0.466671 0.278862
O O4 0.324138 0.483168 0.308474
O O5 0.267669 0.750000 0.181965
O O6 0.180496 0.485079 0.191964
O O7 0.325694 0.500832 0.135517
O O8 0.369012 0.750000 0.743156
O O9 0.357392 0.023129 0.778836
O O10 0.599938 0.250000 0.011061
O O11 0.654685 0.467033 0.953359
O O12 0.500000 0.500000 0.000000
O O13 0.661482 0.506110 0.045775
O O14 0.903533 0.750000 0.396119
O O15 0.004491 0.500471 0.400645
O O16 0.112294 0.750000 0.408907
O O17 0.181142 0.509632 0.365436
O O18 0.262835 0.250000 0.816061
#
# Coordination Sequence:
#
# PCOD8250275 Si02
#       7
#     8   8   8   8   8   8   8
#     4  10  20  32  44  61  89 118 144 178 216 256
#     4  10  18  29  47  66  85 113 148 181 213 252
#     4  10  20  32  44  62  90 118 145 180 218 257
#     4   9  16  27  42  61  87 116 144 174 211 255
#     4   8  15  27  42  62  88 114 140 172 209 251
#     4   9  17  29  43  63  90 115 142 176 213 255
#     4  10  19  30  47  67  87 114 148 183 215 254
#
# _framework density 15.993556
#
# number of rings (size 3 to 8) (size 9 to 14) (size 15 to 20)
#    0.000    2.571    0.000    5.571    0.000    4.571 
#    0.000    8.571    0.000    0.000    0.000    1.000 
#    0.000    0.000    0.000    0.000    0.000    0.000 
#
# Total GULP energy -694078.575564 kJ/mol
# GULP energy per Si atom -12394.260278 kJ/mol
# Density = 1.595715 g / cm^3
# Si number density = 15.993556 Si / 1000 Ang^3
#
#
#
# Elastic Constant Matrix: (Units=GPa)
#
#
# Indices 1 2 3 4 5 6 
#
# 1 99.4016 20.2330 55.0566 0.0000 0.0000 0.0000
# 2 20.2330 30.6292 17.2395 0.0000 0.0000 0.0000
# 3 55.0566 17.2395 139.3604 0.0000 0.0000 0.0000
# 4 0.0000 0.0000 0.0000 24.4920 0.0000 0.0000
# 5 0.0000 0.0000 0.0000 0.0000 24.5361 0.0000
# 6 0.0000 0.0000 0.0000 0.0000 0.0000 21.4896
#
#
#
# Elastic Compliance Matrix: (Units=1/GPa)
#
#
# Indices 1 2 3 4 5 6 
#
# 1 0.014020 -0.006603 -0.004722 0.000000 0.000000 0.000000
# 2 -0.006603 0.038202 -0.002117 0.000000 0.000000 0.000000
# 3 -0.004722 -0.002117 0.009303 0.000000 0.000000 0.000000
# 4 0.000000 0.000000 0.000000 0.040830 0.000000 0.000000
# 5 0.000000 0.000000 0.000000 0.000000 0.040756 0.000000
# 6 0.000000 0.000000 0.000000 0.000000 0.000000 0.046534
#
#
# Mechanical properties :
#
#
# Convention : Reuss Voigt Hill
#
# Bulk Modulus (GPa) = 28.86808 50.49437 39.68122
# Shear Modulus (GPa) = 21.92251 25.89435 23.90843
#
# Velocity S-wave (km/s) = 3.70632 4.02811 3.87056
# Velocity P-wave (km/s) = 6.03364 7.29893 6.69624
#
# Compressibility (1/GPa) = 0.03464034
#
# Stress axis : x y z
#
# Youngs Moduli (GPa) = 71.32855 26.17650 107.49288
#
# Poissons Ratio (x) = 0.17285 0.50756
# Poissons Ratio (y) = 0.47101 0.22756
# Poissons Ratio (z) = 0.33680 0.05542
#
# Static dielectric constant tensor:
#      x y z
#    x 2.959930 0.000000 0.000000 
#    y 0.000000 3.058920 0.000000 
#    z 0.000000 0.000000 3.437630 
# 
# 
# High freq. dielectric constant tensor:
#      x y z
#    x 1.581470 0.000000 0.000000 
#    y 0.000000 1.617800 0.000000 
#    z 0.000000 0.000000 1.615120 
# 
# From -- ./inp_files/32661.got.cif
#   From: 2010.03.12/outbox.cif.g09.slc.cpg/sg62_17_cif.got.tgz:32661.got - 2010.04.10 19:12:36.
