data_PCOD8250458
_publ_section_title
;
Structure prediction by ZEFSAII (Michael W. Deem and Ramdas Pophale) SiO2 
 PCOD8250458
Probable space group: P N M A
;
_chemical_formula_sum "Si O2"
_cell_formula_units_Z 56
_cell_length_a 14.768431
_cell_length_b 8.560236
_cell_length_c 22.184817
_cell_angle_alpha 90.000000
_cell_angle_beta 90.000000
_cell_angle_gamma 90.000000
_cell_volume 2804.632401
_symmetry_space_group_name_H-M "P N M A"
_symmetry_group_IT_number 62
_symmetry_cell_setting 'orthorhombic'
loop_
_space_group_symop_operation_xyz
x,y,z
1/2-x,-y,1/2+z
1/2+x,1/2-y,1/2-z
-x,1/2+y,-z
-x,-y,-z
1/2+x,y,1/2-z
1/2-x,1/2+y,1/2+z
x,1/2-y,z
loop_
_atom_site_type_symbol
_atom_site_label
_atom_site_fract_x
_atom_site_fract_y
_atom_site_fract_z
Si Si1 0.682945 0.937404 0.778946
Si Si2 0.991109 0.564862 0.932297
Si Si3 0.337470 0.435137 0.356711
Si Si4 0.339088 0.424938 0.040166
Si Si5 0.476386 0.423981 0.143171
Si Si6 0.808207 0.067468 0.878073
Si Si7 0.847695 0.563615 0.587127
O O1 0.687493 0.750000 0.784368
O O2 0.675696 0.999732 0.710983
O O3 0.591687 0.007995 0.810117
O O4 0.771572 0.001870 0.813885
O O5 0.994839 0.750000 0.937092
O O6 0.901099 0.514225 0.897560
O O7 0.074186 0.500546 0.891211
O O8 0.000000 0.500000 0.000000
O O9 0.341568 0.250000 0.353458
O O10 0.250520 0.494424 0.392969
O O11 0.298220 0.250000 0.036168
O O12 0.430869 0.423242 0.077806
O O13 0.264057 0.536745 0.069404
O O14 0.368828 0.488515 0.976328
O O15 0.490638 0.250000 0.168357
O O16 0.576211 0.499537 0.134809
O O17 0.826262 0.250000 0.871858
O O18 0.854105 0.750000 0.582495
#
# Coordination Sequence:
#
# PCOD8250458 Si02
#       7
#     8   8   8   8   8   8   8
#     4   9  18  37  58  80 108 142 184 229 274 332
#     4  11  22  38  59  87 119 155 195 239 287 341
#     4   9  20  35  56  82 109 141 183 228 274 328
#     4  10  19  33  52  78 108 142 179 220 269 327
#     4   8  16  29  50  76 105 137 172 212 262 320
#     4  11  22  37  57  82 110 147 189 234 283 334
#     4  10  18  31  51  79 109 138 171 216 271 330
#
# _framework density 19.966964999999998
#
# number of rings (size 3 to 8) (size 9 to 14) (size 15 to 20)
#    0.000    2.286    0.000    4.286    0.000    2.286 
#    0.000   10.000    0.000    0.000    0.000    0.000 
#    0.000    0.000    0.000    0.000    0.000    0.000 
#
# Total GULP energy -694049.792803 kJ/mol
# GULP energy per Si atom -12393.746300 kJ/mol
# Density = 1.992152 g / cm^3
# Si number density = 19.966965 Si / 1000 Ang^3
#
#
#
# Elastic Constant Matrix: (Units=GPa)
#
#
# Indices 1 2 3 4 5 6 
#
# 1 120.5075 19.6665 31.1714 0.0000 0.0000 0.0000
# 2 19.6665 52.1918 24.1178 0.0000 0.0000 0.0000
# 3 31.1714 24.1178 109.6476 0.0000 0.0000 0.0000
# 4 0.0000 0.0000 0.0000 25.2515 0.0000 0.0000
# 5 0.0000 0.0000 0.0000 0.0000 23.0512 0.0000
# 6 0.0000 0.0000 0.0000 0.0000 0.0000 17.6918
#
#
#
# Elastic Compliance Matrix: (Units=1/GPa)
#
#
# Indices 1 2 3 4 5 6 
#
# 1 0.009247 -0.002526 -0.002073 0.000000 0.000000 0.000000
# 2 -0.002526 0.022018 -0.004125 0.000000 0.000000 0.000000
# 3 -0.002073 -0.004125 0.010617 0.000000 0.000000 0.000000
# 4 0.000000 0.000000 0.000000 0.039602 0.000000 0.000000
# 5 0.000000 0.000000 0.000000 0.000000 0.043382 0.000000
# 6 0.000000 0.000000 0.000000 0.000000 0.000000 0.056523
#
#
# Mechanical properties :
#
#
# Convention : Reuss Voigt Hill
#
# Bulk Modulus (GPa) = 40.92791 48.02869 44.47830
# Shear Modulus (GPa) = 24.15680 27.02499 25.59089
#
# Velocity S-wave (km/s) = 3.48205 3.68297 3.58391
# Velocity P-wave (km/s) = 6.05875 6.49553 6.28094
#
# Compressibility (1/GPa) = 0.02443320
#
# Stress axis : x y z
#
# Youngs Moduli (GPa) = 108.14594 45.41712 94.19073
#
# Poissons Ratio (x) = 0.11474 0.19526
# Poissons Ratio (y) = 0.27321 0.38852
# Poissons Ratio (z) = 0.22419 0.18734
#
# Static dielectric constant tensor:
#      x y z
#    x 3.848190 0.000000 0.000000 
#    y 0.000000 3.330140 0.000000 
#    z 0.000000 0.000000 3.701190 
# 
# 
# High freq. dielectric constant tensor:
#      x y z
#    x 1.791380 0.000000 0.000000 
#    y 0.000000 1.745680 0.000000 
#    z 0.000000 0.000000 1.780280 
# 
# From -- ./inp_files/27200.got.cif
#   From: 2010.03.12/outbox.cif.g09.slc.cpg/sg62_14_cif.got.tgz:27200.got - 2010.04.10 19:12:36.
