data_PCOD8250795
_publ_section_title
;
Structure prediction by ZEFSAII (Michael W. Deem and Ramdas Pophale) SiO2 
 PCOD8250795
Probable space group: P N M A
;
_chemical_formula_sum "Si O2"
_cell_formula_units_Z 48
_cell_length_a 23.598147
_cell_length_b 9.369771
_cell_length_c 13.523607
_cell_angle_alpha 90.000000
_cell_angle_beta 90.000000
_cell_angle_gamma 90.000000
_cell_volume 2990.194377
_symmetry_space_group_name_H-M "P N M A"
_symmetry_group_IT_number 62
_symmetry_cell_setting 'orthorhombic'
loop_
_space_group_symop_operation_xyz
x,y,z
1/2-x,-y,1/2+z
1/2+x,1/2-y,1/2-z
-x,1/2+y,-z
-x,-y,-z
1/2+x,y,1/2-z
1/2-x,1/2+y,1/2+z
x,1/2-y,z
loop_
_atom_site_type_symbol
_atom_site_label
_atom_site_fract_x
_atom_site_fract_y
_atom_site_fract_z
Si Si1 0.719872 0.583543 0.082376
Si Si2 0.663897 0.087679 0.688236
Si Si3 0.939986 0.415977 0.110633
Si Si4 0.835848 0.080518 0.779382
Si Si5 0.050657 0.584046 0.118896
Si Si6 0.773383 0.914181 0.389164
O O1 0.711736 0.750000 0.062074
O O2 0.783603 0.549921 0.117329
O O3 0.676311 0.529759 0.167379
O O4 0.704609 0.500680 0.983117
O O5 0.643926 0.250000 0.668577
O O6 0.681020 0.068416 0.802165
O O7 0.613660 0.979242 0.666593
O O8 0.944899 0.250000 0.135968
O O9 0.996263 0.493301 0.150510
O O10 0.932641 0.443564 0.994359
O O11 0.830908 0.250000 0.783163
O O12 0.897317 0.027742 0.814367
O O13 0.787142 0.022152 0.853119
O O14 0.037627 0.750000 0.138041
O O15 0.767093 0.750000 0.420510
#
# Coordination Sequence:
#
# PCOD8250795 Si02
#       6
#     8   8   8   8   8   8
#     4   9  17  29  46  68  91 115 147 184 217 254
#     4   9  18  31  46  65  92 124 150 175 216 270
#     4  10  19  29  45  69  92 115 148 189 223 255
#     4   8  15  29  47  65  88 120 150 174 212 269
#     4   9  17  30  47  65  89 121 149 176 220 272
#     4   9  17  30  47  67  92 120 148 178 218 267
#
# _framework density 16.052468999999999
#
# number of rings (size 3 to 8) (size 9 to 14) (size 15 to 20)
#    0.000    3.000    0.000    3.500    0.000    3.333 
#    0.000    4.167    0.000    1.000    0.000    0.000 
#    0.000    0.000    0.000    0.000    0.000    0.000 
#
# Total GULP energy -595145.190753 kJ/mol
# GULP energy per Si atom -12398.858141 kJ/mol
# Density = 1.601593 g / cm^3
# Si number density = 16.052469 Si / 1000 Ang^3
#
#
#
# Elastic Constant Matrix: (Units=GPa)
#
#
# Indices 1 2 3 4 5 6 
#
# 1 104.2924 51.7475 39.5801 0.0000 0.0000 0.0000
# 2 51.7475 65.4776 40.4172 0.0000 0.0000 0.0000
# 3 39.5801 40.4172 83.0529 0.0000 0.0000 0.0000
# 4 0.0000 0.0000 0.0000 28.1599 0.0000 0.0000
# 5 0.0000 0.0000 0.0000 0.0000 22.1584 0.0000
# 6 0.0000 0.0000 0.0000 0.0000 0.0000 23.1072
#
#
#
# Elastic Compliance Matrix: (Units=1/GPa)
#
#
# Indices 1 2 3 4 5 6 
#
# 1 0.016028 -0.011366 -0.002107 0.000000 0.000000 0.000000
# 2 -0.011366 0.029891 -0.009129 0.000000 0.000000 0.000000
# 3 -0.002107 -0.009129 0.017487 0.000000 0.000000 0.000000
# 4 0.000000 0.000000 0.000000 0.035511 0.000000 0.000000
# 5 0.000000 0.000000 0.000000 0.000000 0.045130 0.000000
# 6 0.000000 0.000000 0.000000 0.000000 0.000000 0.043277
#
#
# Mechanical properties :
#
#
# Convention : Reuss Voigt Hill
#
# Bulk Modulus (GPa) = 54.94333 57.36807 56.15570
# Shear Modulus (GPa) = 20.95600 22.75696 21.85648
#
# Velocity S-wave (km/s) = 3.61705 3.76927 3.69394
# Velocity P-wave (km/s) = 7.19345 7.39991 7.29741
#
# Compressibility (1/GPa) = 0.01820057
#
# Stress axis : x y z
#
# Youngs Moduli (GPa) = 62.39186 33.45540 57.18434
#
# Poissons Ratio (x) = 0.38027 0.12048
# Poissons Ratio (y) = 0.70917 0.52205
# Poissons Ratio (z) = 0.13145 0.30542
#
# Static dielectric constant tensor:
#      x y z
#    x 3.044360 0.000000 0.000000 
#    y 0.000000 2.876440 0.000000 
#    z 0.000000 0.000000 2.962630 
# 
# 
# High freq. dielectric constant tensor:
#      x y z
#    x 1.609420 0.000000 0.000000 
#    y 0.000000 1.604360 0.000000 
#    z 0.000000 0.000000 1.606920 
# 
# From -- ./inp_files/14710.got.cif
#   From: 2010.03.12/outbox.cif.g09.slc.cpg/sg62_8_cif.got.tgz:14710.got - 2010.04.10 19:12:36.
