data_PCOD8250427
_publ_section_title
;
Structure prediction by ZEFSAII (Michael W. Deem and Ramdas Pophale) SiO2 
 PCOD8250427
Probable space group: P N M A
;
_chemical_formula_sum "Si O2"
_cell_formula_units_Z 56
_cell_length_a 18.396465
_cell_length_b 8.416420
_cell_length_c 20.846853
_cell_angle_alpha 90.000000
_cell_angle_beta 90.000000
_cell_angle_gamma 90.000000
_cell_volume 3227.767781
_symmetry_space_group_name_H-M "P N M A"
_symmetry_group_IT_number 62
_symmetry_cell_setting 'orthorhombic'
loop_
_space_group_symop_operation_xyz
x,y,z
1/2-x,-y,1/2+z
1/2+x,1/2-y,1/2-z
-x,1/2+y,-z
-x,-y,-z
1/2+x,y,1/2-z
1/2-x,1/2+y,1/2+z
x,1/2-y,z
loop_
_atom_site_type_symbol
_atom_site_label
_atom_site_fract_x
_atom_site_fract_y
_atom_site_fract_z
Si Si1 0.413846 0.066097 0.245538
Si Si2 0.419354 0.435100 0.994576
Si Si3 0.351559 0.565848 0.868765
Si Si4 0.347377 0.938018 0.119294
Si Si5 0.930537 0.061753 0.752067
Si Si6 0.786617 0.574042 0.184311
Si Si7 0.206753 0.924538 0.181114
O O1 0.404093 0.250000 0.229002
O O2 0.396767 0.964853 0.181985
O O3 0.495677 0.029658 0.267095
O O4 0.362026 0.019959 0.305298
O O5 0.420868 0.250000 0.977451
O O6 0.377050 0.531043 0.940397
O O7 0.500000 0.500000 0.000000
O O8 0.378382 0.461352 0.061228
O O9 0.360546 0.750000 0.852716
O O10 0.402554 0.469220 0.819939
O O11 0.266612 0.517900 0.864393
O O12 0.347544 0.750000 0.104352
O O13 0.264548 0.004893 0.132194
O O14 0.940834 0.250000 0.760180
O O15 0.871120 0.992828 0.804248
O O16 0.803204 0.750000 0.156841
O O17 0.747087 0.588721 0.251624
O O18 0.190348 0.750000 0.153924
#
# Coordination Sequence:
#
# PCOD8250427 Si02
#       7
#     8   8   8   8   8   8   8
#     4  11  20  30  46  73 102 129 160 200 243 285
#     4  12  24  37  50  69  96 130 167 202 237 282
#     4  11  21  34  50  71  97 128 163 202 242 287
#     4  10  19  34  51  69  94 127 163 202 242 287
#     4  10  18  31  49  71  98 130 161 195 239 290
#     4   9  17  32  50  69  93 126 161 197 240 289
#     4   7  14  28  48  68  89 118 155 192 234 282
#
# _framework density 17.349450999999998
#
# number of rings (size 3 to 8) (size 9 to 14) (size 15 to 20)
#    0.000    2.000    0.000    7.714    0.000    0.000 
#    0.000    2.143    0.000    0.000    0.000    1.000 
#    0.000    0.000    0.000    0.000    0.000    0.000 
#
# Total GULP energy -694068.949291 kJ/mol
# GULP energy per Si atom -12394.088380 kJ/mol
# Density = 1.730996 g / cm^3
# Si number density = 17.349451 Si / 1000 Ang^3
#
#
#
# Elastic Constant Matrix: (Units=GPa)
#
#
# Indices 1 2 3 4 5 6 
#
# 1 139.7746 17.4179 47.9283 0.0000 0.0000 0.0000
# 2 17.4179 70.1455 6.4982 0.0000 0.0000 0.0000
# 3 47.9283 6.4982 57.8648 0.0000 0.0000 0.0000
# 4 0.0000 0.0000 0.0000 22.4086 0.0000 0.0000
# 5 0.0000 0.0000 0.0000 0.0000 28.7499 0.0000
# 6 0.0000 0.0000 0.0000 0.0000 0.0000 27.4114
#
#
#
# Elastic Compliance Matrix: (Units=1/GPa)
#
#
# Indices 1 2 3 4 5 6 
#
# 1 0.010205 -0.001769 -0.008254 0.000000 0.000000 0.000000
# 2 -0.001769 0.014713 -0.000187 0.000000 0.000000 0.000000
# 3 -0.008254 -0.000187 0.024139 0.000000 0.000000 0.000000
# 4 0.000000 0.000000 0.000000 0.044626 0.000000 0.000000
# 5 0.000000 0.000000 0.000000 0.000000 0.034783 0.000000
# 6 0.000000 0.000000 0.000000 0.000000 0.000000 0.036481
#
#
# Mechanical properties :
#
#
# Convention : Reuss Voigt Hill
#
# Bulk Modulus (GPa) = 34.91994 45.71931 40.31962
# Shear Modulus (GPa) = 25.65252 28.77668 27.21460
#
# Velocity S-wave (km/s) = 3.84940 4.07707 3.96487
# Velocity P-wave (km/s) = 6.31888 6.96940 6.65210
#
# Compressibility (1/GPa) = 0.02863693
#
# Stress axis : x y z
#
# Youngs Moduli (GPa) = 97.98974 67.96834 41.42629
#
# Poissons Ratio (x) = 0.12026 0.34193
# Poissons Ratio (y) = 0.17338 0.00773
# Poissons Ratio (z) = 0.80881 0.01269
#
# Static dielectric constant tensor:
#      x y z
#    x 3.548020 0.000000 0.000000 
#    y 0.000000 3.225420 0.000000 
#    z 0.000000 0.000000 2.972090 
# 
# 
# High freq. dielectric constant tensor:
#      x y z
#    x 1.679180 0.000000 0.000000 
#    y 0.000000 1.674050 0.000000 
#    z 0.000000 0.000000 1.622850 
# 
# From -- ./inp_files/27573.got.cif
#   From: 2010.03.12/outbox.cif.g09.slc.cpg/sg62_14_cif.got.tgz:27573.got - 2010.04.10 19:12:36.
