data_PCOD8250342
_publ_section_title
;
Structure prediction by ZEFSAII (Michael W. Deem and Ramdas Pophale) SiO2 
 PCOD8250342
Probable space group: P N M A
;
_chemical_formula_sum "Si O2"
_cell_formula_units_Z 64
_cell_length_a 30.212212
_cell_length_b 8.870665
_cell_length_c 14.355613
_cell_angle_alpha 90.000000
_cell_angle_beta 90.000000
_cell_angle_gamma 90.000000
_cell_volume 3847.338903
_symmetry_space_group_name_H-M "P N M A"
_symmetry_group_IT_number 62
_symmetry_cell_setting 'orthorhombic'
loop_
_space_group_symop_operation_xyz
x,y,z
1/2-x,-y,1/2+z
1/2+x,1/2-y,1/2-z
-x,1/2+y,-z
-x,-y,-z
1/2+x,y,1/2-z
1/2-x,1/2+y,1/2+z
x,1/2-y,z
loop_
_atom_site_type_symbol
_atom_site_label
_atom_site_fract_x
_atom_site_fract_y
_atom_site_fract_z
Si Si1 0.372460 0.421263 0.297949
Si Si2 0.285164 0.570354 0.774491
Si Si3 0.131298 0.426111 0.156861
Si Si4 0.728451 0.427019 0.020102
Si Si5 0.949943 0.424335 0.901873
Si Si6 0.826115 0.078658 0.008024
Si Si7 0.050276 0.074799 0.898752
Si Si8 0.800848 0.571916 0.321421
O O1 0.382022 0.250000 0.267308
O O2 0.340257 0.427163 0.385610
O O3 0.418985 0.501389 0.319720
O O4 0.347041 0.507165 0.215659
O O5 0.280451 0.750000 0.766473
O O6 0.329916 0.512840 0.724195
O O7 0.241931 0.499402 0.727676
O O8 0.290297 0.512751 0.881360
O O9 0.124950 0.250000 0.169394
O O10 0.083623 0.504949 0.175024
O O11 0.142962 0.468909 0.050983
O O12 0.734053 0.250000 0.030778
O O13 0.777264 0.492187 0.001347
O O14 0.698256 0.469586 0.931710
O O15 0.938934 0.250000 0.915067
O O16 0.999712 0.451157 0.865999
O O17 0.941862 0.498911 0.001997
O O18 0.828807 0.250000 0.969197
O O19 0.061640 0.250000 0.908645
O O20 0.798794 0.750000 0.305201
#
# Coordination Sequence:
#
# PCOD8250342 Si02
#       8
#     8   8   8   8   8   8   8   8
#     4  11  21  33  50  71 100 137 164 199 252 298
#     4  10  20  35  50  69  98 132 169 208 250 290
#     4  11  21  30  48  74 100 131 169 210 243 291
#     4   9  18  34  50  65  94 133 168 203 244 289
#     4  10  20  33  49  70 102 135 160 199 252 298
#     4  10  18  30  48  67  96 135 168 196 241 294
#     4  10  20  33  50  73  98 128 169 206 238 292
#     4  11  21  32  50  73  96 129 171 209 242 291
#
# _framework density 16.634874
#
# number of rings (size 3 to 8) (size 9 to 14) (size 15 to 20)
#    0.000    1.750    3.750    1.875    0.000    2.500 
#    0.000    1.250    0.000    0.000    0.000    0.875 
#    0.000    0.000    0.000    0.000    0.000    0.000 
#
# Total GULP energy -793454.469458 kJ/mol
# GULP energy per Si atom -12397.726085 kJ/mol
# Density = 1.659701 g / cm^3
# Si number density = 16.634874 Si / 1000 Ang^3
#
#
#
# Elastic Constant Matrix: (Units=GPa)
#
#
# Indices 1 2 3 4 5 6 
#
# 1 111.9540 44.6519 33.3689 0.0000 0.0000 0.0000
# 2 44.6519 72.9235 29.2606 0.0000 0.0000 0.0000
# 3 33.3689 29.2606 70.3054 0.0000 0.0000 0.0000
# 4 0.0000 0.0000 0.0000 16.9952 0.0000 0.0000
# 5 0.0000 0.0000 0.0000 0.0000 28.2517 0.0000
# 6 0.0000 0.0000 0.0000 0.0000 0.0000 29.8512
#
#
#
# Elastic Compliance Matrix: (Units=1/GPa)
#
#
# Indices 1 2 3 4 5 6 
#
# 1 0.012417 -0.006288 -0.003276 0.000000 0.000000 0.000000
# 2 -0.006288 0.019647 -0.005192 0.000000 0.000000 0.000000
# 3 -0.003276 -0.005192 0.017940 0.000000 0.000000 0.000000
# 4 0.000000 0.000000 0.000000 0.058840 0.000000 0.000000
# 5 0.000000 0.000000 0.000000 0.000000 0.035396 0.000000
# 6 0.000000 0.000000 0.000000 0.000000 0.000000 0.033500
#
#
# Mechanical properties :
#
#
# Convention : Reuss Voigt Hill
#
# Bulk Modulus (GPa) = 48.80515 52.19398 50.49956
# Shear Modulus (GPa) = 23.35548 24.87970 24.11759
#
# Velocity S-wave (km/s) = 3.75107 3.87154 3.81178
# Velocity P-wave (km/s) = 6.93999 7.17143 7.05666
#
# Compressibility (1/GPa) = 0.02048964
#
# Stress axis : x y z
#
# Youngs Moduli (GPa) = 80.53595 50.89878 55.74261
#
# Poissons Ratio (x) = 0.32007 0.18262
# Poissons Ratio (y) = 0.50644 0.28943
# Poissons Ratio (z) = 0.26385 0.26428
#
# Static dielectric constant tensor:
#      x y z
#    x 3.308220 0.000000 0.000000 
#    y 0.000000 3.148510 0.000000 
#    z 0.000000 0.000000 3.066620 
# 
# 
# High freq. dielectric constant tensor:
#      x y z
#    x 1.642170 0.000000 0.000000 
#    y 0.000000 1.642290 0.000000 
#    z 0.000000 0.000000 1.608640 
# 
# From -- ./inp_files/21245.got.cif
#   From: 2010.03.12/outbox.cif.g09.slc.cpg/sg62_11_cif.got.tgz:21245.got - 2010.04.10 19:12:36.
