data_PCOD8250801
_publ_section_title
;
Structure prediction by ZEFSAII (Michael W. Deem and Ramdas Pophale) SiO2 
 PCOD8250801
Probable space group: P N M A
;
_chemical_formula_sum "Si O2"
_cell_formula_units_Z 52
_cell_length_a 5.094002
_cell_length_b 21.939744
_cell_length_c 26.013847
_cell_angle_alpha 90.000000
_cell_angle_beta 90.000000
_cell_angle_gamma 90.000000
_cell_volume 2907.336151
_symmetry_space_group_name_H-M "P N M A"
_symmetry_group_IT_number 62
_symmetry_cell_setting 'orthorhombic'
loop_
_space_group_symop_operation_xyz
x,y,z
1/2-x,-y,1/2+z
1/2+x,1/2-y,1/2-z
-x,1/2+y,-z
-x,-y,-z
1/2+x,y,1/2-z
1/2-x,1/2+y,1/2+z
x,1/2-y,z
loop_
_atom_site_type_symbol
_atom_site_label
_atom_site_fract_x
_atom_site_fract_y
_atom_site_fract_z
Si Si1 0.158861 0.750000 0.782296
Si Si2 0.012189 0.055413 0.439206
Si Si3 0.605748 0.880714 0.715864
Si Si4 0.491755 0.099664 0.613146
Si Si5 0.473510 0.541760 0.621356
Si Si6 0.991024 0.178714 0.783933
Si Si7 0.491676 0.914065 0.049441
O O1 0.466372 0.750000 0.767581
O O2 0.091877 0.686621 0.811635
O O3 0.799709 0.074021 0.395593
O O4 0.981294 0.100324 0.488516
O O5 0.311201 0.058986 0.421223
O O6 0.933269 0.985938 0.450801
O O7 0.391239 0.888756 0.759978
O O8 0.566293 0.933038 0.675216
O O9 0.504394 0.141733 0.663182
O O10 0.754268 0.107195 0.580223
O O11 0.252566 0.120330 0.576191
O O12 0.449451 0.030282 0.630628
O O13 0.231965 0.160679 0.747383
O O14 0.996470 0.250000 0.798145
#
# Coordination Sequence:
#
# PCOD8250801 Si02
#       7
#     4   8   8   8   8   8   8
#     4   8  16  30  46  62  82 114 158 188 206 252
#     4   9  17  30  46  70  99 124 153 191 235 283
#     4  10  19  31  46  67  93 123 158 191 226 270
#     4  10  19  31  49  74  95 123 160 193 241 285
#     4  10  19  29  46  73 100 124 154 193 242 290
#     4  10  21  36  52  71  97 130 168 204 242 290
#     4   9  17  30  49  71  96 122 156 196 230 281
#
# _framework density 17.885788000000002
#
# number of rings (size 3 to 8) (size 9 to 14) (size 15 to 20)
#    0.000    2.462    0.000    2.769    0.000    4.923 
#    0.000    0.000    0.000    0.000   12.000    0.000 
#    0.000    0.000    0.000    0.000    0.000    0.000 
#
# Total GULP energy -644467.929484 kJ/mol
# GULP energy per Si atom -12393.614029 kJ/mol
# Density = 1.784508 g / cm^3
# Si number density = 17.885788 Si / 1000 Ang^3
#
#
#
# Elastic Constant Matrix: (Units=GPa)
#
#
# Indices 1 2 3 4 5 6 
#
# 1 85.2352 18.9677 17.8616 0.0000 0.0000 0.0000
# 2 18.9677 48.6101 40.7484 0.0000 0.0000 0.0000
# 3 17.8616 40.7484 93.3456 0.0000 0.0000 0.0000
# 4 0.0000 0.0000 0.0000 14.2562 0.0000 0.0000
# 5 0.0000 0.0000 0.0000 0.0000 24.8792 0.0000
# 6 0.0000 0.0000 0.0000 0.0000 0.0000 12.7551
#
#
#
# Elastic Compliance Matrix: (Units=1/GPa)
#
#
# Indices 1 2 3 4 5 6 
#
# 1 0.012859 -0.004660 -0.000426 0.000000 0.000000 0.000000
# 2 -0.004660 0.034133 -0.014009 0.000000 0.000000 0.000000
# 3 -0.000426 -0.014009 0.016910 0.000000 0.000000 0.000000
# 4 0.000000 0.000000 0.000000 0.070145 0.000000 0.000000
# 5 0.000000 0.000000 0.000000 0.000000 0.040194 0.000000
# 6 0.000000 0.000000 0.000000 0.000000 0.000000 0.078400
#
#
# Mechanical properties :
#
#
# Convention : Reuss Voigt Hill
#
# Bulk Modulus (GPa) = 38.89290 42.48293 40.68791
# Shear Modulus (GPa) = 16.70001 20.35231 18.52616
#
# Velocity S-wave (km/s) = 3.05897 3.37694 3.22188
# Velocity P-wave (km/s) = 5.85395 6.24571 6.05300
#
# Compressibility (1/GPa) = 0.02571164
#
# Stress axis : x y z
#
# Youngs Moduli (GPa) = 77.76904 29.29698 59.13796
#
# Poissons Ratio (x) = 0.13653 0.02520
# Poissons Ratio (y) = 0.36242 0.82844
# Poissons Ratio (z) = 0.03314 0.41041
#
# Static dielectric constant tensor:
#      x y z
#    x 3.609820 0.000000 0.000000 
#    y 0.000000 3.118160 0.000000 
#    z 0.000000 0.000000 3.207220 
# 
# 
# High freq. dielectric constant tensor:
#      x y z
#    x 1.718210 0.000000 0.000000 
#    y 0.000000 1.652400 0.000000 
#    z 0.000000 0.000000 1.681140 
# 
# From -- ./inp_files/25348.got.cif
#   From: 2010.03.12/outbox.cif.g09.slc.cpg/sg62_13_cif.got.tgz:25348.got - 2010.04.10 19:12:36.
