data_PCOD8250815
_publ_section_title
;
Structure prediction by ZEFSAII (Michael W. Deem and Ramdas Pophale) SiO2 
 PCOD8250815
Probable space group: P N M A
;
_chemical_formula_sum "Si O2"
_cell_formula_units_Z 64
_cell_length_a 29.675957
_cell_length_b 8.917875
_cell_length_c 14.286606
_cell_angle_alpha 90.000000
_cell_angle_beta 90.000000
_cell_angle_gamma 90.000000
_cell_volume 3780.899918
_symmetry_space_group_name_H-M "P N M A"
_symmetry_group_IT_number 62
_symmetry_cell_setting 'orthorhombic'
loop_
_space_group_symop_operation_xyz
x,y,z
1/2-x,-y,1/2+z
1/2+x,1/2-y,1/2-z
-x,1/2+y,-z
-x,-y,-z
1/2+x,y,1/2-z
1/2-x,1/2+y,1/2+z
x,1/2-y,z
loop_
_atom_site_type_symbol
_atom_site_label
_atom_site_fract_x
_atom_site_fract_y
_atom_site_fract_z
Si Si1 0.751983 0.577069 0.146430
Si Si2 0.100658 0.421763 0.283470
Si Si3 0.418856 0.926850 0.151612
Si Si4 0.820593 0.077732 0.804322
Si Si5 0.747142 0.072623 0.948095
Si Si6 0.320626 0.572934 0.204362
Si Si7 0.504492 0.421601 0.180998
Si Si8 0.933629 0.428374 0.546815
O O1 0.758297 0.750000 0.120458
O O2 0.708593 0.551826 0.211205
O O3 0.745328 0.487722 0.051923
O O4 0.796067 0.513595 0.201547
O O5 0.112670 0.250000 0.306593
O O6 0.133415 0.482851 0.203024
O O7 0.047805 0.433938 0.249057
O O8 0.105447 0.519191 0.379368
O O9 0.421422 0.750000 0.133738
O O10 0.372998 0.972371 0.205040
O O11 0.460948 0.983595 0.215439
O O12 0.419677 0.015873 0.054779
O O13 0.834201 0.250000 0.815394
O O14 0.793014 0.022049 0.895195
O O15 0.745305 0.250000 0.952465
O O16 0.704460 0.010028 0.888609
O O17 0.313645 0.750000 0.203186
O O18 0.489803 0.250000 0.165321
O O19 0.519705 0.491980 0.080503
O O20 0.938890 0.250000 0.548458
#
# Coordination Sequence:
#
# PCOD8250815 Si02
#       8
#     8   8   8   8   8   8   8   8
#     4   9  18  34  51  70  96 126 159 199 237 282
#     4   9  19  31  45  65  92 122 156 193 234 277
#     4  11  19  29  46  66  90 128 166 196 233 285
#     4   9  18  32  49  70  98 126 158 196 239 284
#     4   9  18  33  51  71  96 128 157 195 244 285
#     4   8  18  34  49  68  98 129 160 194 238 287
#     4   9  19  32  43  63  93 127 160 198 238 279
#     4  10  19  30  43  62  92 125 157 194 234 277
#
# _framework density 16.927187
#
# number of rings (size 3 to 8) (size 9 to 14) (size 15 to 20)
#    0.750    2.000    0.000    3.750    1.750    1.000 
#    0.000    3.750    0.000    0.000    0.000    0.875 
#    0.000    0.000    0.000    0.000    0.000    0.000 
#
# Total GULP energy -792925.362467 kJ/mol
# GULP energy per Si atom -12389.458789 kJ/mol
# Density = 1.688866 g / cm^3
# Si number density = 16.927187 Si / 1000 Ang^3
#
#
#
# Elastic Constant Matrix: (Units=GPa)
#
#
# Indices 1 2 3 4 5 6 
#
# 1 91.2012 35.3801 14.7571 0.0000 0.0000 0.0000
# 2 35.3801 61.9650 8.7256 0.0000 0.0000 0.0000
# 3 14.7571 8.7256 43.7300 0.0000 0.0000 0.0000
# 4 0.0000 0.0000 0.0000 20.9337 0.0000 0.0000
# 5 0.0000 0.0000 0.0000 0.0000 19.7052 0.0000
# 6 0.0000 0.0000 0.0000 0.0000 0.0000 20.7613
#
#
#
# Elastic Compliance Matrix: (Units=1/GPa)
#
#
# Indices 1 2 3 4 5 6 
#
# 1 0.014545 -0.007834 -0.003345 0.000000 0.000000 0.000000
# 2 -0.007834 0.020824 -0.001511 0.000000 0.000000 0.000000
# 3 -0.003345 -0.001511 0.024298 0.000000 0.000000 0.000000
# 4 0.000000 0.000000 0.000000 0.047770 0.000000 0.000000
# 5 0.000000 0.000000 0.000000 0.000000 0.050748 0.000000
# 6 0.000000 0.000000 0.000000 0.000000 0.000000 0.048167
#
#
# Mechanical properties :
#
#
# Convention : Reuss Voigt Hill
#
# Bulk Modulus (GPa) = 29.16646 34.95799 32.06222
# Shear Modulus (GPa) = 20.56250 21.48225 21.02237
#
# Velocity S-wave (km/s) = 3.48912 3.56630 3.52793
# Velocity P-wave (km/s) = 5.78791 6.13635 5.96468
#
# Compressibility (1/GPa) = 0.03428596
#
# Stress axis : x y z
#
# Youngs Moduli (GPa) = 68.75202 48.02203 41.15552
#
# Poissons Ratio (x) = 0.37619 0.13768
# Poissons Ratio (y) = 0.53858 0.06221
# Poissons Ratio (z) = 0.22999 0.07259
#
# Static dielectric constant tensor:
#      x y z
#    x 3.401320 0.000000 0.000000 
#    y 0.000000 3.056180 0.000000 
#    z 0.000000 0.000000 2.840940 
# 
# 
# High freq. dielectric constant tensor:
#      x y z
#    x 1.658710 0.000000 0.000000 
#    y 0.000000 1.649340 0.000000 
#    z 0.000000 0.000000 1.605270 
# 
# From -- ./inp_files/21249.got.cif
#   From: 2010.03.12/outbox.cif.g09.slc.cpg/sg62_11_cif.got.tgz:21249.got - 2010.04.10 19:12:36.
