data_PCOD8250169
_publ_section_title
;
Structure prediction by ZEFSAII (Michael W. Deem and Ramdas Pophale) SiO2 
 PCOD8250169
Probable space group: P N M A
;
_chemical_formula_sum "Si O2"
_cell_formula_units_Z 64
_cell_length_a 26.500706
_cell_length_b 8.972970
_cell_length_c 18.619471
_cell_angle_alpha 90.000000
_cell_angle_beta 90.000000
_cell_angle_gamma 90.000000
_cell_volume 4427.524752
_symmetry_space_group_name_H-M "P N M A"
_symmetry_group_IT_number 62
_symmetry_cell_setting 'orthorhombic'
loop_
_space_group_symop_operation_xyz
x,y,z
1/2-x,-y,1/2+z
1/2+x,1/2-y,1/2-z
-x,1/2+y,-z
-x,-y,-z
1/2+x,y,1/2-z
1/2-x,1/2+y,1/2+z
x,1/2-y,z
loop_
_atom_site_type_symbol
_atom_site_label
_atom_site_fract_x
_atom_site_fract_y
_atom_site_fract_z
Si Si1 0.255100 0.577485 0.573925
Si Si2 0.350337 0.078627 0.345393
Si Si3 0.301378 0.423059 0.780963
Si Si4 0.853236 0.573824 0.840590
Si Si5 0.209624 0.579625 0.714191
Si Si6 0.554447 0.576703 0.417188
Si Si7 0.048646 0.923708 0.917048
Si Si8 0.255182 0.573656 0.415930
O O1 0.263864 0.750000 0.560022
O O2 0.306359 0.515195 0.610773
O O3 0.207104 0.550353 0.627882
O O4 0.244525 0.506249 0.495701
O O5 0.346319 0.250000 0.368844
O O6 0.342622 0.060095 0.258473
O O7 0.405542 0.019445 0.366786
O O8 0.307490 0.993336 0.388596
O O9 0.314288 0.250000 0.771882
O O10 0.345301 0.516906 0.741607
O O11 0.248031 0.459257 0.744746
O O12 0.292915 0.467516 0.865075
O O13 0.857055 0.750000 0.839593
O O14 0.904519 0.508763 0.870895
O O15 0.230205 0.750000 0.725779
O O16 0.558041 0.750000 0.399539
O O17 0.563881 0.542841 0.500885
O O18 0.499675 0.518271 0.393625
O O19 0.036258 0.750000 0.906006
O O20 0.262326 0.750000 0.415393
#
# Coordination Sequence:
#
# PCOD8250169 Si02
#       8
#     8   8   8   8   8   8   8   8
#     4   8  14  24  38  56  76 100 129 155 183 222
#     4   9  16  26  40  56  75 101 131 160 189 222
#     4   9  16  25  37  54  76 100 127 158 188 221
#     4  10  18  28  42  56  75 104 133 161 193 229
#     4   8  14  25  39  54  74 100 128 157 188 223
#     4  10  19  29  41  57  77 101 131 165 195 225
#     4   9  18  30  41  56  79 104 130 161 195 228
#     4   9  16  25  38  56  78 103 129 157 187 221
#
# _framework density 14.455028
#
# number of rings (size 3 to 8) (size 9 to 14) (size 15 to 20)
#    0.000    3.000    0.000    2.625    0.000    1.500 
#    0.000    2.500    0.000    0.000    0.000    0.000 
#    0.000    1.000    0.000    1.750    0.000    2.500 
#
# Total GULP energy -792870.039124 kJ/mol
# GULP energy per Si atom -12388.594361 kJ/mol
# Density = 1.442213 g / cm^3
# Si number density = 14.455028 Si / 1000 Ang^3
#
#
#
# Elastic Constant Matrix: (Units=GPa)
#
#
# Indices 1 2 3 4 5 6 
#
# 1 86.1232 32.4019 62.8125 0.0000 0.0000 0.0000
# 2 32.4019 42.5683 33.0199 0.0000 0.0000 0.0000
# 3 62.8125 33.0199 121.8432 0.0000 0.0000 0.0000
# 4 0.0000 0.0000 0.0000 15.6824 0.0000 0.0000
# 5 0.0000 0.0000 0.0000 0.0000 26.8018 0.0000
# 6 0.0000 0.0000 0.0000 0.0000 0.0000 20.0212
#
#
#
# Elastic Compliance Matrix: (Units=1/GPa)
#
#
# Indices 1 2 3 4 5 6 
#
# 1 0.021410 -0.009794 -0.008383 0.000000 0.000000 0.000000
# 2 -0.009794 0.034225 -0.004226 0.000000 0.000000 0.000000
# 3 -0.008383 -0.004226 0.013674 0.000000 0.000000 0.000000
# 4 0.000000 0.000000 0.000000 0.063766 0.000000 0.000000
# 5 0.000000 0.000000 0.000000 0.000000 0.037311 0.000000
# 6 0.000000 0.000000 0.000000 0.000000 0.000000 0.049947
#
#
# Mechanical properties :
#
#
# Convention : Reuss Voigt Hill
#
# Bulk Modulus (GPa) = 40.81189 56.33371 48.57280
# Shear Modulus (GPa) = 18.29445 20.65443 19.47444
#
# Velocity S-wave (km/s) = 3.56140 3.78415 3.67446
# Velocity P-wave (km/s) = 6.72357 7.62557 7.18873
#
# Compressibility (1/GPa) = 0.02450266
#
# Stress axis : x y z
#
# Youngs Moduli (GPa) = 46.70668 29.21860 73.13063
#
# Poissons Ratio (x) = 0.28617 0.61306
# Poissons Ratio (y) = 0.45745 0.30904
# Poissons Ratio (z) = 0.39155 0.12348
#
# Static dielectric constant tensor:
#      x y z
#    x 2.660020 0.000000 0.000000 
#    y 0.000000 2.786260 0.000000 
#    z 0.000000 0.000000 3.220900 
# 
# 
# High freq. dielectric constant tensor:
#      x y z
#    x 1.515980 0.000000 0.000000 
#    y 0.000000 1.551890 0.000000 
#    z 0.000000 0.000000 1.548150 
# 
# From -- ./inp_files/24914.got.cif
#   From: 2010.03.12/outbox.cif.g09.slc.cpg/sg62_13_cif.got.tgz:24914.got - 2010.04.10 19:12:36.
