data_PCOD8250841
_publ_section_title
;
Structure prediction by ZEFSAII (Michael W. Deem and Ramdas Pophale) SiO2 
 PCOD8250841
Probable space group: P N M A
;
_chemical_formula_sum "Si O2"
_cell_formula_units_Z 64
_cell_length_a 35.897886
_cell_length_b 9.184545
_cell_length_c 12.030338
_cell_angle_alpha 90.000000
_cell_angle_beta 90.000000
_cell_angle_gamma 90.000000
_cell_volume 3966.471605
_symmetry_space_group_name_H-M "P N M A"
_symmetry_group_IT_number 62
_symmetry_cell_setting 'orthorhombic'
loop_
_space_group_symop_operation_xyz
x,y,z
1/2-x,-y,1/2+z
1/2+x,1/2-y,1/2-z
-x,1/2+y,-z
-x,-y,-z
1/2+x,y,1/2-z
1/2-x,1/2+y,1/2+z
x,1/2-y,z
loop_
_atom_site_type_symbol
_atom_site_label
_atom_site_fract_x
_atom_site_fract_y
_atom_site_fract_z
Si Si1 0.034421 0.910882 0.631040
Si Si2 0.242124 0.914253 0.173099
Si Si3 0.465298 0.087854 0.866780
Si Si4 0.172137 0.079757 0.200573
Si Si5 0.312941 0.420586 0.244984
Si Si6 0.185888 0.586080 0.995730
Si Si7 0.884335 0.079675 0.397521
Si Si8 0.108233 0.079185 0.375647
O O1 0.026844 0.750000 0.679644
O O2 0.031752 0.906802 0.498589
O O3 0.076348 0.963344 0.660921
O O4 0.003396 0.018226 0.682148
O O5 0.245868 0.750000 0.219664
O O6 0.210195 0.000642 0.243485
O O7 0.281401 0.994446 0.177980
O O8 0.228395 0.912618 0.043935
O O9 0.461043 0.250000 0.817236
O O10 0.429961 0.991573 0.831412
O O11 0.179954 0.250000 0.190134
O O12 0.139354 0.044047 0.285014
O O13 0.161129 0.015078 0.078364
O O14 0.303768 0.250000 0.240401
O O15 0.314098 0.477812 0.371615
O O16 0.352242 0.458010 0.189449
O O17 0.169287 0.750000 0.995832
O O18 0.885031 0.250000 0.430559
O O19 0.877845 0.988139 0.508817
O O20 0.101649 0.250000 0.392193
#
# Coordination Sequence:
#
# PCOD8250841 Si02
#       8
#     8   8   8   8   8   8   8   8
#     4   8  14  26  40  60  92 124 156 188 226 276
#     4   9  19  33  48  69  91 119 154 190 233 275
#     4   9  16  25  42  65  90 125 159 190 229 279
#     4   9  18  33  50  68  91 123 157 192 235 276
#     4  10  19  34  52  71  95 123 156 194 236 280
#     4   8  18  34  50  68  91 119 154 192 232 279
#     4   9  19  31  46  69  96 128 159 191 232 282
#     4  10  19  30  46  70  99 126 156 194 236 279
#
# _framework density 16.135247
#
# number of rings (size 3 to 8) (size 9 to 14) (size 15 to 20)
#    0.750    2.250    0.000    1.875    0.000    7.000 
#    0.000    3.750    0.000    0.000    0.000    0.875 
#    0.000    0.000    0.000    0.000    0.000    0.000 
#
# Total GULP energy -793090.315427 kJ/mol
# GULP energy per Si atom -12392.036179 kJ/mol
# Density = 1.609852 g / cm^3
# Si number density = 16.135247 Si / 1000 Ang^3
#
#
#
# Elastic Constant Matrix: (Units=GPa)
#
#
# Indices 1 2 3 4 5 6 
#
# 1 127.2015 66.2689 43.3552 0.0000 0.0000 0.0000
# 2 66.2689 94.6117 38.5237 0.0000 0.0000 0.0000
# 3 43.3552 38.5237 60.2042 0.0000 0.0000 0.0000
# 4 0.0000 0.0000 0.0000 15.3698 0.0000 0.0000
# 5 0.0000 0.0000 0.0000 0.0000 18.4762 0.0000
# 6 0.0000 0.0000 0.0000 0.0000 0.0000 28.7092
#
#
#
# Elastic Compliance Matrix: (Units=1/GPa)
#
#
# Indices 1 2 3 4 5 6 
#
# 1 0.013375 -0.007366 -0.004919 0.000000 0.000000 0.000000
# 2 -0.007366 0.018350 -0.006437 0.000000 0.000000 0.000000
# 3 -0.004919 -0.006437 0.024272 0.000000 0.000000 0.000000
# 4 0.000000 0.000000 0.000000 0.065063 0.000000 0.000000
# 5 0.000000 0.000000 0.000000 0.000000 0.054124 0.000000
# 6 0.000000 0.000000 0.000000 0.000000 0.000000 0.034832
#
#
# Mechanical properties :
#
#
# Convention : Reuss Voigt Hill
#
# Bulk Modulus (GPa) = 53.90037 64.25701 59.07869
# Shear Modulus (GPa) = 19.71265 21.43566 20.57415
#
# Velocity S-wave (km/s) = 3.49909 3.64881 3.57474
# Velocity P-wave (km/s) = 7.05711 7.59356 7.33024
#
# Compressibility (1/GPa) = 0.01855275
#
# Stress axis : x y z
#
# Youngs Moduli (GPa) = 74.76377 54.49633 41.20027
#
# Poissons Ratio (x) = 0.40140 0.20266
# Poissons Ratio (y) = 0.55069 0.26523
# Poissons Ratio (z) = 0.36776 0.35082
#
# Static dielectric constant tensor:
#      x y z
#    x 3.144200 0.000000 0.000000 
#    y 0.000000 3.178980 0.000000 
#    z 0.000000 0.000000 2.688050 
# 
# 
# High freq. dielectric constant tensor:
#      x y z
#    x 1.619160 0.000000 0.000000 
#    y 0.000000 1.630940 0.000000 
#    z 0.000000 0.000000 1.571500 
# 
# From -- ./inp_files/21254.got.cif
#   From: 2010.03.12/outbox.cif.g09.slc.cpg/sg62_11_cif.got.tgz:21254.got - 2010.04.10 19:12:36.
