data_PCOD8250735
_publ_section_title
;
Structure prediction by ZEFSAII (Michael W. Deem and Ramdas Pophale) SiO2 
 PCOD8250735
Probable space group: P N M A
;
_chemical_formula_sum "Si O2"
_cell_formula_units_Z 48
_cell_length_a 18.809716
_cell_length_b 14.201652
_cell_length_c 8.970275
_cell_angle_alpha 90.000000
_cell_angle_beta 90.000000
_cell_angle_gamma 90.000000
_cell_volume 2396.220957
_symmetry_space_group_name_H-M "P N M A"
_symmetry_group_IT_number 62
_symmetry_cell_setting 'orthorhombic'
loop_
_space_group_symop_operation_xyz
x,y,z
1/2-x,-y,1/2+z
1/2+x,1/2-y,1/2-z
-x,1/2+y,-z
-x,-y,-z
1/2+x,y,1/2-z
1/2-x,1/2+y,1/2+z
x,1/2-y,z
loop_
_atom_site_type_symbol
_atom_site_label
_atom_site_fract_x
_atom_site_fract_y
_atom_site_fract_z
Si Si1 0.100197 0.029556 0.703173
Si Si2 0.038341 0.646732 0.225883
Si Si3 0.348426 0.474049 0.886794
Si Si4 0.977463 0.408081 0.087335
Si Si5 0.792992 0.640280 0.112057
Si Si6 0.873390 0.855294 0.806781
O O1 0.169366 0.090094 0.747866
O O2 0.031951 0.096063 0.715331
O O3 0.108050 0.993320 0.536129
O O4 0.088865 0.936048 0.806032
O O5 0.040261 0.750000 0.299372
O O6 0.106654 0.588401 0.273431
O O7 0.042378 0.662983 0.045827
O O8 0.277655 0.417253 0.926245
O O9 0.333452 0.573507 0.804902
O O10 0.041526 0.370600 0.190939
O O11 0.000000 0.500000 0.000000
O O12 0.776435 0.750000 0.148024
O O13 0.845968 0.630548 0.973958
O O14 0.856594 0.750000 0.749623
#
# Coordination Sequence:
#
# PCOD8250735 Si02
#       6
#     8   8   8   8   8   8
#     4  11  22  39  64  92 125 158 208 254 313 364
#     4  11  21  38  63  91 124 162 208 256 304 366
#     4  12  24  40  59  96 132 161 196 261 320 361
#     4  10  18  37  64  89 115 157 211 252 301 361
#     4  11  23  42  64  86 121 173 213 246 303 375
#     4  11  22  40  64  89 121 165 212 252 303 374
#
# _framework density 20.031541000000001
#
# number of rings (size 3 to 8) (size 9 to 14) (size 15 to 20)
#    0.000    1.000    6.667    3.000    0.000    1.333 
#    0.000    2.500    0.000    6.000    0.000    0.000 
#    0.000    0.000    0.000    0.000    0.000    0.000 
#
# Total GULP energy -595155.619916 kJ/mol
# GULP energy per Si atom -12399.075415 kJ/mol
# Density = 1.998595 g / cm^3
# Si number density = 20.031541 Si / 1000 Ang^3
#
#
#
# Elastic Constant Matrix: (Units=GPa)
#
#
# Indices 1 2 3 4 5 6 
#
# 1 67.8600 49.8192 18.7391 0.0000 0.0000 0.0000
# 2 49.8192 118.8636 30.2944 0.0000 0.0000 0.0000
# 3 18.7391 30.2944 73.2587 0.0000 0.0000 0.0000
# 4 0.0000 0.0000 0.0000 20.1805 0.0000 0.0000
# 5 0.0000 0.0000 0.0000 0.0000 19.8852 0.0000
# 6 0.0000 0.0000 0.0000 0.0000 0.0000 20.8970
#
#
#
# Elastic Compliance Matrix: (Units=1/GPa)
#
#
# Indices 1 2 3 4 5 6 
#
# 1 0.021541 -0.008522 -0.001986 0.000000 0.000000 0.000000
# 2 -0.008522 0.012776 -0.003103 0.000000 0.000000 0.000000
# 3 -0.001986 -0.003103 0.015441 0.000000 0.000000 0.000000
# 4 0.000000 0.000000 0.000000 0.049553 0.000000 0.000000
# 5 0.000000 0.000000 0.000000 0.000000 0.050289 0.000000
# 6 0.000000 0.000000 0.000000 0.000000 0.000000 0.047854
#
#
# Mechanical properties :
#
#
# Convention : Reuss Voigt Hill
#
# Bulk Modulus (GPa) = 44.37409 50.85420 47.61415
# Shear Modulus (GPa) = 21.53420 22.93452 22.23436
#
# Velocity S-wave (km/s) = 3.28230 3.38734 3.33523
# Velocity P-wave (km/s) = 6.04689 6.38286 6.21714
#
# Compressibility (1/GPa) = 0.02253568
#
# Stress axis : x y z
#
# Youngs Moduli (GPa) = 46.42236 78.27222 64.76067
#
# Poissons Ratio (x) = 0.66707 0.12861
# Poissons Ratio (y) = 0.39563 0.20096
# Poissons Ratio (z) = 0.09219 0.24289
#
# Static dielectric constant tensor:
#      x y z
#    x 3.686580 0.000000 0.000000 
#    y 0.000000 3.978350 0.000000 
#    z 0.000000 0.000000 4.034400 
# 
# 
# High freq. dielectric constant tensor:
#      x y z
#    x 1.767890 0.000000 0.000000 
#    y 0.000000 1.792220 0.000000 
#    z 0.000000 0.000000 1.775050 
# 
# From -- ./inp_files/7616.got.cif
#   From: 2010.03.12/outbox.cif.g09.slc.cpg/sg62_4_cif.got.tgz:7616.got - 2010.04.10 19:12:36.
