data_PCOD8250572
_publ_section_title
;
Structure prediction by ZEFSAII (Michael W. Deem and Ramdas Pophale) SiO2 
 PCOD8250572
Probable space group: P N M A
;
_chemical_formula_sum "Si O2"
_cell_formula_units_Z 64
_cell_length_a 19.800881
_cell_length_b 8.912495
_cell_length_c 20.576066
_cell_angle_alpha 90.000000
_cell_angle_beta 90.000000
_cell_angle_gamma 90.000000
_cell_volume 3631.166451
_symmetry_space_group_name_H-M "P N M A"
_symmetry_group_IT_number 62
_symmetry_cell_setting 'orthorhombic'
loop_
_space_group_symop_operation_xyz
x,y,z
1/2-x,-y,1/2+z
1/2+x,1/2-y,1/2-z
-x,1/2+y,-z
-x,-y,-z
1/2+x,y,1/2-z
1/2-x,1/2+y,1/2+z
x,1/2-y,z
loop_
_atom_site_type_symbol
_atom_site_label
_atom_site_fract_x
_atom_site_fract_y
_atom_site_fract_z
Si Si1 0.304786 0.922949 0.428633
Si Si2 0.569087 0.577871 0.379018
Si Si3 0.426366 0.574292 0.237433
Si Si4 0.287030 0.428896 0.812328
Si Si5 0.713833 0.075860 0.817973
Si Si6 0.572402 0.921062 0.227010
Si Si7 0.299320 0.922091 0.574997
Si Si8 0.429515 0.072671 0.373575
O O1 0.322049 0.750000 0.412381
O O2 0.249445 0.986311 0.377548
O O3 0.274315 0.939435 0.500746
O O4 0.372957 0.019503 0.424308
O O5 0.559353 0.750000 0.399216
O O6 0.586144 0.561211 0.303320
O O7 0.630994 0.510438 0.418539
O O8 0.501258 0.489978 0.397424
O O9 0.434311 0.750000 0.255785
O O10 0.367042 0.549544 0.185411
O O11 0.498247 0.510806 0.209547
O O12 0.407939 0.489307 0.303337
O O13 0.289583 0.250000 0.810857
O O14 0.246828 0.485018 0.748647
O O15 0.363768 0.496787 0.810026
O O16 0.731602 0.250000 0.828114
O O17 0.740541 0.985647 0.879493
O O18 0.570887 0.750000 0.205179
O O19 0.312305 0.750000 0.593497
O O20 0.433475 0.250000 0.371411
#
# Coordination Sequence:
#
# PCOD8250572 Si02
#       8
#     8   8   8   8   8   8   8   8
#     4  10  21  37  53  71 103 144 178 215 262 319
#     4  10  19  34  54  74 102 141 178 210 252 315
#     4   9  17  31  52  77 105 137 174 215 261 315
#     4   9  15  29  54  78  96 127 179 220 253 304
#     4  10  18  32  55  77 100 137 178 216 260 314
#     4   8  14  26  50  79  97 120 168 219 252 290
#     4  11  23  35  50  76 107 137 173 220 272 313
#     4  11  21  32  50  78 108 137 172 217 263 308
#
# _framework density 17.625191000000001
#
# number of rings (size 3 to 8) (size 9 to 14) (size 15 to 20)
#    0.000    2.250    2.500    2.625    0.000    2.000 
#    0.000    0.000    0.000    0.750    0.000    0.000 
#    0.000    0.000    0.000    0.000    0.000    0.125 
#
# Total GULP energy -793392.013167 kJ/mol
# GULP energy per Si atom -12396.750206 kJ/mol
# Density = 1.758508 g / cm^3
# Si number density = 17.625191 Si / 1000 Ang^3
#
#
#
# Elastic Constant Matrix: (Units=GPa)
#
#
# Indices 1 2 3 4 5 6 
#
# 1 127.7567 35.5952 59.0326 0.0000 0.0000 0.0000
# 2 35.5952 75.5276 33.3898 0.0000 0.0000 0.0000
# 3 59.0326 33.3898 86.5997 0.0000 0.0000 0.0000
# 4 0.0000 0.0000 0.0000 20.2442 0.0000 0.0000
# 5 0.0000 0.0000 0.0000 0.0000 24.4540 0.0000
# 6 0.0000 0.0000 0.0000 0.0000 0.0000 19.5056
#
#
#
# Elastic Compliance Matrix: (Units=1/GPa)
#
#
# Indices 1 2 3 4 5 6 
#
# 1 0.011780 -0.002413 -0.007100 0.000000 0.000000 0.000000
# 2 -0.002413 0.016455 -0.004700 0.000000 0.000000 0.000000
# 3 -0.007100 -0.004700 0.018199 0.000000 0.000000 0.000000
# 4 0.000000 0.000000 0.000000 0.049397 0.000000 0.000000
# 5 0.000000 0.000000 0.000000 0.000000 0.040893 0.000000
# 6 0.000000 0.000000 0.000000 0.000000 0.000000 0.051267
#
#
# Mechanical properties :
#
#
# Convention : Reuss Voigt Hill
#
# Bulk Modulus (GPa) = 55.52646 60.65769 58.09208
# Shear Modulus (GPa) = 22.47996 23.63185 23.05591
#
# Velocity S-wave (km/s) = 3.57521 3.66567 3.62072
# Velocity P-wave (km/s) = 6.97247 7.23921 7.10709
#
# Compressibility (1/GPa) = 0.01800943
#
# Stress axis : x y z
#
# Youngs Moduli (GPa) = 84.88683 60.77155 54.94756
#
# Poissons Ratio (x) = 0.14665 0.39012
# Poissons Ratio (y) = 0.20485 0.25823
# Poissons Ratio (z) = 0.60269 0.28560
#
# Static dielectric constant tensor:
#      x y z
#    x 3.597480 0.000000 0.000000 
#    y 0.000000 3.061860 0.000000 
#    z 0.000000 0.000000 3.057600 
# 
# 
# High freq. dielectric constant tensor:
#      x y z
#    x 1.693360 0.000000 0.000000 
#    y 0.000000 1.656920 0.000000 
#    z 0.000000 0.000000 1.651920 
# 
# From -- ./inp_files/24825.got.cif
#   From: 2010.03.12/outbox.cif.g09.slc.cpg/sg62_13_cif.got.tgz:24825.got - 2010.04.10 19:12:36.
