data_PCOD8250850
_publ_section_title
;
Structure prediction by ZEFSAII (Michael W. Deem and Ramdas Pophale) SiO2 
 PCOD8250850
Probable space group: P N M A
;
_chemical_formula_sum "Si O2"
_cell_formula_units_Z 64
_cell_length_a 11.897359
_cell_length_b 24.157794
_cell_length_c 13.057527
_cell_angle_alpha 90.000000
_cell_angle_beta 90.000000
_cell_angle_gamma 90.000000
_cell_volume 3752.915384
_symmetry_space_group_name_H-M "P N M A"
_symmetry_group_IT_number 62
_symmetry_cell_setting 'orthorhombic'
loop_
_space_group_symop_operation_xyz
x,y,z
1/2-x,-y,1/2+z
1/2+x,1/2-y,1/2-z
-x,1/2+y,-z
-x,-y,-z
1/2+x,y,1/2-z
1/2-x,1/2+y,1/2+z
x,1/2-y,z
loop_
_atom_site_type_symbol
_atom_site_label
_atom_site_fract_x
_atom_site_fract_y
_atom_site_fract_z
Si Si1 0.168451 0.977611 0.430512
Si Si2 0.580399 0.810096 0.156646
Si Si3 0.594298 0.986151 0.629594
Si Si4 0.648508 0.814184 0.390254
Si Si5 0.989072 0.593482 0.022583
Si Si6 0.282735 0.869239 0.387076
Si Si7 0.923066 0.501766 0.360049
Si Si8 0.132632 0.373786 0.662829
O O1 0.197941 0.920681 0.373885
O O2 0.057762 0.001731 0.375595
O O3 0.279896 0.015893 0.418411
O O4 0.140225 0.967774 0.550635
O O5 0.532952 0.750000 0.130572
O O6 0.604009 0.816845 0.276023
O O7 0.699331 0.817571 0.097123
O O8 0.487112 0.853186 0.121710
O O9 0.522855 0.935455 0.583197
O O10 0.528093 0.044415 0.608245
O O11 0.602979 0.975179 0.750382
O O12 0.643634 0.750000 0.430776
O O13 0.575250 0.857333 0.455055
O O14 0.774098 0.838302 0.396808
O O15 0.866211 0.623092 0.016234
O O16 0.357220 0.863562 0.284529
O O17 0.865547 0.562063 0.366167
#
# Coordination Sequence:
#
# PCOD8250850 Si02
#       8
#     8   8   8   8   8   8   8   8
#     4  10  21  32  48  78 102 138 179 211 266 323
#     4  10  19  30  47  71 102 138 172 208 264 324
#     4  10  21  34  53  76 104 145 181 218 278 324
#     4  10  20  30  46  72 103 138 174 216 264 320
#     4  10  19  34  49  74 101 137 182 216 263 330
#     4  10  19  32  47  70 102 137 173 211 252 313
#     4  11  20  33  52  74 107 139 174 226 266 323
#     4  11  18  31  50  67 104 142 170 209 263 317
#
# _framework density 17.053408999999998
#
# number of rings (size 3 to 8) (size 9 to 14) (size 15 to 20)
#    0.000    1.750    5.000    1.125    1.750    4.000 
#    0.000    0.000    0.000    0.000    0.000    0.875 
#    0.000    3.000    0.000    0.000    0.000    0.000 
#
# Total GULP energy -792988.615083 kJ/mol
# GULP energy per Si atom -12390.447111 kJ/mol
# Density = 1.701459 g / cm^3
# Si number density = 17.053409 Si / 1000 Ang^3
#
#
#
# Elastic Constant Matrix: (Units=GPa)
#
#
# Indices 1 2 3 4 5 6 
#
# 1 107.4687 38.9832 37.1508 0.0000 0.0000 0.0000
# 2 38.9832 72.8761 17.3214 0.0000 0.0000 0.0000
# 3 37.1508 17.3214 72.6644 0.0000 0.0000 0.0000
# 4 0.0000 0.0000 0.0000 18.0574 0.0000 0.0000
# 5 0.0000 0.0000 0.0000 0.0000 19.6191 0.0000
# 6 0.0000 0.0000 0.0000 0.0000 0.0000 23.3823
#
#
#
# Elastic Compliance Matrix: (Units=1/GPa)
#
#
# Indices 1 2 3 4 5 6 
#
# 1 0.013285 -0.005822 -0.005404 0.000000 0.000000 0.000000
# 2 -0.005822 0.017097 -0.001099 0.000000 0.000000 0.000000
# 3 -0.005404 -0.001099 0.016787 0.000000 0.000000 0.000000
# 4 0.000000 0.000000 0.000000 0.055379 0.000000 0.000000
# 5 0.000000 0.000000 0.000000 0.000000 0.050971 0.000000
# 6 0.000000 0.000000 0.000000 0.000000 0.000000 0.042767
#
#
# Mechanical properties :
#
#
# Convention : Reuss Voigt Hill
#
# Bulk Modulus (GPa) = 44.40754 48.88000 46.64377
# Shear Modulus (GPa) = 21.88723 22.84870 22.36796
#
# Velocity S-wave (km/s) = 3.58642 3.66434 3.62559
# Velocity P-wave (km/s) = 6.57622 6.82849 6.70354
#
# Compressibility (1/GPa) = 0.02251870
#
# Stress axis : x y z
#
# Youngs Moduli (GPa) = 75.27192 58.48820 59.57004
#
# Poissons Ratio (x) = 0.34052 0.32194
# Poissons Ratio (y) = 0.43823 0.06547
# Poissons Ratio (z) = 0.40680 0.06428
#
# Static dielectric constant tensor:
#      x y z
#    x 3.468100 0.000000 0.000000 
#    y 0.000000 3.184700 0.000000 
#    z 0.000000 0.000000 2.882130 
# 
# 
# High freq. dielectric constant tensor:
#      x y z
#    x 1.683320 0.000000 0.000000 
#    y 0.000000 1.641150 0.000000 
#    z 0.000000 0.000000 1.606260 
# 
# From -- ./inp_files/12561.got.cif
#   From: 2010.03.12/outbox.cif.g09.slc.cpg/sg62_7_cif.got.tgz:12561.got - 2010.04.10 19:12:36.
