data_PCOD8250658
_publ_section_title
;
Structure prediction by ZEFSAII (Michael W. Deem and Ramdas Pophale) SiO2 
 PCOD8250658
Probable space group: P N M A
;
_chemical_formula_sum "Si O2"
_cell_formula_units_Z 56
_cell_length_a 23.114407
_cell_length_b 15.133201
_cell_length_c 8.528151
_cell_angle_alpha 90.000000
_cell_angle_beta 90.000000
_cell_angle_gamma 90.000000
_cell_volume 2983.104299
_symmetry_space_group_name_H-M "P N M A"
_symmetry_group_IT_number 62
_symmetry_cell_setting 'orthorhombic'
loop_
_space_group_symop_operation_xyz
x,y,z
1/2-x,-y,1/2+z
1/2+x,1/2-y,1/2-z
-x,1/2+y,-z
-x,-y,-z
1/2+x,y,1/2-z
1/2-x,1/2+y,1/2+z
x,1/2-y,z
loop_
_atom_site_type_symbol
_atom_site_label
_atom_site_fract_x
_atom_site_fract_y
_atom_site_fract_z
Si Si1 0.559949 0.008026 0.585876
Si Si2 0.212007 0.849839 0.009547
Si Si3 0.660582 0.152765 0.094685
Si Si4 0.070820 0.908624 0.456265
Si Si5 0.445139 0.901407 0.099520
Si Si6 0.359108 0.486328 0.689485
Si Si7 0.117168 0.848285 0.763479
O O1 0.609253 0.027552 0.460158
O O2 0.569271 0.913284 0.666909
O O3 0.500000 0.000000 0.500000
O O4 0.561537 0.087147 0.712699
O O5 0.196222 0.750000 0.066070
O O6 0.193522 0.923846 0.135375
O O7 0.280456 0.860166 0.999947
O O8 0.180335 0.867430 0.840317
O O9 0.660993 0.250000 0.177851
O O10 0.660345 0.072407 0.215926
O O11 0.607042 0.155524 0.972499
O O12 0.099913 0.919867 0.286674
O O13 0.115621 0.859090 0.573723
O O14 0.008600 0.858730 0.437385
O O15 0.057913 0.004824 0.518897
O O16 0.097179 0.750000 0.806942
#
# Coordination Sequence:
#
# PCOD8250658 Si02
#       7
#     8   8   8   8   8   8   8
#     4  10  18  34  55  76 111 145 178 228 284 334
#     4   9  20  39  57  78 111 147 191 241 283 329
#     4  10  22  39  57  81 118 156 189 231 285 347
#     4   9  17  31  52  80 107 137 182 228 272 336
#     4   9  18  33  52  75 110 148 177 216 282 339
#     4  10  20  34  60  85 109 148 192 235 288 335
#     4   9  19  33  52  77 104 140 185 231 280 328
#
# _framework density 18.772392
#
# number of rings (size 3 to 8) (size 9 to 14) (size 15 to 20)
#    0.000    2.571    1.429    0.000    2.000    5.714 
#    0.000    1.429    0.000    4.286    0.000    0.000 
#    0.000    0.000    0.000    0.000    0.000    0.000 
#
# Total GULP energy -693838.427097 kJ/mol
# GULP energy per Si atom -12389.971912 kJ/mol
# Density = 1.872967 g / cm^3
# Si number density = 18.772392 Si / 1000 Ang^3
#
#
#
# Elastic Constant Matrix: (Units=GPa)
#
#
# Indices 1 2 3 4 5 6 
#
# 1 115.0887 43.9726 40.1318 0.0000 0.0000 0.0000
# 2 43.9726 93.8735 38.2963 0.0000 0.0000 0.0000
# 3 40.1318 38.2963 99.6746 0.0000 0.0000 0.0000
# 4 0.0000 0.0000 0.0000 24.7679 0.0000 0.0000
# 5 0.0000 0.0000 0.0000 0.0000 18.4590 0.0000
# 6 0.0000 0.0000 0.0000 0.0000 0.0000 18.1311
#
#
#
# Elastic Compliance Matrix: (Units=1/GPa)
#
#
# Indices 1 2 3 4 5 6 
#
# 1 0.011283 -0.004070 -0.002979 0.000000 0.000000 0.000000
# 2 -0.004070 0.014101 -0.003779 0.000000 0.000000 0.000000
# 3 -0.002979 -0.003779 0.012684 0.000000 0.000000 0.000000
# 4 0.000000 0.000000 0.000000 0.040375 0.000000 0.000000
# 5 0.000000 0.000000 0.000000 0.000000 0.054174 0.000000
# 6 0.000000 0.000000 0.000000 0.000000 0.000000 0.055154
#
#
# Mechanical properties :
#
#
# Convention : Reuss Voigt Hill
#
# Bulk Modulus (GPa) = 60.93229 61.49314 61.21272
# Shear Modulus (GPa) = 23.26702 24.68737 23.97719
#
# Velocity S-wave (km/s) = 3.52437 3.63035 3.57775
# Velocity P-wave (km/s) = 7.00646 7.09936 7.05306
#
# Compressibility (1/GPa) = 0.01641166
#
# Stress axis : x y z
#
# Youngs Moduli (GPa) = 88.63111 70.91843 78.83904
#
# Poissons Ratio (x) = 0.28862 0.23487
# Poissons Ratio (y) = 0.36071 0.29794
# Poissons Ratio (z) = 0.26404 0.26801
#
# Static dielectric constant tensor:
#      x y z
#    x 3.655920 0.000000 0.000000 
#    y 0.000000 3.388170 0.000000 
#    z 0.000000 0.000000 3.681520 
# 
# 
# High freq. dielectric constant tensor:
#      x y z
#    x 1.729060 0.000000 0.000000 
#    y 0.000000 1.716740 0.000000 
#    z 0.000000 0.000000 1.722680 
# 
# From -- ./inp_files/9529.got.cif
#   From: 2010.03.12/outbox.cif.g09.slc.cpg/sg62_5_cif.got.tgz:9529.got - 2010.04.10 19:12:36.
