data_PCOD8250193
_publ_section_title
;
Structure prediction by ZEFSAII (Michael W. Deem and Ramdas Pophale) SiO2 
 PCOD8250193
Probable space group: P N M A
;
_chemical_formula_sum "Si O2"
_cell_formula_units_Z 64
_cell_length_a 5.162831
_cell_length_b 30.436888
_cell_length_c 27.131376
_cell_angle_alpha 90.000000
_cell_angle_beta 90.000000
_cell_angle_gamma 90.000000
_cell_volume 4263.438232
_symmetry_space_group_name_H-M "P N M A"
_symmetry_group_IT_number 62
_symmetry_cell_setting 'orthorhombic'
loop_
_space_group_symop_operation_xyz
x,y,z
1/2-x,-y,1/2+z
1/2+x,1/2-y,1/2-z
-x,1/2+y,-z
-x,-y,-z
1/2+x,y,1/2-z
1/2-x,1/2+y,1/2+z
x,1/2-y,z
loop_
_atom_site_type_symbol
_atom_site_label
_atom_site_fract_x
_atom_site_fract_y
_atom_site_fract_z
Si Si1 0.994151 0.551296 0.615488
Si Si2 0.500626 0.991383 0.579674
Si Si3 0.753440 0.668335 0.728529
Si Si4 0.005508 0.569606 0.014339
Si Si5 0.118845 0.069851 0.273238
Si Si6 0.497612 0.387725 0.020556
Si Si7 0.431690 0.299594 0.067299
Si Si8 0.937244 0.299015 0.129811
O O1 0.264101 0.525291 0.613019
O O2 0.988132 0.590436 0.575111
O O3 0.768540 0.515457 0.608376
O O4 0.955275 0.571510 0.669382
O O5 0.525045 0.964059 0.530078
O O6 0.464141 0.042704 0.565515
O O7 0.533740 0.691775 0.763428
O O8 0.821942 0.619116 0.746128
O O9 0.647004 0.668272 0.672996
O O10 0.233652 0.605412 0.008619
O O11 0.725996 0.592093 0.013351
O O12 0.391331 0.046254 0.259044
O O13 0.432818 0.335880 0.024335
O O14 0.370932 0.250000 0.047535
O O15 0.719132 0.301225 0.088515
O O16 0.212966 0.313383 0.107204
O O17 0.956134 0.250000 0.151851
#
# Coordination Sequence:
#
# PCOD8250193 Si02
#       8
#     8   8   8   8   8   8   8   8
#     4  10  18  28  44  60  77 106 133 158 201 248
#     4   9  17  28  42  62  84 101 122 154 195 243
#     4  10  20  31  43  56  71  91 118 160 207 249
#     4   9  17  28  42  63  85 100 120 154 195 241
#     4  10  20  31  41  56  77 100 131 168 199 230
#     4  10  18  28  45  62  78 104 130 156 199 248
#     4  10  20  32  44  59  78 100 129 163 195 231
#     4  10  20  32  44  56  72  93 121 162 205 247
#
# _framework density 15.011359000000001
#
# number of rings (size 3 to 8) (size 9 to 14) (size 15 to 20)
#    0.000    2.250    0.000    3.750    0.000    7.500 
#    0.000    0.000    0.000    0.000    0.000    0.000 
#    0.000    0.000    0.000    0.000    0.000    0.000 
#
# Total GULP energy -793107.184503 kJ/mol
# GULP energy per Si atom -12392.299758 kJ/mol
# Density = 1.497719 g / cm^3
# Si number density = 15.011359 Si / 1000 Ang^3
#
#
#
# Elastic Constant Matrix: (Units=GPa)
#
#
# Indices 1 2 3 4 5 6 
#
# 1 115.8842 23.1437 20.2622 0.0000 0.0000 0.0000
# 2 23.1437 51.4363 21.6047 0.0000 0.0000 0.0000
# 3 20.2622 21.6047 19.8261 0.0000 0.0000 0.0000
# 4 0.0000 0.0000 0.0000 18.7080 0.0000 0.0000
# 5 0.0000 0.0000 0.0000 0.0000 17.3096 0.0000
# 6 0.0000 0.0000 0.0000 0.0000 0.0000 15.9420
#
#
#
# Elastic Compliance Matrix: (Units=1/GPa)
#
#
# Indices 1 2 3 4 5 6 
#
# 1 0.010511 -0.000401 -0.010306 0.000000 0.000000 0.000000
# 2 -0.000401 0.035866 -0.038674 0.000000 0.000000 0.000000
# 3 -0.010306 -0.038674 0.103114 0.000000 0.000000 0.000000
# 4 0.000000 0.000000 0.000000 0.053453 0.000000 0.000000
# 5 0.000000 0.000000 0.000000 0.000000 0.057771 0.000000
# 6 0.000000 0.000000 0.000000 0.000000 0.000000 0.062727
#
#
# Mechanical properties :
#
#
# Convention : Reuss Voigt Hill
#
# Bulk Modulus (GPa) = 19.71190 35.24086 27.47638
# Shear Modulus (GPa) = 11.38655 18.53431 14.96043
#
# Velocity S-wave (km/s) = 2.75713 3.51762 3.16033
# Velocity P-wave (km/s) = 4.82654 6.32656 5.62676
#
# Compressibility (1/GPa) = 0.05073077
#
# Stress axis : x y z
#
# Youngs Moduli (GPa) = 95.13566 27.88156 9.69797
#
# Poissons Ratio (x) = 0.01118 0.09994
# Poissons Ratio (y) = 0.03814 0.37506
# Poissons Ratio (z) = 0.98044 1.07829
#
# Static dielectric constant tensor:
#      x y z
#    x 3.438510 0.000000 0.000000 
#    y 0.000000 2.787830 0.000000 
#    z 0.000000 0.000000 2.520460 
# 
# 
# High freq. dielectric constant tensor:
#      x y z
#    x 1.611640 0.000000 0.000000 
#    y 0.000000 1.537110 0.000000 
#    z 0.000000 0.000000 1.518800 
# 
# From -- ./inp_files/28484.got.cif
#   From: 2010.03.12/outbox.cif.g09.slc.cpg/sg62_15_cif.got.tgz:28484.got - 2010.04.10 19:12:36.
