data_PCOD8250245
_publ_section_title
;
Structure prediction by ZEFSAII (Michael W. Deem and Ramdas Pophale) SiO2 
 PCOD8250245
Probable space group: P N M A
;
_chemical_formula_sum "Si O2"
_cell_formula_units_Z 64
_cell_length_a 18.242480
_cell_length_b 9.008026
_cell_length_c 25.915022
_cell_angle_alpha 90.000000
_cell_angle_beta 90.000000
_cell_angle_gamma 90.000000
_cell_volume 4258.582761
_symmetry_space_group_name_H-M "P N M A"
_symmetry_group_IT_number 62
_symmetry_cell_setting 'orthorhombic'
loop_
_space_group_symop_operation_xyz
x,y,z
1/2-x,-y,1/2+z
1/2+x,1/2-y,1/2-z
-x,1/2+y,-z
-x,-y,-z
1/2+x,y,1/2-z
1/2-x,1/2+y,1/2+z
x,1/2-y,z
loop_
_atom_site_type_symbol
_atom_site_label
_atom_site_fract_x
_atom_site_fract_y
_atom_site_fract_z
Si Si1 0.167412 0.421535 0.354909
Si Si2 0.421918 0.924273 0.751810
Si Si3 0.923395 0.925801 0.260470
Si Si4 0.423023 0.076522 0.939601
Si Si5 0.210526 0.086293 0.803293
Si Si6 0.297690 0.416968 0.697213
Si Si7 0.570469 0.920037 0.943255
Si Si8 0.168031 0.577299 0.651613
O O1 0.169578 0.250000 0.367921
O O2 0.113943 0.457658 0.307275
O O3 0.140430 0.505756 0.405373
O O4 0.250461 0.472580 0.342164
O O5 0.433899 0.750000 0.743220
O O6 0.497454 0.010924 0.747984
O O7 0.371191 0.987994 0.705993
O O8 0.926454 0.750000 0.271194
O O9 0.872784 0.960816 0.210211
O O10 0.892036 0.006118 0.310829
O O11 0.422139 0.250000 0.929661
O O12 0.502488 0.016466 0.922875
O O13 0.406570 0.033613 0.998959
O O14 0.212833 0.250000 0.828532
O O15 0.252247 0.088829 0.749362
O O16 0.317279 0.250000 0.678697
O O17 0.247049 0.498004 0.654730
O O18 0.543893 0.750000 0.941887
O O19 0.640200 0.945281 0.906740
O O20 0.176673 0.750000 0.666119
#
# Coordination Sequence:
#
# PCOD8250245 Si02
#       8
#     8   8   8   8   8   8   8   8
#     4  10  19  29  42  60  82 109 141 174 207 245
#     4  10  19  29  42  61  85 113 142 171 207 248
#     4  10  19  29  42  62  86 111 141 174 207 245
#     4  10  19  30  44  60  81 110 142 176 211 244
#     4   8  16  29  42  57  79 107 137 169 204 243
#     4   9  17  29  43  60  82 107 138 173 207 245
#     4   9  19  32  43  59  83 110 141 176 210 244
#     4  10  18  29  44  60  82 111 142 174 209 249
#
# _framework density 15.028473999999999
#
# number of rings (size 3 to 8) (size 9 to 14) (size 15 to 20)
#    0.000    2.500    0.000    3.750    0.000    9.500 
#    0.000    0.000    0.000    0.000    0.000    0.000 
#    0.000    1.000    0.000    3.000    0.000    4.000 
#
# Total GULP energy -793554.566038 kJ/mol
# GULP energy per Si atom -12399.290094 kJ/mol
# Density = 1.499427 g / cm^3
# Si number density = 15.028474 Si / 1000 Ang^3
#
#
#
# Elastic Constant Matrix: (Units=GPa)
#
#
# Indices 1 2 3 4 5 6 
#
# 1 81.3029 41.3821 36.5334 0.0000 0.0000 0.0000
# 2 41.3821 90.0571 38.0057 0.0000 0.0000 0.0000
# 3 36.5334 38.0057 57.4710 0.0000 0.0000 0.0000
# 4 0.0000 0.0000 0.0000 20.4810 0.0000 0.0000
# 5 0.0000 0.0000 0.0000 0.0000 22.9406 0.0000
# 6 0.0000 0.0000 0.0000 0.0000 0.0000 29.7346
#
#
#
# Elastic Compliance Matrix: (Units=1/GPa)
#
#
# Indices 1 2 3 4 5 6 
#
# 1 0.018688 -0.004957 -0.008601 0.000000 0.000000 0.000000
# 2 -0.004957 0.016718 -0.007904 0.000000 0.000000 0.000000
# 3 -0.008601 -0.007904 0.028095 0.000000 0.000000 0.000000
# 4 0.000000 0.000000 0.000000 0.048826 0.000000 0.000000
# 5 0.000000 0.000000 0.000000 0.000000 0.043591 0.000000
# 6 0.000000 0.000000 0.000000 0.000000 0.000000 0.033631
#
#
# Mechanical properties :
#
#
# Convention : Reuss Voigt Hill
#
# Bulk Modulus (GPa) = 48.60307 51.18594 49.89451
# Shear Modulus (GPa) = 20.89150 22.15855 21.52503
#
# Velocity S-wave (km/s) = 3.73249 3.84401 3.78866
# Velocity P-wave (km/s) = 7.14046 7.33724 7.23952
#
# Compressibility (1/GPa) = 0.02057483
#
# Stress axis : x y z
#
# Youngs Moduli (GPa) = 53.51056 59.81676 35.59382
#
# Poissons Ratio (x) = 0.29654 0.30615
# Poissons Ratio (y) = 0.26527 0.28134
# Poissons Ratio (z) = 0.46026 0.47280
#
# Static dielectric constant tensor:
#      x y z
#    x 2.946630 0.000000 0.000000 
#    y 0.000000 3.095660 0.000000 
#    z 0.000000 0.000000 2.707250 
# 
# 
# High freq. dielectric constant tensor:
#      x y z
#    x 1.564590 0.000000 0.000000 
#    y 0.000000 1.594920 0.000000 
#    z 0.000000 0.000000 1.537770 
# 
# From -- ./inp_files/30034.got.cif
#   From: 2010.03.12/outbox.cif.g09.slc.cpg/sg62_16_cif.got.tgz:30034.got - 2010.04.10 19:12:36.
