data_PCOD8250816
_publ_section_title
;
Structure prediction by ZEFSAII (Michael W. Deem and Ramdas Pophale) SiO2 
 PCOD8250816
Probable space group: P N M A
;
_chemical_formula_sum "Si O2"
_cell_formula_units_Z 64
_cell_length_a 18.295382
_cell_length_b 8.876048
_cell_length_c 26.045628
_cell_angle_alpha 90.000000
_cell_angle_beta 90.000000
_cell_angle_gamma 90.000000
_cell_volume 4229.567471
_symmetry_space_group_name_H-M "P N M A"
_symmetry_group_IT_number 62
_symmetry_cell_setting 'orthorhombic'
loop_
_space_group_symop_operation_xyz
x,y,z
1/2-x,-y,1/2+z
1/2+x,1/2-y,1/2-z
-x,1/2+y,-z
-x,-y,-z
1/2+x,y,1/2-z
1/2-x,1/2+y,1/2+z
x,1/2-y,z
loop_
_atom_site_type_symbol
_atom_site_label
_atom_site_fract_x
_atom_site_fract_y
_atom_site_fract_z
Si Si1 0.668199 0.571286 0.645203
Si Si2 0.830373 0.073365 0.859601
Si Si3 0.280674 0.424481 0.793206
Si Si4 0.574411 0.075265 0.441447
Si Si5 0.710048 0.574869 0.802419
Si Si6 0.577049 0.579334 0.259842
Si Si7 0.575352 0.925704 0.741995
Si Si8 0.576807 0.424629 0.560605
O O1 0.679635 0.750000 0.645576
O O2 0.746775 0.487190 0.653518
O O3 0.612655 0.512195 0.689679
O O4 0.637725 0.518993 0.590540
O O5 0.831326 0.250000 0.870318
O O6 0.881489 0.027069 0.811599
O O7 0.856784 0.985067 0.909721
O O8 0.746716 0.022459 0.847968
O O9 0.258368 0.250000 0.783273
O O10 0.248581 0.535671 0.750783
O O11 0.368801 0.438680 0.789315
O O12 0.560202 0.250000 0.429776
O O13 0.592142 0.047282 0.500842
O O14 0.503178 0.983532 0.423901
O O15 0.721437 0.750000 0.815025
O O16 0.624259 0.535781 0.792700
O O17 0.551670 0.750000 0.266700
O O18 0.505397 0.484815 0.249237
O O19 0.569524 0.750000 0.734531
O O20 0.581639 0.250000 0.575594
#
# Coordination Sequence:
#
# PCOD8250816 Si02
#       8
#     8   8   8   8   8   8   8   8
#     4  10  19  30  44  62  83 112 147 178 213 253
#     4  10  19  30  44  62  83 112 147 178 213 253
#     4   9  17  29  42  59  83 110 141 176 212 251
#     4  10  20  32  45  62  85 113 144 179 216 251
#     4   9  17  29  42  59  83 110 141 176 212 251
#     4   9  18  28  40  60  84 110 140 172 207 248
#     4   9  18  28  40  60  84 110 140 172 207 248
#     4  10  20  32  45  62  85 113 144 179 216 251
#
# _framework density 15.131570999999999
#
# number of rings (size 3 to 8) (size 9 to 14) (size 15 to 20)
#    0.000    2.500    0.000    4.500    0.000    9.500 
#    0.000    0.000    0.000    0.000    0.000    0.000 
#    0.000    1.000    0.000    3.250    0.000    4.000 
#
# Total GULP energy -793300.593790 kJ/mol
# GULP energy per Si atom -12395.321778 kJ/mol
# Density = 1.509713 g / cm^3
# Si number density = 15.131571 Si / 1000 Ang^3
#
#
#
# Elastic Constant Matrix: (Units=GPa)
#
#
# Indices 1 2 3 4 5 6 
#
# 1 78.8422 33.8059 35.0639 0.0000 0.0000 0.0000
# 2 33.8059 50.7710 27.7184 0.0000 0.0000 0.0000
# 3 35.0639 27.7184 54.7810 0.0000 0.0000 0.0000
# 4 0.0000 0.0000 0.0000 23.1090 0.0000 0.0000
# 5 0.0000 0.0000 0.0000 0.0000 25.6442 0.0000
# 6 0.0000 0.0000 0.0000 0.0000 0.0000 28.7783
#
#
#
# Elastic Compliance Matrix: (Units=1/GPa)
#
#
# Indices 1 2 3 4 5 6 
#
# 1 0.020253 -0.008854 -0.008483 0.000000 0.000000 0.000000
# 2 -0.008854 0.031084 -0.010061 0.000000 0.000000 0.000000
# 3 -0.008483 -0.010061 0.028775 0.000000 0.000000 0.000000
# 4 0.000000 0.000000 0.000000 0.043273 0.000000 0.000000
# 5 0.000000 0.000000 0.000000 0.000000 0.038995 0.000000
# 6 0.000000 0.000000 0.000000 0.000000 0.000000 0.034748
#
#
# Mechanical properties :
#
#
# Convention : Reuss Voigt Hill
#
# Bulk Modulus (GPa) = 39.50104 41.95229 40.72666
# Shear Modulus (GPa) = 19.20383 21.36004 20.28194
#
# Velocity S-wave (km/s) = 3.56634 3.76123 3.66508
# Velocity P-wave (km/s) = 6.56659 6.82991 6.69954
#
# Compressibility (1/GPa) = 0.02531579
#
# Stress axis : x y z
#
# Youngs Moduli (GPa) = 49.37600 32.17038 34.75197
#
# Poissons Ratio (x) = 0.28483 0.29481
# Poissons Ratio (y) = 0.43717 0.34965
# Poissons Ratio (z) = 0.41887 0.32367
#
# Static dielectric constant tensor:
#      x y z
#    x 3.054560 0.000000 0.000000 
#    y 0.000000 3.051680 0.000000 
#    z 0.000000 0.000000 2.768290 
# 
# 
# High freq. dielectric constant tensor:
#      x y z
#    x 1.566420 0.000000 0.000000 
#    y 0.000000 1.596090 0.000000 
#    z 0.000000 0.000000 1.543710 
# 
# From -- ./inp_files/22651.got.cif
#   From: 2010.03.12/outbox.cif.g09.slc.cpg/sg62_12_cif.got.tgz:22651.got - 2010.04.10 19:12:36.
