data_PCOD8250913
_publ_section_title
;
Structure prediction by ZEFSAII (Michael W. Deem and Ramdas Pophale) SiO2 
 PCOD8250913
Probable space group: P N M A
;
_chemical_formula_sum "Si O2"
_cell_formula_units_Z 48
_cell_length_a 14.251330
_cell_length_b 13.100182
_cell_length_c 14.077850
_cell_angle_alpha 90.000000
_cell_angle_beta 90.000000
_cell_angle_gamma 90.000000
_cell_volume 2628.264441
_symmetry_space_group_name_H-M "P N M A"
_symmetry_group_IT_number 62
_symmetry_cell_setting 'orthorhombic'
loop_
_space_group_symop_operation_xyz
x,y,z
1/2-x,-y,1/2+z
1/2+x,1/2-y,1/2-z
-x,1/2+y,-z
-x,-y,-z
1/2+x,y,1/2-z
1/2-x,1/2+y,1/2+z
x,1/2-y,z
loop_
_atom_site_type_symbol
_atom_site_label
_atom_site_fract_x
_atom_site_fract_y
_atom_site_fract_z
Si Si1 0.069663 0.065529 0.099444
Si Si2 0.263707 0.553083 0.877787
Si Si3 0.158601 0.871152 0.693571
Si Si4 0.758005 0.865081 0.002336
Si Si5 0.106421 0.633494 0.001423
Si Si6 0.445596 0.869504 0.803161
O O1 0.100779 0.097973 0.203564
O O2 0.963404 0.103948 0.084792
O O3 0.131865 0.123785 0.021018
O O4 0.082324 0.942795 0.088471
O O5 0.213634 0.569132 0.776246
O O6 0.265312 0.433969 0.906428
O O7 0.210611 0.616759 0.960192
O O8 0.372672 0.587086 0.880174
O O9 0.164982 0.750000 0.714975
O O10 0.202175 0.899627 0.591898
O O11 0.051249 0.911662 0.687523
O O12 0.732998 0.750000 0.031236
O O13 0.094608 0.750000 0.035656
O O14 0.447904 0.750000 0.814221
#
# Coordination Sequence:
#
# PCOD8250913 Si02
#       6
#     8   8   8   8   8   8
#     4  10  19  30  52  80 104 139 174 218 271 322
#     4  11  21  33  57  81 106 138 184 223 267 319
#     4  10  20  35  57  82 108 139 177 224 269 315
#     4  10  21  37  55  77 111 147 179 217 269 325
#     4  10  19  32  49  78 110 133 171 225 273 317
#     4  11  20  33  55  80 106 136 179 226 266 313
#
# _framework density 18.263003000000001
#
# number of rings (size 3 to 8) (size 9 to 14) (size 15 to 20)
#    0.000    1.667    3.333    3.000    0.000    0.667 
#    0.000    0.833    0.000    1.000    0.000    0.000 
#    0.000    0.000    0.000    0.000    0.000    0.000 
#
# Total GULP energy -595121.227581 kJ/mol
# GULP energy per Si atom -12398.358908 kJ/mol
# Density = 1.822144 g / cm^3
# Si number density = 18.263003 Si / 1000 Ang^3
#
#
#
# Elastic Constant Matrix: (Units=GPa)
#
#
# Indices 1 2 3 4 5 6 
#
# 1 92.7703 27.0486 26.0388 0.0000 0.0000 0.0000
# 2 27.0486 89.6510 26.3891 0.0000 0.0000 0.0000
# 3 26.0388 26.3891 49.1339 0.0000 0.0000 0.0000
# 4 0.0000 0.0000 0.0000 30.4240 0.0000 0.0000
# 5 0.0000 0.0000 0.0000 0.0000 27.7952 0.0000
# 6 0.0000 0.0000 0.0000 0.0000 0.0000 22.4969
#
#
#
# Elastic Compliance Matrix: (Units=1/GPa)
#
#
# Indices 1 2 3 4 5 6 
#
# 1 0.013036 -0.002256 -0.005697 0.000000 0.000000 0.000000
# 2 -0.002256 0.013639 -0.006130 0.000000 0.000000 0.000000
# 3 -0.005697 -0.006130 0.026664 0.000000 0.000000 0.000000
# 4 0.000000 0.000000 0.000000 0.032869 0.000000 0.000000
# 5 0.000000 0.000000 0.000000 0.000000 0.035977 0.000000
# 6 0.000000 0.000000 0.000000 0.000000 0.000000 0.044451
#
#
# Mechanical properties :
#
#
# Convention : Reuss Voigt Hill
#
# Bulk Modulus (GPa) = 39.72403 43.38982 41.55692
# Shear Modulus (GPa) = 24.60713 26.28180 25.44447
#
# Velocity S-wave (km/s) = 3.67464 3.79763 3.73664
# Velocity P-wave (km/s) = 6.30891 6.56043 6.43590
#
# Compressibility (1/GPa) = 0.02517368
#
# Stress axis : x y z
#
# Youngs Moduli (GPa) = 76.70990 73.31680 37.50397
#
# Poissons Ratio (x) = 0.16542 0.21365
# Poissons Ratio (y) = 0.17308 0.22989
# Poissons Ratio (z) = 0.43700 0.44942
#
# Static dielectric constant tensor:
#      x y z
#    x 3.674670 0.000000 0.000000 
#    y 0.000000 3.299710 0.000000 
#    z 0.000000 0.000000 3.107450 
# 
# 
# High freq. dielectric constant tensor:
#      x y z
#    x 1.725580 0.000000 0.000000 
#    y 0.000000 1.694290 0.000000 
#    z 0.000000 0.000000 1.677190 
# 
# From -- ./inp_files/18869.got.cif
#   From: 2010.03.12/outbox.cif.g09.slc.cpg/sg62_10_cif.got.tgz:18869.got - 2010.04.10 19:12:36.
