data_PCOD8250301
_publ_section_title
;
Structure prediction by ZEFSAII (Michael W. Deem and Ramdas Pophale) SiO2 
 PCOD8250301
Probable space group: P N M A
;
_chemical_formula_sum "Si O2"
_cell_formula_units_Z 64
_cell_length_a 23.252843
_cell_length_b 8.835099
_cell_length_c 19.039977
_cell_angle_alpha 90.000000
_cell_angle_beta 90.000000
_cell_angle_gamma 90.000000
_cell_volume 3911.595150
_symmetry_space_group_name_H-M "P N M A"
_symmetry_group_IT_number 62
_symmetry_cell_setting 'orthorhombic'
loop_
_space_group_symop_operation_xyz
x,y,z
1/2-x,-y,1/2+z
1/2+x,1/2-y,1/2-z
-x,1/2+y,-z
-x,-y,-z
1/2+x,y,1/2-z
1/2-x,1/2+y,1/2+z
x,1/2-y,z
loop_
_atom_site_type_symbol
_atom_site_label
_atom_site_fract_x
_atom_site_fract_y
_atom_site_fract_z
Si Si1 0.843504 0.571172 0.757226
Si Si2 0.934701 0.071036 0.848992
Si Si3 0.750301 0.423218 0.482928
Si Si4 0.259645 0.926236 0.159437
Si Si5 0.383435 0.925094 0.515855
Si Si6 0.830467 0.573039 0.211753
Si Si7 0.282238 0.428214 0.864816
Si Si8 0.062751 0.070278 0.870090
O O1 0.845533 0.750000 0.757807
O O2 0.904650 0.506574 0.782287
O O3 0.794894 0.517631 0.811931
O O4 0.832546 0.512030 0.678133
O O5 0.933182 0.250000 0.839072
O O6 0.999721 0.006523 0.852497
O O7 0.901543 0.029412 0.919897
O O8 0.761114 0.250000 0.461582
O O9 0.773407 0.527367 0.420077
O O10 0.683589 0.450585 0.499731
O O11 0.786595 0.465804 0.552588
O O12 0.243895 0.750000 0.163993
O O13 0.316292 0.962278 0.206576
O O14 0.396138 0.750000 0.533977
O O15 0.418753 0.980647 0.448013
O O16 0.834249 0.750000 0.197053
O O17 0.778460 0.508884 0.164422
O O18 0.891396 0.502710 0.186709
O O19 0.287580 0.250000 0.850379
O O20 0.061535 0.250000 0.866799
#
# Coordination Sequence:
#
# PCOD8250301 Si02
#       8
#     8   8   8   8   8   8   8   8
#     4  11  21  33  47  65  93 127 160 199 243 281
#     4  11  21  31  46  68  94 127 166 204 231 272
#     4  10  18  29  49  73  99 130 155 185 236 290
#     4  10  19  30  49  71  95 123 158 198 235 283
#     4  10  18  30  47  67  96 132 162 191 227 277
#     4   8  14  28  47  67  89 118 155 195 233 273
#     4   9  17  31  51  71  92 121 157 193 235 287
#     4   9  17  30  48  68  92 126 167 198 232 277
#
# _framework density 16.361612000000001
#
# number of rings (size 3 to 8) (size 9 to 14) (size 15 to 20)
#    0.000    2.250    2.500    3.000    0.000    0.500 
#    0.000    0.625    0.000    7.500    0.000    0.875 
#    0.000    0.000    0.000    0.000    0.000    0.000 
#
# Total GULP energy -793451.422387 kJ/mol
# GULP energy per Si atom -12397.678475 kJ/mol
# Density = 1.632437 g / cm^3
# Si number density = 16.361612 Si / 1000 Ang^3
#
#
#
# Elastic Constant Matrix: (Units=GPa)
#
#
# Indices 1 2 3 4 5 6 
#
# 1 49.4211 16.9199 24.1157 0.0000 0.0000 0.0000
# 2 16.9199 58.4723 28.5741 0.0000 0.0000 0.0000
# 3 24.1157 28.5741 84.4954 0.0000 0.0000 0.0000
# 4 0.0000 0.0000 0.0000 23.4508 0.0000 0.0000
# 5 0.0000 0.0000 0.0000 0.0000 23.8283 0.0000
# 6 0.0000 0.0000 0.0000 0.0000 0.0000 13.2306
#
#
#
# Elastic Compliance Matrix: (Units=1/GPa)
#
#
# Indices 1 2 3 4 5 6 
#
# 1 0.024411 -0.004384 -0.005485 0.000000 0.000000 0.000000
# 2 -0.004384 0.021275 -0.005944 0.000000 0.000000 0.000000
# 3 -0.005485 -0.005944 0.015410 0.000000 0.000000 0.000000
# 4 0.000000 0.000000 0.000000 0.042642 0.000000 0.000000
# 5 0.000000 0.000000 0.000000 0.000000 0.041967 0.000000
# 6 0.000000 0.000000 0.000000 0.000000 0.000000 0.075583
#
#
# Mechanical properties :
#
#
# Convention : Reuss Voigt Hill
#
# Bulk Modulus (GPa) = 33.92941 36.84536 35.38738
# Shear Modulus (GPa) = 19.03044 20.28720 19.65882
#
# Velocity S-wave (km/s) = 3.41415 3.52508 3.47006
# Velocity P-wave (km/s) = 6.02695 6.25592 6.14250
#
# Compressibility (1/GPa) = 0.02947296
#
# Stress axis : x y z
#
# Youngs Moduli (GPa) = 40.96443 47.00339 64.89150
#
# Poissons Ratio (x) = 0.20604 0.35592
# Poissons Ratio (y) = 0.17957 0.38569
# Poissons Ratio (z) = 0.22468 0.27937
#
# Static dielectric constant tensor:
#      x y z
#    x 3.195880 0.000000 0.000000 
#    y 0.000000 2.879720 0.000000 
#    z 0.000000 0.000000 3.179240 
# 
# 
# High freq. dielectric constant tensor:
#      x y z
#    x 1.603680 0.000000 0.000000 
#    y 0.000000 1.612340 0.000000 
#    z 0.000000 0.000000 1.628030 
# 
# From -- ./inp_files/24965.got.cif
#   From: 2010.03.12/outbox.cif.g09.slc.cpg/sg62_13_cif.got.tgz:24965.got - 2010.04.10 19:12:36.
