data_PCOD8250662
_publ_section_title
;
Structure prediction by ZEFSAII (Michael W. Deem and Ramdas Pophale) SiO2 
 PCOD8250662
Probable space group: P N M A
;
_chemical_formula_sum "Si O2"
_cell_formula_units_Z 48
_cell_length_a 9.281240
_cell_length_b 19.080255
_cell_length_c 13.999172
_cell_angle_alpha 90.000000
_cell_angle_beta 90.000000
_cell_angle_gamma 90.000000
_cell_volume 2479.091334
_symmetry_space_group_name_H-M "P N M A"
_symmetry_group_IT_number 62
_symmetry_cell_setting 'orthorhombic'
loop_
_space_group_symop_operation_xyz
x,y,z
1/2-x,-y,1/2+z
1/2+x,1/2-y,1/2-z
-x,1/2+y,-z
-x,-y,-z
1/2+x,y,1/2-z
1/2-x,1/2+y,1/2+z
x,1/2-y,z
loop_
_atom_site_type_symbol
_atom_site_label
_atom_site_fract_x
_atom_site_fract_y
_atom_site_fract_z
Si Si1 0.591836 0.829538 0.498630
Si Si2 0.608989 0.472267 0.705147
Si Si3 0.685886 0.940480 0.372042
Si Si4 0.313380 0.927674 0.491099
Si Si5 0.725399 0.671330 0.866620
Si Si6 0.960093 0.365616 0.198805
O O1 0.572540 0.750000 0.461908
O O2 0.710753 0.868871 0.432980
O O3 0.449990 0.876617 0.489228
O O4 0.628128 0.829645 0.611488
O O5 0.456078 0.433295 0.694097
O O6 0.675101 0.450351 0.806341
O O7 0.717982 0.451076 0.617786
O O8 0.583988 0.554276 0.704919
O O9 0.657350 0.004072 0.445027
O O10 0.190512 0.879891 0.542528
O O11 0.753917 0.750000 0.903997
O O12 0.589633 0.671722 0.796047
O O13 0.867789 0.642758 0.811802
#
# Coordination Sequence:
#
# PCOD8250662 Si02
#       6
#     8   8   8   8   8   8
#     4  10  19  34  55  80 104 144 182 216 263 319
#     4  11  19  35  56  81 103 140 181 222 261 310
#     4  11  20  36  56  79 110 137 181 225 259 313
#     4  10  18  34  56  75 106 138 181 214 255 314
#     4  11  21  32  51  81 109 136 169 217 272 322
#     4  11  18  33  54  78 107 135 172 221 266 322
#
# _framework density 19.361933000000001
#
# number of rings (size 3 to 8) (size 9 to 14) (size 15 to 20)
#    0.000    1.333    6.667    4.000    0.000    0.000 
#    0.000    6.667    0.000    0.000    0.000    0.000 
#    0.000    0.000    0.000    0.000    0.000    0.000 
#
# Total GULP energy -594786.350152 kJ/mol
# GULP energy per Si atom -12391.382295 kJ/mol
# Density = 1.931786 g / cm^3
# Si number density = 19.361933 Si / 1000 Ang^3
#
#
#
# Elastic Constant Matrix: (Units=GPa)
#
#
# Indices 1 2 3 4 5 6 
#
# 1 17.3441 -6.3798 -8.7065 0.0000 0.0000 0.0000
# 2 -6.3798 103.8919 8.3855 0.0000 0.0000 0.0000
# 3 -8.7065 8.3855 30.1236 0.0000 0.0000 0.0000
# 4 0.0000 0.0000 0.0000 26.8753 0.0000 0.0000
# 5 0.0000 0.0000 0.0000 0.0000 24.8324 0.0000
# 6 0.0000 0.0000 0.0000 0.0000 0.0000 15.6964
#
#
#
# Elastic Compliance Matrix: (Units=1/GPa)
#
#
# Indices 1 2 3 4 5 6 
#
# 1 0.068150 0.002655 0.018958 0.000000 0.000000 0.000000
# 2 0.002655 0.009950 -0.002002 0.000000 0.000000 0.000000
# 3 0.018958 -0.002002 0.039233 0.000000 0.000000 0.000000
# 4 0.000000 0.000000 0.000000 0.037209 0.000000 0.000000
# 5 0.000000 0.000000 0.000000 0.000000 0.040270 0.000000
# 6 0.000000 0.000000 0.000000 0.000000 0.000000 0.063709
#
#
# Mechanical properties :
#
#
# Convention : Reuss Voigt Hill
#
# Bulk Modulus (GPa) = 6.38759 15.32865 10.85812
# Shear Modulus (GPa) = 18.41724 24.01818 21.21771
#
# Velocity S-wave (km/s) = 3.08751 3.52587 3.31395
# Velocity P-wave (km/s) = 4.00206 4.95074 4.50146
#
# Compressibility (1/GPa) = 0.15655367
#
# Stress axis : x y z
#
# Youngs Moduli (GPa) = 14.67359 100.50208 25.48855
#
# Poissons Ratio (x) = -0.26681 -0.48321
# Poissons Ratio (y) = -0.03896 0.05104
# Poissons Ratio (z) = -0.27818 0.20125
#
# Static dielectric constant tensor:
#      x y z
#    x 3.215590 0.000000 0.000000 
#    y 0.000000 3.792900 0.000000 
#    z 0.000000 0.000000 4.156240 
# 
# 
# High freq. dielectric constant tensor:
#      x y z
#    x 1.703270 0.000000 0.000000 
#    y 0.000000 1.764250 0.000000 
#    z 0.000000 0.000000 1.753350 
# 
# From -- ./inp_files/18154.got.cif
#   From: 2010.03.12/outbox.cif.g09.slc.cpg/sg62_10_cif.got.tgz:18154.got - 2010.04.10 19:12:36.
