data_PCOD8250690
_publ_section_title
;
Structure prediction by ZEFSAII (Michael W. Deem and Ramdas Pophale) SiO2 
 PCOD8250690
Probable space group: P N M A
;
_chemical_formula_sum "Si O2"
_cell_formula_units_Z 48
_cell_length_a 9.883434
_cell_length_b 19.249504
_cell_length_c 13.747087
_cell_angle_alpha 90.000000
_cell_angle_beta 90.000000
_cell_angle_gamma 90.000000
_cell_volume 2615.399830
_symmetry_space_group_name_H-M "P N M A"
_symmetry_group_IT_number 62
_symmetry_cell_setting 'orthorhombic'
loop_
_space_group_symop_operation_xyz
x,y,z
1/2-x,-y,1/2+z
1/2+x,1/2-y,1/2-z
-x,1/2+y,-z
-x,-y,-z
1/2+x,y,1/2-z
1/2-x,1/2+y,1/2+z
x,1/2-y,z
loop_
_atom_site_type_symbol
_atom_site_label
_atom_site_fract_x
_atom_site_fract_y
_atom_site_fract_z
Si Si1 0.747850 0.327086 0.573336
Si Si2 0.717768 0.462000 0.462255
Si Si3 0.376269 0.401554 0.756134
Si Si4 0.065025 0.671928 0.064667
Si Si5 0.636029 0.493138 0.779854
Si Si6 0.420004 0.063826 0.402576
O O1 0.784732 0.250000 0.533104
O O2 0.769625 0.385572 0.491760
O O3 0.843019 0.340912 0.666480
O O4 0.589560 0.329077 0.600449
O O5 0.836755 0.487413 0.391412
O O6 0.695061 0.512202 0.554310
O O7 0.572421 0.464895 0.409864
O O8 0.356909 0.371140 0.647118
O O9 0.522397 0.433911 0.776192
O O10 0.268352 0.461815 0.770123
O O11 0.121568 0.750000 0.057076
O O12 0.088105 0.637746 0.957716
O O13 0.604234 0.562442 0.714337
#
# Coordination Sequence:
#
# PCOD8250690 Si02
#       6
#     8   8   8   8   8   8
#     4  10  21  37  56  81 114 151 186 226 281 342
#     4  10  19  35  57  82 111 148 188 229 276 334
#     4  12  20  35  56  86 116 140 181 237 284 336
#     4  10  20  35  57  81 111 153 189 224 279 340
#     4  12  21  34  59  86 111 144 186 236 283 323
#     4  10  18  35  56  80 114 144 189 232 270 338
#
# _framework density 18.352834999999999
#
# number of rings (size 3 to 8) (size 9 to 14) (size 15 to 20)
#    0.000    1.333    6.667    1.500    0.000    0.667 
#    0.000    0.833    0.000    0.000    0.000    0.000 
#    0.000    0.000    0.000    0.000    0.000    0.000 
#
# Total GULP energy -594808.738090 kJ/mol
# GULP energy per Si atom -12391.848710 kJ/mol
# Density = 1.831106 g / cm^3
# Si number density = 18.352835 Si / 1000 Ang^3
#
#
#
# Elastic Constant Matrix: (Units=GPa)
#
#
# Indices 1 2 3 4 5 6 
#
# 1 41.2830 27.1849 29.5329 0.0000 0.0000 0.0000
# 2 27.1849 107.6904 41.2116 0.0000 0.0000 0.0000
# 3 29.5329 41.2116 66.9797 0.0000 0.0000 0.0000
# 4 0.0000 0.0000 0.0000 29.8319 0.0000 0.0000
# 5 0.0000 0.0000 0.0000 0.0000 25.4071 0.0000
# 6 0.0000 0.0000 0.0000 0.0000 0.0000 15.4745
#
#
#
# Elastic Compliance Matrix: (Units=1/GPa)
#
#
# Indices 1 2 3 4 5 6 
#
# 1 0.036664 -0.004014 -0.013696 0.000000 0.000000 0.000000
# 2 -0.004014 0.012585 -0.005974 0.000000 0.000000 0.000000
# 3 -0.013696 -0.005974 0.024644 0.000000 0.000000 0.000000
# 4 0.000000 0.000000 0.000000 0.033521 0.000000 0.000000
# 5 0.000000 0.000000 0.000000 0.000000 0.039359 0.000000
# 6 0.000000 0.000000 0.000000 0.000000 0.000000 0.064623
#
#
# Mechanical properties :
#
#
# Convention : Reuss Voigt Hill
#
# Bulk Modulus (GPa) = 37.69895 45.75688 41.72792
# Shear Modulus (GPa) = 18.68413 22.01094 20.34753
#
# Velocity S-wave (km/s) = 3.19415 3.46688 3.33331
# Velocity P-wave (km/s) = 5.84716 6.40403 6.13192
#
# Compressibility (1/GPa) = 0.02652594
#
# Stress axis : x y z
#
# Youngs Moduli (GPa) = 27.27445 79.45866 40.57704
#
# Poissons Ratio (x) = 0.31894 0.55576
# Poissons Ratio (y) = 0.10948 0.24239
# Poissons Ratio (z) = 0.37356 0.47466
#
# Static dielectric constant tensor:
#      x y z
#    x 3.290010 0.000000 0.000000 
#    y 0.000000 3.412730 0.000000 
#    z 0.000000 0.000000 3.282700 
# 
# 
# High freq. dielectric constant tensor:
#      x y z
#    x 1.696480 0.000000 0.000000 
#    y 0.000000 1.699960 0.000000 
#    z 0.000000 0.000000 1.703160 
# 
# From -- ./inp_files/16935.got.cif
#   From: 2010.03.12/outbox.cif.g09.slc.cpg/sg62_9_cif.got.tgz:16935.got - 2010.04.10 19:12:36.
