data_PCOD8250227
_publ_section_title
;
Structure prediction by ZEFSAII (Michael W. Deem and Ramdas Pophale) SiO2 
 PCOD8250227
Probable space group: P N M A
;
_chemical_formula_sum "Si O2"
_cell_formula_units_Z 64
_cell_length_a 23.061261
_cell_length_b 8.667353
_cell_length_c 19.269727
_cell_angle_alpha 90.000000
_cell_angle_beta 90.000000
_cell_angle_gamma 90.000000
_cell_volume 3851.634761
_symmetry_space_group_name_H-M "P N M A"
_symmetry_group_IT_number 62
_symmetry_cell_setting 'orthorhombic'
loop_
_space_group_symop_operation_xyz
x,y,z
1/2-x,-y,1/2+z
1/2+x,1/2-y,1/2-z
-x,1/2+y,-z
-x,-y,-z
1/2+x,y,1/2-z
1/2-x,1/2+y,1/2+z
x,1/2-y,z
loop_
_atom_site_type_symbol
_atom_site_label
_atom_site_fract_x
_atom_site_fract_y
_atom_site_fract_z
Si Si1 0.562470 0.931974 0.624450
Si Si2 0.168728 0.566920 0.786294
Si Si3 0.060279 0.930188 0.144772
Si Si4 0.883005 0.568268 0.990079
Si Si5 0.267758 0.067006 0.156313
Si Si6 0.347418 0.569531 0.735790
Si Si7 0.749690 0.431584 0.494685
Si Si8 0.220842 0.069693 0.368030
O O1 0.567734 0.750000 0.610825
O O2 0.606740 0.987688 0.684891
O O3 0.498972 0.974918 0.649683
O O4 0.576288 0.021060 0.553709
O O5 0.173607 0.750000 0.785955
O O6 0.180456 0.507055 0.707215
O O7 0.219607 0.501634 0.835781
O O8 0.046269 0.750000 0.142410
O O9 0.096686 0.971256 0.213715
O O10 0.096299 0.979023 0.077640
O O11 0.888477 0.750000 0.976133
O O12 0.817083 0.517903 0.005607
O O13 0.269042 0.250000 0.152870
O O14 0.206203 0.016372 0.188042
O O15 0.273635 0.999330 0.078437
O O16 0.360450 0.750000 0.725110
O O17 0.332577 0.532824 0.816335
O O18 0.754814 0.250000 0.493684
O O19 0.789581 0.494240 0.556895
O O20 0.227127 0.250000 0.379265
#
# Coordination Sequence:
#
# PCOD8250227 Si02
#       8
#     8   8   8   8   8   8   8   8
#     4  11  21  34  51  70  94 128 168 206 241 282
#     4   8  15  28  48  70  91 120 159 199 234 280
#     4  12  24  35  48  68  96 130 167 206 241 284
#     4  11  21  34  48  68  99 134 168 199 234 280
#     4   8  14  28  48  70  94 122 156 193 239 285
#     4   9  17  33  52  69  93 127 162 199 240 282
#     4  10  18  28  48  73 100 130 156 191 236 285
#     4   9  17  30  50  72  97 125 158 197 237 286
#
# _framework density 16.616320999999999
#
# number of rings (size 3 to 8) (size 9 to 14) (size 15 to 20)
#    0.000    2.250    2.500    3.750    0.000    1.000 
#    0.000    0.000    0.000    1.500    0.000    0.875 
#    0.000    0.000    0.000    0.000    0.000    0.000 
#
# Total GULP energy -793356.904073 kJ/mol
# GULP energy per Si atom -12396.201626 kJ/mol
# Density = 1.657850 g / cm^3
# Si number density = 16.616321 Si / 1000 Ang^3
#
#
#
# Elastic Constant Matrix: (Units=GPa)
#
#
# Indices 1 2 3 4 5 6 
#
# 1 50.0391 11.2157 33.9059 0.0000 0.0000 0.0000
# 2 11.2157 28.6534 18.2492 0.0000 0.0000 0.0000
# 3 33.9059 18.2492 117.3539 0.0000 0.0000 0.0000
# 4 0.0000 0.0000 0.0000 23.9669 0.0000 0.0000
# 5 0.0000 0.0000 0.0000 0.0000 23.6669 0.0000
# 6 0.0000 0.0000 0.0000 0.0000 0.0000 16.8237
#
#
#
# Elastic Compliance Matrix: (Units=1/GPa)
#
#
# Indices 1 2 3 4 5 6 
#
# 1 0.025724 -0.005922 -0.006511 0.000000 0.000000 0.000000
# 2 -0.005922 0.040100 -0.004525 0.000000 0.000000 0.000000
# 3 -0.006511 -0.004525 0.011106 0.000000 0.000000 0.000000
# 4 0.000000 0.000000 0.000000 0.041724 0.000000 0.000000
# 5 0.000000 0.000000 0.000000 0.000000 0.042253 0.000000
# 6 0.000000 0.000000 0.000000 0.000000 0.000000 0.059440
#
#
# Mechanical properties :
#
#
# Convention : Reuss Voigt Hill
#
# Bulk Modulus (GPa) = 23.24847 35.86533 29.55690
# Shear Modulus (GPa) = 18.61501 21.73653 20.17577
#
# Velocity S-wave (km/s) = 3.35070 3.62075 3.48834
# Velocity P-wave (km/s) = 5.38435 6.25388 5.83534
#
# Compressibility (1/GPa) = 0.04301358
#
# Stress axis : x y z
#
# Youngs Moduli (GPa) = 38.87483 24.93782 90.04098
#
# Poissons Ratio (x) = 0.14768 0.58627
# Poissons Ratio (y) = 0.23022 0.40741
# Poissons Ratio (z) = 0.25312 0.11284
#
# Static dielectric constant tensor:
#      x y z
#    x 3.042580 0.000000 0.000000 
#    y 0.000000 2.879360 0.000000 
#    z 0.000000 0.000000 3.497110 
# 
# 
# High freq. dielectric constant tensor:
#      x y z
#    x 1.610970 0.000000 0.000000 
#    y 0.000000 1.621410 0.000000 
#    z 0.000000 0.000000 1.642520 
# 
# From -- ./inp_files/24944.got.cif
#   From: 2010.03.12/outbox.cif.g09.slc.cpg/sg62_13_cif.got.tgz:24944.got - 2010.04.10 19:12:36.
