data_PCOD8250423
_publ_section_title
;
Structure prediction by ZEFSAII (Michael W. Deem and Ramdas Pophale) SiO2 
 PCOD8250423
Probable space group: P N M A
;
_chemical_formula_sum "Si O2"
_cell_formula_units_Z 56
_cell_length_a 9.327035
_cell_length_b 18.189995
_cell_length_c 17.816470
_cell_angle_alpha 90.000000
_cell_angle_beta 90.000000
_cell_angle_gamma 90.000000
_cell_volume 3022.719495
_symmetry_space_group_name_H-M "P N M A"
_symmetry_group_IT_number 62
_symmetry_cell_setting 'orthorhombic'
loop_
_space_group_symop_operation_xyz
x,y,z
1/2-x,-y,1/2+z
1/2+x,1/2-y,1/2-z
-x,1/2+y,-z
-x,-y,-z
1/2+x,y,1/2-z
1/2-x,1/2+y,1/2+z
x,1/2-y,z
loop_
_atom_site_type_symbol
_atom_site_label
_atom_site_fract_x
_atom_site_fract_y
_atom_site_fract_z
Si Si1 0.651150 0.164809 0.001843
Si Si2 0.331061 0.166786 0.037541
Si Si3 0.669662 0.465614 0.408604
Si Si4 0.387678 0.069743 0.464712
Si Si5 0.493027 0.165509 0.731615
Si Si6 0.580392 0.331731 0.569343
Si Si7 0.212820 0.393885 0.662319
O O1 0.670218 0.250000 0.017146
O O2 0.699440 0.145155 0.917883
O O3 0.489906 0.139504 0.018024
O O4 0.754907 0.121111 0.060516
O O5 0.329854 0.250000 0.071186
O O6 0.259837 0.110147 0.096783
O O7 0.242548 0.164137 0.960359
O O8 0.677056 0.497290 0.494403
O O9 0.497515 0.449046 0.396069
O O10 0.736500 0.521454 0.348100
O O11 0.476342 0.111701 0.529240
O O12 0.503177 0.250000 0.758757
O O13 0.586361 0.150735 0.657210
O O14 0.559548 0.112742 0.795988
O O15 0.327754 0.147080 0.714826
O O16 0.516517 0.250000 0.555689
#
# Coordination Sequence:
#
# PCOD8250423 Si02
#       7
#     8   8   8   8   8   8   8
#     4  10  18  31  48  74 105 133 166 204 251 304
#     4   9  19  31  50  77 103 130 162 209 266 313
#     4   9  18  34  48  70  99 131 171 210 257 305
#     4   9  16  28  50  69  95 134 168 207 251 300
#     4  11  21  34  48  70 102 142 182 208 236 289
#     4   9  16  29  47  69 100 138 173 205 244 295
#     4  11  23  34  49  71 103 144 177 209 245 287
#
# _framework density 18.526363
#
# number of rings (size 3 to 8) (size 9 to 14) (size 15 to 20)
#    0.000    2.286    2.857    1.714    2.000    2.857 
#    0.000    1.429    0.000    0.000    0.000    1.000 
#    0.000    0.000    0.000    0.000    0.000    0.000 
#
# Total GULP energy -693944.493437 kJ/mol
# GULP energy per Si atom -12391.865954 kJ/mol
# Density = 1.848420 g / cm^3
# Si number density = 18.526363 Si / 1000 Ang^3
#
#
#
# Elastic Constant Matrix: (Units=GPa)
#
#
# Indices 1 2 3 4 5 6 
#
# 1 105.9669 38.0294 6.7708 0.0000 0.0000 0.0000
# 2 38.0294 90.3210 15.0540 0.0000 0.0000 0.0000
# 3 6.7708 15.0540 20.5263 0.0000 0.0000 0.0000
# 4 0.0000 0.0000 0.0000 24.6843 0.0000 0.0000
# 5 0.0000 0.0000 0.0000 0.0000 19.8258 0.0000
# 6 0.0000 0.0000 0.0000 0.0000 0.0000 34.7938
#
#
#
# Elastic Compliance Matrix: (Units=1/GPa)
#
#
# Indices 1 2 3 4 5 6 
#
# 1 0.011118 -0.004637 -0.000267 0.000000 0.000000 0.000000
# 2 -0.004637 0.014547 -0.009139 0.000000 0.000000 0.000000
# 3 -0.000267 -0.009139 0.055509 0.000000 0.000000 0.000000
# 4 0.000000 0.000000 0.000000 0.040512 0.000000 0.000000
# 5 0.000000 0.000000 0.000000 0.000000 0.050439 0.000000
# 6 0.000000 0.000000 0.000000 0.000000 0.000000 0.028741
#
#
# Mechanical properties :
#
#
# Convention : Reuss Voigt Hill
#
# Bulk Modulus (GPa) = 18.83662 37.39141 28.11401
# Shear Modulus (GPa) = 20.27182 26.32478 23.29830
#
# Velocity S-wave (km/s) = 3.31148 3.77362 3.55008
# Velocity P-wave (km/s) = 4.98104 6.26207 5.65793
#
# Compressibility (1/GPa) = 0.05308808
#
# Stress axis : x y z
#
# Youngs Moduli (GPa) = 89.94437 68.74175 18.01514
#
# Poissons Ratio (x) = 0.31874 0.00481
# Poissons Ratio (y) = 0.41705 0.16465
# Poissons Ratio (z) = 0.02400 0.62826
#
# Static dielectric constant tensor:
#      x y z
#    x 3.752590 0.000000 0.000000 
#    y 0.000000 3.692290 0.000000 
#    z 0.000000 0.000000 2.855880 
# 
# 
# High freq. dielectric constant tensor:
#      x y z
#    x 1.734280 0.000000 0.000000 
#    y 0.000000 1.730430 0.000000 
#    z 0.000000 0.000000 1.640620 
# 
# From -- ./inp_files/26120.got.cif
#   From: 2010.03.12/outbox.cif.g09.slc.cpg/sg62_14_cif.got.tgz:26120.got - 2010.04.10 19:12:36.
