data_PCOD8250166
_publ_section_title
;
Structure prediction by ZEFSAII (Michael W. Deem and Ramdas Pophale) SiO2 
 PCOD8250166
Probable space group: P N M A
;
_chemical_formula_sum "Si O2"
_cell_formula_units_Z 64
_cell_length_a 14.929030
_cell_length_b 9.338173
_cell_length_c 23.818060
_cell_angle_alpha 90.000000
_cell_angle_beta 90.000000
_cell_angle_gamma 90.000000
_cell_volume 3320.472526
_symmetry_space_group_name_H-M "P N M A"
_symmetry_group_IT_number 62
_symmetry_cell_setting 'orthorhombic'
loop_
_space_group_symop_operation_xyz
x,y,z
1/2-x,-y,1/2+z
1/2+x,1/2-y,1/2-z
-x,1/2+y,-z
-x,-y,-z
1/2+x,y,1/2-z
1/2-x,1/2+y,1/2+z
x,1/2-y,z
loop_
_atom_site_type_symbol
_atom_site_label
_atom_site_fract_x
_atom_site_fract_y
_atom_site_fract_z
Si Si1 0.122916 0.411340 0.522468
Si Si2 0.177462 0.412392 0.352964
Si Si3 0.053650 0.588190 0.421160
Si Si4 0.353410 0.414008 0.418904
Si Si5 0.269079 0.918140 0.255196
Si Si6 0.323760 0.417110 0.541279
Si Si7 0.940633 0.582894 0.181247
Si Si8 0.636872 0.580912 0.338378
O O1 0.120710 0.250000 0.495554
O O2 0.096524 0.531928 0.478510
O O3 0.218861 0.448410 0.547362
O O4 0.053898 0.417399 0.574740
O O5 0.158006 0.250000 0.335128
O O6 0.084824 0.487644 0.370302
O O7 0.247612 0.421216 0.404529
O O8 0.214354 0.496882 0.300746
O O9 0.087570 0.750000 0.410927
O O10 0.386516 0.250000 0.414850
O O11 0.363654 0.478773 0.482385
O O12 0.410652 0.505658 0.375653
O O13 0.252295 0.750000 0.263640
O O14 0.375297 0.954634 0.265429
O O15 0.226022 0.969582 0.195822
O O16 0.343255 0.250000 0.538344
O O17 0.365961 0.485267 0.598226
O O18 0.934187 0.750000 0.167971
O O19 0.044035 0.538329 0.193735
O O20 0.643490 0.750000 0.344965
#
# Coordination Sequence:
#
# PCOD8250166 Si02
#       8
#     8   8   8   8   8   8   8   8
#     4   9  17  30  45  68 101 139 173 203 247 308
#     4  10  18  31  51  72  98 133 170 211 256 306
#     4  10  18  27  45  73 102 132 169 215 258 296
#     4   9  17  30  51  75  99 133 171 204 247 311
#     4   9  18  34  53  75 100 128 167 213 257 300
#     4   9  16  30  50  72 102 138 174 206 250 314
#     4   9  18  33  53  78 104 129 165 215 260 299
#     4   9  18  33  53  76 103 134 168 214 262 304
#
# _framework density 19.274366000000001
#
# number of rings (size 3 to 8) (size 9 to 14) (size 15 to 20)
#    0.000    2.750    1.250    0.750    0.000    1.500 
#    2.250    0.625    0.000    2.250    0.000    0.000 
#    0.000    0.000    0.000    0.000    0.000    0.000 
#
# Total GULP energy -792896.788753 kJ/mol
# GULP energy per Si atom -12389.012324 kJ/mol
# Density = 1.923050 g / cm^3
# Si number density = 19.274366 Si / 1000 Ang^3
#
#
#
# Elastic Constant Matrix: (Units=GPa)
#
#
# Indices 1 2 3 4 5 6 
#
# 1 85.6708 12.7385 35.8088 0.0000 0.0000 0.0000
# 2 12.7385 28.7823 10.1847 0.0000 0.0000 0.0000
# 3 35.8088 10.1847 93.0116 0.0000 0.0000 0.0000
# 4 0.0000 0.0000 0.0000 20.1327 0.0000 0.0000
# 5 0.0000 0.0000 0.0000 0.0000 25.0951 0.0000
# 6 0.0000 0.0000 0.0000 0.0000 0.0000 12.4896
#
#
#
# Elastic Compliance Matrix: (Units=1/GPa)
#
#
# Indices 1 2 3 4 5 6 
#
# 1 0.014477 -0.004614 -0.005068 0.000000 0.000000 0.000000
# 2 -0.004614 0.037614 -0.002342 0.000000 0.000000 0.000000
# 3 -0.005068 -0.002342 0.012959 0.000000 0.000000 0.000000
# 4 0.000000 0.000000 0.000000 0.049671 0.000000 0.000000
# 5 0.000000 0.000000 0.000000 0.000000 0.039848 0.000000
# 6 0.000000 0.000000 0.000000 0.000000 0.000000 0.080067
#
#
# Mechanical properties :
#
#
# Convention : Reuss Voigt Hill
#
# Bulk Modulus (GPa) = 24.38941 36.10317 30.24629
# Shear Modulus (GPa) = 18.35854 21.45899 19.90876
#
# Velocity S-wave (km/s) = 3.08958 3.34030 3.21738
# Velocity P-wave (km/s) = 5.04070 5.80075 5.43403
#
# Compressibility (1/GPa) = 0.04100140
#
# Stress axis : x y z
#
# Youngs Moduli (GPa) = 69.07452 26.58550 77.16566
#
# Poissons Ratio (x) = 0.12266 0.39110
# Poissons Ratio (y) = 0.31870 0.18076
# Poissons Ratio (z) = 0.35010 0.06228
#
# Static dielectric constant tensor:
#      x y z
#    x 3.753490 0.000000 0.000000 
#    y 0.000000 3.336750 0.000000 
#    z 0.000000 0.000000 3.641330 
# 
# 
# High freq. dielectric constant tensor:
#      x y z
#    x 1.747560 0.000000 0.000000 
#    y 0.000000 1.720180 0.000000 
#    z 0.000000 0.000000 1.735330 
# 
# From -- ./inp_files/29831.got.cif
#   From: 2010.03.12/outbox.cif.g09.slc.cpg/sg62_15_cif.got.tgz:29831.got - 2010.04.10 19:12:36.
