data_PCOD8250203
_publ_section_title
;
Structure prediction by ZEFSAII (Michael W. Deem and Ramdas Pophale) SiO2 
 PCOD8250203
Probable space group: P N M A
;
_chemical_formula_sum "Si O2"
_cell_formula_units_Z 64
_cell_length_a 29.884535
_cell_length_b 9.093261
_cell_length_c 14.428086
_cell_angle_alpha 90.000000
_cell_angle_beta 90.000000
_cell_angle_gamma 90.000000
_cell_volume 3920.801734
_symmetry_space_group_name_H-M "P N M A"
_symmetry_group_IT_number 62
_symmetry_cell_setting 'orthorhombic'
loop_
_space_group_symop_operation_xyz
x,y,z
1/2-x,-y,1/2+z
1/2+x,1/2-y,1/2-z
-x,1/2+y,-z
-x,-y,-z
1/2+x,y,1/2-z
1/2-x,1/2+y,1/2+z
x,1/2-y,z
loop_
_atom_site_type_symbol
_atom_site_label
_atom_site_fract_x
_atom_site_fract_y
_atom_site_fract_z
Si Si1 0.372926 0.582605 0.189550
Si Si2 0.051224 0.921305 0.594924
Si Si3 0.673852 0.085852 0.000496
Si Si4 0.214162 0.575093 0.219377
Si Si5 0.050319 0.078970 0.401142
Si Si6 0.222712 0.919116 0.012092
Si Si7 0.130785 0.577727 0.339288
Si Si8 0.200237 0.076423 0.833251
O O1 0.390128 0.750000 0.197863
O O2 0.415813 0.477798 0.175569
O O3 0.345596 0.534316 0.280529
O O4 0.337645 0.565631 0.106665
O O5 0.059284 0.750000 0.574629
O O6 0.000621 0.950535 0.629321
O O7 0.060806 0.011025 0.501679
O O8 0.660257 0.250000 0.034317
O O9 0.648043 0.963167 0.058539
O O10 0.725924 0.060608 0.013740
O O11 0.218289 0.750000 0.217477
O O12 0.214083 0.513932 0.114418
O O13 0.167420 0.523319 0.264980
O O14 0.256390 0.512664 0.277884
O O15 0.061172 0.250000 0.408093
O O16 0.083095 0.004250 0.324982
O O17 0.207619 0.750000 0.009017
O O18 0.195008 0.007419 0.935115
O O19 0.122573 0.750000 0.332175
O O20 0.205421 0.250000 0.843089
#
# Coordination Sequence:
#
# PCOD8250203 Si02
#       8
#     8   8   8   8   8   8   8   8
#     4  10  19  31  49  69  96 134 163 193 242 288
#     4  10  20  32  48  70  96 126 161 198 235 285
#     4  10  18  28  45  68  95 129 163 194 235 282
#     4   9  18  32  48  67  96 129 161 196 239 281
#     4  10  20  33  47  67  99 130 155 194 245 290
#     4  10  19  33  49  67  95 132 167 200 236 280
#     4  11  20  30  48  71  94 128 167 202 234 279
#     4  10  19  33  49  69  97 130 163 198 240 284
#
# _framework density 16.323191999999999
#
# number of rings (size 3 to 8) (size 9 to 14) (size 15 to 20)
#    0.000    2.000    3.750    1.125    0.000    2.000 
#    0.000    1.875    0.000    0.000    0.000    0.875 
#    0.000    0.000    0.000    0.000    0.000    0.000 
#
# Total GULP energy -793532.099438 kJ/mol
# GULP energy per Si atom -12398.939054 kJ/mol
# Density = 1.628604 g / cm^3
# Si number density = 16.323192 Si / 1000 Ang^3
#
#
#
# Elastic Constant Matrix: (Units=GPa)
#
#
# Indices 1 2 3 4 5 6 
#
# 1 95.8257 43.1296 38.1694 0.0000 0.0000 0.0000
# 2 43.1296 60.5592 27.2839 0.0000 0.0000 0.0000
# 3 38.1694 27.2839 75.1026 0.0000 0.0000 0.0000
# 4 0.0000 0.0000 0.0000 23.0248 0.0000 0.0000
# 5 0.0000 0.0000 0.0000 0.0000 23.2455 0.0000
# 6 0.0000 0.0000 0.0000 0.0000 0.0000 26.8555
#
#
#
# Elastic Compliance Matrix: (Units=1/GPa)
#
#
# Indices 1 2 3 4 5 6 
#
# 1 0.016801 -0.009707 -0.005012 0.000000 0.000000 0.000000
# 2 -0.009707 0.025353 -0.004277 0.000000 0.000000 0.000000
# 3 -0.005012 -0.004277 0.017416 0.000000 0.000000 0.000000
# 4 0.000000 0.000000 0.000000 0.043431 0.000000 0.000000
# 5 0.000000 0.000000 0.000000 0.000000 0.043019 0.000000
# 6 0.000000 0.000000 0.000000 0.000000 0.000000 0.037236
#
#
# Mechanical properties :
#
#
# Convention : Reuss Voigt Hill
#
# Bulk Modulus (GPa) = 46.34476 49.85035 48.09755
# Shear Modulus (GPa) = 21.88727 22.81882 22.35305
#
# Velocity S-wave (km/s) = 3.66576 3.74296 3.70456
# Velocity P-wave (km/s) = 6.80960 7.02037 6.91579
#
# Compressibility (1/GPa) = 0.02157741
#
# Stress axis : x y z
#
# Youngs Moduli (GPa) = 59.51922 39.44277 57.41760
#
# Poissons Ratio (x) = 0.38289 0.28779
# Poissons Ratio (y) = 0.57778 0.24557
# Poissons Ratio (z) = 0.29833 0.16869
#
# Static dielectric constant tensor:
#      x y z
#    x 3.205460 0.000000 0.000000 
#    y 0.000000 2.999990 0.000000 
#    z 0.000000 0.000000 2.936070 
# 
# 
# High freq. dielectric constant tensor:
#      x y z
#    x 1.626830 0.000000 0.000000 
#    y 0.000000 1.621020 0.000000 
#    z 0.000000 0.000000 1.597330 
# 
# From -- ./inp_files/21237.got.cif
#   From: 2010.03.12/outbox.cif.g09.slc.cpg/sg62_11_cif.got.tgz:21237.got - 2010.04.10 19:12:36.
