data_PCOD8250831
_publ_section_title
;
Structure prediction by ZEFSAII (Michael W. Deem and Ramdas Pophale) SiO2 
 PCOD8250831
Probable space group: P N M A
;
_chemical_formula_sum "Si O2"
_cell_formula_units_Z 48
_cell_length_a 17.564924
_cell_length_b 8.607398
_cell_length_c 18.396417
_cell_angle_alpha 90.000000
_cell_angle_beta 90.000000
_cell_angle_gamma 90.000000
_cell_volume 2781.322860
_symmetry_space_group_name_H-M "P N M A"
_symmetry_group_IT_number 62
_symmetry_cell_setting 'orthorhombic'
loop_
_space_group_symop_operation_xyz
x,y,z
1/2-x,-y,1/2+z
1/2+x,1/2-y,1/2-z
-x,1/2+y,-z
-x,-y,-z
1/2+x,y,1/2-z
1/2-x,1/2+y,1/2+z
x,1/2-y,z
loop_
_atom_site_type_symbol
_atom_site_label
_atom_site_fract_x
_atom_site_fract_y
_atom_site_fract_z
Si Si1 0.822424 0.429397 0.298883
Si Si2 0.709181 0.069473 0.579218
Si Si3 0.692553 0.569737 0.207273
Si Si4 0.922990 0.568095 0.186058
Si Si5 0.785542 0.934440 0.918842
Si Si6 0.414920 0.567323 0.690830
O O1 0.846824 0.250000 0.296782
O O2 0.748219 0.455086 0.250004
O O3 0.892680 0.529840 0.267680
O O4 0.794780 0.481118 0.379898
O O5 0.694105 0.250000 0.567868
O O6 0.789671 0.042421 0.621540
O O7 0.638816 0.005513 0.627502
O O8 0.712547 0.989696 0.499630
O O9 0.708965 0.750000 0.226628
O O10 0.608041 0.518898 0.232900
O O11 0.937377 0.750000 0.179760
O O12 0.000251 0.478567 0.168998
O O13 0.789338 0.750000 0.923088
O O14 0.858860 0.993125 0.873266
O O15 0.409229 0.750000 0.702603
#
# Coordination Sequence:
#
# PCOD8250831 Si02
#       6
#     8   8   8   8   8   8
#     4   9  16  28  47  67  89 118 152 187 220 262
#     4   8  15  28  46  68  92 118 147 181 224 270
#     4   9  16  28  47  67  89 118 152 187 220 262
#     4  10  19  30  46  67  93 122 152 187 224 266
#     4   8  15  28  46  68  92 118 147 181 224 270
#     4  10  19  30  46  67  93 122 152 187 224 266
#
# _framework density 17.257974999999998
#
# number of rings (size 3 to 8) (size 9 to 14) (size 15 to 20)
#    0.000    3.000    0.000    4.000    0.000    0.667 
#    0.000    0.000    0.000   36.000    0.000    0.000 
#    0.000    0.000    0.000    0.000    0.000    0.000 
#
# Total GULP energy -594647.913358 kJ/mol
# GULP energy per Si atom -12388.498195 kJ/mol
# Density = 1.721869 g / cm^3
# Si number density = 17.257975 Si / 1000 Ang^3
#
#
#
# Elastic Constant Matrix: (Units=GPa)
#
#
# Indices 1 2 3 4 5 6 
#
# 1 45.0769 14.6250 62.6000 0.0000 0.0000 0.0000
# 2 14.6250 38.3598 26.5494 0.0000 0.0000 0.0000
# 3 62.6000 26.5494 134.0986 0.0000 0.0000 0.0000
# 4 0.0000 0.0000 0.0000 15.9277 0.0000 0.0000
# 5 0.0000 0.0000 0.0000 0.0000 19.5996 0.0000
# 6 0.0000 0.0000 0.0000 0.0000 0.0000 26.9374
#
#
#
# Elastic Compliance Matrix: (Units=1/GPa)
#
#
# Indices 1 2 3 4 5 6 
#
# 1 0.063680 -0.004292 -0.028877 0.000000 0.000000 0.000000
# 2 -0.004292 0.030498 -0.004034 0.000000 0.000000 0.000000
# 3 -0.028877 -0.004034 0.021736 0.000000 0.000000 0.000000
# 4 0.000000 0.000000 0.000000 0.062784 0.000000 0.000000
# 5 0.000000 0.000000 0.000000 0.000000 0.051022 0.000000
# 6 0.000000 0.000000 0.000000 0.000000 0.000000 0.037123
#
#
# Mechanical properties :
#
#
# Convention : Reuss Voigt Hill
#
# Bulk Modulus (GPa) = 24.09273 47.23155 35.66214
# Shear Modulus (GPa) = 14.08112 20.07700 17.07906
#
# Velocity S-wave (km/s) = 2.85953 3.41449 3.14926
# Velocity P-wave (km/s) = 4.98931 6.55533 5.82518
#
# Compressibility (1/GPa) = 0.04150630
#
# Stress axis : x y z
#
# Youngs Moduli (GPa) = 15.70354 32.78942 46.00570
#
# Poissons Ratio (x) = 0.14074 1.32852
# Poissons Ratio (y) = 0.06740 0.18560
# Poissons Ratio (z) = 0.45348 0.13228
#
# Static dielectric constant tensor:
#      x y z
#    x 3.192270 0.000000 0.000000 
#    y 0.000000 3.004780 0.000000 
#    z 0.000000 0.000000 3.670890 
# 
# 
# High freq. dielectric constant tensor:
#      x y z
#    x 1.645130 0.000000 0.000000 
#    y 0.000000 1.650740 0.000000 
#    z 0.000000 0.000000 1.655370 
# 
# From -- ./inp_files/17087.got.cif
#   From: 2010.03.12/outbox.cif.g09.slc.cpg/sg62_9_cif.got.tgz:17087.got - 2010.04.10 19:12:36.
