data_PCOD8250536
_publ_section_title
;
Structure prediction by ZEFSAII (Michael W. Deem and Ramdas Pophale) SiO2 
 PCOD8250536
Probable space group: P N M A
;
_chemical_formula_sum "Si O2"
_cell_formula_units_Z 40
_cell_length_a 10.483443
_cell_length_b 17.849759
_cell_length_c 11.818632
_cell_angle_alpha 90.000000
_cell_angle_beta 90.000000
_cell_angle_gamma 90.000000
_cell_volume 2211.584335
_symmetry_space_group_name_H-M "P N M A"
_symmetry_group_IT_number 62
_symmetry_cell_setting 'orthorhombic'
loop_
_space_group_symop_operation_xyz
x,y,z
1/2-x,-y,1/2+z
1/2+x,1/2-y,1/2-z
-x,1/2+y,-z
-x,-y,-z
1/2+x,y,1/2-z
1/2-x,1/2+y,1/2+z
x,1/2-y,z
loop_
_atom_site_type_symbol
_atom_site_label
_atom_site_fract_x
_atom_site_fract_y
_atom_site_fract_z
Si Si1 0.603480 0.075334 0.103102
Si Si2 0.199488 0.459796 0.974079
Si Si3 0.827033 0.333310 0.197523
Si Si4 0.498538 0.965748 0.666972
Si Si5 0.128346 0.834728 0.537647
O O1 0.687158 0.138847 0.163919
O O2 0.535017 0.025461 0.200937
O O3 0.502431 0.118227 0.023557
O O4 0.686728 0.020586 0.025692
O O5 0.102210 0.470780 0.868938
O O6 0.260039 0.376770 0.967612
O O7 0.127934 0.473219 0.092497
O O8 0.848092 0.250000 0.149568
O O9 0.936735 0.384919 0.143248
O O10 0.833175 0.334295 0.331984
O O11 0.113178 0.750000 0.490961
#
# Coordination Sequence:
#
# PCOD8250536 Si02
#       5
#     8   8   8   8   8
#     4  10  18  32  51  76 105 130 168 204 250 301
#     4  10  19  33  50  72 102 134 169 206 247 300
#     4   9  17  29  49  76 109 132 150 199 260 309
#     4   9  19  32  48  74 104 135 168 199 247 301
#     4  10  19  30  48  75 102 130 164 205 256 303
#
# _framework density 18.086582
#
# number of rings (size 3 to 8) (size 9 to 14) (size 15 to 20)
#    0.000    2.400    2.000    1.200    0.000    1.600 
#    0.000    0.000    0.000    1.200    0.000    0.000 
#    0.000    0.000    0.000    0.000    0.000    0.000 
#
# Total GULP energy -495919.571173 kJ/mol
# GULP energy per Si atom -12397.989279 kJ/mol
# Density = 1.804542 g / cm^3
# Si number density = 18.086582 Si / 1000 Ang^3
#
#
#
# Elastic Constant Matrix: (Units=GPa)
#
#
# Indices 1 2 3 4 5 6 
#
# 1 115.5366 63.8338 32.1459 0.0000 0.0000 0.0000
# 2 63.8338 112.8780 40.9430 0.0000 0.0000 0.0000
# 3 32.1459 40.9430 35.5669 0.0000 0.0000 0.0000
# 4 0.0000 0.0000 0.0000 25.9548 0.0000 0.0000
# 5 0.0000 0.0000 0.0000 0.0000 32.2690 0.0000
# 6 0.0000 0.0000 0.0000 0.0000 0.0000 26.9116
#
#
#
# Elastic Compliance Matrix: (Units=1/GPa)
#
#
# Indices 1 2 3 4 5 6 
#
# 1 0.013239 -0.005402 -0.005747 0.000000 0.000000 0.000000
# 2 -0.005402 0.017415 -0.015164 0.000000 0.000000 0.000000
# 3 -0.005747 -0.015164 0.050766 0.000000 0.000000 0.000000
# 4 0.000000 0.000000 0.000000 0.038529 0.000000 0.000000
# 5 0.000000 0.000000 0.000000 0.000000 0.030989 0.000000
# 6 0.000000 0.000000 0.000000 0.000000 0.000000 0.037159
#
#
# Mechanical properties :
#
#
# Convention : Reuss Voigt Hill
#
# Bulk Modulus (GPa) = 34.73014 59.75854 47.24434
# Shear Modulus (GPa) = 19.97444 25.49767 22.73605
#
# Velocity S-wave (km/s) = 3.32682 3.75875 3.54936
# Velocity P-wave (km/s) = 5.83103 7.20760 6.55555
#
# Compressibility (1/GPa) = 0.02879343
#
# Stress axis : x y z
#
# Youngs Moduli (GPa) = 75.53463 57.42338 19.69824
#
# Poissons Ratio (x) = 0.31022 0.11320
# Poissons Ratio (y) = 0.40807 0.29870
# Poissons Ratio (z) = 0.43407 0.87077
#
# Static dielectric constant tensor:
#      x y z
#    x 3.607540 0.000000 0.000000 
#    y 0.000000 3.514320 0.000000 
#    z 0.000000 0.000000 2.987370 
# 
# 
# High freq. dielectric constant tensor:
#      x y z
#    x 1.723560 0.000000 0.000000 
#    y 0.000000 1.689980 0.000000 
#    z 0.000000 0.000000 1.656630 
# 
# From -- ./inp_files/12050.got.cif
#   From: 2010.03.12/outbox.cif.g09.slc.cpg/sg62_7_cif.got.tgz:12050.got - 2010.04.10 19:12:36.
