data_PCOD8250920
_publ_section_title
;
Structure prediction by ZEFSAII (Michael W. Deem and Ramdas Pophale) SiO2 
 PCOD8250920
Probable space group: P N M A
;
_chemical_formula_sum "Si O2"
_cell_formula_units_Z 56
_cell_length_a 9.554973
_cell_length_b 19.649805
_cell_length_c 16.172472
_cell_angle_alpha 90.000000
_cell_angle_beta 90.000000
_cell_angle_gamma 90.000000
_cell_volume 3036.435897
_symmetry_space_group_name_H-M "P N M A"
_symmetry_group_IT_number 62
_symmetry_cell_setting 'orthorhombic'
loop_
_space_group_symop_operation_xyz
x,y,z
1/2-x,-y,1/2+z
1/2+x,1/2-y,1/2-z
-x,1/2+y,-z
-x,-y,-z
1/2+x,y,1/2-z
1/2-x,1/2+y,1/2+z
x,1/2-y,z
loop_
_atom_site_type_symbol
_atom_site_label
_atom_site_fract_x
_atom_site_fract_y
_atom_site_fract_z
Si Si1 0.099801 0.070817 0.925534
Si Si2 0.140525 0.471342 0.101874
Si Si3 0.348501 0.928544 0.044167
Si Si4 0.617380 0.828644 0.487180
Si Si5 0.620230 0.523213 0.113074
Si Si6 0.643401 0.829709 0.677038
Si Si7 0.595215 0.405656 0.235291
O O1 0.239413 0.068588 0.867665
O O2 0.015548 0.003228 0.899554
O O3 0.998109 0.136580 0.926261
O O4 0.164065 0.068469 0.017114
O O5 0.255395 0.530190 0.109839
O O6 0.164521 0.419621 0.176065
O O7 0.502205 0.922697 0.084405
O O8 0.274278 0.855618 0.031746
O O9 0.351671 0.967090 0.956989
O O10 0.614948 0.750000 0.465660
O O11 0.583818 0.843189 0.584238
O O12 0.570354 0.479184 0.192128
O O13 0.646228 0.750000 0.696477
O O14 0.549984 0.866505 0.747104
O O15 0.801216 0.858206 0.682568
#
# Coordination Sequence:
#
# PCOD8250920 Si02
#       7
#     8   8   8   8   8   8   8
#     4   9  17  34  52  76  98 136 175 232 250 305
#     4   9  17  29  53  73 103 132 175 212 269 295
#     4   9  18  34  48  75 104 137 167 224 264 310
#     4  10  19  36  56  72  99 149 188 208 245 316
#     4  10  19  30  53  77 107 129 171 222 285 295
#     4  11  23  35  48  72 113 151 181 205 241 310
#     4  12  20  34  53  81 104 147 172 215 259 324
#
# _framework density 18.442675999999999
#
# number of rings (size 3 to 8) (size 9 to 14) (size 15 to 20)
#    0.000    2.000    2.857    3.000    0.000    0.000 
#    0.000    0.714    0.000    0.000    0.000   16.000 
#    0.000    0.000    0.000    0.000    0.000    0.000 
#
# Total GULP energy -693906.588189 kJ/mol
# GULP energy per Si atom -12391.189075 kJ/mol
# Density = 1.840070 g / cm^3
# Si number density = 18.442676 Si / 1000 Ang^3
#
#
#
# Elastic Constant Matrix: (Units=GPa)
#
#
# Indices 1 2 3 4 5 6 
#
# 1 108.1460 38.3493 7.7388 0.0000 0.0000 0.0000
# 2 38.3493 92.2669 20.6278 0.0000 0.0000 0.0000
# 3 7.7388 20.6278 35.8702 0.0000 0.0000 0.0000
# 4 0.0000 0.0000 0.0000 27.0635 0.0000 0.0000
# 5 0.0000 0.0000 0.0000 0.0000 19.2644 0.0000
# 6 0.0000 0.0000 0.0000 0.0000 0.0000 26.7918
#
#
#
# Elastic Compliance Matrix: (Units=1/GPa)
#
#
# Indices 1 2 3 4 5 6 
#
# 1 0.010848 -0.004573 0.000290 0.000000 0.000000 0.000000
# 2 -0.004573 0.014365 -0.007274 0.000000 0.000000 0.000000
# 3 0.000290 -0.007274 0.031999 0.000000 0.000000 0.000000
# 4 0.000000 0.000000 0.000000 0.036950 0.000000 0.000000
# 5 0.000000 0.000000 0.000000 0.000000 0.051909 0.000000
# 6 0.000000 0.000000 0.000000 0.000000 0.000000 0.037325
#
#
# Mechanical properties :
#
#
# Convention : Reuss Voigt Hill
#
# Bulk Modulus (GPa) = 29.32900 41.07944 35.20422
# Shear Modulus (GPa) = 22.94865 25.92844 24.43854
#
# Velocity S-wave (km/s) = 3.53132 3.75359 3.64415
# Velocity P-wave (km/s) = 5.70651 6.41158 6.06930
#
# Compressibility (1/GPa) = 0.03409594
#
# Stress axis : x y z
#
# Youngs Moduli (GPa) = 92.18449 69.61215 31.25093
#
# Poissons Ratio (x) = 0.31837 -0.00905
# Poissons Ratio (y) = 0.42160 0.22733
# Poissons Ratio (z) = -0.02671 0.50638
#
# Static dielectric constant tensor:
#      x y z
#    x 3.555800 0.000000 0.000000 
#    y 0.000000 3.138360 0.000000 
#    z 0.000000 0.000000 3.232530 
# 
# 
# High freq. dielectric constant tensor:
#      x y z
#    x 1.724400 0.000000 0.000000 
#    y 0.000000 1.682770 0.000000 
#    z 0.000000 0.000000 1.690690 
# 
# From -- ./inp_files/17183.got.cif
#   From: 2010.03.12/outbox.cif.g09.slc.cpg/sg62_9_cif.got.tgz:17183.got - 2010.04.10 19:12:36.
