data_PCOD8250593
_publ_section_title
;
Structure prediction by ZEFSAII (Michael W. Deem and Ramdas Pophale) SiO2 
 PCOD8250593
Probable space group: P N M A
;
_chemical_formula_sum "Si O2"
_cell_formula_units_Z 64
_cell_length_a 22.263169
_cell_length_b 9.054452
_cell_length_c 16.749145
_cell_angle_alpha 90.000000
_cell_angle_beta 90.000000
_cell_angle_gamma 90.000000
_cell_volume 3376.305966
_symmetry_space_group_name_H-M "P N M A"
_symmetry_group_IT_number 62
_symmetry_cell_setting 'orthorhombic'
loop_
_space_group_symop_operation_xyz
x,y,z
1/2-x,-y,1/2+z
1/2+x,1/2-y,1/2-z
-x,1/2+y,-z
-x,-y,-z
1/2+x,y,1/2-z
1/2-x,1/2+y,1/2+z
x,1/2-y,z
loop_
_atom_site_type_symbol
_atom_site_label
_atom_site_fract_x
_atom_site_fract_y
_atom_site_fract_z
Si Si1 0.562028 0.923869 0.163847
Si Si2 0.034317 0.574293 0.162531
Si Si3 0.100402 0.426683 0.869798
Si Si4 0.237007 0.076895 0.573894
Si Si5 0.628793 0.577307 0.466955
Si Si6 0.842496 0.913955 0.286790
Si Si7 0.942601 0.584080 0.412768
Si Si8 0.355731 0.077469 0.972402
O O1 0.551537 0.750000 0.170968
O O2 0.559049 0.991125 0.253185
O O3 0.507724 0.983757 0.108411
O O4 0.625475 0.958810 0.119751
O O5 0.036451 0.750000 0.164112
O O6 0.077930 0.516382 0.092578
O O7 0.967448 0.515667 0.144556
O O8 0.100907 0.250000 0.870775
O O9 0.144380 0.489235 0.799348
O O10 0.125754 0.487832 0.951763
O O11 0.221607 0.250000 0.569813
O O12 0.307311 0.044640 0.574275
O O13 0.207456 0.008569 0.655541
O O14 0.205625 0.005293 0.496009
O O15 0.620992 0.750000 0.485526
O O16 0.818249 0.750000 0.269397
O O17 0.906465 0.909454 0.330087
O O18 0.945926 0.750000 0.449450
O O19 0.911228 0.472925 0.473344
O O20 0.345136 0.250000 0.984660
#
# Coordination Sequence:
#
# PCOD8250593 Si02
#       8
#     8   8   8   8   8   8   8   8
#     4   9  16  28  48  76 106 131 167 213 253 298
#     4   9  17  32  54  79 103 131 168 214 259 301
#     4  10  18  32  57  82 103 128 166 212 259 307
#     4   9  19  37  54  69  98 141 181 207 244 308
#     4  10  21  36  54  76 103 134 171 215 259 304
#     4   8  14  28  52  76  94 127 175 207 233 291
#     4   9  15  28  50  72 102 139 169 199 248 315
#     4  10  19  29  47  78 106 131 168 217 260 294
#
# _framework density 18.955627
#
# number of rings (size 3 to 8) (size 9 to 14) (size 15 to 20)
#    0.000    2.750    1.250    1.875    0.000    0.500 
#    2.250    3.125    0.000    3.750    0.000    0.000 
#    0.000    0.000    0.000    0.000    0.000    0.000 
#
# Total GULP energy -793117.852768 kJ/mol
# GULP energy per Si atom -12392.466450 kJ/mol
# Density = 1.891248 g / cm^3
# Si number density = 18.955627 Si / 1000 Ang^3
#
#
#
# Elastic Constant Matrix: (Units=GPa)
#
#
# Indices 1 2 3 4 5 6 
#
# 1 95.8641 21.9445 52.9736 0.0000 0.0000 0.0000
# 2 21.9445 28.4203 23.7568 0.0000 0.0000 0.0000
# 3 52.9736 23.7568 109.3006 0.0000 0.0000 0.0000
# 4 0.0000 0.0000 0.0000 21.3922 0.0000 0.0000
# 5 0.0000 0.0000 0.0000 0.0000 22.8860 0.0000
# 6 0.0000 0.0000 0.0000 0.0000 0.0000 20.4807
#
#
#
# Elastic Compliance Matrix: (Units=1/GPa)
#
#
# Indices 1 2 3 4 5 6 
#
# 1 0.015264 -0.006846 -0.005910 0.000000 0.000000 0.000000
# 2 -0.006846 0.046069 -0.006695 0.000000 0.000000 0.000000
# 3 -0.005910 -0.006695 0.013469 0.000000 0.000000 0.000000
# 4 0.000000 0.000000 0.000000 0.046746 0.000000 0.000000
# 5 0.000000 0.000000 0.000000 0.000000 0.043695 0.000000
# 6 0.000000 0.000000 0.000000 0.000000 0.000000 0.048826
#
#
# Mechanical properties :
#
#
# Convention : Reuss Voigt Hill
#
# Bulk Modulus (GPa) = 27.85563 47.88164 37.86864
# Shear Modulus (GPa) = 18.87233 21.94579 20.40906
#
# Velocity S-wave (km/s) = 3.15874 3.40626 3.28483
# Velocity P-wave (km/s) = 5.29440 6.38630 5.86581
#
# Compressibility (1/GPa) = 0.03589939
#
# Stress axis : x y z
#
# Youngs Moduli (GPa) = 65.51184 21.70663 74.24634
#
# Poissons Ratio (x) = 0.14860 0.43880
# Poissons Ratio (y) = 0.44849 0.49710
# Poissons Ratio (z) = 0.38718 0.14533
#
# Static dielectric constant tensor:
#      x y z
#    x 3.465940 0.000000 0.000000 
#    y 0.000000 3.025560 0.000000 
#    z 0.000000 0.000000 3.650370 
# 
# 
# High freq. dielectric constant tensor:
#      x y z
#    x 1.732030 0.000000 0.000000 
#    y 0.000000 1.685550 0.000000 
#    z 0.000000 0.000000 1.742000 
# 
# From -- ./inp_files/24843.got.cif
#   From: 2010.03.12/outbox.cif.g09.slc.cpg/sg62_13_cif.got.tgz:24843.got - 2010.04.10 19:12:36.
