data_PCOD8250774
_publ_section_title
;
Structure prediction by ZEFSAII (Michael W. Deem and Ramdas Pophale) SiO2 
 PCOD8250774
Probable space group: P N M A
;
_chemical_formula_sum "Si O2"
_cell_formula_units_Z 64
_cell_length_a 18.578101
_cell_length_b 9.084109
_cell_length_c 26.347457
_cell_angle_alpha 90.000000
_cell_angle_beta 90.000000
_cell_angle_gamma 90.000000
_cell_volume 4446.541609
_symmetry_space_group_name_H-M "P N M A"
_symmetry_group_IT_number 62
_symmetry_cell_setting 'orthorhombic'
loop_
_space_group_symop_operation_xyz
x,y,z
1/2-x,-y,1/2+z
1/2+x,1/2-y,1/2-z
-x,1/2+y,-z
-x,-y,-z
1/2+x,y,1/2-z
1/2-x,1/2+y,1/2+z
x,1/2-y,z
loop_
_atom_site_type_symbol
_atom_site_label
_atom_site_fract_x
_atom_site_fract_y
_atom_site_fract_z
Si Si1 0.342184 0.919267 0.851231
Si Si2 0.416791 0.921368 0.950091
Si Si3 0.086791 0.076345 0.247214
Si Si4 0.649455 0.422744 0.851891
Si Si5 0.573153 0.580267 0.758999
Si Si6 0.710443 0.919413 0.297291
Si Si7 0.916058 0.079358 0.446660
Si Si8 0.213921 0.916980 0.790058
O O1 0.364107 0.750000 0.856055
O O2 0.369928 0.990484 0.903607
O O3 0.383205 0.981761 0.801521
O O4 0.255079 0.941175 0.844060
O O5 0.400579 0.750000 0.961047
O O6 0.499872 0.945698 0.935754
O O7 0.394370 0.014033 0.999004
O O8 0.092840 0.250000 0.242435
O O9 0.004639 0.021293 0.241465
O O10 0.135099 0.008714 0.201478
O O11 0.632746 0.250000 0.852991
O O12 0.601591 0.491765 0.807220
O O13 0.735233 0.452305 0.843988
O O14 0.629876 0.494872 0.904945
O O15 0.566992 0.750000 0.776208
O O16 0.627283 0.563289 0.710304
O O17 0.689613 0.750000 0.294588
O O18 0.754607 0.963321 0.247611
O O19 0.895354 0.250000 0.445490
O O20 0.232981 0.750000 0.771288
#
# Coordination Sequence:
#
# PCOD8250774 Si02
#       8
#     8   8   8   8   8   8   8   8
#     4   8  13  23  39  55  73 101 132 157 186 226
#     4   9  17  29  42  56  77 103 131 164 198 231
#     4   9  16  26  40  58  80 106 134 161 191 228
#     4  10  19  29  41  57  79 107 136 165 199 236
#     4   9  16  26  41  60  81 105 134 165 194 230
#     4   9  17  27  38  55  78 103 132 164 195 229
#     4  10  19  29  41  57  77 102 134 169 200 231
#     4   8  14  25  40  57  77 102 131 161 193 230
#
# _framework density 14.393208
#
# number of rings (size 3 to 8) (size 9 to 14) (size 15 to 20)
#    0.000    3.000    0.000    2.625    0.000    4.500 
#    0.000    2.500    0.000    0.000    0.000    0.000 
#    0.000    1.000    0.000    2.000    0.000    2.625 
#
# Total GULP energy -792911.162502 kJ/mol
# GULP energy per Si atom -12389.236914 kJ/mol
# Density = 1.436045 g / cm^3
# Si number density = 14.393208 Si / 1000 Ang^3
#
#
#
# Elastic Constant Matrix: (Units=GPa)
#
#
# Indices 1 2 3 4 5 6 
#
# 1 120.2155 39.0384 56.4816 0.0000 0.0000 0.0000
# 2 39.0384 50.2371 35.3829 0.0000 0.0000 0.0000
# 3 56.4816 35.3829 78.8032 0.0000 0.0000 0.0000
# 4 0.0000 0.0000 0.0000 18.4687 0.0000 0.0000
# 5 0.0000 0.0000 0.0000 0.0000 25.1910 0.0000
# 6 0.0000 0.0000 0.0000 0.0000 0.0000 17.6434
#
#
#
# Elastic Compliance Matrix: (Units=1/GPa)
#
#
# Indices 1 2 3 4 5 6 
#
# 1 0.013461 -0.005360 -0.007242 0.000000 0.000000 0.000000
# 2 -0.005360 0.031246 -0.010188 0.000000 0.000000 0.000000
# 3 -0.007242 -0.010188 0.022455 0.000000 0.000000 0.000000
# 4 0.000000 0.000000 0.000000 0.054146 0.000000 0.000000
# 5 0.000000 0.000000 0.000000 0.000000 0.039697 0.000000
# 6 0.000000 0.000000 0.000000 0.000000 0.000000 0.056679
#
#
# Mechanical properties :
#
#
# Convention : Reuss Voigt Hill
#
# Bulk Modulus (GPa) = 46.33266 56.78464 51.55865
# Shear Modulus (GPa) = 18.48721 20.15080 19.31900
#
# Velocity S-wave (km/s) = 3.58780 3.74575 3.66762
# Velocity P-wave (km/s) = 7.03019 7.63187 7.33720
#
# Compressibility (1/GPa) = 0.02158305
#
# Stress axis : x y z
#
# Youngs Moduli (GPa) = 74.28620 32.00362 44.53427
#
# Poissons Ratio (x) = 0.17155 0.32250
# Poissons Ratio (y) = 0.39819 0.45371
# Poissons Ratio (z) = 0.53795 0.32605
#
# Static dielectric constant tensor:
#      x y z
#    x 3.086030 0.000000 0.000000 
#    y 0.000000 2.779410 0.000000 
#    z 0.000000 0.000000 2.678760 
# 
# 
# High freq. dielectric constant tensor:
#      x y z
#    x 1.545820 0.000000 0.000000 
#    y 0.000000 1.547400 0.000000 
#    z 0.000000 0.000000 1.512790 
# 
# From -- ./inp_files/30115.got.cif
#   From: 2010.03.12/outbox.cif.g09.slc.cpg/sg62_16_cif.got.tgz:30115.got - 2010.04.10 19:12:36.
