data_PCOD8250111
_publ_section_title
;
Structure prediction by ZEFSAII (Michael W. Deem and Ramdas Pophale) SiO2 
 PCOD8250111
Probable space group: P N M A
;
_chemical_formula_sum "Si O2"
_cell_formula_units_Z 64
_cell_length_a 11.660690
_cell_length_b 14.814861
_cell_length_c 18.144391
_cell_angle_alpha 90.000000
_cell_angle_beta 90.000000
_cell_angle_gamma 90.000000
_cell_volume 3134.470789
_symmetry_space_group_name_H-M "P N M A"
_symmetry_group_IT_number 62
_symmetry_cell_setting 'orthorhombic'
loop_
_space_group_symop_operation_xyz
x,y,z
1/2-x,-y,1/2+z
1/2+x,1/2-y,1/2-z
-x,1/2+y,-z
-x,-y,-z
1/2+x,y,1/2-z
1/2-x,1/2+y,1/2+z
x,1/2-y,z
loop_
_atom_site_type_symbol
_atom_site_label
_atom_site_fract_x
_atom_site_fract_y
_atom_site_fract_z
Si Si1 0.212891 0.149137 0.631970
Si Si2 0.094253 0.591026 0.563669
Si Si3 0.986384 0.549139 0.317205
Si Si4 0.085996 0.146330 0.932611
Si Si5 0.156390 0.350382 0.463072
Si Si6 0.079788 0.968763 0.160754
Si Si7 0.156462 0.152083 0.095382
Si Si8 0.807840 0.467182 0.587217
O O1 0.258261 0.250000 0.643421
O O2 0.195474 0.126711 0.546089
O O3 0.299866 0.081308 0.672367
O O4 0.090781 0.138291 0.673144
O O5 0.074078 0.529881 0.635712
O O6 0.207222 0.649751 0.579864
O O7 0.120346 0.535113 0.489247
O O8 0.981945 0.650436 0.546871
O O9 0.996119 0.528518 0.230743
O O10 0.114065 0.566695 0.346081
O O11 0.081503 0.250000 0.902706
O O12 0.199546 0.096127 0.905102
O O13 0.979106 0.086951 0.905515
O O14 0.084358 0.146031 0.020268
O O15 0.199582 0.250000 0.441418
O O16 0.217284 0.424299 0.408755
O O17 0.108093 0.072776 0.145375
O O18 0.131935 0.250000 0.132379
#
# Coordination Sequence:
#
# PCOD8250111 Si02
#       8
#     8   8   8   8   8   8   8   8
#     4  11  22  38  60  89 124 165 203 247 305 361
#     4  10  17  38  64  90 117 158 204 262 301 356
#     4  11  22  38  61  86 125 165 197 253 309 360
#     4  10  23  41  64  89 118 163 209 250 301 370
#     4  10  18  32  60  95 123 153 201 255 306 355
#     4  12  25  41  60  87 132 166 205 244 309 375
#     4  10  21  40  67  91 117 156 207 259 312 368
#     4  10  19  37  62  89 123 154 206 256 306 353
#
# _framework density 20.418119000000001
#
# number of rings (size 3 to 8) (size 9 to 14) (size 15 to 20)
#    0.000    1.500    3.750    2.625    1.750    2.000 
#    0.000    5.000    0.000    0.000    0.000    0.000 
#    0.000    0.000    0.000    0.000    0.000    0.000 
#
# Total GULP energy -793247.289922 kJ/mol
# GULP energy per Si atom -12394.488905 kJ/mol
# Density = 2.037165 g / cm^3
# Si number density = 20.418119 Si / 1000 Ang^3
#
#
#
# Elastic Constant Matrix: (Units=GPa)
#
#
# Indices 1 2 3 4 5 6 
#
# 1 46.4611 32.4747 20.1925 0.0000 0.0000 0.0000
# 2 32.4747 133.0985 27.9427 0.0000 0.0000 0.0000
# 3 20.1925 27.9427 57.8205 0.0000 0.0000 0.0000
# 4 0.0000 0.0000 0.0000 15.9603 0.0000 0.0000
# 5 0.0000 0.0000 0.0000 0.0000 18.9477 0.0000
# 6 0.0000 0.0000 0.0000 0.0000 0.0000 20.5237
#
#
#
# Elastic Compliance Matrix: (Units=1/GPa)
#
#
# Indices 1 2 3 4 5 6 
#
# 1 0.028495 -0.005412 -0.007335 0.000000 0.000000 0.000000
# 2 -0.005412 0.009390 -0.002648 0.000000 0.000000 0.000000
# 3 -0.007335 -0.002648 0.021136 0.000000 0.000000 0.000000
# 4 0.000000 0.000000 0.000000 0.062656 0.000000 0.000000
# 5 0.000000 0.000000 0.000000 0.000000 0.052777 0.000000
# 6 0.000000 0.000000 0.000000 0.000000 0.000000 0.048724
#
#
# Mechanical properties :
#
#
# Convention : Reuss Voigt Hill
#
# Bulk Modulus (GPa) = 35.42390 44.28888 39.85639
# Shear Modulus (GPa) = 18.98416 21.53767 20.26091
#
# Velocity S-wave (km/s) = 3.05252 3.25134 3.15350
# Velocity P-wave (km/s) = 5.45992 5.98607 5.72904
#
# Compressibility (1/GPa) = 0.02822953
#
# Stress axis : x y z
#
# Youngs Moduli (GPa) = 35.09445 106.50052 47.31241
#
# Poissons Ratio (x) = 0.57642 0.34706
# Poissons Ratio (y) = 0.18994 0.12526
# Poissons Ratio (z) = 0.25743 0.28196
#
# Static dielectric constant tensor:
#      x y z
#    x 3.710490 0.000000 0.000000 
#    y 0.000000 3.804490 0.000000 
#    z 0.000000 0.000000 3.392540 
# 
# 
# High freq. dielectric constant tensor:
#      x y z
#    x 1.799310 0.000000 0.000000 
#    y 0.000000 1.805720 0.000000 
#    z 0.000000 0.000000 1.765160 
# 
# From -- ./inp_files/23209.got.cif
#   From: 2010.03.12/outbox.cif.g09.slc.cpg/sg62_12_cif.got.tgz:23209.got - 2010.04.10 19:12:36.
