data_PCOD8250340
_publ_section_title
;
Structure prediction by ZEFSAII (Michael W. Deem and Ramdas Pophale) SiO2 
 PCOD8250340
Probable space group: P N M A
;
_chemical_formula_sum "Si O2"
_cell_formula_units_Z 56
_cell_length_a 18.376512
_cell_length_b 8.471679
_cell_length_c 21.145822
_cell_angle_alpha 90.000000
_cell_angle_beta 90.000000
_cell_angle_gamma 90.000000
_cell_volume 3291.979683
_symmetry_space_group_name_H-M "P N M A"
_symmetry_group_IT_number 62
_symmetry_cell_setting 'orthorhombic'
loop_
_space_group_symop_operation_xyz
x,y,z
1/2-x,-y,1/2+z
1/2+x,1/2-y,1/2-z
-x,1/2+y,-z
-x,-y,-z
1/2+x,y,1/2-z
1/2-x,1/2+y,1/2+z
x,1/2-y,z
loop_
_atom_site_type_symbol
_atom_site_label
_atom_site_fract_x
_atom_site_fract_y
_atom_site_fract_z
Si Si1 0.712655 0.433099 0.694676
Si Si2 0.920309 0.065324 0.246106
Si Si3 0.418871 0.438166 0.003153
Si Si4 0.652786 0.063933 0.871059
Si Si5 0.422390 0.435737 0.747512
Si Si6 0.787890 0.567257 0.813586
Si Si7 0.151434 0.566481 0.375994
O O1 0.721273 0.250000 0.714927
O O2 0.627840 0.481232 0.690192
O O3 0.743626 0.544955 0.749136
O O4 0.761203 0.464926 0.631835
O O5 0.908545 0.250000 0.241486
O O6 0.896877 0.006843 0.315381
O O7 0.003254 0.023697 0.232259
O O8 0.417328 0.250000 0.006839
O O9 0.379172 0.509796 0.062920
O O10 0.500000 0.500000 0.000000
O O11 0.377254 0.507323 0.941205
O O12 0.649290 0.250000 0.864821
O O13 0.736809 0.005939 0.868461
O O14 0.435723 0.250000 0.748994
O O15 0.365291 0.478322 0.691830
O O16 0.391505 0.500351 0.814750
O O17 0.801881 0.750000 0.827682
O O18 0.134481 0.750000 0.378638
#
# Coordination Sequence:
#
# PCOD8250340 Si02
#       7
#     8   8   8   8   8   8   8
#     4   9  16  30  48  66  89 123 158 192 235 286
#     4  11  20  30  46  72  98 123 155 198 242 282
#     4  11  21  34  49  70  97 128 164 201 234 276
#     4  11  21  34  48  66  94 131 166 198 236 284
#     4  10  18  31  49  71  97 127 156 190 236 289
#     4  10  18  30  47  69  93 121 156 198 239 280
#     4   8  17  31  48  66  90 123 160 193 228 273
#
# _framework density 17.011040000000001
#
# number of rings (size 3 to 8) (size 9 to 14) (size 15 to 20)
#    0.000    2.000    0.000    8.571    0.000    1.143 
#    0.000    7.857    0.000    0.000    0.000    1.000 
#    0.000    0.000    0.000    0.000    0.000    0.000 
#
# Total GULP energy -694093.728077 kJ/mol
# GULP energy per Si atom -12394.530859 kJ/mol
# Density = 1.697232 g / cm^3
# Si number density = 17.011040 Si / 1000 Ang^3
#
#
#
# Elastic Constant Matrix: (Units=GPa)
#
#
# Indices 1 2 3 4 5 6 
#
# 1 137.1203 22.3309 60.7298 0.0000 0.0000 0.0000
# 2 22.3309 68.7499 16.4853 0.0000 0.0000 0.0000
# 3 60.7298 16.4853 71.4352 0.0000 0.0000 0.0000
# 4 0.0000 0.0000 0.0000 19.1347 0.0000 0.0000
# 5 0.0000 0.0000 0.0000 0.0000 30.6314 0.0000
# 6 0.0000 0.0000 0.0000 0.0000 0.0000 30.1921
#
#
#
# Elastic Compliance Matrix: (Units=1/GPa)
#
#
# Indices 1 2 3 4 5 6 
#
# 1 0.011845 -0.001517 -0.009720 0.000000 0.000000 0.000000
# 2 -0.001517 0.015592 -0.002309 0.000000 0.000000 0.000000
# 3 -0.009720 -0.002309 0.022794 0.000000 0.000000 0.000000
# 4 0.000000 0.000000 0.000000 0.052261 0.000000 0.000000
# 5 0.000000 0.000000 0.000000 0.000000 0.032646 0.000000
# 6 0.000000 0.000000 0.000000 0.000000 0.000000 0.033121
#
#
# Mechanical properties :
#
#
# Convention : Reuss Voigt Hill
#
# Bulk Modulus (GPa) = 43.21370 52.93306 48.07338
# Shear Modulus (GPa) = 24.62291 27.84225 26.23258
#
# Velocity S-wave (km/s) = 3.80869 4.05002 3.93121
# Velocity P-wave (km/s) = 6.69327 7.28387 6.99481
#
# Compressibility (1/GPa) = 0.02314081
#
# Stress axis : x y z
#
# Youngs Moduli (GPa) = 84.42675 64.13656 43.87037
#
# Poissons Ratio (x) = 0.09727 0.42640
# Poissons Ratio (y) = 0.12805 0.10129
# Poissons Ratio (z) = 0.82059 0.14808
#
# Static dielectric constant tensor:
#      x y z
#    x 3.498890 0.000000 0.000000 
#    y 0.000000 3.196020 0.000000 
#    z 0.000000 0.000000 3.125540 
# 
# 
# High freq. dielectric constant tensor:
#      x y z
#    x 1.666280 0.000000 0.000000 
#    y 0.000000 1.664620 0.000000 
#    z 0.000000 0.000000 1.610140 
# 
# From -- ./inp_files/27514.got.cif
#   From: 2010.03.12/outbox.cif.g09.slc.cpg/sg62_14_cif.got.tgz:27514.got - 2010.04.10 19:12:36.
