data_PCOD8250453
_publ_section_title
;
Structure prediction by ZEFSAII (Michael W. Deem and Ramdas Pophale) SiO2 
 PCOD8250453
Probable space group: P N M A
;
_chemical_formula_sum "Si O2"
_cell_formula_units_Z 64
_cell_length_a 10.002989
_cell_length_b 14.336072
_cell_length_c 22.517446
_cell_angle_alpha 90.000000
_cell_angle_beta 90.000000
_cell_angle_gamma 90.000000
_cell_volume 3229.082155
_symmetry_space_group_name_H-M "P N M A"
_symmetry_group_IT_number 62
_symmetry_cell_setting 'orthorhombic'
loop_
_space_group_symop_operation_xyz
x,y,z
1/2-x,-y,1/2+z
1/2+x,1/2-y,1/2-z
-x,1/2+y,-z
-x,-y,-z
1/2+x,y,1/2-z
1/2-x,1/2+y,1/2+z
x,1/2-y,z
loop_
_atom_site_type_symbol
_atom_site_label
_atom_site_fract_x
_atom_site_fract_y
_atom_site_fract_z
Si Si1 0.177098 0.645299 0.997173
Si Si2 0.546138 0.081355 0.956124
Si Si3 0.206108 0.648780 0.503349
Si Si4 0.443754 0.856255 0.417140
Si Si5 0.867131 0.856265 0.676260
Si Si6 0.885126 0.049817 0.123136
Si Si7 0.126547 0.562869 0.623135
Si Si8 0.368910 0.641617 0.687139
O O1 0.154117 0.750000 0.972754
O O2 0.135810 0.573086 0.946068
O O3 0.330850 0.635491 0.014949
O O4 0.091310 0.628513 0.056595
O O5 0.415250 0.146994 0.955144
O O6 0.577934 0.044224 0.888527
O O7 0.500000 0.000000 0.000000
O O8 0.213235 0.750000 0.532558
O O9 0.343075 0.625944 0.470964
O O10 0.192816 0.581066 0.559037
O O11 0.427662 0.750000 0.390827
O O12 0.416282 0.938610 0.369117
O O13 0.819599 0.750000 0.665576
O O14 0.749031 0.926062 0.658790
O O15 0.906105 0.873874 0.744414
O O16 0.998269 0.873721 0.636841
O O17 0.006492 0.110303 0.148140
O O18 0.238639 0.578228 0.673086
O O19 0.336047 0.750000 0.673848
#
# Coordination Sequence:
#
# PCOD8250453 Si02
#       8
#     8   8   8   8   8   8   8   8
#     4  11  21  34  54  83 116 147 179 217 266 328
#     4  10  20  32  48  76 108 141 179 216 253 315
#     4  10  18  31  51  76 106 138 172 211 260 319
#     4  10  22  37  55  82 113 142 179 225 268 321
#     4  11  23  37  54  80 110 140 180 228 271 317
#     4  12  21  36  58  79 108 147 183 218 271 325
#     4  11  20  34  53  73 106 147 178 212 263 316
#     4  11  23  37  54  79 108 140 182 227 269 317
#
# _framework density 19.819873999999999
#
# number of rings (size 3 to 8) (size 9 to 14) (size 15 to 20)
#    0.000    1.250    0.000    9.000    0.000    3.000 
#    0.000    0.000    0.000    0.750    0.000    3.500 
#    0.000    0.000    0.000    0.000    0.000    0.000 
#
# Total GULP energy -793314.835542 kJ/mol
# GULP energy per Si atom -12395.544305 kJ/mol
# Density = 1.977476 g / cm^3
# Si number density = 19.819874 Si / 1000 Ang^3
#
#
#
# Elastic Constant Matrix: (Units=GPa)
#
#
# Indices 1 2 3 4 5 6 
#
# 1 90.2296 6.3261 -1.1598 0.0000 0.0000 0.0000
# 2 6.3261 73.1347 21.1501 0.0000 0.0000 0.0000
# 3 -1.1598 21.1501 40.8042 0.0000 0.0000 0.0000
# 4 0.0000 0.0000 0.0000 22.2173 0.0000 0.0000
# 5 0.0000 0.0000 0.0000 0.0000 18.5388 0.0000
# 6 0.0000 0.0000 0.0000 0.0000 0.0000 31.5688
#
#
#
# Elastic Compliance Matrix: (Units=1/GPa)
#
#
# Indices 1 2 3 4 5 6 
#
# 1 0.011183 -0.001246 0.000964 0.000000 0.000000 0.000000
# 2 -0.001246 0.016223 -0.008444 0.000000 0.000000 0.000000
# 3 0.000964 -0.008444 0.028912 0.000000 0.000000 0.000000
# 4 0.000000 0.000000 0.000000 0.045010 0.000000 0.000000
# 5 0.000000 0.000000 0.000000 0.000000 0.053941 0.000000
# 6 0.000000 0.000000 0.000000 0.000000 0.000000 0.031677
#
#
# Mechanical properties :
#
#
# Convention : Reuss Voigt Hill
#
# Bulk Modulus (GPa) = 25.73070 28.53346 27.13208
# Shear Modulus (GPa) = 23.00400 26.32178 24.66289
#
# Velocity S-wave (km/s) = 3.41053 3.64820 3.53136
# Velocity P-wave (km/s) = 5.34036 5.67216 5.50876
#
# Compressibility (1/GPa) = 0.03886409
#
# Stress axis : x y z
#
# Youngs Moduli (GPa) = 89.42479 61.63994 34.58805
#
# Poissons Ratio (x) = 0.07680 -0.03333
# Poissons Ratio (y) = 0.11142 0.29208
# Poissons Ratio (z) = -0.08618 0.52051
#
# Static dielectric constant tensor:
#      x y z
#    x 4.041850 0.000000 0.000000 
#    y 0.000000 4.191460 0.000000 
#    z 0.000000 0.000000 3.448950 
# 
# 
# High freq. dielectric constant tensor:
#      x y z
#    x 1.797470 0.000000 0.000000 
#    y 0.000000 1.770490 0.000000 
#    z 0.000000 0.000000 1.729740 
# 
# From -- ./inp_files/28970.got.cif
#   From: 2010.03.12/outbox.cif.g09.slc.cpg/sg62_15_cif.got.tgz:28970.got - 2010.04.10 19:12:36.
