data_PCOD8250740
_publ_section_title
;
Structure prediction by ZEFSAII (Michael W. Deem and Ramdas Pophale) SiO2 
 PCOD8250740
Probable space group: P N M A
;
_chemical_formula_sum "Si O2"
_cell_formula_units_Z 56
_cell_length_a 9.477811
_cell_length_b 19.148619
_cell_length_c 16.769963
_cell_angle_alpha 90.000000
_cell_angle_beta 90.000000
_cell_angle_gamma 90.000000
_cell_volume 3043.530137
_symmetry_space_group_name_H-M "P N M A"
_symmetry_group_IT_number 62
_symmetry_cell_setting 'orthorhombic'
loop_
_space_group_symop_operation_xyz
x,y,z
1/2-x,-y,1/2+z
1/2+x,1/2-y,1/2-z
-x,1/2+y,-z
-x,-y,-z
1/2+x,y,1/2-z
1/2-x,1/2+y,1/2+z
x,1/2-y,z
loop_
_atom_site_type_symbol
_atom_site_label
_atom_site_fract_x
_atom_site_fract_y
_atom_site_fract_z
Si Si1 0.837416 0.430845 0.466747
Si Si2 0.686684 0.924281 0.493825
Si Si3 0.287468 0.022431 0.340555
Si Si4 0.940594 0.611408 0.408179
Si Si5 0.462852 0.478384 0.186998
Si Si6 0.545202 0.750000 0.170042
Si Si7 0.615510 0.386630 0.570321
Si Si8 0.870461 0.750000 0.169391
O O1 0.747661 0.501323 0.468378
O O2 0.900020 0.422906 0.377827
O O3 0.724457 0.371798 0.496190
O O4 0.967140 0.432460 0.528445
O O5 0.688395 0.919926 0.589946
O O6 0.791290 0.868682 0.450692
O O7 0.530134 0.916472 0.461913
O O8 0.398201 0.040903 0.271938
O O9 0.130550 0.028953 0.305987
O O10 0.311376 0.943824 0.372473
O O11 0.920285 0.558610 0.333859
O O12 0.014962 0.682227 0.382607
O O13 0.707833 0.750000 0.193892
O O14 0.454891 0.750000 0.249183
O O15 0.585998 0.316754 0.618321
#
# Coordination Sequence:
#
# PCOD8250740 Si02
#       8
#     8   8   8   8   8   4   8   4
#     4  10  18  39  56  78 108 154 192 235 284 339
#     4  10  21  36  58  80 111 148 195 241 283 342
#     4  11  21  34  52  87 113 146 181 234 291 339
#     4  11  20  39  58  77 113 159 192 230 273 344
#     4  11  21  32  55  82 117 142 184 235 293 334
#     4  12  26  40  60  84 119 160 197 227 275 336
#     4  11  23  37  58  79 119 154 196 229 279 335
#     4  12  26  42  56  86 121 156 197 229 267 342
#
# _framework density 18.399685999999999
#
# number of rings (size 3 to 8) (size 9 to 14) (size 15 to 20)
#    0.000    1.143    5.714    3.429    8.000    0.000 
#    0.000    0.000    0.000    0.000    0.000    6.000 
#    0.000    0.000    0.000    0.000    0.000    0.000 
#
# Total GULP energy -694207.343229 kJ/mol
# GULP energy per Si atom -12396.559701 kJ/mol
# Density = 1.835781 g / cm^3
# Si number density = 18.399686 Si / 1000 Ang^3
#
#
#
# Elastic Constant Matrix: (Units=GPa)
#
#
# Indices 1 2 3 4 5 6 
#
# 1 145.9492 15.2960 64.0988 0.0000 0.0000 0.0000
# 2 15.2960 46.4365 28.9498 0.0000 0.0000 0.0000
# 3 64.0988 28.9498 103.9355 0.0000 0.0000 0.0000
# 4 0.0000 0.0000 0.0000 16.0934 0.0000 0.0000
# 5 0.0000 0.0000 0.0000 0.0000 47.1207 0.0000
# 6 0.0000 0.0000 0.0000 0.0000 0.0000 20.9441
#
#
#
# Elastic Compliance Matrix: (Units=1/GPa)
#
#
# Indices 1 2 3 4 5 6 
#
# 1 0.009412 0.000627 -0.005979 0.000000 0.000000 0.000000
# 2 0.000627 0.026102 -0.007657 0.000000 0.000000 0.000000
# 3 -0.005979 -0.007657 0.015442 0.000000 0.000000 0.000000
# 4 0.000000 0.000000 0.000000 0.062137 0.000000 0.000000
# 5 0.000000 0.000000 0.000000 0.000000 0.021222 0.000000
# 6 0.000000 0.000000 0.000000 0.000000 0.000000 0.047746
#
#
# Mechanical properties :
#
#
# Convention : Reuss Voigt Hill
#
# Bulk Modulus (GPa) = 40.10060 57.00115 48.55087
# Shear Modulus (GPa) = 23.10626 29.36342 26.23484
#
# Velocity S-wave (km/s) = 3.54757 3.99916 3.78011
# Velocity P-wave (km/s) = 6.21464 7.23679 6.74510
#
# Compressibility (1/GPa) = 0.02493728
#
# Stress axis : x y z
#
# Youngs Moduli (GPa) = 106.24792 38.31141 64.75982
#
# Poissons Ratio (x) = -0.02404 0.38722
# Poissons Ratio (y) = -0.06666 0.49588
# Poissons Ratio (z) = 0.63528 0.29336
#
# Static dielectric constant tensor:
#      x y z
#    x 3.766230 0.000000 0.000000 
#    y 0.000000 3.109830 0.000000 
#    z 0.000000 0.000000 3.642710 
# 
# 
# High freq. dielectric constant tensor:
#      x y z
#    x 1.743860 0.000000 0.000000 
#    y 0.000000 1.660690 0.000000 
#    z 0.000000 0.000000 1.714770 
# 
# From -- ./inp_files/22528.got.cif
#   From: 2010.03.12/outbox.cif.g09.slc.cpg/sg62_12_cif.got.tgz:22528.got - 2010.04.10 19:12:36.
