data_PCOD8250772
_publ_section_title
;
Structure prediction by ZEFSAII (Michael W. Deem and Ramdas Pophale) SiO2 
 PCOD8250772
Probable space group: P N M A
;
_chemical_formula_sum "Si O2"
_cell_formula_units_Z 64
_cell_length_a 18.199585
_cell_length_b 20.591458
_cell_length_c 11.200018
_cell_angle_alpha 90.000000
_cell_angle_beta 90.000000
_cell_angle_gamma 90.000000
_cell_volume 4197.273835
_symmetry_space_group_name_H-M "P N M A"
_symmetry_group_IT_number 62
_symmetry_cell_setting 'orthorhombic'
loop_
_space_group_symop_operation_xyz
x,y,z
1/2-x,-y,1/2+z
1/2+x,1/2-y,1/2-z
-x,1/2+y,-z
-x,-y,-z
1/2+x,y,1/2-z
1/2-x,1/2+y,1/2+z
x,1/2-y,z
loop_
_atom_site_type_symbol
_atom_site_label
_atom_site_fract_x
_atom_site_fract_y
_atom_site_fract_z
Si Si1 0.534490 0.175210 0.720813
Si Si2 0.059610 0.926984 0.103387
Si Si3 0.659363 0.075711 0.771003
Si Si4 0.884372 0.525114 0.517617
Si Si5 0.676404 0.925567 0.192183
Si Si6 0.437183 0.030373 0.345736
Si Si7 0.920254 0.176904 0.570681
Si Si8 0.977479 0.085799 0.390465
O O1 0.547958 0.250000 0.683849
O O2 0.486334 0.139845 0.618308
O O3 0.611877 0.139528 0.740596
O O4 0.489544 0.168843 0.842662
O O5 0.130771 0.930578 0.186026
O O6 0.085628 0.933031 0.966727
O O7 0.009408 0.987278 0.139323
O O8 0.740617 0.089321 0.726109
O O9 0.629834 0.013525 0.699186
O O10 0.660420 0.061813 0.913270
O O11 0.830022 0.491418 0.613565
O O12 0.936368 0.471641 0.459189
O O13 0.935287 0.576906 0.587881
O O14 0.648483 0.865043 0.114542
O O15 0.457705 0.085130 0.249011
O O16 0.891948 0.250000 0.561674
O O17 0.949059 0.154170 0.441530
#
# Coordination Sequence:
#
# PCOD8250772 Si02
#       8
#     8   8   8   8   8   8   8   8
#     4   9  17  31  48  66  89 120 156 193 228 264
#     4   9  17  30  45  66  95 123 153 189 229 280
#     4  10  19  28  45  70  95 121 151 190 232 286
#     4   9  16  28  44  66  90 116 150 187 238 275
#     4  10  19  28  44  68  97 122 147 190 239 279
#     4   9  17  29  46  67  93 123 154 186 234 280
#     4   9  17  30  48  67  88 119 159 195 228 269
#     4   9  14  28  49  64  86 116 151 199 232 263
#
# _framework density 15.247992
#
# number of rings (size 3 to 8) (size 9 to 14) (size 15 to 20)
#    0.000    2.750    2.500    0.000    1.750    0.500 
#    0.000    0.625    0.000    0.000    0.000    0.000 
#    0.000    1.250    0.000    0.000    0.000    0.000 
#
# Total GULP energy -793425.023862 kJ/mol
# GULP energy per Si atom -12397.265998 kJ/mol
# Density = 1.521329 g / cm^3
# Si number density = 15.247992 Si / 1000 Ang^3
#
#
#
# Elastic Constant Matrix: (Units=GPa)
#
#
# Indices 1 2 3 4 5 6 
#
# 1 96.4945 40.1144 39.7407 0.0000 0.0000 0.0000
# 2 40.1144 86.5637 53.3352 0.0000 0.0000 0.0000
# 3 39.7407 53.3352 106.6189 0.0000 0.0000 0.0000
# 4 0.0000 0.0000 0.0000 16.9863 0.0000 0.0000
# 5 0.0000 0.0000 0.0000 0.0000 14.9235 0.0000
# 6 0.0000 0.0000 0.0000 0.0000 0.0000 12.7827
#
#
#
# Elastic Compliance Matrix: (Units=1/GPa)
#
#
# Indices 1 2 3 4 5 6 
#
# 1 0.013361 -0.004515 -0.002722 0.000000 0.000000 0.000000
# 2 -0.004515 0.018225 -0.007434 0.000000 0.000000 0.000000
# 3 -0.002722 -0.007434 0.014112 0.000000 0.000000 0.000000
# 4 0.000000 0.000000 0.000000 0.058871 0.000000 0.000000
# 5 0.000000 0.000000 0.000000 0.000000 0.067008 0.000000
# 6 0.000000 0.000000 0.000000 0.000000 0.000000 0.078231
#
#
# Mechanical properties :
#
#
# Convention : Reuss Voigt Hill
#
# Bulk Modulus (GPa) = 61.13413 61.78419 61.45916
# Shear Modulus (GPa) = 17.56845 19.37097 18.46971
#
# Velocity S-wave (km/s) = 3.39806 3.56813 3.48413
# Velocity P-wave (km/s) = 7.45493 7.58834 7.52193
#
# Compressibility (1/GPa) = 0.01635748
#
# Stress axis : x y z
#
# Youngs Moduli (GPa) = 74.84456 54.87069 70.85942
#
# Poissons Ratio (x) = 0.24772 0.19286
# Poissons Ratio (y) = 0.33790 0.52677
# Poissons Ratio (z) = 0.20370 0.40791
#
# Static dielectric constant tensor:
#      x y z
#    x 2.709260 0.000000 0.000000 
#    y 0.000000 2.846220 0.000000 
#    z 0.000000 0.000000 3.069920 
# 
# 
# High freq. dielectric constant tensor:
#      x y z
#    x 1.570720 0.000000 0.000000 
#    y 0.000000 1.562880 0.000000 
#    z 0.000000 0.000000 1.583070 
# 
# From -- ./inp_files/14454.got.cif
#   From: 2010.03.12/outbox.cif.g09.slc.cpg/sg62_8_cif.got.tgz:14454.got - 2010.04.10 19:12:36.
