data_PCOD8250090
_publ_section_title
;
Structure prediction by ZEFSAII (Michael W. Deem and Ramdas Pophale) SiO2 
 PCOD8250090
Probable space group: P N M A
;
_chemical_formula_sum "Si O2"
_cell_formula_units_Z 64
_cell_length_a 19.062510
_cell_length_b 9.004986
_cell_length_c 18.979723
_cell_angle_alpha 90.000000
_cell_angle_beta 90.000000
_cell_angle_gamma 90.000000
_cell_volume 3258.014376
_symmetry_space_group_name_H-M "P N M A"
_symmetry_group_IT_number 62
_symmetry_cell_setting 'orthorhombic'
loop_
_space_group_symop_operation_xyz
x,y,z
1/2-x,-y,1/2+z
1/2+x,1/2-y,1/2-z
-x,1/2+y,-z
-x,-y,-z
1/2+x,y,1/2-z
1/2-x,1/2+y,1/2+z
x,1/2-y,z
loop_
_atom_site_type_symbol
_atom_site_label
_atom_site_fract_x
_atom_site_fract_y
_atom_site_fract_z
Si Si1 0.875945 0.074165 0.657013
Si Si2 0.809596 0.923393 0.529730
Si Si3 0.479182 0.079246 0.189371
Si Si4 0.154673 0.925051 0.956212
Si Si5 0.960205 0.419225 0.150149
Si Si6 0.288468 0.074333 0.710718
Si Si7 0.347943 0.576478 0.131002
Si Si8 0.597582 0.926137 0.397939
O O1 0.883614 0.250000 0.654109
O O2 0.812136 0.027037 0.710172
O O3 0.863719 0.011682 0.578883
O O4 0.948525 0.009187 0.685436
O O5 0.817822 0.750000 0.546805
O O6 0.733130 0.988142 0.549406
O O7 0.822135 0.955568 0.447868
O O8 0.492616 0.250000 0.168598
O O9 0.448425 0.062635 0.267373
O O10 0.420465 0.011267 0.138594
O O11 0.161169 0.750000 0.965753
O O12 0.111947 0.970890 0.886721
O O13 0.115911 0.990054 0.025026
O O14 0.978481 0.250000 0.129496
O O15 0.020748 0.523447 0.122311
O O16 0.288173 0.250000 0.702950
O O17 0.211170 0.017354 0.686806
O O18 0.346151 0.007931 0.657172
O O19 0.362581 0.750000 0.143058
O O20 0.598997 0.750000 0.396331
#
# Coordination Sequence:
#
# PCOD8250090 Si02
#       8
#     8   8   8   8   8   8   8   8
#     4  11  23  40  62  87 117 152 192 241 287 336
#     4  10  21  39  63  87 113 150 193 238 291 346
#     4  11  24  40  58  85 118 154 194 238 288 345
#     4   9  18  34  57  84 118 156 190 228 282 347
#     4  10  21  35  52  83 122 154 188 233 285 340
#     4   9  18  35  60  87 113 146 190 233 278 333
#     4  10  21  40  64  87 113 150 194 239 286 341
#     4  10  17  33  60  84 112 155 196 228 274 341
#
# _framework density 19.643867
#
# number of rings (size 3 to 8) (size 9 to 14) (size 15 to 20)
#    0.000    2.000    2.500    1.125    1.750    1.500 
#    0.000    2.500    0.000    0.000    0.000    0.000 
#    0.000    0.000    0.000    0.000    0.000    0.000 
#
# Total GULP energy -793561.312440 kJ/mol
# GULP energy per Si atom -12399.395507 kJ/mol
# Density = 1.959916 g / cm^3
# Si number density = 19.643867 Si / 1000 Ang^3
#
#
#
# Elastic Constant Matrix: (Units=GPa)
#
#
# Indices 1 2 3 4 5 6 
#
# 1 87.5017 31.7771 44.7900 0.0000 0.0000 0.0000
# 2 31.7771 52.6807 36.4228 0.0000 0.0000 0.0000
# 3 44.7900 36.4228 83.4524 0.0000 0.0000 0.0000
# 4 0.0000 0.0000 0.0000 20.6202 0.0000 0.0000
# 5 0.0000 0.0000 0.0000 0.0000 40.0419 0.0000
# 6 0.0000 0.0000 0.0000 0.0000 0.0000 27.1914
#
#
#
# Elastic Compliance Matrix: (Units=1/GPa)
#
#
# Indices 1 2 3 4 5 6 
#
# 1 0.016836 -0.005597 -0.006593 0.000000 0.000000 0.000000
# 2 -0.005597 0.029046 -0.009673 0.000000 0.000000 0.000000
# 3 -0.006593 -0.009673 0.019743 0.000000 0.000000 0.000000
# 4 0.000000 0.000000 0.000000 0.048496 0.000000 0.000000
# 5 0.000000 0.000000 0.000000 0.000000 0.024974 0.000000
# 6 0.000000 0.000000 0.000000 0.000000 0.000000 0.036776
#
#
# Mechanical properties :
#
#
# Convention : Reuss Voigt Hill
#
# Bulk Modulus (GPa) = 45.66482 49.95718 47.81100
# Shear Modulus (GPa) = 22.03625 24.94702 23.49164
#
# Velocity S-wave (km/s) = 3.35294 3.56752 3.46190
# Velocity P-wave (km/s) = 6.18761 6.51585 6.35385
#
# Compressibility (1/GPa) = 0.02189869
#
# Stress axis : x y z
#
# Youngs Moduli (GPa) = 59.39710 34.42763 50.64961
#
# Poissons Ratio (x) = 0.19269 0.33394
# Poissons Ratio (y) = 0.33244 0.48995
# Poissons Ratio (z) = 0.39162 0.33303
#
# Static dielectric constant tensor:
#      x y z
#    x 3.628840 0.000000 0.000000 
#    y 0.000000 3.271310 0.000000 
#    z 0.000000 0.000000 3.692650 
# 
# 
# High freq. dielectric constant tensor:
#      x y z
#    x 1.772510 0.000000 0.000000 
#    y 0.000000 1.733570 0.000000 
#    z 0.000000 0.000000 1.774150 
# 
# From -- ./inp_files/27619.got.cif
#   From: 2010.03.12/outbox.cif.g09.slc.cpg/sg62_14_cif.got.tgz:27619.got - 2010.04.10 19:12:36.
