data_PCOD8250159
_publ_section_title
;
Structure prediction by ZEFSAII (Michael W. Deem and Ramdas Pophale) SiO2 
 PCOD8250159
Probable space group: P N M A
;
_chemical_formula_sum "Si O2"
_cell_formula_units_Z 56
_cell_length_a 29.262969
_cell_length_b 9.101298
_cell_length_c 13.658732
_cell_angle_alpha 90.000000
_cell_angle_beta 90.000000
_cell_angle_gamma 90.000000
_cell_volume 3637.743769
_symmetry_space_group_name_H-M "P N M A"
_symmetry_group_IT_number 62
_symmetry_cell_setting 'orthorhombic'
loop_
_space_group_symop_operation_xyz
x,y,z
1/2-x,-y,1/2+z
1/2+x,1/2-y,1/2-z
-x,1/2+y,-z
-x,-y,-z
1/2+x,y,1/2-z
1/2-x,1/2+y,1/2+z
x,1/2-y,z
loop_
_atom_site_type_symbol
_atom_site_label
_atom_site_fract_x
_atom_site_fract_y
_atom_site_fract_z
Si Si1 0.594006 0.924146 0.389214
Si Si2 0.272644 0.077517 0.087811
Si Si3 0.593805 0.578877 0.611859
Si Si4 0.319081 0.425368 0.280136
Si Si5 0.269372 0.580583 0.890064
Si Si6 0.179680 0.418884 0.192498
Si Si7 0.994096 0.577401 0.896904
O O1 0.588281 0.750000 0.382555
O O2 0.598613 0.982215 0.501123
O O3 0.637640 0.974163 0.328221
O O4 0.548499 0.000076 0.342021
O O5 0.277665 0.250000 0.075080
O O6 0.308133 0.018494 0.170380
O O7 0.221317 0.037039 0.121249
O O8 0.285780 0.004252 0.985838
O O9 0.604256 0.750000 0.604897
O O10 0.632340 0.508947 0.682974
O O11 0.543093 0.551172 0.657243
O O12 0.317711 0.250000 0.277921
O O13 0.279739 0.480604 0.354350
O O14 0.265117 0.750000 0.918250
O O15 0.306435 0.556569 0.805009
O O16 0.165466 0.250000 0.174676
O O17 0.984563 0.750000 0.910184
O O18 0.000000 0.500000 0.000000
#
# Coordination Sequence:
#
# PCOD8250159 Si02
#       7
#     8   8   8   8   8   8   8
#     4  10  18  27  42  63  84 111 144 176 210 249
#     4   9  17  28  43  62  84 108 137 173 207 236
#     4   8  14  24  40  61  83 109 140 166 197 246
#     4   8  14  26  42  60  82 110 140 166 196 242
#     4   9  17  29  44  60  84 115 141 167 204 247
#     4   9  18  30  42  60  85 114 143 170 205 248
#     4   9  16  26  40  60  86 113 140 172 208 250
#
# _framework density 15.394157999999999
#
# number of rings (size 3 to 8) (size 9 to 14) (size 15 to 20)
#    0.000    3.143    0.000    4.286    0.000    2.286 
#    0.000    2.143    0.000    6.000    0.000    1.000 
#    0.000    0.000    0.000    0.000    0.000    0.000 
#
# Total GULP energy -693941.997322 kJ/mol
# GULP energy per Si atom -12391.821381 kJ/mol
# Density = 1.535912 g / cm^3
# Si number density = 15.394158 Si / 1000 Ang^3
#
#
#
# Elastic Constant Matrix: (Units=GPa)
#
#
# Indices 1 2 3 4 5 6 
#
# 1 118.1365 43.0963 41.2204 0.0000 0.0000 0.0000
# 2 43.0963 51.4841 26.2865 0.0000 0.0000 0.0000
# 3 41.2204 26.2865 77.4464 0.0000 0.0000 0.0000
# 4 0.0000 0.0000 0.0000 21.8290 0.0000 0.0000
# 5 0.0000 0.0000 0.0000 0.0000 19.9498 0.0000
# 6 0.0000 0.0000 0.0000 0.0000 0.0000 21.9969
#
#
#
# Elastic Compliance Matrix: (Units=1/GPa)
#
#
# Indices 1 2 3 4 5 6 
#
# 1 0.013107 -0.008963 -0.003934 0.000000 0.000000 0.000000
# 2 -0.008963 0.029624 -0.005284 0.000000 0.000000 0.000000
# 3 -0.003934 -0.005284 0.016800 0.000000 0.000000 0.000000
# 4 0.000000 0.000000 0.000000 0.045811 0.000000 0.000000
# 5 0.000000 0.000000 0.000000 0.000000 0.050126 0.000000
# 6 0.000000 0.000000 0.000000 0.000000 0.000000 0.045461
#
#
# Mechanical properties :
#
#
# Convention : Reuss Voigt Hill
#
# Bulk Modulus (GPa) = 43.16272 52.03037 47.59654
# Shear Modulus (GPa) = 20.40695 21.85272 21.12983
#
# Velocity S-wave (km/s) = 3.64487 3.77177 3.70886
# Velocity P-wave (km/s) = 6.76851 7.26915 7.02329
#
# Compressibility (1/GPa) = 0.02316814
#
# Stress axis : x y z
#
# Youngs Moduli (GPa) = 76.29373 33.75586 59.52518
#
# Poissons Ratio (x) = 0.30256 0.23417
# Poissons Ratio (y) = 0.68384 0.31455
# Poissons Ratio (z) = 0.30014 0.17838
#
# Static dielectric constant tensor:
#      x y z
#    x 3.351570 0.000000 0.000000 
#    y 0.000000 2.770440 0.000000 
#    z 0.000000 0.000000 2.831610 
# 
# 
# High freq. dielectric constant tensor:
#      x y z
#    x 1.593020 0.000000 0.000000 
#    y 0.000000 1.573580 0.000000 
#    z 0.000000 0.000000 1.557880 
# 
# From -- ./inp_files/21192.got.cif
#   From: 2010.03.12/outbox.cif.g09.slc.cpg/sg62_11_cif.got.tgz:21192.got - 2010.04.10 19:12:36.
