data_PCOD8250870
_publ_section_title
;
Structure prediction by ZEFSAII (Michael W. Deem and Ramdas Pophale) SiO2 
 PCOD8250870
Probable space group: P N M A
;
_chemical_formula_sum "Si O2"
_cell_formula_units_Z 56
_cell_length_a 20.456498
_cell_length_b 8.921655
_cell_length_c 17.251365
_cell_angle_alpha 90.000000
_cell_angle_beta 90.000000
_cell_angle_gamma 90.000000
_cell_volume 3148.474475
_symmetry_space_group_name_H-M "P N M A"
_symmetry_group_IT_number 62
_symmetry_cell_setting 'orthorhombic'
loop_
_space_group_symop_operation_xyz
x,y,z
1/2-x,-y,1/2+z
1/2+x,1/2-y,1/2-z
-x,1/2+y,-z
-x,-y,-z
1/2+x,y,1/2-z
1/2-x,1/2+y,1/2+z
x,1/2-y,z
loop_
_atom_site_type_symbol
_atom_site_label
_atom_site_fract_x
_atom_site_fract_y
_atom_site_fract_z
Si Si1 0.153789 0.074720 0.977365
Si Si2 0.403636 0.917741 0.034422
Si Si3 0.599227 0.427931 0.358932
Si Si4 0.879441 0.426711 0.705268
Si Si5 0.009646 0.418069 0.381949
Si Si6 0.019340 0.426405 0.919905
Si Si7 0.296317 0.072540 0.941477
O O1 0.162826 0.250000 0.988178
O O2 0.134094 0.012099 0.062541
O O3 0.097557 0.042061 0.912630
O O4 0.222524 0.008080 0.947470
O O5 0.387408 0.750000 0.063044
O O6 0.438715 0.007396 0.104179
O O7 0.451703 0.912443 0.961963
O O8 0.336825 0.000330 0.011677
O O9 0.596024 0.250000 0.354968
O O10 0.639284 0.492565 0.285834
O O11 0.524757 0.493886 0.354353
O O12 0.881368 0.250000 0.717404
O O13 0.950997 0.481974 0.679325
O O14 0.825317 0.475089 0.641927
O O15 0.000404 0.250000 0.348985
O O16 0.004723 0.250000 0.920624
O O17 0.000000 0.500000 0.000000
O O18 0.300734 0.250000 0.951361
#
# Coordination Sequence:
#
# PCOD8250870 Si02
#       7
#     8   8   8   8   8   8   8
#     4   8  16  31  52  74  95 127 166 205 246 293
#     4   9  16  26  42  67  95 121 157 200 239 279
#     4  10  19  32  51  73  99 128 164 207 253 302
#     4  10  19  30  48  73  99 127 163 207 252 302
#     4   9  16  27  44  65  91 124 159 198 240 283
#     4   9  16  29  50  75  98 122 157 200 247 290
#     4   9  17  31  50  71  96 131 171 202 242 298
#
# _framework density 17.786391999999999
#
# number of rings (size 3 to 8) (size 9 to 14) (size 15 to 20)
#    0.000    2.857    0.000    3.000    0.000    4.000 
#    0.000    4.286    3.143    0.000    0.000    0.000 
#    0.000    0.000    0.000    0.000    0.000    0.000 
#
# Total GULP energy -694026.012861 kJ/mol
# GULP energy per Si atom -12393.321658 kJ/mol
# Density = 1.774591 g / cm^3
# Si number density = 17.786392 Si / 1000 Ang^3
#
#
#
# Elastic Constant Matrix: (Units=GPa)
#
#
# Indices 1 2 3 4 5 6 
#
# 1 128.8680 38.2922 43.4174 0.0000 0.0000 0.0000
# 2 38.2922 80.3090 26.7196 0.0000 0.0000 0.0000
# 3 43.4174 26.7196 69.0895 0.0000 0.0000 0.0000
# 4 0.0000 0.0000 0.0000 27.0364 0.0000 0.0000
# 5 0.0000 0.0000 0.0000 0.0000 17.6725 0.0000
# 6 0.0000 0.0000 0.0000 0.0000 0.0000 20.7282
#
#
#
# Elastic Compliance Matrix: (Units=1/GPa)
#
#
# Indices 1 2 3 4 5 6 
#
# 1 0.010529 -0.003235 -0.005365 0.000000 0.000000 0.000000
# 2 -0.003235 0.015285 -0.003878 0.000000 0.000000 0.000000
# 3 -0.005365 -0.003878 0.019346 0.000000 0.000000 0.000000
# 4 0.000000 0.000000 0.000000 0.036987 0.000000 0.000000
# 5 0.000000 0.000000 0.000000 0.000000 0.056585 0.000000
# 6 0.000000 0.000000 0.000000 0.000000 0.000000 0.048244
#
#
# Mechanical properties :
#
#
# Convention : Reuss Voigt Hill
#
# Bulk Modulus (GPa) = 49.50077 55.01390 52.25733
# Shear Modulus (GPa) = 22.86586 24.40987 23.63786
#
# Velocity S-wave (km/s) = 3.58939 3.70860 3.64948
# Velocity P-wave (km/s) = 6.71338 7.02394 6.87041
#
# Compressibility (1/GPa) = 0.02020171
#
# Stress axis : x y z
#
# Youngs Moduli (GPa) = 94.97694 65.42456 51.69143
#
# Poissons Ratio (x) = 0.21166 0.27735
# Poissons Ratio (y) = 0.30727 0.20047
# Poissons Ratio (z) = 0.50959 0.25373
#
# Static dielectric constant tensor:
#      x y z
#    x 3.633940 0.000000 0.000000 
#    y 0.000000 3.345600 0.000000 
#    z 0.000000 0.000000 3.144330 
# 
# 
# High freq. dielectric constant tensor:
#      x y z
#    x 1.676040 0.000000 0.000000 
#    y 0.000000 1.689290 0.000000 
#    z 0.000000 0.000000 1.657380 
# 
# From -- ./inp_files/24655.got.cif
#   From: 2010.03.12/outbox.cif.g09.slc.cpg/sg62_13_cif.got.tgz:24655.got - 2010.04.10 19:12:36.
