data_PCOD8250779
_publ_section_title
;
Structure prediction by ZEFSAII (Michael W. Deem and Ramdas Pophale) SiO2 
 PCOD8250779
Probable space group: P N M A
;
_chemical_formula_sum "Si O2"
_cell_formula_units_Z 64
_cell_length_a 22.505543
_cell_length_b 8.906112
_cell_length_c 20.567230
_cell_angle_alpha 90.000000
_cell_angle_beta 90.000000
_cell_angle_gamma 90.000000
_cell_volume 4122.431547
_symmetry_space_group_name_H-M "P N M A"
_symmetry_group_IT_number 62
_symmetry_cell_setting 'orthorhombic'
loop_
_space_group_symop_operation_xyz
x,y,z
1/2-x,-y,1/2+z
1/2+x,1/2-y,1/2-z
-x,1/2+y,-z
-x,-y,-z
1/2+x,y,1/2-z
1/2-x,1/2+y,1/2+z
x,1/2-y,z
loop_
_atom_site_type_symbol
_atom_site_label
_atom_site_fract_x
_atom_site_fract_y
_atom_site_fract_z
Si Si1 0.844417 0.415695 0.265356
Si Si2 0.434685 0.426499 0.680733
Si Si3 0.166778 0.925121 0.269667
Si Si4 0.066318 0.426185 0.816198
Si Si5 0.346991 0.071269 0.568139
Si Si6 0.151285 0.072481 0.932835
Si Si7 0.738397 0.426987 0.344087
Si Si8 0.246276 0.918974 0.853403
O O1 0.872151 0.250000 0.268690
O O2 0.898842 0.525532 0.249325
O O3 0.809551 0.453811 0.332887
O O4 0.794230 0.423886 0.210206
O O5 0.440591 0.250000 0.671866
O O6 0.401479 0.462856 0.749397
O O7 0.500502 0.499628 0.682061
O O8 0.397554 0.485727 0.618586
O O9 0.175888 0.750000 0.283696
O O10 0.204470 0.969785 0.207122
O O11 0.188888 0.015027 0.333558
O O12 0.061196 0.250000 0.813548
O O13 0.102341 0.478184 0.879843
O O14 0.338678 0.250000 0.568430
O O15 0.367001 0.014106 0.497812
O O16 0.284206 0.989048 0.586251
O O17 0.151721 0.250000 0.944084
O O18 0.216567 0.019661 0.909561
O O19 0.723673 0.250000 0.335259
O O20 0.254410 0.750000 0.879578
#
# Coordination Sequence:
#
# PCOD8250779 Si02
#       8
#     8   8   8   8   8   8   8   8
#     4   8  15  26  40  59  80 101 127 167 214 249
#     4   8  16  29  42  58  82 112 143 174 206 239
#     4   9  15  25  42  61  81 104 132 168 211 252
#     4   9  17  29  43  58  80 112 146 174 200 240
#     4  10  19  30  43  58  81 112 144 176 210 246
#     4  10  19  29  42  60  82 110 145 178 208 244
#     4   9  16  27  42  59  80 103 132 171 213 253
#     4   9  16  27  42  59  80 104 133 170 212 252
#
# _framework density 15.524818
#
# number of rings (size 3 to 8) (size 9 to 14) (size 15 to 20)
#    0.000    3.000    0.000    3.375    0.000    4.500 
#    0.000    3.750    0.000    0.000    0.000    0.000 
#    0.000    1.000    0.000    3.000    0.000    4.875 
#
# Total GULP energy -792964.182908 kJ/mol
# GULP energy per Si atom -12390.065358 kJ/mol
# Density = 1.548948 g / cm^3
# Si number density = 15.524818 Si / 1000 Ang^3
#
#
#
# Elastic Constant Matrix: (Units=GPa)
#
#
# Indices 1 2 3 4 5 6 
#
# 1 102.5421 36.7058 52.7662 0.0000 0.0000 0.0000
# 2 36.7058 49.0702 20.4598 0.0000 0.0000 0.0000
# 3 52.7662 20.4598 32.6692 0.0000 0.0000 0.0000
# 4 0.0000 0.0000 0.0000 24.5278 0.0000 0.0000
# 5 0.0000 0.0000 0.0000 0.0000 16.3115 0.0000
# 6 0.0000 0.0000 0.0000 0.0000 0.0000 15.4469
#
#
#
# Elastic Compliance Matrix: (Units=1/GPa)
#
#
# Indices 1 2 3 4 5 6 
#
# 1 0.059010 -0.005956 -0.091581 0.000000 0.000000 0.000000
# 2 -0.005956 0.028182 -0.008029 0.000000 0.000000 0.000000
# 3 -0.091581 -0.008029 0.183557 0.000000 0.000000 0.000000
# 4 0.000000 0.000000 0.000000 0.040770 0.000000 0.000000
# 5 0.000000 0.000000 0.000000 0.000000 0.061307 0.000000
# 6 0.000000 0.000000 0.000000 0.000000 0.000000 0.064738
#
#
# Mechanical properties :
#
#
# Convention : Reuss Voigt Hill
#
# Bulk Modulus (GPa) = 16.77392 44.90503 30.83947
# Shear Modulus (GPa) = 7.47866 16.21388 11.84627
#
# Velocity S-wave (km/s) = 2.19720 3.23520 2.76534
# Velocity P-wave (km/s) = 4.15511 6.55308 5.48670
#
# Compressibility (1/GPa) = 0.05961636
#
# Stress axis : x y z
#
# Youngs Moduli (GPa) = 16.94626 35.48324 5.44790
#
# Poissons Ratio (x) = 0.21136 0.49892
# Poissons Ratio (y) = 0.10094 0.04374
# Poissons Ratio (z) = 1.55195 0.28490
#
# Static dielectric constant tensor:
#      x y z
#    x 3.254630 0.000000 0.000000 
#    y 0.000000 2.963280 0.000000 
#    z 0.000000 0.000000 2.881580 
# 
# 
# High freq. dielectric constant tensor:
#      x y z
#    x 1.576570 0.000000 0.000000 
#    y 0.000000 1.599400 0.000000 
#    z 0.000000 0.000000 1.558920 
# 
# From -- ./inp_files/24957.got.cif
#   From: 2010.03.12/outbox.cif.g09.slc.cpg/sg62_13_cif.got.tgz:24957.got - 2010.04.10 19:12:36.
