data_PCOD8250568
_publ_section_title
;
Structure prediction by ZEFSAII (Michael W. Deem and Ramdas Pophale) SiO2 
 PCOD8250568
Probable space group: P N M A
;
_chemical_formula_sum "Si O2"
_cell_formula_units_Z 40
_cell_length_a 15.617259
_cell_length_b 8.454606
_cell_length_c 15.455014
_cell_angle_alpha 90.000000
_cell_angle_beta 90.000000
_cell_angle_gamma 90.000000
_cell_volume 2040.645609
_symmetry_space_group_name_H-M "P N M A"
_symmetry_group_IT_number 62
_symmetry_cell_setting 'orthorhombic'
loop_
_space_group_symop_operation_xyz
x,y,z
1/2-x,-y,1/2+z
1/2+x,1/2-y,1/2-z
-x,1/2+y,-z
-x,-y,-z
1/2+x,y,1/2-z
1/2-x,1/2+y,1/2+z
x,1/2-y,z
loop_
_atom_site_type_symbol
_atom_site_label
_atom_site_fract_x
_atom_site_fract_y
_atom_site_fract_z
Si Si1 0.458494 0.432639 0.367650
Si Si2 0.119434 0.566141 0.048534
Si Si3 0.937599 0.933467 0.313434
Si Si4 0.567101 0.437624 0.069322
Si Si5 0.303680 0.065143 0.053326
O O1 0.449038 0.250000 0.342753
O O2 0.399610 0.479959 0.449105
O O3 0.557427 0.468713 0.388391
O O4 0.424604 0.536407 0.287860
O O5 0.101379 0.750000 0.064305
O O6 0.215950 0.524622 0.072647
O O7 0.926534 0.750000 0.335643
O O8 0.867499 0.030290 0.367642
O O9 0.033925 0.992592 0.339180
O O10 0.569901 0.250000 0.073378
O O11 0.500000 0.500000 0.000000
O O12 0.659232 0.503517 0.039100
O O13 0.286214 0.250000 0.046584
#
# Coordination Sequence:
#
# PCOD8250568 Si02
#       5
#     8   8   8   8   8
#     4  10  21  39  61  84 113 150 190 232 283 339
#     4  10  21  39  61  84 113 150 191 232 282 339
#     4  11  21  36  58  85 117 150 190 235 284 337
#     4  10  18  32  54  80 112 148 185 225 281 337
#     4  11  21  36  58  85 117 150 190 235 286 337
#
# _framework density 19.601638999999999
#
# number of rings (size 3 to 8) (size 9 to 14) (size 15 to 20)
#    0.000    1.600    0.000    9.000    0.000    2.400 
#    3.600    0.000    0.000    0.000    0.000    0.000 
#    0.000    0.000    0.000    0.000    0.000    0.000 
#
# Total GULP energy -496071.829420 kJ/mol
# GULP energy per Si atom -12401.795735 kJ/mol
# Density = 1.955703 g / cm^3
# Si number density = 19.601639 Si / 1000 Ang^3
#
#
#
# Elastic Constant Matrix: (Units=GPa)
#
#
# Indices 1 2 3 4 5 6 
#
# 1 86.1471 0.4572 19.9235 0.0000 0.0000 0.0000
# 2 0.4572 83.1259 14.4780 0.0000 0.0000 0.0000
# 3 19.9235 14.4780 84.1306 0.0000 0.0000 0.0000
# 4 0.0000 0.0000 0.0000 32.9098 0.0000 0.0000
# 5 0.0000 0.0000 0.0000 0.0000 15.4182 0.0000
# 6 0.0000 0.0000 0.0000 0.0000 0.0000 32.1492
#
#
#
# Elastic Compliance Matrix: (Units=1/GPa)
#
#
# Indices 1 2 3 4 5 6 
#
# 1 0.012297 0.000453 -0.002990 0.000000 0.000000 0.000000
# 2 0.000453 0.012418 -0.002244 0.000000 0.000000 0.000000
# 3 -0.002990 -0.002244 0.012981 0.000000 0.000000 0.000000
# 4 0.000000 0.000000 0.000000 0.030386 0.000000 0.000000
# 5 0.000000 0.000000 0.000000 0.000000 0.064858 0.000000
# 6 0.000000 0.000000 0.000000 0.000000 0.000000 0.031105
#
#
# Mechanical properties :
#
#
# Convention : Reuss Voigt Hill
#
# Bulk Modulus (GPa) = 35.54492 35.90233 35.72362
# Shear Modulus (GPa) = 27.32449 30.66512 28.99481
#
# Velocity S-wave (km/s) = 3.73767 3.95956 3.85021
# Velocity P-wave (km/s) = 6.06629 6.26577 6.16684
#
# Compressibility (1/GPa) = 0.02813342
#
# Stress axis : x y z
#
# Youngs Moduli (GPa) = 81.31935 80.52597 77.03787
#
# Poissons Ratio (x) = -0.03649 0.23036
# Poissons Ratio (y) = -0.03685 0.17290
# Poissons Ratio (z) = 0.24316 0.18073
#
# Static dielectric constant tensor:
#      x y z
#    x 3.625330 0.000000 0.000000 
#    y 0.000000 3.625440 0.000000 
#    z 0.000000 0.000000 3.753540 
# 
# 
# High freq. dielectric constant tensor:
#      x y z
#    x 1.751780 0.000000 0.000000 
#    y 0.000000 1.782010 0.000000 
#    z 0.000000 0.000000 1.753430 
# 
# From -- ./inp_files/18633.got.cif
#   From: 2010.03.12/outbox.cif.g09.slc.cpg/sg62_10_cif.got.tgz:18633.got - 2010.04.10 19:12:36.
