data_PCOD8250553
_publ_section_title
;
Structure prediction by ZEFSAII (Michael W. Deem and Ramdas Pophale) SiO2 
 PCOD8250553
Probable space group: P N M A
;
_chemical_formula_sum "Si O2"
_cell_formula_units_Z 32
_cell_length_a 33.317227
_cell_length_b 5.386633
_cell_length_c 6.891093
_cell_angle_alpha 90.000000
_cell_angle_beta 90.000000
_cell_angle_gamma 90.000000
_cell_volume 1236.728435
_symmetry_space_group_name_H-M "P N M A"
_symmetry_group_IT_number 62
_symmetry_cell_setting 'orthorhombic'
loop_
_space_group_symop_operation_xyz
x,y,z
1/2-x,-y,1/2+z
1/2+x,1/2-y,1/2-z
-x,1/2+y,-z
-x,-y,-z
1/2+x,y,1/2-z
1/2-x,1/2+y,1/2+z
x,1/2-y,z
loop_
_atom_site_type_symbol
_atom_site_label
_atom_site_fract_x
_atom_site_fract_y
_atom_site_fract_z
Si Si1 0.543079 0.750000 0.297183
Si Si2 0.796579 0.750000 0.218320
Si Si3 0.666565 0.250000 0.146103
Si Si4 0.296439 0.250000 0.836723
Si Si5 0.924907 0.750000 0.745444
Si Si6 0.825468 0.250000 0.229575
Si Si7 0.418931 0.250000 0.288446
Si Si8 0.549327 0.250000 0.678352
O O1 0.552172 0.500670 0.172880
O O2 0.573007 0.750000 0.480922
O O3 0.497585 0.750000 0.372887
O O4 0.818700 0.750000 0.425398
O O5 0.749077 0.750000 0.234063
O O6 0.811927 0.497746 0.111119
O O7 0.682871 0.500729 0.249314
O O8 0.618917 0.250000 0.155561
O O9 0.300266 0.250000 0.069872
O O10 0.925062 0.750000 0.979950
O O11 0.872573 0.250000 0.268150
O O12 0.438782 0.502278 0.200393
#
# Coordination Sequence:
#
# PCOD8250553 Si02
#       8
#     4   4   4   4   4   4   4   4
#     4  10  19  33  53  84 116 149 186 229 272 319
#     4  10  21  40  59  79 108 145 183 231 283 337
#     4  10  21  37  57  83 108 144 187 231 279 332
#     4  10  21  40  59  79 108 145 183 231 283 337
#     4  10  18  32  53  82 114 146 184 231 274 322
#     4  10  21  37  57  83 108 144 187 231 279 332
#     4  10  18  32  53  82 114 146 184 231 274 322
#     4  10  19  33  53  84 116 149 186 229 272 319
#
# _framework density 25.874721999999998
#
# number of rings (size 3 to 8) (size 9 to 14) (size 15 to 20)
#    0.000    2.000    0.000    6.000    0.000    0.000 
#    0.000   30.000    0.000    0.000    0.000  119.000 
#    0.000    0.000    0.000    0.000    0.000    0.000 
#
# Total GULP energy -396500.066401 kJ/mol
# GULP energy per Si atom -12390.627075 kJ/mol
# Density = 2.581583 g / cm^3
# Si number density = 25.874722 Si / 1000 Ang^3
#
#
#
# Elastic Constant Matrix: (Units=GPa)
#
#
# Indices 1 2 3 4 5 6 
#
# 1 149.1771 74.1432 7.4923 0.0000 0.0000 0.0000
# 2 74.1432 361.0514 -22.9112 0.0000 0.0000 0.0000
# 3 7.4923 -22.9112 53.5950 0.0000 0.0000 0.0000
# 4 0.0000 0.0000 0.0000 -30.1290 0.0000 0.0000
# 5 0.0000 0.0000 0.0000 0.0000 27.8894 0.0000
# 6 0.0000 0.0000 0.0000 0.0000 0.0000 55.9303
#
#
#
# Elastic Compliance Matrix: (Units=1/GPa)
#
#
# Indices 1 2 3 4 5 6 
#
# 1 0.007628 -0.001680 -0.001784 0.000000 0.000000 0.000000
# 2 -0.001680 0.003217 0.001610 0.000000 0.000000 0.000000
# 3 -0.001784 0.001610 0.019596 0.000000 0.000000 0.000000
# 4 0.000000 0.000000 0.000000 -0.033191 0.000000 0.000000
# 5 0.000000 0.000000 0.000000 0.000000 0.035856 0.000000
# 6 0.000000 0.000000 0.000000 0.000000 0.000000 0.017879
#
#
# Mechanical properties :
#
#
# Convention : Reuss Voigt Hill
#
# Bulk Modulus (GPa) = 37.40745 75.69691 56.55218
# Shear Modulus (GPa) = 78.61077 44.41141 61.51109
#
# Velocity S-wave (km/s) = 5.51790 4.14744 4.88101
# Velocity P-wave (km/s) = 7.42192 7.22867 7.32593
#
# Compressibility (1/GPa) = 0.02673264
#
# Stress axis : x y z
#
# Youngs Moduli (GPa) = 131.09825 310.87083 51.03045
#
# Poissons Ratio (x) = 0.52215 0.09106
# Poissons Ratio (y) = 0.22020 -0.08216
# Poissons Ratio (z) = 0.23393 -0.50048
#
# Static dielectric constant tensor:
#      x y z
#    x 4.283160 0.000000 0.000000 
#    y 0.000000 8.169750 0.000000 
#    z 0.000000 0.000000 3.834900 
# 
# 
# High freq. dielectric constant tensor:
#      x y z
#    x 2.024520 0.000000 0.000000 
#    y 0.000000 2.089540 0.000000 
#    z 0.000000 0.000000 1.992250 
# 
# From -- ./inp_files/9637.got.cif
#   From: 2010.03.12/outbox.cif.g09.slc.cpg/sg62_5_cif.got.tgz:9637.got - 2010.04.10 19:12:36.
