data_PCOD8250190
_publ_section_title
;
Structure prediction by ZEFSAII (Michael W. Deem and Ramdas Pophale) SiO2 
 PCOD8250190
Probable space group: P N M A
;
_chemical_formula_sum "Si O2"
_cell_formula_units_Z 56
_cell_length_a 21.259508
_cell_length_b 8.912928
_cell_length_c 18.287188
_cell_angle_alpha 90.000000
_cell_angle_beta 90.000000
_cell_angle_gamma 90.000000
_cell_volume 3465.138018
_symmetry_space_group_name_H-M "P N M A"
_symmetry_group_IT_number 62
_symmetry_cell_setting 'orthorhombic'
loop_
_space_group_symop_operation_xyz
x,y,z
1/2-x,-y,1/2+z
1/2+x,1/2-y,1/2-z
-x,1/2+y,-z
-x,-y,-z
1/2+x,y,1/2-z
1/2-x,1/2+y,1/2+z
x,1/2-y,z
loop_
_atom_site_type_symbol
_atom_site_label
_atom_site_fract_x
_atom_site_fract_y
_atom_site_fract_z
Si Si1 0.499087 0.928829 0.920931
Si Si2 0.697719 0.921306 0.715502
Si Si3 0.311920 0.425353 0.712777
Si Si4 0.253986 0.926834 0.582228
Si Si5 0.126201 0.425594 0.340699
Si Si6 0.624363 0.923268 0.848944
Si Si7 0.249796 0.920693 0.931810
O O1 0.499437 0.750000 0.927794
O O2 0.437108 0.984317 0.878801
O O3 0.559395 0.995613 0.876808
O O4 0.500000 0.000000 0.000000
O O5 0.721824 0.750000 0.731798
O O6 0.632932 0.948378 0.760743
O O7 0.693013 0.941461 0.627818
O O8 0.747345 0.039645 0.745650
O O9 0.322349 0.250000 0.703571
O O10 0.308586 0.499427 0.632131
O O11 0.368171 0.492521 0.762208
O O12 0.258843 0.750000 0.591095
O O13 0.185356 0.987823 0.608203
O O14 0.265134 0.970515 0.498467
O O15 0.123619 0.250000 0.324878
O O16 0.184452 0.465544 0.393774
O O17 0.619543 0.750000 0.868361
O O18 0.252527 0.750000 0.960423
#
# Coordination Sequence:
#
# PCOD8250190 Si02
#       7
#     8   8   8   8   8   8   8
#     4  10  19  30  45  65  90 120 153 182 209 248
#     4   8  15  29  45  61  86 115 142 177 220 261
#     4  10  18  28  44  63  83 110 147 184 217 260
#     4  10  18  28  43  63  89 115 140 176 220 261
#     4   9  18  31  44  61  90 123 149 179 218 256
#     4   8  15  28  44  61  83 116 150 174 204 252
#     4   9  16  26  41  62  87 113 141 174 215 258
#
# _framework density 16.160972999999998
#
# number of rings (size 3 to 8) (size 9 to 14) (size 15 to 20)
#    0.000    2.857    0.000    4.286    0.000    2.857 
#    0.000    2.857    0.000    0.000    0.000    1.000 
#    0.000    0.000    0.000    0.000    0.000    0.000 
#
# Total GULP energy -693928.257341 kJ/mol
# GULP energy per Si atom -12391.576024 kJ/mol
# Density = 1.612419 g / cm^3
# Si number density = 16.160973 Si / 1000 Ang^3
#
#
#
# Elastic Constant Matrix: (Units=GPa)
#
#
# Indices 1 2 3 4 5 6 
#
# 1 80.2438 21.9073 64.4810 0.0000 0.0000 0.0000
# 2 21.9073 53.9002 43.0843 0.0000 0.0000 0.0000
# 3 64.4810 43.0843 141.6179 0.0000 0.0000 0.0000
# 4 0.0000 0.0000 0.0000 29.8820 0.0000 0.0000
# 5 0.0000 0.0000 0.0000 0.0000 28.5170 0.0000
# 6 0.0000 0.0000 0.0000 0.0000 0.0000 11.6232
#
#
#
# Elastic Compliance Matrix: (Units=1/GPa)
#
#
# Indices 1 2 3 4 5 6 
#
# 1 0.019702 -0.001106 -0.008634 0.000000 0.000000 0.000000
# 2 -0.001106 0.024576 -0.006973 0.000000 0.000000 0.000000
# 3 -0.008634 -0.006973 0.013114 0.000000 0.000000 0.000000
# 4 0.000000 0.000000 0.000000 0.033465 0.000000 0.000000
# 5 0.000000 0.000000 0.000000 0.000000 0.035067 0.000000
# 6 0.000000 0.000000 0.000000 0.000000 0.000000 0.086034
#
#
# Mechanical properties :
#
#
# Convention : Reuss Voigt Hill
#
# Bulk Modulus (GPa) = 41.72684 59.41189 50.56937
# Shear Modulus (GPa) = 19.73366 23.75707 21.74536
#
# Velocity S-wave (km/s) = 3.49817 3.83825 3.67215
# Velocity P-wave (km/s) = 6.49552 7.51567 7.02414
#
# Compressibility (1/GPa) = 0.02396539
#
# Stress axis : x y z
#
# Youngs Moduli (GPa) = 50.75585 40.68956 76.25435
#
# Poissons Ratio (x) = 0.04501 0.65840
# Poissons Ratio (y) = 0.05614 0.53174
# Poissons Ratio (z) = 0.43824 0.28374
#
# Static dielectric constant tensor:
#      x y z
#    x 3.057600 0.000000 0.000000 
#    y 0.000000 2.859800 0.000000 
#    z 0.000000 0.000000 3.259280 
# 
# 
# High freq. dielectric constant tensor:
#      x y z
#    x 1.580080 0.000000 0.000000 
#    y 0.000000 1.608980 0.000000 
#    z 0.000000 0.000000 1.627020 
# 
# From -- ./inp_files/24570.got.cif
#   From: 2010.03.12/outbox.cif.g09.slc.cpg/sg62_13_cif.got.tgz:24570.got - 2010.04.10 19:12:36.
