data_PCOD8250534
_publ_section_title
;
Structure prediction by ZEFSAII (Michael W. Deem and Ramdas Pophale) SiO2 
 PCOD8250534
Probable space group: P N M A
;
_chemical_formula_sum "Si O2"
_cell_formula_units_Z 64
_cell_length_a 18.416693
_cell_length_b 9.683873
_cell_length_c 20.347743
_cell_angle_alpha 90.000000
_cell_angle_beta 90.000000
_cell_angle_gamma 90.000000
_cell_volume 3628.916518
_symmetry_space_group_name_H-M "P N M A"
_symmetry_group_IT_number 62
_symmetry_cell_setting 'orthorhombic'
loop_
_space_group_symop_operation_xyz
x,y,z
1/2-x,-y,1/2+z
1/2+x,1/2-y,1/2-z
-x,1/2+y,-z
-x,-y,-z
1/2+x,y,1/2-z
1/2-x,1/2+y,1/2+z
x,1/2-y,z
loop_
_atom_site_type_symbol
_atom_site_label
_atom_site_fract_x
_atom_site_fract_y
_atom_site_fract_z
Si Si1 0.431979 0.903606 0.495990
Si Si2 0.887299 0.594111 0.672155
Si Si3 0.726123 0.589220 0.632160
Si Si4 0.151780 0.906241 0.088998
Si Si5 0.902977 0.596690 0.155273
Si Si6 0.780590 0.593071 0.494537
Si Si7 0.065433 0.091183 0.475391
Si Si8 0.942113 0.089566 0.787473
O O1 0.449202 0.750000 0.523055
O O2 0.405675 0.893664 0.422397
O O3 0.500000 0.000000 0.500000
O O4 0.372524 0.974278 0.540785
O O5 0.898072 0.750000 0.697294
O O6 0.801845 0.559745 0.668977
O O7 0.925480 0.573644 0.602360
O O8 0.927658 0.493345 0.721822
O O9 0.704395 0.750000 0.634544
O O10 0.663254 0.506453 0.671788
O O11 0.733602 0.534268 0.556381
O O12 0.124246 0.750000 0.070241
O O13 0.124586 0.940381 0.162069
O O14 0.239059 0.913942 0.076056
O O15 0.886834 0.750000 0.184111
O O16 0.980561 0.541736 0.182216
O O17 0.795746 0.750000 0.517064
O O18 0.861456 0.529766 0.489209
O O19 0.049960 0.250000 0.494636
O O20 0.000000 0.000000 0.500000
O O21 0.944674 0.250000 0.769697
#
# Coordination Sequence:
#
# PCOD8250534 Si02
#       8
#     8   8   8   8   8   8   8   8
#     4  11  20  30  45  71 107 141 172 213 254 294
#     4   9  20  38  56  76 103 136 177 218 259 316
#     4   9  17  32  55  76  95 129 172 212 259 312
#     4  10  18  32  51  73 104 139 174 212 253 308
#     4  10  20  32  47  75 108 134 172 220 255 301
#     4   8  15  29  52  77 101 130 164 204 257 316
#     4   9  18  35  58  83 104 127 168 221 271 317
#     4  10  21  35  50  73 108 146 178 210 256 312
#
# _framework density 17.636119000000001
#
# number of rings (size 3 to 8) (size 9 to 14) (size 15 to 20)
#    0.000    2.500    2.500    1.875    0.000    2.500 
#    0.000    3.750    0.000    4.500    0.000    0.000 
#    0.000    0.000    0.000    0.000    0.000    0.000 
#
# Total GULP energy -792964.410958 kJ/mol
# GULP energy per Si atom -12390.068921 kJ/mol
# Density = 1.759598 g / cm^3
# Si number density = 17.636119 Si / 1000 Ang^3
#
#
#
# Elastic Constant Matrix: (Units=GPa)
#
#
# Indices 1 2 3 4 5 6 
#
# 1 123.8168 58.5949 44.8105 0.0000 0.0000 0.0000
# 2 58.5949 84.0281 37.0366 0.0000 0.0000 0.0000
# 3 44.8105 37.0366 56.8232 0.0000 0.0000 0.0000
# 4 0.0000 0.0000 0.0000 26.2044 0.0000 0.0000
# 5 0.0000 0.0000 0.0000 0.0000 22.3150 0.0000
# 6 0.0000 0.0000 0.0000 0.0000 0.0000 30.2528
#
#
#
# Elastic Compliance Matrix: (Units=1/GPa)
#
#
# Indices 1 2 3 4 5 6 
#
# 1 0.013503 -0.006626 -0.006330 0.000000 0.000000 0.000000
# 2 -0.006626 0.019949 -0.007777 0.000000 0.000000 0.000000
# 3 -0.006330 -0.007777 0.027659 0.000000 0.000000 0.000000
# 4 0.000000 0.000000 0.000000 0.038161 0.000000 0.000000
# 5 0.000000 0.000000 0.000000 0.000000 0.044813 0.000000
# 6 0.000000 0.000000 0.000000 0.000000 0.000000 0.033055
#
#
# Mechanical properties :
#
#
# Convention : Reuss Voigt Hill
#
# Bulk Modulus (GPa) = 50.90281 60.61690 55.75985
# Shear Modulus (GPa) = 22.20694 24.03619 23.12156
#
# Velocity S-wave (km/s) = 3.55233 3.69575 3.62475
# Velocity P-wave (km/s) = 6.76394 7.25651 7.01455
#
# Compressibility (1/GPa) = 0.01964528
#
# Stress axis : x y z
#
# Youngs Moduli (GPa) = 74.05830 50.12702 36.15449
#
# Poissons Ratio (x) = 0.33215 0.22884
# Poissons Ratio (y) = 0.49072 0.28119
# Poissons Ratio (z) = 0.46875 0.38986
#
# Static dielectric constant tensor:
#      x y z
#    x 3.413070 0.000000 0.000000 
#    y 0.000000 3.222360 0.000000 
#    z 0.000000 0.000000 2.996050 
# 
# 
# High freq. dielectric constant tensor:
#      x y z
#    x 1.685970 0.000000 0.000000 
#    y 0.000000 1.674210 0.000000 
#    z 0.000000 0.000000 1.649970 
# 
# From -- ./inp_files/27688.got.cif
#   From: 2010.03.12/outbox.cif.g09.slc.cpg/sg62_14_cif.got.tgz:27688.got - 2010.04.10 19:12:36.
