data_PCOD8250232
_publ_section_title
;
Structure prediction by ZEFSAII (Michael W. Deem and Ramdas Pophale) SiO2 
 PCOD8250232
Probable space group: P N M A
;
_chemical_formula_sum "Si O2"
_cell_formula_units_Z 40
_cell_length_a 13.432172
_cell_length_b 9.393830
_cell_length_c 18.212785
_cell_angle_alpha 90.000000
_cell_angle_beta 90.000000
_cell_angle_gamma 90.000000
_cell_volume 2298.080839
_symmetry_space_group_name_H-M "P N M A"
_symmetry_group_IT_number 62
_symmetry_cell_setting 'orthorhombic'
loop_
_space_group_symop_operation_xyz
x,y,z
1/2-x,-y,1/2+z
1/2+x,1/2-y,1/2-z
-x,1/2+y,-z
-x,-y,-z
1/2+x,y,1/2-z
1/2-x,1/2+y,1/2+z
x,1/2-y,z
loop_
_atom_site_type_symbol
_atom_site_label
_atom_site_fract_x
_atom_site_fract_y
_atom_site_fract_z
Si Si1 0.801594 0.413307 0.533894
Si Si2 0.398513 0.919836 0.838448
Si Si3 0.410999 0.913006 0.533929
Si Si4 0.681605 0.419420 0.316899
Si Si5 0.115767 0.918841 0.619956
O O1 0.827800 0.250000 0.553073
O O2 0.825318 0.514265 0.601834
O O3 0.685277 0.429586 0.517183
O O4 0.866123 0.466533 0.464070
O O5 0.392694 0.750000 0.844073
O O6 0.363073 0.976458 0.759174
O O7 0.510456 0.977826 0.851385
O O8 0.444908 0.750000 0.538416
O O9 0.387040 0.972069 0.615618
O O10 0.500000 0.000000 0.500000
O O11 0.683811 0.250000 0.318224
O O12 0.794684 0.477070 0.328340
O O13 0.116901 0.750000 0.623075
#
# Coordination Sequence:
#
# PCOD8250232 Si02
#       5
#     8   8   8   8   8
#     4   9  18  32  47  65  95 128 151 181 234 286
#     4  10  18  28  49  75  91 114 158 199 225 263
#     4   9  18  33  51  69  93 127 160 191 233 281
#     4   8  16  30  46  68  97 123 149 189 238 277
#     4   8  15  29  46  65  93 124 150 182 228 277
#
# _framework density 17.405826999999999
#
# number of rings (size 3 to 8) (size 9 to 14) (size 15 to 20)
#    0.000    3.200    0.000    3.000    0.000    2.400 
#    0.000    5.000    0.000    3.600    0.000    0.000 
#    0.000    0.000    0.000    0.000    0.000    0.000 
#
# Total GULP energy -495838.142830 kJ/mol
# GULP energy per Si atom -12395.953571 kJ/mol
# Density = 1.736621 g / cm^3
# Si number density = 17.405827 Si / 1000 Ang^3
#
#
#
# Elastic Constant Matrix: (Units=GPa)
#
#
# Indices 1 2 3 4 5 6 
#
# 1 104.5783 34.6529 78.6344 0.0000 0.0000 0.0000
# 2 34.6529 30.0091 34.5879 0.0000 0.0000 0.0000
# 3 78.6344 34.5879 145.6954 0.0000 0.0000 0.0000
# 4 0.0000 0.0000 0.0000 24.0689 0.0000 0.0000
# 5 0.0000 0.0000 0.0000 0.0000 28.8919 0.0000
# 6 0.0000 0.0000 0.0000 0.0000 0.0000 25.4972
#
#
#
# Elastic Compliance Matrix: (Units=1/GPa)
#
#
# Indices 1 2 3 4 5 6 
#
# 1 0.019835 -0.014546 -0.007252 0.000000 0.000000 0.000000
# 2 -0.014546 0.056543 -0.005573 0.000000 0.000000 0.000000
# 3 -0.007252 -0.005573 0.012101 0.000000 0.000000 0.000000
# 4 0.000000 0.000000 0.000000 0.041547 0.000000 0.000000
# 5 0.000000 0.000000 0.000000 0.000000 0.034612 0.000000
# 6 0.000000 0.000000 0.000000 0.000000 0.000000 0.039220
#
#
# Mechanical properties :
#
#
# Convention : Reuss Voigt Hill
#
# Bulk Modulus (GPa) = 29.64060 64.00367 46.82214
# Shear Modulus (GPa) = 18.52915 24.51877 21.52396
#
# Velocity S-wave (km/s) = 3.26626 3.75727 3.52034
# Velocity P-wave (km/s) = 5.59381 7.46150 6.59412
#
# Compressibility (1/GPa) = 0.03373751
#
# Stress axis : x y z
#
# Youngs Moduli (GPa) = 50.41550 17.68570 82.63967
#
# Poissons Ratio (x) = 0.25725 0.59932
# Poissons Ratio (y) = 0.73333 0.46052
# Poissons Ratio (z) = 0.36563 0.09856
#
# Static dielectric constant tensor:
#      x y z
#    x 3.494210 0.000000 0.000000 
#    y 0.000000 2.789960 0.000000 
#    z 0.000000 0.000000 3.380260 
# 
# 
# High freq. dielectric constant tensor:
#      x y z
#    x 1.681180 0.000000 0.000000 
#    y 0.000000 1.625750 0.000000 
#    z 0.000000 0.000000 1.676270 
# 
# From -- ./inp_files/17791.got.cif
#   From: 2010.03.12/outbox.cif.g09.slc.cpg/sg62_9_cif.got.tgz:17791.got - 2010.04.10 19:12:36.
