data_PCOD8250980
_publ_section_title
;
Structure prediction by ZEFSAII (Michael W. Deem and Ramdas Pophale) SiO2 
 PCOD8250980
Probable space group: P N M A
;
_chemical_formula_sum "Si O2"
_cell_formula_units_Z 64
_cell_length_a 27.402162
_cell_length_b 9.211941
_cell_length_c 14.393730
_cell_angle_alpha 90.000000
_cell_angle_beta 90.000000
_cell_angle_gamma 90.000000
_cell_volume 3633.367517
_symmetry_space_group_name_H-M "P N M A"
_symmetry_group_IT_number 62
_symmetry_cell_setting 'orthorhombic'
loop_
_space_group_symop_operation_xyz
x,y,z
1/2-x,-y,1/2+z
1/2+x,1/2-y,1/2-z
-x,1/2+y,-z
-x,-y,-z
1/2+x,y,1/2-z
1/2-x,1/2+y,1/2+z
x,1/2-y,z
loop_
_atom_site_type_symbol
_atom_site_label
_atom_site_fract_x
_atom_site_fract_y
_atom_site_fract_z
Si Si1 0.053895 0.081802 0.093610
Si Si2 0.364353 0.917564 0.734354
Si Si3 0.323388 0.918684 0.092184
Si Si4 0.237185 0.411608 0.832666
Si Si5 0.557821 0.919337 0.591551
Si Si6 0.133046 0.086710 0.793652
Si Si7 0.736688 0.083839 0.339030
Si Si8 0.164166 0.585533 0.417428
O O1 0.060417 0.250000 0.067996
O O2 0.085212 0.040117 0.184172
O O3 0.997999 0.043456 0.116900
O O4 0.072868 0.992385 0.005334
O O5 0.363828 0.750000 0.767033
O O6 0.321671 0.942784 0.657069
O O7 0.358799 0.017940 0.824472
O O8 0.321177 0.750000 0.069613
O O9 0.350660 0.953000 0.188701
O O10 0.267889 0.980196 0.093741
O O11 0.352610 0.997137 0.008547
O O12 0.241567 0.250000 0.783761
O O13 0.180368 0.428576 0.862401
O O14 0.249326 0.545101 0.766242
O O15 0.276236 0.418299 0.915850
O O16 0.566973 0.750000 0.581703
O O17 0.590880 0.978554 0.675085
O O18 0.112278 0.250000 0.797378
O O19 0.750599 0.250000 0.360834
O O20 0.145030 0.750000 0.425303
#
# Coordination Sequence:
#
# PCOD8250980 Si02
#       8
#     8   8   8   8   8   8   8   8
#     4   9  19  36  54  72  98 129 157 191 243 302
#     4   9  18  33  52  72  97 131 165 196 240 297
#     4  10  20  33  48  68  99 138 171 198 237 289
#     4   8  16  30  45  64  93 128 160 190 234 285
#     4  10  20  33  52  77  99 121 156 203 247 287
#     4   9  18  33  51  69  95 132 166 197 239 292
#     4   9  16  27  45  68  92 121 160 201 234 269
#     4  10  19  31  49  73 101 131 165 206 242 278
#
# _framework density 17.614512999999999
#
# number of rings (size 3 to 8) (size 9 to 14) (size 15 to 20)
#    0.000    2.750    0.000    2.250    0.000    5.500 
#    0.000    5.000    0.000    0.750    0.000    0.000 
#    0.000    0.000    0.000    0.000    0.000    0.000 
#
# Total GULP energy -793157.443769 kJ/mol
# GULP energy per Si atom -12393.085059 kJ/mol
# Density = 1.757442 g / cm^3
# Si number density = 17.614513 Si / 1000 Ang^3
#
#
#
# Elastic Constant Matrix: (Units=GPa)
#
#
# Indices 1 2 3 4 5 6 
#
# 1 79.3331 45.8503 43.9494 0.0000 0.0000 0.0000
# 2 45.8503 101.6214 55.1631 0.0000 0.0000 0.0000
# 3 43.9494 55.1631 85.8064 0.0000 0.0000 0.0000
# 4 0.0000 0.0000 0.0000 30.8928 0.0000 0.0000
# 5 0.0000 0.0000 0.0000 0.0000 21.4488 0.0000
# 6 0.0000 0.0000 0.0000 0.0000 0.0000 25.1350
#
#
#
# Elastic Compliance Matrix: (Units=1/GPa)
#
#
# Indices 1 2 3 4 5 6 
#
# 1 0.019178 -0.005101 -0.006544 0.000000 0.000000 0.000000
# 2 -0.005101 0.016472 -0.007977 0.000000 0.000000 0.000000
# 3 -0.006544 -0.007977 0.020134 0.000000 0.000000 0.000000
# 4 0.000000 0.000000 0.000000 0.032370 0.000000 0.000000
# 5 0.000000 0.000000 0.000000 0.000000 0.046623 0.000000
# 6 0.000000 0.000000 0.000000 0.000000 0.000000 0.039785
#
#
# Mechanical properties :
#
#
# Convention : Reuss Voigt Hill
#
# Bulk Modulus (GPa) = 60.45483 61.85406 61.15445
# Shear Modulus (GPa) = 22.79791 23.61520 23.20655
#
# Velocity S-wave (km/s) = 3.60150 3.66548 3.63363
# Velocity P-wave (km/s) = 7.18957 7.28739 7.23864
#
# Compressibility (1/GPa) = 0.01654128
#
# Stress axis : x y z
#
# Youngs Moduli (GPa) = 52.14248 60.70933 49.66746
#
# Poissons Ratio (x) = 0.30967 0.32501
# Poissons Ratio (y) = 0.26597 0.39619
# Poissons Ratio (z) = 0.34121 0.48427
#
# Static dielectric constant tensor:
#      x y z
#    x 3.231330 0.000000 0.000000 
#    y 0.000000 3.337380 0.000000 
#    z 0.000000 0.000000 3.038990 
# 
# 
# High freq. dielectric constant tensor:
#      x y z
#    x 1.659530 0.000000 0.000000 
#    y 0.000000 1.691200 0.000000 
#    z 0.000000 0.000000 1.661600 
# 
# From -- ./inp_files/21266.got.cif
#   From: 2010.03.12/outbox.cif.g09.slc.cpg/sg62_11_cif.got.tgz:21266.got - 2010.04.10 19:12:36.
