data_PCOD8250867
_publ_section_title
;
Structure prediction by ZEFSAII (Michael W. Deem and Ramdas Pophale) SiO2 
 PCOD8250867
Probable space group: P N M A
;
_chemical_formula_sum "Si O2"
_cell_formula_units_Z 64
_cell_length_a 19.846548
_cell_length_b 9.184786
_cell_length_c 19.075048
_cell_angle_alpha 90.000000
_cell_angle_beta 90.000000
_cell_angle_gamma 90.000000
_cell_volume 3477.119850
_symmetry_space_group_name_H-M "P N M A"
_symmetry_group_IT_number 62
_symmetry_cell_setting 'orthorhombic'
loop_
_space_group_symop_operation_xyz
x,y,z
1/2-x,-y,1/2+z
1/2+x,1/2-y,1/2-z
-x,1/2+y,-z
-x,-y,-z
1/2+x,y,1/2-z
1/2-x,1/2+y,1/2+z
x,1/2-y,z
loop_
_atom_site_type_symbol
_atom_site_label
_atom_site_fract_x
_atom_site_fract_y
_atom_site_fract_z
Si Si1 0.955660 0.583792 0.096052
Si Si2 0.879555 0.079471 0.607423
Si Si3 0.151791 0.920158 0.546948
Si Si4 0.787706 0.579070 0.884645
Si Si5 0.997128 0.085669 0.224283
Si Si6 0.647397 0.081251 0.242192
Si Si7 0.600673 0.916948 0.472948
Si Si8 0.481774 0.417036 0.117286
O O1 0.931733 0.750000 0.098940
O O2 0.954312 0.518235 0.173940
O O3 0.030399 0.567294 0.066551
O O4 0.903149 0.496045 0.048035
O O5 0.887185 0.250000 0.621222
O O6 0.839191 0.046703 0.535604
O O7 0.837442 0.009795 0.671683
O O8 0.953535 0.012557 0.599268
O O9 0.147728 0.750000 0.561964
O O10 0.215457 0.982305 0.590091
O O11 0.081616 0.986149 0.575724
O O12 0.796428 0.750000 0.900911
O O13 0.796247 0.549654 0.801250
O O14 0.843850 0.493479 0.926398
O O15 0.993793 0.250000 0.194609
O O16 0.074836 0.034007 0.227366
O O17 0.963943 0.074928 0.300613
O O18 0.645163 0.250000 0.220307
O O19 0.620558 0.750000 0.485297
O O20 0.496880 0.250000 0.095343
#
# Coordination Sequence:
#
# PCOD8250867 Si02
#       8
#     8   8   8   8   8   8   8   8
#     4  10  19  30  48  73 103 137 171 212 257 306
#     4  10  19  32  54  81 106 132 169 218 265 306
#     4   9  19  35  55  78 104 138 175 214 262 313
#     4  10  19  35  56  74 100 139 180 213 254 314
#     4   9  16  28  48  74 102 131 168 216 259 298
#     4   9  18  32  52  76 101 135 172 209 252 308
#     4  10  20  32  48  73 103 135 171 214 259 303
#     4   9  18  34  54  77 105 137 175 217 262 312
#
# _framework density 18.406037999999999
#
# number of rings (size 3 to 8) (size 9 to 14) (size 15 to 20)
#    0.000    2.500    1.250    2.250    0.000    3.500 
#    0.000    3.750    0.000    1.500    0.000    0.000 
#    0.000    0.000    0.000    0.000    0.000    0.000 
#
# Total GULP energy -793565.924211 kJ/mol
# GULP energy per Si atom -12399.467566 kJ/mol
# Density = 1.836415 g / cm^3
# Si number density = 18.406038 Si / 1000 Ang^3
#
#
#
# Elastic Constant Matrix: (Units=GPa)
#
#
# Indices 1 2 3 4 5 6 
#
# 1 61.5692 35.5429 45.2046 0.0000 0.0000 0.0000
# 2 35.5429 79.2163 51.5818 0.0000 0.0000 0.0000
# 3 45.2046 51.5818 118.2188 0.0000 0.0000 0.0000
# 4 0.0000 0.0000 0.0000 31.1209 0.0000 0.0000
# 5 0.0000 0.0000 0.0000 0.0000 28.6947 0.0000
# 6 0.0000 0.0000 0.0000 0.0000 0.0000 15.0080
#
#
#
# Elastic Compliance Matrix: (Units=1/GPa)
#
#
# Indices 1 2 3 4 5 6 
#
# 1 0.025081 -0.006996 -0.006538 0.000000 0.000000 0.000000
# 2 -0.006996 0.019585 -0.005870 0.000000 0.000000 0.000000
# 3 -0.006538 -0.005870 0.013520 0.000000 0.000000 0.000000
# 4 0.000000 0.000000 0.000000 0.032133 0.000000 0.000000
# 5 0.000000 0.000000 0.000000 0.000000 0.034850 0.000000
# 6 0.000000 0.000000 0.000000 0.000000 0.000000 0.066631
#
#
# Mechanical properties :
#
#
# Convention : Reuss Voigt Hill
#
# Bulk Modulus (GPa) = 51.60606 58.18477 54.89542
# Shear Modulus (GPa) = 21.09104 23.40972 22.25038
#
# Velocity S-wave (km/s) = 3.38875 3.57017 3.48064
# Velocity P-wave (km/s) = 6.58862 6.97676 6.78547
#
# Compressibility (1/GPa) = 0.01937757
#
# Stress axis : x y z
#
# Youngs Moduli (GPa) = 39.87115 51.05901 73.96363
#
# Poissons Ratio (x) = 0.35722 0.48356
# Poissons Ratio (y) = 0.27895 0.43419
# Poissons Ratio (z) = 0.26067 0.29973
#
# Static dielectric constant tensor:
#      x y z
#    x 3.233500 0.000000 0.000000 
#    y 0.000000 3.309250 0.000000 
#    z 0.000000 0.000000 3.523550 
# 
# 
# High freq. dielectric constant tensor:
#      x y z
#    x 1.681070 0.000000 0.000000 
#    y 0.000000 1.703140 0.000000 
#    z 0.000000 0.000000 1.723930 
# 
# From -- ./inp_files/24702.got.cif
#   From: 2010.03.12/outbox.cif.g09.slc.cpg/sg62_13_cif.got.tgz:24702.got - 2010.04.10 19:12:36.
