data_PCOD8250059
_publ_section_title
;
Structure prediction by ZEFSAII (Michael W. Deem and Ramdas Pophale) SiO2 
 PCOD8250059
Probable space group: P N M A
;
_chemical_formula_sum "Si O2"
_cell_formula_units_Z 64
_cell_length_a 21.724272
_cell_length_b 8.923559
_cell_length_c 17.083432
_cell_angle_alpha 90.000000
_cell_angle_beta 90.000000
_cell_angle_gamma 90.000000
_cell_volume 3311.756936
_symmetry_space_group_name_H-M "P N M A"
_symmetry_group_IT_number 62
_symmetry_cell_setting 'orthorhombic'
loop_
_space_group_symop_operation_xyz
x,y,z
1/2-x,-y,1/2+z
1/2+x,1/2-y,1/2-z
-x,1/2+y,-z
-x,-y,-z
1/2+x,y,1/2-z
1/2-x,1/2+y,1/2+z
x,1/2-y,z
loop_
_atom_site_type_symbol
_atom_site_label
_atom_site_fract_x
_atom_site_fract_y
_atom_site_fract_z
Si Si1 0.099969 0.071852 0.221594
Si Si2 0.656968 0.417193 0.125525
Si Si3 0.863833 0.922598 0.301109
Si Si4 0.526266 0.077375 0.691356
Si Si5 0.692187 0.425381 0.960804
Si Si6 0.672047 0.927902 0.414334
Si Si7 0.876867 0.924206 0.059838
Si Si8 0.292701 0.082720 0.324088
O O1 0.108185 0.250000 0.217407
O O2 0.108773 0.012349 0.311899
O O3 0.032405 0.028370 0.192857
O O4 0.152038 0.996449 0.168171
O O5 0.634183 0.250000 0.106253
O O6 0.719907 0.415944 0.173804
O O7 0.666045 0.501071 0.041443
O O8 0.847628 0.750000 0.282452
O O9 0.858918 0.955095 0.393793
O O10 0.931218 0.960141 0.266974
O O11 0.812478 0.024779 0.260862
O O12 0.505284 0.250000 0.693262
O O13 0.562530 0.041064 0.611185
O O14 0.702152 0.250000 0.977260
O O15 0.759384 0.488177 0.936292
O O16 0.670114 0.750000 0.408124
O O17 0.622707 0.982660 0.479397
O O18 0.871919 0.750000 0.039502
O O19 0.817397 0.972615 0.109126
O O20 0.319204 0.250000 0.338292
#
# Coordination Sequence:
#
# PCOD8250059 Si02
#       8
#     8   8   8   8   8   8   8   8
#     4  11  23  37  55  78 108 147 186 228 270 319
#     4   9  18  33  53  79 110 142 177 218 274 329
#     4   9  18  33  56  80 104 140 183 225 265 316
#     4   9  20  38  55  75 106 144 188 228 264 314
#     4   9  17  33  57  84 111 140 176 217 272 331
#     4  11  21  35  58  85 115 144 175 220 275 333
#     4  10  20  35  56  82 111 143 180 222 267 319
#     4  10  17  30  53  79 110 141 172 215 269 326
#
# _framework density 19.325089999999999
#
# number of rings (size 3 to 8) (size 9 to 14) (size 15 to 20)
#    0.000    2.250    1.250    3.000    0.000    3.000 
#    0.000    3.125    0.000    0.000    0.000    0.000 
#    0.000    0.000    0.000    0.000    0.000    0.000 
#
# Total GULP energy -793265.768365 kJ/mol
# GULP energy per Si atom -12394.777631 kJ/mol
# Density = 1.928110 g / cm^3
# Si number density = 19.325090 Si / 1000 Ang^3
#
#
#
# Elastic Constant Matrix: (Units=GPa)
#
#
# Indices 1 2 3 4 5 6 
#
# 1 48.1736 15.7869 32.3307 0.0000 0.0000 0.0000
# 2 15.7869 51.2130 26.0912 0.0000 0.0000 0.0000
# 3 32.3307 26.0912 132.1383 0.0000 0.0000 0.0000
# 4 0.0000 0.0000 0.0000 21.5461 0.0000 0.0000
# 5 0.0000 0.0000 0.0000 0.0000 23.4401 0.0000
# 6 0.0000 0.0000 0.0000 0.0000 0.0000 18.0997
#
#
#
# Elastic Compliance Matrix: (Units=1/GPa)
#
#
# Indices 1 2 3 4 5 6 
#
# 1 0.026080 -0.005324 -0.005330 0.000000 0.000000 0.000000
# 2 -0.005324 0.022797 -0.003199 0.000000 0.000000 0.000000
# 3 -0.005330 -0.003199 0.009503 0.000000 0.000000 0.000000
# 4 0.000000 0.000000 0.000000 0.046412 0.000000 0.000000
# 5 0.000000 0.000000 0.000000 0.000000 0.042662 0.000000
# 6 0.000000 0.000000 0.000000 0.000000 0.000000 0.055250
#
#
# Mechanical properties :
#
#
# Convention : Reuss Voigt Hill
#
# Bulk Modulus (GPa) = 32.59938 42.21581 37.40760
# Shear Modulus (GPa) = 20.77838 23.10490 21.94164
#
# Velocity S-wave (km/s) = 3.28258 3.46148 3.37322
# Velocity P-wave (km/s) = 5.59220 6.15372 5.87967
#
# Compressibility (1/GPa) = 0.03067543
#
# Stress axis : x y z
#
# Youngs Moduli (GPa) = 38.34354 43.86516 105.22447
#
# Poissons Ratio (x) = 0.23354 0.56083
# Poissons Ratio (y) = 0.20414 0.33658
# Poissons Ratio (z) = 0.20436 0.14031
#
# Static dielectric constant tensor:
#      x y z
#    x 3.322430 0.000000 0.000000 
#    y 0.000000 3.389650 0.000000 
#    z 0.000000 0.000000 3.836690 
# 
# 
# High freq. dielectric constant tensor:
#      x y z
#    x 1.730050 0.000000 0.000000 
#    y 0.000000 1.729450 0.000000 
#    z 0.000000 0.000000 1.764550 
# 
# From -- ./inp_files/20989.got.cif
#   From: 2010.03.12/outbox.cif.g09.slc.cpg/sg62_11_cif.got.tgz:20989.got - 2010.04.10 19:12:36.
