data_PCOD8250393
_publ_section_title
;
Structure prediction by ZEFSAII (Michael W. Deem and Ramdas Pophale) SiO2 
 PCOD8250393
Probable space group: P N M A
;
_chemical_formula_sum "Si O2"
_cell_formula_units_Z 56
_cell_length_a 9.573026
_cell_length_b 19.365745
_cell_length_c 15.980630
_cell_angle_alpha 90.000000
_cell_angle_beta 90.000000
_cell_angle_gamma 90.000000
_cell_volume 2962.629506
_symmetry_space_group_name_H-M "P N M A"
_symmetry_group_IT_number 62
_symmetry_cell_setting 'orthorhombic'
loop_
_space_group_symop_operation_xyz
x,y,z
1/2-x,-y,1/2+z
1/2+x,1/2-y,1/2-z
-x,1/2+y,-z
-x,-y,-z
1/2+x,y,1/2-z
1/2-x,1/2+y,1/2+z
x,1/2-y,z
loop_
_atom_site_type_symbol
_atom_site_label
_atom_site_fract_x
_atom_site_fract_y
_atom_site_fract_z
Si Si1 0.109641 0.451896 0.953009
Si Si2 0.988048 0.398288 0.793773
Si Si3 0.652044 0.941106 0.940127
Si Si4 0.983131 0.447550 0.268684
Si Si5 0.297418 0.671133 0.182659
Si Si6 0.765884 0.427906 0.142746
Si Si7 0.869759 0.901412 0.481863
O O1 0.028623 0.399227 0.892351
O O2 0.218270 0.494552 0.894055
O O3 0.200951 0.411135 0.023750
O O4 0.000000 0.500000 0.000000
O O5 0.013919 0.470879 0.747890
O O6 0.075789 0.339995 0.746519
O O7 0.826383 0.378932 0.788413
O O8 0.624167 0.928177 0.842830
O O9 0.669716 0.023220 0.949214
O O10 0.531678 0.904537 0.993345
O O11 0.913273 0.408516 0.188168
O O12 0.139742 0.423579 0.289601
O O13 0.248263 0.750000 0.186509
O O14 0.347225 0.655589 0.088390
O O15 0.726404 0.380353 0.062817
#
# Coordination Sequence:
#
# PCOD8250393 Si02
#       7
#     8   8   8   8   8   8   8
#     4  10  20  30  50  78 108 144 176 215 276 342
#     4  11  22  35  53  76 109 149 185 230 273 317
#     4   9  17  31  52  81 105 137 166 218 297 342
#     4  10  18  30  51  79 114 137 166 212 280 342
#     4  12  25  39  55  74 104 154 204 238 263 317
#     4   9  19  29  48  81 106 141 166 208 277 343
#     4   9  18  34  52  72 109 137 177 223 276 336
#
# _framework density 18.902127
#
# number of rings (size 3 to 8) (size 9 to 14) (size 15 to 20)
#    0.000    2.000    1.429    4.714    6.000    0.000 
#    0.000    0.000    0.000    0.000    0.000    4.000 
#    0.000    0.000    0.000    0.000    0.000    0.000 
#
# Total GULP energy -693883.040901 kJ/mol
# GULP energy per Si atom -12390.768588 kJ/mol
# Density = 1.885911 g / cm^3
# Si number density = 18.902127 Si / 1000 Ang^3
#
#
#
# Elastic Constant Matrix: (Units=GPa)
#
#
# Indices 1 2 3 4 5 6 
#
# 1 90.8318 14.1492 44.2388 0.0000 0.0000 0.0000
# 2 14.1492 29.2315 26.4511 0.0000 0.0000 0.0000
# 3 44.2388 26.4511 90.5485 0.0000 0.0000 0.0000
# 4 0.0000 0.0000 0.0000 15.2221 0.0000 0.0000
# 5 0.0000 0.0000 0.0000 0.0000 43.3530 0.0000
# 6 0.0000 0.0000 0.0000 0.0000 0.0000 9.5117
#
#
#
# Elastic Compliance Matrix: (Units=1/GPa)
#
#
# Indices 1 2 3 4 5 6 
#
# 1 0.014462 -0.000825 -0.006825 0.000000 0.000000 0.000000
# 2 -0.000825 0.046549 -0.013195 0.000000 0.000000 0.000000
# 3 -0.006825 -0.013195 0.018233 0.000000 0.000000 0.000000
# 4 0.000000 0.000000 0.000000 0.065694 0.000000 0.000000
# 5 0.000000 0.000000 0.000000 0.000000 0.023066 0.000000
# 6 0.000000 0.000000 0.000000 0.000000 0.000000 0.105134
#
#
# Mechanical properties :
#
#
# Convention : Reuss Voigt Hill
#
# Bulk Modulus (GPa) = 26.62785 42.25445 34.44115
# Shear Modulus (GPa) = 15.27445 22.00220 18.63833
#
# Velocity S-wave (km/s) = 2.84576 3.41546 3.14354
# Velocity P-wave (km/s) = 4.99155 6.16090 5.60679
#
# Compressibility (1/GPa) = 0.03755466
#
# Stress axis : x y z
#
# Youngs Moduli (GPa) = 69.14830 21.48289 54.84676
#
# Poissons Ratio (x) = 0.01771 0.37431
# Poissons Ratio (y) = 0.05701 0.72370
# Poissons Ratio (z) = 0.47191 0.28347
#
# Static dielectric constant tensor:
#      x y z
#    x 3.719560 0.000000 0.000000 
#    y 0.000000 2.709000 0.000000 
#    z 0.000000 0.000000 3.921500 
# 
# 
# High freq. dielectric constant tensor:
#      x y z
#    x 1.754010 0.000000 0.000000 
#    y 0.000000 1.636150 0.000000 
#    z 0.000000 0.000000 1.758070 
# 
# From -- ./inp_files/22508.got.cif
#   From: 2010.03.12/outbox.cif.g09.slc.cpg/sg62_12_cif.got.tgz:22508.got - 2010.04.10 19:12:36.
