data_PCOD8250360
_publ_section_title
;
Structure prediction by ZEFSAII (Michael W. Deem and Ramdas Pophale) SiO2 
 PCOD8250360
Probable space group: P N M A
;
_chemical_formula_sum "Si O2"
_cell_formula_units_Z 56
_cell_length_a 22.022725
_cell_length_b 11.239391
_cell_length_c 12.458922
_cell_angle_alpha 90.000000
_cell_angle_beta 90.000000
_cell_angle_gamma 90.000000
_cell_volume 3083.857505
_symmetry_space_group_name_H-M "P N M A"
_symmetry_group_IT_number 62
_symmetry_cell_setting 'orthorhombic'
loop_
_space_group_symop_operation_xyz
x,y,z
1/2-x,-y,1/2+z
1/2+x,1/2-y,1/2-z
-x,1/2+y,-z
-x,-y,-z
1/2+x,y,1/2-z
1/2-x,1/2+y,1/2+z
x,1/2-y,z
loop_
_atom_site_type_symbol
_atom_site_label
_atom_site_fract_x
_atom_site_fract_y
_atom_site_fract_z
Si Si1 0.827011 0.612822 0.007056
Si Si2 0.333666 0.468175 0.698166
Si Si3 0.768733 0.550244 0.603801
Si Si4 0.166334 0.881254 0.740294
Si Si5 0.791336 0.880512 0.375717
Si Si6 0.042654 0.619014 0.121292
Si Si7 0.070238 0.965947 0.891266
O O1 0.822896 0.750000 0.018848
O O2 0.835184 0.580108 0.882422
O O3 0.764046 0.564797 0.054182
O O4 0.883872 0.570625 0.076841
O O5 0.324354 0.512717 0.819635
O O6 0.278558 0.382953 0.662283
O O7 0.397281 0.400050 0.692341
O O8 0.719235 0.624529 0.670811
O O9 0.795467 0.624963 0.504918
O O10 0.168522 0.750000 0.680996
O O11 0.174355 0.999919 0.666569
O O12 0.100597 0.888301 0.797282
O O13 0.817411 0.750000 0.336333
O O14 0.017455 0.750000 0.147237
O O15 0.992255 0.521826 0.152890
O O16 0.057892 0.615046 0.994821
#
# Coordination Sequence:
#
# PCOD8250360 Si02
#       7
#     8   8   8   8   8   8   8
#     4   9  17  29  45  68  98 129 164 205 244 289
#     4   9  19  31  46  73 102 132 164 199 246 300
#     4   9  19  31  48  72 100 131 164 202 249 298
#     4  10  20  35  54  74 101 136 169 203 248 300
#     4  10  20  33  51  76 103 132 168 206 245 294
#     4  10  18  30  49  72 101 132 164 204 249 297
#     4   9  19  31  47  72  98 130 168 203 246 296
#
# _framework density 18.159075000000001
#
# number of rings (size 3 to 8) (size 9 to 14) (size 15 to 20)
#    0.000    2.571    0.000    2.571    0.000   12.000 
#    0.000    0.714    0.000    0.857    0.000    0.000 
#    0.000    0.000    0.000    0.000    0.000    0.000 
#
# Total GULP energy -693928.818821 kJ/mol
# GULP energy per Si atom -12391.586050 kJ/mol
# Density = 1.811774 g / cm^3
# Si number density = 18.159075 Si / 1000 Ang^3
#
#
#
# Elastic Constant Matrix: (Units=GPa)
#
#
# Indices 1 2 3 4 5 6 
#
# 1 71.3606 19.5397 22.1595 0.0000 0.0000 0.0000
# 2 19.5397 131.5118 21.7875 0.0000 0.0000 0.0000
# 3 22.1595 21.7875 69.9862 0.0000 0.0000 0.0000
# 4 0.0000 0.0000 0.0000 11.8429 0.0000 0.0000
# 5 0.0000 0.0000 0.0000 0.0000 27.4845 0.0000
# 6 0.0000 0.0000 0.0000 0.0000 0.0000 12.2887
#
#
#
# Elastic Compliance Matrix: (Units=1/GPa)
#
#
# Indices 1 2 3 4 5 6 
#
# 1 0.015857 -0.001607 -0.004520 0.000000 0.000000 0.000000
# 2 -0.001607 0.008180 -0.002038 0.000000 0.000000 0.000000
# 3 -0.004520 -0.002038 0.016354 0.000000 0.000000 0.000000
# 4 0.000000 0.000000 0.000000 0.084439 0.000000 0.000000
# 5 0.000000 0.000000 0.000000 0.000000 0.036384 0.000000
# 6 0.000000 0.000000 0.000000 0.000000 0.000000 0.081375
#
#
# Mechanical properties :
#
#
# Convention : Reuss Voigt Hill
#
# Bulk Modulus (GPa) = 41.56120 44.42579 42.99350
# Shear Modulus (GPa) = 18.73075 24.28136 21.50605
#
# Velocity S-wave (km/s) = 3.21515 3.66067 3.44512
# Velocity P-wave (km/s) = 6.05970 6.51039 6.28908
#
# Compressibility (1/GPa) = 0.02406090
#
# Stress axis : x y z
#
# Youngs Moduli (GPa) = 63.06312 122.24564 61.14634
#
# Poissons Ratio (x) = 0.19646 0.27641
# Poissons Ratio (y) = 0.10135 0.12460
# Poissons Ratio (z) = 0.28508 0.24911
#
# Static dielectric constant tensor:
#      x y z
#    x 3.248100 0.000000 0.000000 
#    y 0.000000 3.268960 0.000000 
#    z 0.000000 0.000000 3.271280 
# 
# 
# High freq. dielectric constant tensor:
#      x y z
#    x 1.676960 0.000000 0.000000 
#    y 0.000000 1.709280 0.000000 
#    z 0.000000 0.000000 1.677760 
# 
# From -- ./inp_files/15241.got.cif
#   From: 2010.03.12/outbox.cif.g09.slc.cpg/sg62_8_cif.got.tgz:15241.got - 2010.04.10 19:12:36.
