data_PCOD8250101
_publ_section_title
;
Structure prediction by ZEFSAII (Michael W. Deem and Ramdas Pophale) SiO2 
 PCOD8250101
Probable space group: P N M A
;
_chemical_formula_sum "Si O2"
_cell_formula_units_Z 48
_cell_length_a 14.212170
_cell_length_b 13.641403
_cell_length_c 13.197781
_cell_angle_alpha 90.000000
_cell_angle_beta 90.000000
_cell_angle_gamma 90.000000
_cell_volume 2558.705782
_symmetry_space_group_name_H-M "P N M A"
_symmetry_group_IT_number 62
_symmetry_cell_setting 'orthorhombic'
loop_
_space_group_symop_operation_xyz
x,y,z
1/2-x,-y,1/2+z
1/2+x,1/2-y,1/2-z
-x,1/2+y,-z
-x,-y,-z
1/2+x,y,1/2-z
1/2-x,1/2+y,1/2+z
x,1/2-y,z
loop_
_atom_site_type_symbol
_atom_site_label
_atom_site_fract_x
_atom_site_fract_y
_atom_site_fract_z
Si Si1 0.828322 0.503121 0.771435
Si Si2 0.312881 0.135065 0.345414
Si Si3 0.647161 0.642170 0.092196
Si Si4 0.031732 0.108406 0.484511
Si Si5 0.488735 0.640357 0.747974
Si Si6 0.770243 0.961991 0.476923
O O1 0.774948 0.587607 0.711036
O O2 0.853043 0.410179 0.701352
O O3 0.923513 0.558637 0.805578
O O4 0.767045 0.464836 0.863637
O O5 0.295290 0.250000 0.355410
O O6 0.406333 0.110374 0.283435
O O7 0.314227 0.083808 0.455910
O O8 0.696464 0.750000 0.099617
O O9 0.702092 0.572262 0.012630
O O10 0.540121 0.667093 0.056228
O O11 0.020749 0.140972 0.368922
O O12 0.141099 0.113692 0.517826
O O13 0.000000 0.000000 0.500000
O O14 0.465589 0.750000 0.707565
#
# Coordination Sequence:
#
# PCOD8250101 Si02
#       6
#     8   8   8   8   8   8
#     4  11  22  36  59  85 121 152 192 237 291 342
#     4  10  21  37  59  88 118 149 192 242 290 339
#     4  10  21  37  57  84 116 152 195 243 286 339
#     4  10  17  35  58  83 108 143 192 237 284 335
#     4  11  21  35  61  89 113 147 194 240 287 343
#     4  10  22  37  59  85 117 154 189 239 292 345
#
# _framework density 18.759485000000002
#
# number of rings (size 3 to 8) (size 9 to 14) (size 15 to 20)
#    0.000    1.667    5.000    3.000    0.000    4.667 
#    0.000    0.000    0.000    0.000    0.000    0.000 
#    0.000    0.000    0.000    0.000    0.000    0.000 
#
# Total GULP energy -594831.897874 kJ/mol
# GULP energy per Si atom -12392.331206 kJ/mol
# Density = 1.871679 g / cm^3
# Si number density = 18.759485 Si / 1000 Ang^3
#
#
#
# Elastic Constant Matrix: (Units=GPa)
#
#
# Indices 1 2 3 4 5 6 
#
# 1 85.2305 41.1493 42.2037 0.0000 0.0000 0.0000
# 2 41.1493 93.5774 31.9390 0.0000 0.0000 0.0000
# 3 42.2037 31.9390 100.7419 0.0000 0.0000 0.0000
# 4 0.0000 0.0000 0.0000 8.8799 0.0000 0.0000
# 5 0.0000 0.0000 0.0000 0.0000 38.9788 0.0000
# 6 0.0000 0.0000 0.0000 0.0000 0.0000 16.5643
#
#
#
# Elastic Compliance Matrix: (Units=1/GPa)
#
#
# Indices 1 2 3 4 5 6 
#
# 1 0.017150 -0.005707 -0.005375 0.000000 0.000000 0.000000
# 2 -0.005707 0.013882 -0.002010 0.000000 0.000000 0.000000
# 3 -0.005375 -0.002010 0.012816 0.000000 0.000000 0.000000
# 4 0.000000 0.000000 0.000000 0.112614 0.000000 0.000000
# 5 0.000000 0.000000 0.000000 0.000000 0.025655 0.000000
# 6 0.000000 0.000000 0.000000 0.000000 0.000000 0.060371
#
#
# Mechanical properties :
#
#
# Convention : Reuss Voigt Hill
#
# Bulk Modulus (GPa) = 56.61707 56.68153 56.64930
# Shear Modulus (GPa) = 18.21102 23.83513 21.02308
#
# Velocity S-wave (km/s) = 3.11909 3.56836 3.35126
# Velocity P-wave (km/s) = 6.57401 6.87445 6.72591
#
# Compressibility (1/GPa) = 0.01766252
#
# Stress axis : x y z
#
# Youngs Moduli (GPa) = 58.30975 72.03597 78.02991
#
# Poissons Ratio (x) = 0.41109 0.41943
# Poissons Ratio (y) = 0.33276 0.15687
# Poissons Ratio (z) = 0.31343 0.14482
#
# Static dielectric constant tensor:
#      x y z
#    x 3.962820 0.000000 0.000000 
#    y 0.000000 4.206870 0.000000 
#    z 0.000000 0.000000 3.412890 
# 
# 
# High freq. dielectric constant tensor:
#      x y z
#    x 1.725070 0.000000 0.000000 
#    y 0.000000 1.737040 0.000000 
#    z 0.000000 0.000000 1.711990 
# 
# From -- ./inp_files/13303.got.cif
#   From: 2010.03.12/outbox.cif.g09.slc.cpg/sg62_7_cif.got.tgz:13303.got - 2010.04.10 19:12:36.
