data_PCOD8250901
_publ_section_title
;
Structure prediction by ZEFSAII (Michael W. Deem and Ramdas Pophale) SiO2 
 PCOD8250901
Probable space group: P N M A
;
_chemical_formula_sum "Si O2"
_cell_formula_units_Z 64
_cell_length_a 24.729077
_cell_length_b 9.306490
_cell_length_c 15.169723
_cell_angle_alpha 90.000000
_cell_angle_beta 90.000000
_cell_angle_gamma 90.000000
_cell_volume 3491.173822
_symmetry_space_group_name_H-M "P N M A"
_symmetry_group_IT_number 62
_symmetry_cell_setting 'orthorhombic'
loop_
_space_group_symop_operation_xyz
x,y,z
1/2-x,-y,1/2+z
1/2+x,1/2-y,1/2-z
-x,1/2+y,-z
-x,-y,-z
1/2+x,y,1/2-z
1/2-x,1/2+y,1/2+z
x,1/2-y,z
loop_
_atom_site_type_symbol
_atom_site_label
_atom_site_fract_x
_atom_site_fract_y
_atom_site_fract_z
Si Si1 0.560901 0.583576 0.193425
Si Si2 0.831563 0.581138 0.011883
Si Si3 0.763659 0.914713 0.720475
Si Si4 0.597263 0.584251 0.002050
Si Si5 0.213891 0.583941 0.448288
Si Si6 0.132001 0.085559 0.169746
Si Si7 0.156552 0.420501 0.791071
Si Si8 0.561264 0.083903 0.836007
O O1 0.576280 0.750000 0.200826
O O2 0.579628 0.525406 0.097950
O O3 0.590832 0.503866 0.272008
O O4 0.497245 0.556223 0.205905
O O5 0.836185 0.750000 0.003433
O O6 0.866896 0.519635 0.930255
O O7 0.768400 0.536517 0.001381
O O8 0.853497 0.530304 0.107317
O O9 0.748499 0.750000 0.699120
O O10 0.805885 0.924687 0.799763
O O11 0.793392 0.986229 0.637469
O O12 0.709399 0.000334 0.746698
O O13 0.580598 0.750000 0.992744
O O14 0.661792 0.561588 0.989465
O O15 0.565608 0.498569 0.927794
O O16 0.217813 0.750000 0.417152
O O17 0.111972 0.250000 0.172616
O O18 0.166105 0.250000 0.785904
O O19 0.105232 0.471136 0.734452
O O20 0.570351 0.250000 0.857890
#
# Coordination Sequence:
#
# PCOD8250901 Si02
#       8
#     8   8   8   8   8   8   8   8
#     4  10  21  38  55  76 108 142 179 221 268 322
#     4   8  16  32  53  74 102 139 177 212 255 319
#     4  10  19  30  50  79 109 135 169 220 267 307
#     4  10  20  33  54  80 107 144 179 214 266 327
#     4   9  17  32  53  75 106 144 177 205 256 327
#     4  10  20  33  53  79 104 136 176 220 265 309
#     4   9  19  37  56  74 104 145 181 215 264 323
#     4  10  22  37  55  78 105 141 184 228 269 312
#
# _framework density 18.331942999999999
#
# number of rings (size 3 to 8) (size 9 to 14) (size 15 to 20)
#    0.000    2.500    1.250    1.500    1.750    2.500 
#    0.000    3.125    0.000    0.000    0.000    0.000 
#    0.000    0.000    0.000    0.000    0.000    0.000 
#
# Total GULP energy -793411.776138 kJ/mol
# GULP energy per Si atom -12397.059002 kJ/mol
# Density = 1.829022 g / cm^3
# Si number density = 18.331943 Si / 1000 Ang^3
#
#
#
# Elastic Constant Matrix: (Units=GPa)
#
#
# Indices 1 2 3 4 5 6 
#
# 1 81.6250 28.3671 34.6833 0.0000 0.0000 0.0000
# 2 28.3671 49.4492 26.4564 0.0000 0.0000 0.0000
# 3 34.6833 26.4564 75.7687 0.0000 0.0000 0.0000
# 4 0.0000 0.0000 0.0000 18.7878 0.0000 0.0000
# 5 0.0000 0.0000 0.0000 0.0000 28.8744 0.0000
# 6 0.0000 0.0000 0.0000 0.0000 0.0000 24.6153
#
#
#
# Elastic Compliance Matrix: (Units=1/GPa)
#
#
# Indices 1 2 3 4 5 6 
#
# 1 0.016899 -0.006832 -0.005350 0.000000 0.000000 0.000000
# 2 -0.006832 0.027631 -0.006521 0.000000 0.000000 0.000000
# 3 -0.005350 -0.006521 0.017924 0.000000 0.000000 0.000000
# 4 0.000000 0.000000 0.000000 0.053226 0.000000 0.000000
# 5 0.000000 0.000000 0.000000 0.000000 0.034633 0.000000
# 6 0.000000 0.000000 0.000000 0.000000 0.000000 0.040625
#
#
# Mechanical properties :
#
#
# Convention : Reuss Voigt Hill
#
# Bulk Modulus (GPa) = 39.92264 42.87294 41.39779
# Shear Modulus (GPa) = 21.12460 22.27791 21.70126
#
# Velocity S-wave (km/s) = 3.39829 3.48983 3.44436
# Velocity P-wave (km/s) = 6.10105 6.29891 6.20077
#
# Compressibility (1/GPa) = 0.02504845
#
# Stress axis : x y z
#
# Youngs Moduli (GPa) = 59.17640 36.19180 55.79169
#
# Poissons Ratio (x) = 0.24725 0.29848
# Poissons Ratio (y) = 0.40428 0.36379
# Poissons Ratio (z) = 0.31659 0.23599
#
# Static dielectric constant tensor:
#      x y z
#    x 3.401870 0.000000 0.000000 
#    y 0.000000 3.220990 0.000000 
#    z 0.000000 0.000000 3.454250 
# 
# 
# High freq. dielectric constant tensor:
#      x y z
#    x 1.707830 0.000000 0.000000 
#    y 0.000000 1.691830 0.000000 
#    z 0.000000 0.000000 1.707190 
# 
# From -- ./inp_files/20983.got.cif
#   From: 2010.03.12/outbox.cif.g09.slc.cpg/sg62_11_cif.got.tgz:20983.got - 2010.04.10 19:12:36.
