data_PCOD8250457
_publ_section_title
;
Structure prediction by ZEFSAII (Michael W. Deem and Ramdas Pophale) SiO2 
 PCOD8250457
Probable space group: P N M A
;
_chemical_formula_sum "Si O2"
_cell_formula_units_Z 64
_cell_length_a 16.801587
_cell_length_b 9.002983
_cell_length_c 22.680559
_cell_angle_alpha 90.000000
_cell_angle_beta 90.000000
_cell_angle_gamma 90.000000
_cell_volume 3430.761197
_symmetry_space_group_name_H-M "P N M A"
_symmetry_group_IT_number 62
_symmetry_cell_setting 'orthorhombic'
loop_
_space_group_symop_operation_xyz
x,y,z
1/2-x,-y,1/2+z
1/2+x,1/2-y,1/2-z
-x,1/2+y,-z
-x,-y,-z
1/2+x,y,1/2-z
1/2-x,1/2+y,1/2+z
x,1/2-y,z
loop_
_atom_site_type_symbol
_atom_site_label
_atom_site_fract_x
_atom_site_fract_y
_atom_site_fract_z
Si Si1 0.929134 0.583117 0.117937
Si Si2 0.701270 0.082657 0.711450
Si Si3 0.211752 0.426792 0.965448
Si Si4 0.535834 0.074512 0.198924
Si Si5 0.073056 0.426130 0.170264
Si Si6 0.220633 0.421869 0.096568
Si Si7 0.183957 0.075424 0.373148
Si Si8 0.857751 0.422056 0.320655
O O1 0.957164 0.750000 0.102585
O O2 0.884101 0.580328 0.180181
O O3 0.869837 0.522743 0.066824
O O4 0.005459 0.478520 0.124293
O O5 0.736628 0.250000 0.710484
O O6 0.759004 0.966861 0.680441
O O7 0.691076 0.026033 0.777134
O O8 0.220210 0.250000 0.962173
O O9 0.289256 0.492373 0.932543
O O10 0.210745 0.492790 0.031624
O O11 0.540000 0.250000 0.205020
O O12 0.558825 0.007774 0.263645
O O13 0.596222 0.022492 0.147609
O O14 0.448824 0.023079 0.176751
O O15 0.070494 0.250000 0.172986
O O16 0.157116 0.486227 0.144056
O O17 0.200308 0.250000 0.089590
O O18 0.312028 0.444896 0.117353
O O19 0.188066 0.250000 0.384607
O O20 0.853387 0.250000 0.300278
#
# Coordination Sequence:
#
# PCOD8250457 Si02
#       8
#     8   8   8   8   8   8   8   8
#     4   9  18  31  48  71 102 137 166 206 257 304
#     4  10  19  32  50  76 108 138 168 207 263 317
#     4   9  19  37  53  71 103 140 180 217 256 308
#     4   9  18  31  51  81 108 128 164 219 263 306
#     4  10  18  31  51  78 105 131 167 209 256 311
#     4   9  19  34  54  75 101 140 178 214 259 312
#     4  10  19  33  54  77 101 134 176 218 258 304
#     4  10  18  33  56  77 101 137 176 214 259 313
#
# _framework density 18.654752999999999
#
# number of rings (size 3 to 8) (size 9 to 14) (size 15 to 20)
#    0.000    2.500    1.250    2.250    0.000    4.500 
#    0.000    6.250    0.000    0.000    0.000    0.000 
#    0.000    0.000    0.000    0.000    0.000    0.000 
#
# Total GULP energy -793262.989383 kJ/mol
# GULP energy per Si atom -12394.734209 kJ/mol
# Density = 1.861229 g / cm^3
# Si number density = 18.654753 Si / 1000 Ang^3
#
#
#
# Elastic Constant Matrix: (Units=GPa)
#
#
# Indices 1 2 3 4 5 6 
#
# 1 125.4160 19.5226 68.3811 0.0000 0.0000 0.0000
# 2 19.5226 28.6217 17.4165 0.0000 0.0000 0.0000
# 3 68.3811 17.4165 108.2611 0.0000 0.0000 0.0000
# 4 0.0000 0.0000 0.0000 19.6864 0.0000 0.0000
# 5 0.0000 0.0000 0.0000 0.0000 21.5863 0.0000
# 6 0.0000 0.0000 0.0000 0.0000 0.0000 20.3789
#
#
#
# Elastic Compliance Matrix: (Units=1/GPa)
#
#
# Indices 1 2 3 4 5 6 
#
# 1 0.012593 -0.004156 -0.007285 0.000000 0.000000 0.000000
# 2 -0.004156 0.040102 -0.003826 0.000000 0.000000 0.000000
# 3 -0.007285 -0.003826 0.014454 0.000000 0.000000 0.000000
# 4 0.000000 0.000000 0.000000 0.050796 0.000000 0.000000
# 5 0.000000 0.000000 0.000000 0.000000 0.046326 0.000000
# 6 0.000000 0.000000 0.000000 0.000000 0.000000 0.049070
#
#
# Mechanical properties :
#
#
# Convention : Reuss Voigt Hill
#
# Bulk Modulus (GPa) = 27.31259 52.54880 39.93070
# Shear Modulus (GPa) = 19.52512 22.79557 21.16034
#
# Velocity S-wave (km/s) = 3.23872 3.49946 3.37161
# Velocity P-wave (km/s) = 5.35337 6.67522 6.05050
#
# Compressibility (1/GPa) = 0.03661315
#
# Stress axis : x y z
#
# Youngs Moduli (GPa) = 79.41181 24.93657 69.18478
#
# Poissons Ratio (x) = 0.10364 0.50403
# Poissons Ratio (y) = 0.33005 0.26471
# Poissons Ratio (z) = 0.57853 0.09541
#
# Static dielectric constant tensor:
#      x y z
#    x 3.567900 0.000000 0.000000 
#    y 0.000000 3.145450 0.000000 
#    z 0.000000 0.000000 3.500960 
# 
# 
# High freq. dielectric constant tensor:
#      x y z
#    x 1.723640 0.000000 0.000000 
#    y 0.000000 1.693900 0.000000 
#    z 0.000000 0.000000 1.713750 
# 
# From -- ./inp_files/29825.got.cif
#   From: 2010.03.12/outbox.cif.g09.slc.cpg/sg62_15_cif.got.tgz:29825.got - 2010.04.10 19:12:36.
