data_PCOD8250542
_publ_section_title
;
Structure prediction by ZEFSAII (Michael W. Deem and Ramdas Pophale) SiO2 
 PCOD8250542
Probable space group: P N M A
;
_chemical_formula_sum "Si O2"
_cell_formula_units_Z 52
_cell_length_a 19.746103
_cell_length_b 18.310987
_cell_length_c 7.891366
_cell_angle_alpha 90.000000
_cell_angle_beta 90.000000
_cell_angle_gamma 90.000000
_cell_volume 2853.286218
_symmetry_space_group_name_H-M "P N M A"
_symmetry_group_IT_number 62
_symmetry_cell_setting 'orthorhombic'
loop_
_space_group_symop_operation_xyz
x,y,z
1/2-x,-y,1/2+z
1/2+x,1/2-y,1/2-z
-x,1/2+y,-z
-x,-y,-z
1/2+x,y,1/2-z
1/2-x,1/2+y,1/2+z
x,1/2-y,z
loop_
_atom_site_type_symbol
_atom_site_label
_atom_site_fract_x
_atom_site_fract_y
_atom_site_fract_z
Si Si1 0.643052 0.750000 0.245427
Si Si2 0.881219 0.250000 0.368825
Si Si3 0.744408 0.906626 0.692868
Si Si4 0.953606 0.526534 0.149889
Si Si5 0.170303 0.009700 0.043965
Si Si6 0.579504 0.901813 0.250557
Si Si7 0.601877 0.905892 0.877319
Si Si8 0.274687 0.250000 0.424687
O O1 0.595910 0.818349 0.286544
O O2 0.706786 0.750000 0.374697
O O3 0.664826 0.750000 0.044962
O O4 0.927766 0.177280 0.370795
O O5 0.839564 0.250000 0.195593
O O6 0.804815 0.934072 0.813955
O O7 0.677283 0.901721 0.804444
O O8 0.764911 0.826521 0.616546
O O9 0.733044 0.967561 0.545739
O O10 0.947346 0.458822 0.277749
O O11 0.997447 0.590121 0.239809
O O12 0.878314 0.553255 0.090691
O O13 0.000000 0.500000 0.000000
O O14 0.120109 0.947692 0.111121
O O15 0.605954 0.931497 0.070794
#
# Coordination Sequence:
#
# PCOD8250542 Si02
#       8
#     4   4   8   8   8   8   8   4
#     4  10  18  32  53  81 103 135 181 231 273 327
#     4   8  18  28  50  79 104 128 177 225 268 320
#     4  10  19  32  52  76 104 141 176 229 276 334
#     4   9  19  31  47  73 104 139 172 215 269 326
#     4  10  19  32  49  76 105 136 183 218 271 332
#     4  10  18  32  52  75 104 134 178 227 277 325
#     4   9  17  31  50  76 103 131 174 223 275 319
#     4  10  18  34  53  76 109 139 176 228 285 317
#
# _framework density 18.224599000000001
#
# number of rings (size 3 to 8) (size 9 to 14) (size 15 to 20)
#    0.000    2.462    1.538    1.385    2.154    0.000 
#    0.000    0.769    0.000    2.769    0.000   16.154 
#    0.000    0.000    0.000    0.000    0.000    0.000 
#
# Total GULP energy -644186.345701 kJ/mol
# GULP energy per Si atom -12388.198956 kJ/mol
# Density = 1.818312 g / cm^3
# Si number density = 18.224599 Si / 1000 Ang^3
#
#
#
# Elastic Constant Matrix: (Units=GPa)
#
#
# Indices 1 2 3 4 5 6 
#
# 1 48.9736 38.9768 15.1316 0.0000 0.0000 0.0000
# 2 38.9768 92.1941 28.8855 0.0000 0.0000 0.0000
# 3 15.1316 28.8855 81.2256 0.0000 0.0000 0.0000
# 4 0.0000 0.0000 0.0000 26.1477 0.0000 0.0000
# 5 0.0000 0.0000 0.0000 0.0000 29.9326 0.0000
# 6 0.0000 0.0000 0.0000 0.0000 0.0000 24.6813
#
#
#
# Elastic Compliance Matrix: (Units=1/GPa)
#
#
# Indices 1 2 3 4 5 6 
#
# 1 0.030886 -0.012666 -0.001249 0.000000 0.000000 0.000000
# 2 -0.012666 0.017401 -0.003829 0.000000 0.000000 0.000000
# 3 -0.001249 -0.003829 0.013906 0.000000 0.000000 0.000000
# 4 0.000000 0.000000 0.000000 0.038244 0.000000 0.000000
# 5 0.000000 0.000000 0.000000 0.000000 0.033408 0.000000
# 6 0.000000 0.000000 0.000000 0.000000 0.000000 0.040517
#
#
# Mechanical properties :
#
#
# Convention : Reuss Voigt Hill
#
# Bulk Modulus (GPa) = 37.44715 43.15346 40.30030
# Shear Modulus (GPa) = 22.85701 25.44561 24.15131
#
# Velocity S-wave (km/s) = 3.54529 3.74066 3.64428
# Velocity P-wave (km/s) = 6.11154 6.51052 6.31418
#
# Compressibility (1/GPa) = 0.02670430
#
# Stress axis : x y z
#
# Youngs Moduli (GPa) = 32.37740 57.46788 71.91311
#
# Poissons Ratio (x) = 0.72789 0.08985
# Poissons Ratio (y) = 0.41009 0.27533
# Poissons Ratio (z) = 0.04045 0.22002
#
# Static dielectric constant tensor:
#      x y z
#    x 3.271260 0.000000 0.000000 
#    y 0.000000 -10.798560 0.000000 
#    z 0.000000 0.000000 3.734550 
# 
# 
# High freq. dielectric constant tensor:
#      x y z
#    x 1.658940 0.000000 0.000000 
#    y 0.000000 1.701860 0.000000 
#    z 0.000000 0.000000 1.727110 
# 
# From -- ./inp_files/7928.got.cif
#   From: 2010.03.12/outbox.cif.g09.slc.cpg/sg62_4_cif.got.tgz:7928.got - 2010.04.10 19:12:36.
