data_PCOD8250541
_publ_section_title
;
Structure prediction by ZEFSAII (Michael W. Deem and Ramdas Pophale) SiO2 
 PCOD8250541
Probable space group: P N M A
;
_chemical_formula_sum "Si O2"
_cell_formula_units_Z 48
_cell_length_a 18.248858
_cell_length_b 8.850119
_cell_length_c 16.780348
_cell_angle_alpha 90.000000
_cell_angle_beta 90.000000
_cell_angle_gamma 90.000000
_cell_volume 2710.102803
_symmetry_space_group_name_H-M "P N M A"
_symmetry_group_IT_number 62
_symmetry_cell_setting 'orthorhombic'
loop_
_space_group_symop_operation_xyz
x,y,z
1/2-x,-y,1/2+z
1/2+x,1/2-y,1/2-z
-x,1/2+y,-z
-x,-y,-z
1/2+x,y,1/2-z
1/2-x,1/2+y,1/2+z
x,1/2-y,z
loop_
_atom_site_type_symbol
_atom_site_label
_atom_site_fract_x
_atom_site_fract_y
_atom_site_fract_z
Si Si1 0.051467 0.928802 0.741906
Si Si2 0.670723 0.929754 0.638374
Si Si3 0.479133 0.928731 0.916670
Si Si4 0.092925 0.428456 0.177807
Si Si5 0.079687 0.428772 0.002444
Si Si6 0.332084 0.570736 0.832141
O O1 0.046794 0.750000 0.739717
O O2 0.129102 0.979864 0.779774
O O3 0.037003 0.985862 0.651236
O O4 0.987708 0.992775 0.799971
O O5 0.667683 0.750000 0.628356
O O6 0.753420 0.994219 0.641275
O O7 0.632719 0.003391 0.562886
O O8 0.482272 0.750000 0.925501
O O9 0.396959 0.981089 0.891772
O O10 0.500000 0.000000 0.000000
O O11 0.088970 0.250000 0.186334
O O12 0.114882 0.473599 0.088218
O O13 0.151357 0.490141 0.242534
O O14 0.072844 0.250000 0.991643
O O15 0.000000 0.500000 0.000000
O O16 0.327412 0.750000 0.831228
#
# Coordination Sequence:
#
# PCOD8250541 Si02
#       6
#     8   8   8   8   8   8
#     4   8  14  27  49  70  90 122 165 201 235 289
#     4  10  18  32  52  74  99 130 167 209 255 304
#     4   9  17  32  52  73  96 128 169 210 244 292
#     4   8  14  28  48  70  92 122 163 200 231 285
#     4  11  20  31  51  78 106 133 166 208 251 300
#     4   8  16  31  52  71  94 130 170 205 247 297
#
# _framework density 17.711504999999999
#
# number of rings (size 3 to 8) (size 9 to 14) (size 15 to 20)
#    0.000    3.000    1.667    2.500    0.000    0.000 
#    3.000    1.667    0.000    2.000    0.000    0.000 
#    0.000    0.000    0.000    0.000    0.000    0.000 
#
# Total GULP energy -594676.216413 kJ/mol
# GULP energy per Si atom -12389.087842 kJ/mol
# Density = 1.767119 g / cm^3
# Si number density = 17.711505 Si / 1000 Ang^3
#
#
#
# Elastic Constant Matrix: (Units=GPa)
#
#
# Indices 1 2 3 4 5 6 
#
# 1 149.3185 27.9182 97.2457 0.0000 0.0000 0.0000
# 2 27.9182 25.5320 32.6984 0.0000 0.0000 0.0000
# 3 97.2457 32.6984 175.2600 0.0000 0.0000 0.0000
# 4 0.0000 0.0000 0.0000 27.5789 0.0000 0.0000
# 5 0.0000 0.0000 0.0000 0.0000 27.9611 0.0000
# 6 0.0000 0.0000 0.0000 0.0000 0.0000 15.4277
#
#
#
# Elastic Compliance Matrix: (Units=1/GPa)
#
#
# Indices 1 2 3 4 5 6 
#
# 1 0.011057 -0.005562 -0.005097 0.000000 0.000000 0.000000
# 2 -0.005562 0.054261 -0.007037 0.000000 0.000000 0.000000
# 3 -0.005097 -0.007037 0.009847 0.000000 0.000000 0.000000
# 4 0.000000 0.000000 0.000000 0.036260 0.000000 0.000000
# 5 0.000000 0.000000 0.000000 0.000000 0.035764 0.000000
# 6 0.000000 0.000000 0.000000 0.000000 0.000000 0.064818
#
#
# Mechanical properties :
#
#
# Convention : Reuss Voigt Hill
#
# Bulk Modulus (GPa) = 25.14366 73.98169 49.56268
# Shear Modulus (GPa) = 19.18227 27.01009 23.09618
#
# Velocity S-wave (km/s) = 3.29453 3.90936 3.61504
# Velocity P-wave (km/s) = 5.35714 7.88914 6.74305
#
# Compressibility (1/GPa) = 0.03977146
#
# Stress axis : x y z
#
# Youngs Moduli (GPa) = 90.44291 18.42943 101.55313
#
# Poissons Ratio (x) = 0.10251 0.51764
# Poissons Ratio (y) = 0.50305 0.71466
# Poissons Ratio (z) = 0.46101 0.12969
#
# Static dielectric constant tensor:
#      x y z
#    x 3.602860 0.000000 0.000000 
#    y 0.000000 2.826790 0.000000 
#    z 0.000000 0.000000 3.691770 
# 
# 
# High freq. dielectric constant tensor:
#      x y z
#    x 1.677870 0.000000 0.000000 
#    y 0.000000 1.635680 0.000000 
#    z 0.000000 0.000000 1.697010 
# 
# From -- ./inp_files/24197.got.cif
#   From: 2010.03.12/outbox.cif.g09.slc.cpg/sg62_13_cif.got.tgz:24197.got - 2010.04.10 19:12:36.
