data_PCOD8250424
_publ_section_title
;
Structure prediction by ZEFSAII (Michael W. Deem and Ramdas Pophale) SiO2 
 PCOD8250424
Probable space group: P N M A
;
_chemical_formula_sum "Si O2"
_cell_formula_units_Z 64
_cell_length_a 19.104658
_cell_length_b 8.650319
_cell_length_c 23.540681
_cell_angle_alpha 90.000000
_cell_angle_beta 90.000000
_cell_angle_gamma 90.000000
_cell_volume 3890.365571
_symmetry_space_group_name_H-M "P N M A"
_symmetry_group_IT_number 62
_symmetry_cell_setting 'orthorhombic'
loop_
_space_group_symop_operation_xyz
x,y,z
1/2-x,-y,1/2+z
1/2+x,1/2-y,1/2-z
-x,1/2+y,-z
-x,-y,-z
1/2+x,y,1/2-z
1/2-x,1/2+y,1/2+z
x,1/2-y,z
loop_
_atom_site_type_symbol
_atom_site_label
_atom_site_fract_x
_atom_site_fract_y
_atom_site_fract_z
Si Si1 0.856347 0.568144 0.438194
Si Si2 0.998620 0.931522 0.252522
Si Si3 0.734868 0.068234 0.835385
Si Si4 0.636711 0.066082 0.064059
Si Si5 0.646985 0.568142 0.734420
Si Si6 0.001007 0.433542 0.617144
Si Si7 0.221004 0.067619 0.331133
Si Si8 0.360632 0.932648 0.721423
O O1 0.865429 0.750000 0.443032
O O2 0.789527 0.526320 0.399315
O O3 0.845466 0.499259 0.501494
O O4 0.927063 0.502644 0.409751
O O5 0.008943 0.750000 0.247781
O O6 0.001459 0.988857 0.317577
O O7 0.059300 0.014449 0.216362
O O8 0.925014 0.978216 0.224652
O O9 0.727901 0.250000 0.823340
O O10 0.683206 0.979250 0.793105
O O11 0.814668 0.011248 0.828442
O O12 0.637569 0.250000 0.064304
O O13 0.694842 0.000198 0.108444
O O14 0.560463 0.010912 0.081883
O O15 0.632370 0.750000 0.735522
O O16 0.698825 0.520835 0.682372
O O17 0.994798 0.250000 0.613314
O O18 0.213902 0.250000 0.331410
O O19 0.170128 0.005330 0.281355
O O20 0.354495 0.750000 0.714884
#
# Coordination Sequence:
#
# PCOD8250424 Si02
#       8
#     8   8   8   8   8   8   8   8
#     4   9  18  31  47  66  94 128 164 197 228 274
#     4  11  20  31  48  70  96 128 158 192 240 289
#     4  10  18  32  48  68  95 126 159 197 238 281
#     4  10  18  31  49  67  90 128 165 195 231 273
#     4  10  19  31  47  68  94 124 158 200 240 283
#     4  10  19  31  42  64  98 127 159 196 227 270
#     4   8  16  29  45  67  91 116 154 195 232 275
#     4  10  19  32  48  70  95 122 158 198 237 285
#
# _framework density 16.450896
#
# number of rings (size 3 to 8) (size 9 to 14) (size 15 to 20)
#    0.000    2.250    2.500    2.625    0.000    0.500 
#    0.000    1.875    0.000    0.000    0.000    0.875 
#    0.000    0.000    0.000    0.000    0.000    0.000 
#
# Total GULP energy -793449.176388 kJ/mol
# GULP energy per Si atom -12397.643381 kJ/mol
# Density = 1.641345 g / cm^3
# Si number density = 16.450896 Si / 1000 Ang^3
#
#
#
# Elastic Constant Matrix: (Units=GPa)
#
#
# Indices 1 2 3 4 5 6 
#
# 1 102.2787 8.2365 54.9822 0.0000 0.0000 0.0000
# 2 8.2365 24.7624 18.7794 0.0000 0.0000 0.0000
# 3 54.9822 18.7794 93.4818 0.0000 0.0000 0.0000
# 4 0.0000 0.0000 0.0000 13.8527 0.0000 0.0000
# 5 0.0000 0.0000 0.0000 0.0000 25.8087 0.0000
# 6 0.0000 0.0000 0.0000 0.0000 0.0000 27.4336
#
#
#
# Elastic Compliance Matrix: (Units=1/GPa)
#
#
# Indices 1 2 3 4 5 6 
#
# 1 0.014375 0.001924 -0.008841 0.000000 0.000000 0.000000
# 2 0.001924 0.047899 -0.010754 0.000000 0.000000 0.000000
# 3 -0.008841 -0.010754 0.018058 0.000000 0.000000 0.000000
# 4 0.000000 0.000000 0.000000 0.072188 0.000000 0.000000
# 5 0.000000 0.000000 0.000000 0.000000 0.038747 0.000000
# 6 0.000000 0.000000 0.000000 0.000000 0.000000 0.036452
#
#
# Mechanical properties :
#
#
# Convention : Reuss Voigt Hill
#
# Bulk Modulus (GPa) = 22.22754 42.72436 32.47595
# Shear Modulus (GPa) = 17.98184 22.65398 20.31791
#
# Velocity S-wave (km/s) = 3.30973 3.71491 3.51816
# Velocity P-wave (km/s) = 5.30533 6.66543 6.02389
#
# Compressibility (1/GPa) = 0.04498923
#
# Stress axis : x y z
#
# Youngs Moduli (GPa) = 69.56448 20.87705 55.37802
#
# Poissons Ratio (x) = -0.04016 0.48961
# Poissons Ratio (y) = -0.13382 0.59553
# Poissons Ratio (z) = 0.61504 0.22451
#
# Static dielectric constant tensor:
#      x y z
#    x 3.198850 0.000000 0.000000 
#    y 0.000000 2.941160 0.000000 
#    z 0.000000 0.000000 3.293400 
# 
# 
# High freq. dielectric constant tensor:
#      x y z
#    x 1.631050 0.000000 0.000000 
#    y 0.000000 1.622710 0.000000 
#    z 0.000000 0.000000 1.607740 
# 
# From -- ./inp_files/30028.got.cif
#   From: 2010.03.12/outbox.cif.g09.slc.cpg/sg62_16_cif.got.tgz:30028.got - 2010.04.10 19:12:36.
