data_PCOD8250785
_publ_section_title
;
Structure prediction by ZEFSAII (Michael W. Deem and Ramdas Pophale) SiO2 
 PCOD8250785
Probable space group: P N M A
;
_chemical_formula_sum "Si O2"
_cell_formula_units_Z 64
_cell_length_a 18.256421
_cell_length_b 8.794651
_cell_length_c 25.919200
_cell_angle_alpha 90.000000
_cell_angle_beta 90.000000
_cell_angle_gamma 90.000000
_cell_volume 4161.556976
_symmetry_space_group_name_H-M "P N M A"
_symmetry_group_IT_number 62
_symmetry_cell_setting 'orthorhombic'
loop_
_space_group_symop_operation_xyz
x,y,z
1/2-x,-y,1/2+z
1/2+x,1/2-y,1/2-z
-x,1/2+y,-z
-x,-y,-z
1/2+x,y,1/2-z
1/2-x,1/2+y,1/2+z
x,1/2-y,z
loop_
_atom_site_type_symbol
_atom_site_label
_atom_site_fract_x
_atom_site_fract_y
_atom_site_fract_z
Si Si1 0.073621 0.073838 0.747837
Si Si2 0.335533 0.429078 0.648114
Si Si3 0.419003 0.426323 0.447493
Si Si4 0.087682 0.426622 0.054015
Si Si5 0.201638 0.919908 0.695704
Si Si6 0.841999 0.575763 0.146428
Si Si7 0.080957 0.429187 0.241851
Si Si8 0.215982 0.418103 0.303470
O O1 0.056727 0.250000 0.738907
O O2 0.108576 0.044218 0.803692
O O3 0.127326 0.016039 0.702617
O O4 0.999938 0.978320 0.743096
O O5 0.329638 0.250000 0.653798
O O6 0.363128 0.473270 0.591678
O O7 0.254606 0.498951 0.654729
O O8 0.393806 0.488233 0.689836
O O9 0.408973 0.250000 0.461212
O O10 0.392672 0.526013 0.495816
O O11 0.503033 0.463423 0.434012
O O12 0.369899 0.468278 0.398760
O O13 0.105734 0.250000 0.062092
O O14 0.182644 0.750000 0.676189
O O15 0.242917 0.911785 0.749462
O O16 0.846172 0.750000 0.128926
O O17 0.757228 0.534089 0.158396
O O18 0.084687 0.250000 0.231038
O O19 0.133392 0.472948 0.290425
O O20 0.215876 0.250000 0.328756
#
# Coordination Sequence:
#
# PCOD8250785 Si02
#       8
#     8   8   8   8   8   8   8   8
#     4  10  19  29  43  65  90 116 147 182 218 257
#     4  11  20  30  45  64  87 115 148 183 219 259
#     4  10  20  32  46  63  85 113 145 182 219 254
#     4  10  20  33  47  63  85 113 146 182 219 258
#     4   9  17  30  45  61  84 114 146 179 216 258
#     4  10  19  29  43  62  85 114 146 178 215 258
#     4  10  19  30  44  63  87 117 150 181 217 260
#     4   8  16  29  43  59  81 110 144 179 213 252
#
# _framework density 15.378859
#
# number of rings (size 3 to 8) (size 9 to 14) (size 15 to 20)
#    0.000    2.250    0.000    4.875    0.000    8.500 
#    0.000    0.000    0.000    0.000    0.000    0.000 
#    0.000    1.000    0.000    3.750    0.000    5.750 
#
# Total GULP energy -793646.345225 kJ/mol
# GULP energy per Si atom -12400.724144 kJ/mol
# Density = 1.534386 g / cm^3
# Si number density = 15.378859 Si / 1000 Ang^3
#
#
#
# Elastic Constant Matrix: (Units=GPa)
#
#
# Indices 1 2 3 4 5 6 
#
# 1 76.8899 26.4191 33.1583 0.0000 0.0000 0.0000
# 2 26.4191 75.8206 28.4013 0.0000 0.0000 0.0000
# 3 33.1583 28.4013 54.1144 0.0000 0.0000 0.0000
# 4 0.0000 0.0000 0.0000 24.4604 0.0000 0.0000
# 5 0.0000 0.0000 0.0000 0.0000 21.7409 0.0000
# 6 0.0000 0.0000 0.0000 0.0000 0.0000 26.6534
#
#
#
# Elastic Compliance Matrix: (Units=1/GPa)
#
#
# Indices 1 2 3 4 5 6 
#
# 1 0.018104 -0.002680 -0.009686 0.000000 0.000000 0.000000
# 2 -0.002680 0.016813 -0.007182 0.000000 0.000000 0.000000
# 3 -0.009686 -0.007182 0.028184 0.000000 0.000000 0.000000
# 4 0.000000 0.000000 0.000000 0.040882 0.000000 0.000000
# 5 0.000000 0.000000 0.000000 0.000000 0.045996 0.000000
# 6 0.000000 0.000000 0.000000 0.000000 0.000000 0.037519
#
#
# Mechanical properties :
#
#
# Convention : Reuss Voigt Hill
#
# Bulk Modulus (GPa) = 41.65937 42.53135 42.09536
# Shear Modulus (GPa) = 21.31322 22.49403 21.90362
#
# Velocity S-wave (km/s) = 3.72678 3.82862 3.77804
# Velocity P-wave (km/s) = 6.75766 6.87461 6.81639
#
# Compressibility (1/GPa) = 0.02400420
#
# Stress axis : x y z
#
# Youngs Moduli (GPa) = 55.23776 59.47754 35.48082
#
# Poissons Ratio (x) = 0.15938 0.34368
# Poissons Ratio (y) = 0.14802 0.25483
# Poissons Ratio (z) = 0.53506 0.42718
#
# Static dielectric constant tensor:
#      x y z
#    x 3.052840 0.000000 0.000000 
#    y 0.000000 3.075620 0.000000 
#    z 0.000000 0.000000 2.677900 
# 
# 
# High freq. dielectric constant tensor:
#      x y z
#    x 1.579190 0.000000 0.000000 
#    y 0.000000 1.608560 0.000000 
#    z 0.000000 0.000000 1.551570 
# 
# From -- ./inp_files/27774.got.cif
#   From: 2010.03.12/outbox.cif.g09.slc.cpg/sg62_14_cif.got.tgz:27774.got - 2010.04.10 19:12:36.
