data_PCOD8250336
_publ_section_title
;
Structure prediction by ZEFSAII (Michael W. Deem and Ramdas Pophale) SiO2 
 PCOD8250336
Probable space group: P N M A
;
_chemical_formula_sum "Si O2"
_cell_formula_units_Z 64
_cell_length_a 14.331115
_cell_length_b 9.447181
_cell_length_c 30.398523
_cell_angle_alpha 90.000000
_cell_angle_beta 90.000000
_cell_angle_gamma 90.000000
_cell_volume 4115.614606
_symmetry_space_group_name_H-M "P N M A"
_symmetry_group_IT_number 62
_symmetry_cell_setting 'orthorhombic'
loop_
_space_group_symop_operation_xyz
x,y,z
1/2-x,-y,1/2+z
1/2+x,1/2-y,1/2-z
-x,1/2+y,-z
-x,-y,-z
1/2+x,y,1/2-z
1/2-x,1/2+y,1/2+z
x,1/2-y,z
loop_
_atom_site_type_symbol
_atom_site_label
_atom_site_fract_x
_atom_site_fract_y
_atom_site_fract_z
Si Si1 0.645046 0.413666 0.361364
Si Si2 0.279072 0.416821 0.213678
Si Si3 0.589147 0.089208 0.453212
Si Si4 0.097093 0.085142 0.949878
Si Si5 0.818187 0.912449 0.697358
Si Si6 0.701014 0.088992 0.634783
Si Si7 0.984798 0.087414 0.267527
Si Si8 0.492088 0.912234 0.318514
O O1 0.624712 0.250000 0.349424
O O2 0.728620 0.473808 0.330721
O O3 0.665469 0.430342 0.413904
O O4 0.552810 0.505807 0.354292
O O5 0.269946 0.250000 0.214298
O O6 0.228363 0.475427 0.257758
O O7 0.387275 0.463445 0.210989
O O8 0.551330 0.250000 0.453412
O O9 0.636486 0.056696 0.500707
O O10 0.501357 0.990296 0.444317
O O11 0.078554 0.250000 0.940133
O O12 0.171697 0.030984 0.913656
O O13 0.787679 0.750000 0.691886
O O14 0.930442 0.927531 0.698132
O O15 0.784508 0.995869 0.654315
O O16 0.736376 0.250000 0.631543
O O17 0.615132 0.075661 0.668185
O O18 0.976713 0.250000 0.250969
O O19 0.009751 0.986967 0.227531
O O20 0.524642 0.750000 0.315367
#
# Coordination Sequence:
#
# PCOD8250336 Si02
#       8
#     8   8   8   8   8   8   8   8
#     4  10  18  30  46  67  90 118 153 181 216 261
#     4   9  17  29  46  65  87 113 143 183 221 256
#     4   9  17  27  45  67  88 116 149 183 215 263
#     4   9  17  30  43  62  92 120 145 178 223 264
#     4  10  19  30  47  66  84 113 152 185 217 260
#     4  10  20  31  43  62  92 123 149 179 219 262
#     4  10  19  33  47  62  87 118 148 185 224 256
#     4  11  20  28  42  65  91 121 149 179 215 256
#
# _framework density 15.550533
#
# number of rings (size 3 to 8) (size 9 to 14) (size 15 to 20)
#    0.000    2.250    3.750    0.375    0.000    1.500 
#    0.000    0.625    0.000    0.000    0.000    0.875 
#    0.000    0.000    0.000    0.000    0.000    0.000 
#
# Total GULP energy -793201.138990 kJ/mol
# GULP energy per Si atom -12393.767797 kJ/mol
# Density = 1.551514 g / cm^3
# Si number density = 15.550533 Si / 1000 Ang^3
#
#
#
# Elastic Constant Matrix: (Units=GPa)
#
#
# Indices 1 2 3 4 5 6 
#
# 1 66.6272 16.0491 32.6787 0.0000 0.0000 0.0000
# 2 16.0491 44.3729 25.2737 0.0000 0.0000 0.0000
# 3 32.6787 25.2737 110.3459 0.0000 0.0000 0.0000
# 4 0.0000 0.0000 0.0000 18.9487 0.0000 0.0000
# 5 0.0000 0.0000 0.0000 0.0000 24.2864 0.0000
# 6 0.0000 0.0000 0.0000 0.0000 0.0000 14.8584
#
#
#
# Elastic Compliance Matrix: (Units=1/GPa)
#
#
# Indices 1 2 3 4 5 6 
#
# 1 0.018166 -0.004032 -0.004456 0.000000 0.000000 0.000000
# 2 -0.004032 0.026812 -0.004947 0.000000 0.000000 0.000000
# 3 -0.004456 -0.004947 0.011515 0.000000 0.000000 0.000000
# 4 0.000000 0.000000 0.000000 0.052774 0.000000 0.000000
# 5 0.000000 0.000000 0.000000 0.000000 0.041175 0.000000
# 6 0.000000 0.000000 0.000000 0.000000 0.000000 0.067302
#
#
# Mechanical properties :
#
#
# Convention : Reuss Voigt Hill
#
# Bulk Modulus (GPa) = 33.75812 41.03879 37.39845
# Shear Modulus (GPa) = 19.64717 21.44167 20.54442
#
# Velocity S-wave (km/s) = 3.55835 3.71730 3.63869
# Velocity P-wave (km/s) = 6.21597 6.69868 6.46183
#
# Compressibility (1/GPa) = 0.02962251
#
# Stress axis : x y z
#
# Youngs Moduli (GPa) = 55.04843 37.29624 86.84191
#
# Poissons Ratio (x) = 0.15039 0.38699
# Poissons Ratio (y) = 0.22197 0.42961
# Poissons Ratio (z) = 0.24531 0.18450
#
# Static dielectric constant tensor:
#      x y z
#    x 2.874170 0.000000 0.000000 
#    y 0.000000 2.926610 0.000000 
#    z 0.000000 0.000000 3.174500 
# 
# 
# High freq. dielectric constant tensor:
#      x y z
#    x 1.563810 0.000000 0.000000 
#    y 0.000000 1.588530 0.000000 
#    z 0.000000 0.000000 1.594700 
# 
# From -- ./inp_files/32721.got.cif
#   From: 2010.03.12/outbox.cif.g09.slc.cpg/sg62_17_cif.got.tgz:32721.got - 2010.04.10 19:12:36.
