data_PCOD8250959
_publ_section_title
;
Structure prediction by ZEFSAII (Michael W. Deem and Ramdas Pophale) SiO2 
 PCOD8250959
Probable space group: P N M A
;
_chemical_formula_sum "Si O2"
_cell_formula_units_Z 64
_cell_length_a 30.054167
_cell_length_b 8.876940
_cell_length_c 14.315417
_cell_angle_alpha 90.000000
_cell_angle_beta 90.000000
_cell_angle_gamma 90.000000
_cell_volume 3819.196319
_symmetry_space_group_name_H-M "P N M A"
_symmetry_group_IT_number 62
_symmetry_cell_setting 'orthorhombic'
loop_
_space_group_symop_operation_xyz
x,y,z
1/2-x,-y,1/2+z
1/2+x,1/2-y,1/2-z
-x,1/2+y,-z
-x,-y,-z
1/2+x,y,1/2-z
1/2-x,1/2+y,1/2+z
x,1/2-y,z
loop_
_atom_site_type_symbol
_atom_site_label
_atom_site_fract_x
_atom_site_fract_y
_atom_site_fract_z
Si Si1 0.677292 0.925692 0.011491
Si Si2 0.634158 0.072936 0.840995
Si Si3 0.449074 0.424675 0.104748
Si Si4 0.712310 0.573966 0.728414
Si Si5 0.048217 0.422857 0.409221
Si Si6 0.138103 0.078145 0.317917
Si Si7 0.700404 0.075749 0.344331
Si Si8 0.769162 0.426114 0.016757
O O1 0.671607 0.750000 0.991340
O O2 0.666022 0.965682 0.117519
O O3 0.727035 0.974408 0.987669
O O4 0.644609 0.019261 0.945643
O O5 0.635330 0.250000 0.833253
O O6 0.583710 0.013665 0.824306
O O7 0.669091 0.008408 0.767569
O O8 0.437531 0.250000 0.113137
O O9 0.499952 0.460430 0.134760
O O10 0.441721 0.471926 0.997144
O O11 0.704762 0.750000 0.741649
O O12 0.757424 0.523612 0.780907
O O13 0.714575 0.529461 0.619591
O O14 0.049162 0.250000 0.444411
O O15 0.085280 0.451251 0.328916
O O16 0.150413 0.250000 0.346379
O O17 0.154588 0.048052 0.212677
O O18 0.705304 0.250000 0.372528
O O19 0.695288 0.973680 0.437396
O O20 0.757665 0.250000 0.011138
#
# Coordination Sequence:
#
# PCOD8250959 Si02
#       8
#     8   8   8   8   8   8   8   8
#     4  12  22  31  48  73 102 135 171 210 248 290
#     4  12  23  34  50  72  99 137 175 208 252 301
#     4  10  19  31  48  74 103 132 167 208 251 298
#     4  10  21  36  52  73 100 133 169 209 250 294
#     4   9  18  31  50  73 101 136 169 202 248 303
#     4  10  19  34  52  73 102 137 171 205 245 296
#     4  10  20  34  52  74 102 133 169 206 246 291
#     4  11  22  37  53  71 100 135 171 210 253 294
#
# _framework density 16.757452000000001
#
# number of rings (size 3 to 8) (size 9 to 14) (size 15 to 20)
#    0.000    1.500    3.750    3.000    0.000    2.000 
#    0.000    0.000    0.000    0.000    0.000    0.875 
#    0.000    0.000    0.000    0.000    0.000    0.000 
#
# Total GULP energy -793581.695981 kJ/mol
# GULP energy per Si atom -12399.714000 kJ/mol
# Density = 1.671931 g / cm^3
# Si number density = 16.757452 Si / 1000 Ang^3
#
#
#
# Elastic Constant Matrix: (Units=GPa)
#
#
# Indices 1 2 3 4 5 6 
#
# 1 101.4082 39.8388 32.3064 0.0000 0.0000 0.0000
# 2 39.8388 63.6817 35.8848 0.0000 0.0000 0.0000
# 3 32.3064 35.8848 78.3225 0.0000 0.0000 0.0000
# 4 0.0000 0.0000 0.0000 25.1103 0.0000 0.0000
# 5 0.0000 0.0000 0.0000 0.0000 25.3335 0.0000
# 6 0.0000 0.0000 0.0000 0.0000 0.0000 21.6979
#
#
#
# Elastic Compliance Matrix: (Units=1/GPa)
#
#
# Indices 1 2 3 4 5 6 
#
# 1 0.013367 -0.007084 -0.002268 0.000000 0.000000 0.000000
# 2 -0.007084 0.024923 -0.008497 0.000000 0.000000 0.000000
# 3 -0.002268 -0.008497 0.017596 0.000000 0.000000 0.000000
# 4 0.000000 0.000000 0.000000 0.039824 0.000000 0.000000
# 5 0.000000 0.000000 0.000000 0.000000 0.039473 0.000000
# 6 0.000000 0.000000 0.000000 0.000000 0.000000 0.046087
#
#
# Mechanical properties :
#
#
# Convention : Reuss Voigt Hill
#
# Bulk Modulus (GPa) = 49.53386 51.05249 50.29318
# Shear Modulus (GPa) = 22.35161 23.45383 22.90272
#
# Velocity S-wave (km/s) = 3.65613 3.74519 3.70093
# Velocity P-wave (km/s) = 6.88814 7.01667 6.95270
#
# Compressibility (1/GPa) = 0.02018821
#
# Stress axis : x y z
#
# Youngs Moduli (GPa) = 74.81304 40.12378 56.83106
#
# Poissons Ratio (x) = 0.28425 0.12888
# Poissons Ratio (y) = 0.52999 0.48288
# Poissons Ratio (z) = 0.16965 0.34092
#
# Static dielectric constant tensor:
#      x y z
#    x 3.353640 0.000000 0.000000 
#    y 0.000000 3.155730 0.000000 
#    z 0.000000 0.000000 2.952420 
# 
# 
# High freq. dielectric constant tensor:
#      x y z
#    x 1.642640 0.000000 0.000000 
#    y 0.000000 1.652040 0.000000 
#    z 0.000000 0.000000 1.612760 
# 
# From -- ./inp_files/21271.got.cif
#   From: 2010.03.12/outbox.cif.g09.slc.cpg/sg62_11_cif.got.tgz:21271.got - 2010.04.10 19:12:36.
