data_PCOD8250965
_publ_section_title
;
Structure prediction by ZEFSAII (Michael W. Deem and Ramdas Pophale) SiO2 
 PCOD8250965
Probable space group: P N M A
;
_chemical_formula_sum "Si O2"
_cell_formula_units_Z 64
_cell_length_a 19.646876
_cell_length_b 9.402768
_cell_length_c 19.620103
_cell_angle_alpha 90.000000
_cell_angle_beta 90.000000
_cell_angle_gamma 90.000000
_cell_volume 3624.520060
_symmetry_space_group_name_H-M "P N M A"
_symmetry_group_IT_number 62
_symmetry_cell_setting 'orthorhombic'
loop_
_space_group_symop_operation_xyz
x,y,z
1/2-x,-y,1/2+z
1/2+x,1/2-y,1/2-z
-x,1/2+y,-z
-x,-y,-z
1/2+x,y,1/2-z
1/2-x,1/2+y,1/2+z
x,1/2-y,z
loop_
_atom_site_type_symbol
_atom_site_label
_atom_site_fract_x
_atom_site_fract_y
_atom_site_fract_z
Si Si1 0.263704 0.914173 0.159599
Si Si2 0.903651 0.905675 0.019768
Si Si3 0.981220 0.412861 0.786292
Si Si4 0.218320 0.584637 0.016732
Si Si5 0.637469 0.081573 0.726681
Si Si6 0.258313 0.416859 0.361978
Si Si7 0.341230 0.087275 0.773015
Si Si8 0.992085 0.405071 0.097218
O O1 0.278581 0.750000 0.153465
O O2 0.263137 0.971478 0.081280
O O3 0.325778 0.977153 0.204477
O O4 0.192326 0.943859 0.198835
O O5 0.876715 0.750000 0.043126
O O6 0.969091 0.883895 0.972971
O O7 0.925502 0.995198 0.086660
O O8 0.849205 0.992108 0.977028
O O9 0.979127 0.250000 0.811587
O O10 0.057668 0.454790 0.762827
O O11 0.923085 0.437224 0.729164
O O12 0.960461 0.516828 0.847837
O O13 0.198816 0.750000 0.026261
O O14 0.252331 0.558709 0.943136
O O15 0.649166 0.250000 0.715704
O O16 0.673960 0.999182 0.663823
O O17 0.264704 0.250000 0.344651
O O18 0.190302 0.480974 0.328331
O O19 0.324994 0.250000 0.794418
O O20 0.968156 0.250000 0.123859
#
# Coordination Sequence:
#
# PCOD8250965 Si02
#       8
#     8   8   8   8   8   8   8   8
#     4   8  15  30  50  69  92 124 160 196 236 285
#     4  10  20  31  43  63  93 127 160 193 230 279
#     4  10  19  31  51  75  95 122 163 204 243 288
#     4  10  19  31  49  70  92 122 160 200 244 290
#     4   9  18  33  52  73  97 126 161 201 243 288
#     4  10  20  32  48  72  99 127 160 198 242 292
#     4   9  18  33  52  72  96 128 163 200 242 288
#     4  10  20  31  43  64  96 130 159 189 232 285
#
# _framework density 17.657509999999998
#
# number of rings (size 3 to 8) (size 9 to 14) (size 15 to 20)
#    0.000    2.500    0.000    3.375    0.000    6.500 
#    0.000    3.750    0.000    0.750    0.000    0.000 
#    0.000    0.000    0.000    0.000    0.000    0.125 
#
# Total GULP energy -792961.423880 kJ/mol
# GULP energy per Si atom -12390.022248 kJ/mol
# Density = 1.761732 g / cm^3
# Si number density = 17.657510 Si / 1000 Ang^3
#
#
#
# Elastic Constant Matrix: (Units=GPa)
#
#
# Indices 1 2 3 4 5 6 
#
# 1 86.7956 28.4088 29.0920 0.0000 0.0000 0.0000
# 2 28.4088 90.7497 35.9228 0.0000 0.0000 0.0000
# 3 29.0920 35.9228 90.4670 0.0000 0.0000 0.0000
# 4 0.0000 0.0000 0.0000 19.8558 0.0000 0.0000
# 5 0.0000 0.0000 0.0000 0.0000 20.5366 0.0000
# 6 0.0000 0.0000 0.0000 0.0000 0.0000 22.6091
#
#
#
# Elastic Compliance Matrix: (Units=1/GPa)
#
#
# Indices 1 2 3 4 5 6 
#
# 1 0.013564 -0.002989 -0.003175 0.000000 0.000000 0.000000
# 2 -0.002989 0.013733 -0.004492 0.000000 0.000000 0.000000
# 3 -0.003175 -0.004492 0.013858 0.000000 0.000000 0.000000
# 4 0.000000 0.000000 0.000000 0.050363 0.000000 0.000000
# 5 0.000000 0.000000 0.000000 0.000000 0.048693 0.000000
# 6 0.000000 0.000000 0.000000 0.000000 0.000000 0.044230
#
#
# Mechanical properties :
#
#
# Convention : Reuss Voigt Hill
#
# Bulk Modulus (GPa) = 50.39483 50.53994 50.46739
# Shear Modulus (GPa) = 23.54397 24.23955 23.89176
#
# Velocity S-wave (km/s) = 3.65549 3.70910 3.68239
# Velocity P-wave (km/s) = 6.81315 6.85768 6.83545
#
# Compressibility (1/GPa) = 0.01984330
#
# Stress axis : x y z
#
# Youngs Moduli (GPa) = 73.72512 72.81607 72.15874
#
# Poissons Ratio (x) = 0.21768 0.22909
# Poissons Ratio (y) = 0.22039 0.32413
# Poissons Ratio (z) = 0.23406 0.32708
#
# Static dielectric constant tensor:
#      x y z
#    x 3.239020 0.000000 0.000000 
#    y 0.000000 3.415870 0.000000 
#    z 0.000000 0.000000 3.381940 
# 
# 
# High freq. dielectric constant tensor:
#      x y z
#    x 1.664570 0.000000 0.000000 
#    y 0.000000 1.680300 0.000000 
#    z 0.000000 0.000000 1.667020 
# 
# From -- ./inp_files/27899.got.cif
#   From: 2010.03.12/outbox.cif.g09.slc.cpg/sg62_14_cif.got.tgz:27899.got - 2010.04.10 19:12:36.
