data_PCOD8250581
_publ_section_title
;
Structure prediction by ZEFSAII (Michael W. Deem and Ramdas Pophale) SiO2 
 PCOD8250581
Probable space group: P N M A
;
_chemical_formula_sum "Si O2"
_cell_formula_units_Z 64
_cell_length_a 23.964902
_cell_length_b 8.854443
_cell_length_c 15.470693
_cell_angle_alpha 90.000000
_cell_angle_beta 90.000000
_cell_angle_gamma 90.000000
_cell_volume 3282.816987
_symmetry_space_group_name_H-M "P N M A"
_symmetry_group_IT_number 62
_symmetry_cell_setting 'orthorhombic'
loop_
_space_group_symop_operation_xyz
x,y,z
1/2-x,-y,1/2+z
1/2+x,1/2-y,1/2-z
-x,1/2+y,-z
-x,-y,-z
1/2+x,y,1/2-z
1/2-x,1/2+y,1/2+z
x,1/2-y,z
loop_
_atom_site_type_symbol
_atom_site_label
_atom_site_fract_x
_atom_site_fract_y
_atom_site_fract_z
Si Si1 0.684712 0.927314 0.993404
Si Si2 0.502166 0.571884 0.407288
Si Si3 0.998064 0.428390 0.406110
Si Si4 0.385862 0.572221 0.154352
Si Si5 0.884633 0.572499 0.153844
Si Si6 0.878129 0.424716 0.846256
Si Si7 0.688371 0.428689 0.497183
Si Si8 0.107868 0.924742 0.346423
O O1 0.680284 0.750000 0.973831
O O2 0.747934 0.982228 0.005626
O O3 0.659859 0.017725 0.913195
O O4 0.651710 0.970918 0.080093
O O5 0.500000 0.500000 0.500000
O O6 0.500688 0.750000 0.417667
O O7 0.448233 0.513170 0.354633
O O8 0.558232 0.519528 0.359030
O O9 0.994361 0.250000 0.415699
O O10 0.944055 0.487439 0.356777
O O11 0.000000 0.500000 0.500000
O O12 0.052902 0.473807 0.353221
O O13 0.396340 0.750000 0.143471
O O14 0.362798 0.532022 0.250269
O O15 0.883789 0.750000 0.139727
O O16 0.845474 0.500758 0.078888
O O17 0.871859 0.250000 0.870997
O O18 0.836340 0.516684 0.906429
O O19 0.862801 0.454143 0.746041
O O20 0.684884 0.250000 0.498309
O O21 0.089759 0.750000 0.354920
#
# Coordination Sequence:
#
# PCOD8250581 Si02
#       8
#     8   8   8   8   8   8   8   8
#     4  10  22  39  59  83 113 152 198 246 295 342
#     4  10  18  32  55  83 114 144 182 229 283 342
#     4  12  23  37  60  90 122 153 190 234 290 350
#     4  11  22  38  62  88 117 153 194 239 289 349
#     4   9  19  36  59  85 114 150 192 236 286 348
#     4  10  21  36  58  88 117 150 193 242 292 346
#     4  10  21  39  60  82 113 154 198 244 293 347
#     4  10  21  39  61  84 117 155 194 240 291 349
#
# _framework density 19.495450999999999
#
# number of rings (size 3 to 8) (size 9 to 14) (size 15 to 20)
#    0.000    1.750    2.500    2.250    0.000    4.000 
#    0.000    6.250    0.000    0.000    0.000    0.000 
#    0.000    0.000    0.000    0.000    0.000    0.000 
#
# Total GULP energy -793658.089103 kJ/mol
# GULP energy per Si atom -12400.907642 kJ/mol
# Density = 1.945108 g / cm^3
# Si number density = 19.495451 Si / 1000 Ang^3
#
#
#
# Elastic Constant Matrix: (Units=GPa)
#
#
# Indices 1 2 3 4 5 6 
#
# 1 135.9254 39.7922 59.7535 0.0000 0.0000 0.0000
# 2 39.7922 55.2420 32.6358 0.0000 0.0000 0.0000
# 3 59.7535 32.6358 145.4688 0.0000 0.0000 0.0000
# 4 0.0000 0.0000 0.0000 30.1194 0.0000 0.0000
# 5 0.0000 0.0000 0.0000 0.0000 12.2629 0.0000
# 6 0.0000 0.0000 0.0000 0.0000 0.0000 27.2846
#
#
#
# Elastic Compliance Matrix: (Units=1/GPa)
#
#
# Indices 1 2 3 4 5 6 
#
# 1 0.010325 -0.005685 -0.002966 0.000000 0.000000 0.000000
# 2 -0.005685 0.023999 -0.003049 0.000000 0.000000 0.000000
# 3 -0.002966 -0.003049 0.008776 0.000000 0.000000 0.000000
# 4 0.000000 0.000000 0.000000 0.033201 0.000000 0.000000
# 5 0.000000 0.000000 0.000000 0.000000 0.081547 0.000000
# 6 0.000000 0.000000 0.000000 0.000000 0.000000 0.036651
#
#
# Mechanical properties :
#
#
# Convention : Reuss Voigt Hill
#
# Bulk Modulus (GPa) = 50.75972 66.77769 58.76870
# Shear Modulus (GPa) = 22.27516 27.56370 24.91943
#
# Velocity S-wave (km/s) = 3.38388 3.76420 3.57910
# Velocity P-wave (km/s) = 6.43123 7.29518 6.87678
#
# Compressibility (1/GPa) = 0.01970066
#
# Stress axis : x y z
#
# Youngs Moduli (GPa) = 96.85146 41.66916 113.94065
#
# Poissons Ratio (x) = 0.23690 0.33791
# Poissons Ratio (y) = 0.55063 0.34737
# Poissons Ratio (z) = 0.28723 0.12704
#
# Static dielectric constant tensor:
#      x y z
#    x 3.924640 0.000000 0.000000 
#    y 0.000000 3.399200 0.000000 
#    z 0.000000 0.000000 3.729620 
# 
# 
# High freq. dielectric constant tensor:
#      x y z
#    x 1.758780 0.000000 0.000000 
#    y 0.000000 1.738440 0.000000 
#    z 0.000000 0.000000 1.774420 
# 
# From -- ./inp_files/20752.got.cif
#   From: 2010.03.12/outbox.cif.g09.slc.cpg/sg62_11_cif.got.tgz:20752.got - 2010.04.10 19:12:36.
