data_PCOD8250276
_publ_section_title
;
Structure prediction by ZEFSAII (Michael W. Deem and Ramdas Pophale) SiO2 
 PCOD8250276
Probable space group: P N M A
;
_chemical_formula_sum "Si O2"
_cell_formula_units_Z 56
_cell_length_a 17.477554
_cell_length_b 9.454485
_cell_length_c 19.776921
_cell_angle_alpha 90.000000
_cell_angle_beta 90.000000
_cell_angle_gamma 90.000000
_cell_volume 3267.963585
_symmetry_space_group_name_H-M "P N M A"
_symmetry_group_IT_number 62
_symmetry_cell_setting 'orthorhombic'
loop_
_space_group_symop_operation_xyz
x,y,z
1/2-x,-y,1/2+z
1/2+x,1/2-y,1/2-z
-x,1/2+y,-z
-x,-y,-z
1/2+x,y,1/2-z
1/2-x,1/2+y,1/2+z
x,1/2-y,z
loop_
_atom_site_type_symbol
_atom_site_label
_atom_site_fract_x
_atom_site_fract_y
_atom_site_fract_z
Si Si1 0.191178 0.089465 0.978407
Si Si2 0.290182 0.413722 0.608301
Si Si3 0.120020 0.415495 0.588336
Si Si4 0.567972 0.583595 0.309723
Si Si5 0.469660 0.082577 0.836343
Si Si6 0.471814 0.585957 0.435710
Si Si7 0.860605 0.084287 0.545776
O O1 0.194559 0.250000 0.004776
O O2 0.120089 0.067539 0.927440
O O3 0.270827 0.051550 0.941062
O O4 0.177589 0.993981 0.043567
O O5 0.299116 0.250000 0.590549
O O6 0.201669 0.451827 0.623225
O O7 0.343628 0.453552 0.672184
O O8 0.113283 0.250000 0.570583
O O9 0.109261 0.501846 0.519612
O O10 0.054537 0.462976 0.640574
O O11 0.555517 0.750000 0.304375
O O12 0.547473 0.514192 0.237218
O O13 0.511322 0.524765 0.367934
O O14 0.462625 0.250000 0.831855
O O15 0.406994 0.026324 0.889731
O O16 0.500000 0.500000 0.500000
O O17 0.494042 0.750000 0.446546
O O18 0.876084 0.250000 0.533778
#
# Coordination Sequence:
#
# PCOD8250276 Si02
#       7
#     8   8   8   8   8   8   8
#     4   9  17  28  44  69  91 111 146 186 224 265
#     4   9  16  28  46  67  88 115 149 183 222 266
#     4   9  17  29  48  71  90 114 153 192 224 263
#     4   9  17  29  44  64  92 122 147 181 228 269
#     4   9  17  30  45  66  95 121 149 187 229 269
#     4  10  18  29  47  67  89 117 150 186 222 263
#     4   9  17  30  48  68  91 119 149 186 229 270
#
# _framework density 17.136054999999999
#
# number of rings (size 3 to 8) (size 9 to 14) (size 15 to 20)
#    0.000    2.857    1.429    0.429    0.000    0.000 
#    2.571    0.000    0.000    3.429    0.000    0.000 
#    0.000    0.000    0.000    0.000    0.000    0.000 
#
# Total GULP energy -694128.028593 kJ/mol
# GULP energy per Si atom -12395.143368 kJ/mol
# Density = 1.709705 g / cm^3
# Si number density = 17.136055 Si / 1000 Ang^3
#
#
#
# Elastic Constant Matrix: (Units=GPa)
#
#
# Indices 1 2 3 4 5 6 
#
# 1 138.6956 24.7622 92.8275 0.0000 0.0000 0.0000
# 2 24.7622 26.4926 29.3650 0.0000 0.0000 0.0000
# 3 92.8275 29.3650 149.5829 0.0000 0.0000 0.0000
# 4 0.0000 0.0000 0.0000 17.7702 0.0000 0.0000
# 5 0.0000 0.0000 0.0000 0.0000 25.9717 0.0000
# 6 0.0000 0.0000 0.0000 0.0000 0.0000 16.9446
#
#
#
# Elastic Compliance Matrix: (Units=1/GPa)
#
#
# Indices 1 2 3 4 5 6 
#
# 1 0.012654 -0.003992 -0.007069 0.000000 0.000000 0.000000
# 2 -0.003992 0.049503 -0.007241 0.000000 0.000000 0.000000
# 3 -0.007069 -0.007241 0.012494 0.000000 0.000000 0.000000
# 4 0.000000 0.000000 0.000000 0.056274 0.000000 0.000000
# 5 0.000000 0.000000 0.000000 0.000000 0.038503 0.000000
# 6 0.000000 0.000000 0.000000 0.000000 0.000000 0.059016
#
#
# Mechanical properties :
#
#
# Convention : Reuss Voigt Hill
#
# Bulk Modulus (GPa) = 26.28307 67.63118 46.95712
# Shear Modulus (GPa) = 18.00306 23.32506 20.66406
#
# Velocity S-wave (km/s) = 3.24481 3.69340 3.47635
# Velocity P-wave (km/s) = 5.42305 7.59876 6.60116
#
# Compressibility (1/GPa) = 0.03804731
#
# Stress axis : x y z
#
# Youngs Moduli (GPa) = 79.02619 20.20062 80.04067
#
# Poissons Ratio (x) = 0.08064 0.56582
# Poissons Ratio (y) = 0.31547 0.57956
# Poissons Ratio (z) = 0.55865 0.14627
#
# Static dielectric constant tensor:
#      x y z
#    x 3.568700 0.000000 0.000000 
#    y 0.000000 2.951510 0.000000 
#    z 0.000000 0.000000 3.259330 
# 
# 
# High freq. dielectric constant tensor:
#      x y z
#    x 1.683190 0.000000 0.000000 
#    y 0.000000 1.627490 0.000000 
#    z 0.000000 0.000000 1.638850 
# 
# From -- ./inp_files/24440.got.cif
#   From: 2010.03.12/outbox.cif.g09.slc.cpg/sg62_13_cif.got.tgz:24440.got - 2010.04.10 19:12:36.
