data_PCOD8250197
_publ_section_title
;
Structure prediction by ZEFSAII (Michael W. Deem and Ramdas Pophale) SiO2 
 PCOD8250197
Probable space group: P N M A
;
_chemical_formula_sum "Si O2"
_cell_formula_units_Z 56
_cell_length_a 18.110942
_cell_length_b 9.243448
_cell_length_c 21.041466
_cell_angle_alpha 90.000000
_cell_angle_beta 90.000000
_cell_angle_gamma 90.000000
_cell_volume 3522.500284
_symmetry_space_group_name_H-M "P N M A"
_symmetry_group_IT_number 62
_symmetry_cell_setting 'orthorhombic'
loop_
_space_group_symop_operation_xyz
x,y,z
1/2-x,-y,1/2+z
1/2+x,1/2-y,1/2-z
-x,1/2+y,-z
-x,-y,-z
1/2+x,y,1/2-z
1/2-x,1/2+y,1/2+z
x,1/2-y,z
loop_
_atom_site_type_symbol
_atom_site_label
_atom_site_fract_x
_atom_site_fract_y
_atom_site_fract_z
Si Si1 0.712058 0.413436 0.185418
Si Si2 0.920187 0.582589 0.255605
Si Si3 0.661691 0.079886 0.628015
Si Si4 0.910839 0.421694 0.752451
Si Si5 0.347203 0.580140 0.628626
Si Si6 0.300558 0.409455 0.183982
Si Si7 0.576657 0.081184 0.502479
O O1 0.693256 0.250000 0.163160
O O2 0.760998 0.493985 0.132191
O O3 0.637312 0.504004 0.197105
O O4 0.757373 0.411376 0.250015
O O5 0.907798 0.750000 0.265340
O O6 0.892096 0.535414 0.185923
O O7 0.872445 0.509760 0.311867
O O8 0.004938 0.538759 0.263360
O O9 0.679201 0.250000 0.628159
O O10 0.621996 0.029497 0.563772
O O11 0.896642 0.250000 0.753456
O O12 0.893251 0.485214 0.821721
O O13 0.357607 0.750000 0.645623
O O14 0.259722 0.539420 0.631579
O O15 0.375003 0.541622 0.558788
O O16 0.329779 0.250000 0.167600
O O17 0.559060 0.250000 0.506380
O O18 0.500000 0.000000 0.500000
#
# Coordination Sequence:
#
# PCOD8250197 Si02
#       7
#     8   8   8   8   8   8   8
#     4   9  17  29  44  63  86 113 145 181 220 264
#     4   9  17  27  41  63  88 111 140 177 217 259
#     4   9  17  30  45  62  87 120 152 181 215 258
#     4  10  18  28  44  66  90 115 143 179 221 265
#     4   9  18  31  44  62  89 120 151 182 215 256
#     4   8  15  27  42  59  81 110 143 175 213 258
#     4  10  20  32  46  65  92 123 155 187 218 256
#
# _framework density 15.897798
#
# number of rings (size 3 to 8) (size 9 to 14) (size 15 to 20)
#    0.000    2.857    0.000    2.571    0.000    6.857 
#    0.000    2.857    0.000    0.000    0.000    1.000 
#    0.000    0.000    0.000    0.000    0.000    0.000 
#
# Total GULP energy -694239.444412 kJ/mol
# GULP energy per Si atom -12397.132936 kJ/mol
# Density = 1.586161 g / cm^3
# Si number density = 15.897798 Si / 1000 Ang^3
#
#
#
# Elastic Constant Matrix: (Units=GPa)
#
#
# Indices 1 2 3 4 5 6 
#
# 1 143.5854 69.0039 66.4197 0.0000 0.0000 0.0000
# 2 69.0039 71.7255 37.4596 0.0000 0.0000 0.0000
# 3 66.4197 37.4596 76.4024 0.0000 0.0000 0.0000
# 4 0.0000 0.0000 0.0000 18.2198 0.0000 0.0000
# 5 0.0000 0.0000 0.0000 0.0000 26.6693 0.0000
# 6 0.0000 0.0000 0.0000 0.0000 0.0000 31.3090
#
#
#
# Elastic Compliance Matrix: (Units=1/GPa)
#
#
# Indices 1 2 3 4 5 6 
#
# 1 0.016404 -0.011202 -0.008768 0.000000 0.000000 0.000000
# 2 -0.011202 0.026391 -0.003201 0.000000 0.000000 0.000000
# 3 -0.008768 -0.003201 0.022281 0.000000 0.000000 0.000000
# 4 0.000000 0.000000 0.000000 0.054885 0.000000 0.000000
# 5 0.000000 0.000000 0.000000 0.000000 0.037496 0.000000
# 6 0.000000 0.000000 0.000000 0.000000 0.000000 0.031940
#
#
# Mechanical properties :
#
#
# Convention : Reuss Voigt Hill
#
# Bulk Modulus (GPa) = 53.38203 70.83111 62.10657
# Shear Modulus (GPa) = 20.66255 23.16163 21.91209
#
# Velocity S-wave (km/s) = 3.60906 3.82109 3.71659
# Velocity P-wave (km/s) = 7.14271 8.00739 7.58738
#
# Compressibility (1/GPa) = 0.01873289
#
# Stress axis : x y z
#
# Youngs Moduli (GPa) = 60.96028 37.89191 44.88221
#
# Poissons Ratio (x) = 0.42448 0.39354
# Poissons Ratio (y) = 0.68289 0.14365
# Poissons Ratio (z) = 0.53452 0.12128
#
# Static dielectric constant tensor:
#      x y z
#    x 3.152140 0.000000 0.000000 
#    y 0.000000 3.124990 0.000000 
#    z 0.000000 0.000000 2.873040 
# 
# 
# High freq. dielectric constant tensor:
#      x y z
#    x 1.611770 0.000000 0.000000 
#    y 0.000000 1.616060 0.000000 
#    z 0.000000 0.000000 1.572640 
# 
# From -- ./inp_files/27533.got.cif
#   From: 2010.03.12/outbox.cif.g09.slc.cpg/sg62_14_cif.got.tgz:27533.got - 2010.04.10 19:12:36.
