data_PCOD8250017
_publ_section_title
;
Structure prediction by ZEFSAII (Michael W. Deem and Ramdas Pophale) SiO2 
 PCOD8250017
Probable space group: P N M A
;
_chemical_formula_sum "Si O2"
_cell_formula_units_Z 64
_cell_length_a 14.684180
_cell_length_b 8.749271
_cell_length_c 29.980061
_cell_angle_alpha 90.000000
_cell_angle_beta 90.000000
_cell_angle_gamma 90.000000
_cell_volume 3851.714427
_symmetry_space_group_name_H-M "P N M A"
_symmetry_group_IT_number 62
_symmetry_cell_setting 'orthorhombic'
loop_
_space_group_symop_operation_xyz
x,y,z
1/2-x,-y,1/2+z
1/2+x,1/2-y,1/2-z
-x,1/2+y,-z
-x,-y,-z
1/2+x,y,1/2-z
1/2-x,1/2+y,1/2+z
x,1/2-y,z
loop_
_atom_site_type_symbol
_atom_site_label
_atom_site_fract_x
_atom_site_fract_y
_atom_site_fract_z
Si Si1 0.598601 0.571469 0.448156
Si Si2 0.675681 0.932821 0.201076
Si Si3 0.001986 0.079234 0.826930
Si Si4 0.810275 0.926181 0.126675
Si Si5 0.217542 0.432128 0.711745
Si Si6 0.833632 0.926868 0.865020
Si Si7 0.905852 0.071546 0.049313
Si Si8 0.517607 0.424085 0.777033
O O1 0.606587 0.750000 0.439437
O O2 0.670995 0.486081 0.416185
O O3 0.495389 0.521885 0.436276
O O4 0.622575 0.527651 0.498987
O O5 0.676660 0.750000 0.204243
O O6 0.724292 0.986392 0.155319
O O7 0.727809 0.996574 0.245155
O O8 0.571616 0.996949 0.198907
O O9 0.970329 0.250000 0.841394
O O10 0.104629 0.048327 0.841019
O O11 0.995729 0.062362 0.774602
O O12 0.936557 0.954745 0.848816
O O13 0.798155 0.750000 0.112944
O O14 0.822567 0.024674 0.081622
O O15 0.214473 0.250000 0.714600
O O16 0.263699 0.481751 0.665789
O O17 0.114574 0.502455 0.711541
O O18 0.808770 0.750000 0.863169
O O19 0.928180 0.250000 0.053191
O O20 0.525573 0.250000 0.792478
#
# Coordination Sequence:
#
# PCOD8250017 Si02
#       8
#     8   8   8   8   8   8   8   8
#     4  10  20  34  50  68  94 128 162 196 239 292
#     4   9  16  27  47  74  98 125 168 206 230 275
#     4  10  17  28  48  70  95 130 168 201 232 276
#     4  10  18  28  47  73 100 133 167 196 235 283
#     4  10  18  31  51  70  93 128 167 203 237 277
#     4  12  23  32  45  70 100 130 162 199 244 289
#     4  10  20  32  48  72  99 125 157 199 243 289
#     4   9  16  28  49  73  95 125 169 210 234 267
#
# _framework density 16.615977999999998
#
# number of rings (size 3 to 8) (size 9 to 14) (size 15 to 20)
#    0.000    2.000    3.750    1.875    0.000    1.500 
#    0.000    1.250    0.000    0.000    0.000    0.875 
#    0.000    0.000    0.000    0.000    0.000    0.000 
#
# Total GULP energy -793343.784555 kJ/mol
# GULP energy per Si atom -12395.996634 kJ/mol
# Density = 1.657816 g / cm^3
# Si number density = 16.615978 Si / 1000 Ang^3
#
#
#
# Elastic Constant Matrix: (Units=GPa)
#
#
# Indices 1 2 3 4 5 6 
#
# 1 72.2317 19.1192 49.6360 0.0000 0.0000 0.0000
# 2 19.1192 26.8680 5.1694 0.0000 0.0000 0.0000
# 3 49.6360 5.1694 74.6725 0.0000 0.0000 0.0000
# 4 0.0000 0.0000 0.0000 19.9437 0.0000 0.0000
# 5 0.0000 0.0000 0.0000 0.0000 24.4468 0.0000
# 6 0.0000 0.0000 0.0000 0.0000 0.0000 10.9285
#
#
#
# Elastic Compliance Matrix: (Units=1/GPa)
#
#
# Indices 1 2 3 4 5 6 
#
# 1 0.033378 -0.019746 -0.020820 0.000000 0.000000 0.000000
# 2 -0.019746 0.049403 0.009705 0.000000 0.000000 0.000000
# 3 -0.020820 0.009705 0.026559 0.000000 0.000000 0.000000
# 4 0.000000 0.000000 0.000000 0.050141 0.000000 0.000000
# 5 0.000000 0.000000 0.000000 0.000000 0.040905 0.000000
# 6 0.000000 0.000000 0.000000 0.000000 0.000000 0.091504
#
#
# Mechanical properties :
#
#
# Convention : Reuss Voigt Hill
#
# Bulk Modulus (GPa) = 20.99995 35.73571 28.36783
# Shear Modulus (GPa) = 13.53239 17.72030 15.62634
#
# Velocity S-wave (km/s) = 2.85690 3.26921 3.06999
# Velocity P-wave (km/s) = 4.85266 5.98363 5.44758
#
# Compressibility (1/GPa) = 0.04761916
#
# Stress axis : x y z
#
# Youngs Moduli (GPa) = 29.96004 20.24178 37.65175
#
# Poissons Ratio (x) = 0.39969 0.78390
# Poissons Ratio (y) = 0.59159 -0.36542
# Poissons Ratio (z) = 0.62376 -0.19645
#
# Static dielectric constant tensor:
#      x y z
#    x 3.192580 0.000000 0.000000 
#    y 0.000000 2.866370 0.000000 
#    z 0.000000 0.000000 3.209190 
# 
# 
# High freq. dielectric constant tensor:
#      x y z
#    x 1.616580 0.000000 0.000000 
#    y 0.000000 1.613080 0.000000 
#    z 0.000000 0.000000 1.638140 
# 
# From -- ./inp_files/32712.got.cif
#   From: 2010.03.12/outbox.cif.g09.slc.cpg/sg62_17_cif.got.tgz:32712.got - 2010.04.10 19:12:36.
