data_PCOD8250195
_publ_section_title
;
Structure prediction by ZEFSAII (Michael W. Deem and Ramdas Pophale) SiO2 
 PCOD8250195
Probable space group: P N M A
;
_chemical_formula_sum "Si O2"
_cell_formula_units_Z 56
_cell_length_a 13.039252
_cell_length_b 12.562317
_cell_length_c 22.198836
_cell_angle_alpha 90.000000
_cell_angle_beta 90.000000
_cell_angle_gamma 90.000000
_cell_volume 3636.240752
_symmetry_space_group_name_H-M "P N M A"
_symmetry_group_IT_number 62
_symmetry_cell_setting 'orthorhombic'
loop_
_space_group_symop_operation_xyz
x,y,z
1/2-x,-y,1/2+z
1/2+x,1/2-y,1/2-z
-x,1/2+y,-z
-x,-y,-z
1/2+x,y,1/2-z
1/2-x,1/2+y,1/2+z
x,1/2-y,z
loop_
_atom_site_type_symbol
_atom_site_label
_atom_site_fract_x
_atom_site_fract_y
_atom_site_fract_z
Si Si1 0.854495 0.533513 0.177867
Si Si2 0.751017 0.125570 0.852751
Si Si3 0.410088 0.876318 0.446408
Si Si4 0.852264 0.016775 0.742991
Si Si5 0.466152 0.626164 0.671938
Si Si6 0.615900 0.498346 0.436687
Si Si7 0.048147 0.370800 0.710166
O O1 0.848605 0.590539 0.113377
O O2 0.741886 0.496468 0.198380
O O3 0.904117 0.618877 0.223149
O O4 0.923316 0.428236 0.178401
O O5 0.759610 0.250000 0.866644
O O6 0.825332 0.100296 0.796175
O O7 0.634266 0.091353 0.837673
O O8 0.783956 0.058601 0.911369
O O9 0.403390 0.750000 0.456769
O O10 0.356425 0.941099 0.500758
O O11 0.528543 0.911486 0.442905
O O12 0.945402 0.060971 0.702462
O O13 0.888722 0.907553 0.774472
O O14 0.484700 0.750000 0.675463
O O15 0.418809 0.595263 0.607848
O O16 0.018014 0.250000 0.698312
#
# Coordination Sequence:
#
# PCOD8250195 Si02
#       7
#     8   8   8   8   8   8   8
#     4   9  18  29  42  65  91 112 140 177 216 255
#     4   9  16  27  44  64  88 116 142 173 216 258
#     4  10  18  28  44  64  87 115 145 179 221 264
#     4   9  17  28  43  66  91 111 139 179 217 255
#     4   9  17  29  44  61  85 117 148 176 210 256
#     4   9  18  29  42  63  89 114 146 182 216 256
#     4   9  16  26  43  66  89 113 140 171 212 261
#
# _framework density 15.40052
#
# number of rings (size 3 to 8) (size 9 to 14) (size 15 to 20)
#    0.000    2.857    0.000    2.571    0.000    2.286 
#    0.000    0.714    0.000    1.714    0.000    0.000 
#    0.000    0.000    0.000    0.000    0.000    0.000 
#
# Total GULP energy -694296.424832 kJ/mol
# GULP energy per Si atom -12398.150443 kJ/mol
# Density = 1.536547 g / cm^3
# Si number density = 15.400520 Si / 1000 Ang^3
#
#
#
# Elastic Constant Matrix: (Units=GPa)
#
#
# Indices 1 2 3 4 5 6 
#
# 1 80.5895 30.4416 38.9197 0.0000 0.0000 0.0000
# 2 30.4416 88.8926 35.6608 0.0000 0.0000 0.0000
# 3 38.9197 35.6608 88.2161 0.0000 0.0000 0.0000
# 4 0.0000 0.0000 0.0000 17.4964 0.0000 0.0000
# 5 0.0000 0.0000 0.0000 0.0000 24.0454 0.0000
# 6 0.0000 0.0000 0.0000 0.0000 0.0000 12.5123
#
#
#
# Elastic Compliance Matrix: (Units=1/GPa)
#
#
# Indices 1 2 3 4 5 6 
#
# 1 0.016525 -0.003264 -0.005971 0.000000 0.000000 0.000000
# 2 -0.003264 0.014072 -0.004248 0.000000 0.000000 0.000000
# 3 -0.005971 -0.004248 0.015688 0.000000 0.000000 0.000000
# 4 0.000000 0.000000 0.000000 0.057155 0.000000 0.000000
# 5 0.000000 0.000000 0.000000 0.000000 0.041588 0.000000
# 6 0.000000 0.000000 0.000000 0.000000 0.000000 0.079921
#
#
# Mechanical properties :
#
#
# Convention : Reuss Voigt Hill
#
# Bulk Modulus (GPa) = 51.76656 51.97139 51.86897
# Shear Modulus (GPa) = 19.35328 20.98923 20.17126
#
# Velocity S-wave (km/s) = 3.54879 3.69574 3.62301
# Velocity P-wave (km/s) = 7.10481 7.21326 7.15924
#
# Compressibility (1/GPa) = 0.01931749
#
# Stress axis : x y z
#
# Youngs Moduli (GPa) = 60.51387 71.06561 63.74420
#
# Poissons Ratio (x) = 0.23193 0.38064
# Poissons Ratio (y) = 0.19749 0.27082
# Poissons Ratio (z) = 0.36135 0.30192
#
# Static dielectric constant tensor:
#      x y z
#    x 2.956450 0.000000 0.000000 
#    y 0.000000 2.788760 0.000000 
#    z 0.000000 0.000000 2.928930 
# 
# 
# High freq. dielectric constant tensor:
#      x y z
#    x 1.578250 0.000000 0.000000 
#    y 0.000000 1.584940 0.000000 
#    z 0.000000 0.000000 1.575680 
# 
# From -- ./inp_files/26593.got.cif
#   From: 2010.03.12/outbox.cif.g09.slc.cpg/sg62_14_cif.got.tgz:26593.got - 2010.04.10 19:12:36.
