data_PCOD8250037
_publ_section_title
;
Structure prediction by ZEFSAII (Michael W. Deem and Ramdas Pophale) SiO2 
 PCOD8250037
Probable space group: P N M A
;
_chemical_formula_sum "Si O2"
_cell_formula_units_Z 64
_cell_length_a 11.957568
_cell_length_b 17.811710
_cell_length_c 18.361115
_cell_angle_alpha 90.000000
_cell_angle_beta 90.000000
_cell_angle_gamma 90.000000
_cell_volume 3910.637185
_symmetry_space_group_name_H-M "P N M A"
_symmetry_group_IT_number 62
_symmetry_cell_setting 'orthorhombic'
loop_
_space_group_symop_operation_xyz
x,y,z
1/2-x,-y,1/2+z
1/2+x,1/2-y,1/2-z
-x,1/2+y,-z
-x,-y,-z
1/2+x,y,1/2-z
1/2-x,1/2+y,1/2+z
x,1/2-y,z
loop_
_atom_site_type_symbol
_atom_site_label
_atom_site_fract_x
_atom_site_fract_y
_atom_site_fract_z
Si Si1 0.222378 0.332210 0.932708
Si Si2 0.937319 0.833438 0.941435
Si Si3 0.331673 0.984033 0.373668
Si Si4 0.947655 0.335980 0.642043
Si Si5 0.201322 0.339173 0.626877
Si Si6 0.686365 0.569566 0.249457
Si Si7 0.568270 0.473806 0.362330
Si Si8 0.639376 0.578506 0.487479
O O1 0.195677 0.250000 0.897749
O O2 0.151041 0.396163 0.893241
O O3 0.355743 0.348824 0.922763
O O4 0.181047 0.332043 0.015714
O O5 0.969013 0.750000 0.915505
O O6 0.914568 0.884603 0.870895
O O7 0.041926 0.864691 0.988169
O O8 0.238507 0.983910 0.312000
O O9 0.443476 0.011680 0.334857
O O10 0.301684 0.037770 0.442761
O O11 0.949554 0.250000 0.667465
O O12 0.914900 0.383931 0.713479
O O13 0.070544 0.358828 0.613587
O O14 0.223418 0.250000 0.626641
O O15 0.235274 0.372031 0.706325
O O16 0.269870 0.376682 0.560564
O O17 0.652397 0.505840 0.305071
O O18 0.582748 0.511984 0.441440
#
# Coordination Sequence:
#
# PCOD8250037 Si02
#       8
#     8   8   8   8   8   8   8   8
#     4   9  16  27  47  72  95 120 155 192 233 283
#     4  10  17  29  51  75  93 116 157 200 245 283
#     4  10  17  32  49  69 100 129 157 200 243 285
#     4   9  18  32  46  68 100 132 158 186 233 288
#     4  10  20  33  48  70 103 131 160 198 239 293
#     4  10  20  30  49  69  97 132 168 190 241 290
#     4  10  18  31  48  71 100 123 155 207 245 278
#     4  10  18  31  50  75  98 124 159 201 245 283
#
# _framework density 16.365621000000001
#
# number of rings (size 3 to 8) (size 9 to 14) (size 15 to 20)
#    0.000    2.250    2.500    2.250    0.000    0.500 
#    0.000    3.125    2.750    3.750    0.000    0.000 
#    0.000    0.000    0.000    0.000    0.000    0.000 
#
# Total GULP energy -792887.813143 kJ/mol
# GULP energy per Si atom -12388.872080 kJ/mol
# Density = 1.632837 g / cm^3
# Si number density = 16.365621 Si / 1000 Ang^3
#
#
#
# Elastic Constant Matrix: (Units=GPa)
#
#
# Indices 1 2 3 4 5 6 
#
# 1 73.8948 43.4287 34.7910 0.0000 0.0000 0.0000
# 2 43.4287 112.0467 42.1147 0.0000 0.0000 0.0000
# 3 34.7910 42.1147 72.5574 0.0000 0.0000 0.0000
# 4 0.0000 0.0000 0.0000 21.0709 0.0000 0.0000
# 5 0.0000 0.0000 0.0000 0.0000 21.5240 0.0000
# 6 0.0000 0.0000 0.0000 0.0000 0.0000 20.7725
#
#
#
# Elastic Compliance Matrix: (Units=1/GPa)
#
#
# Indices 1 2 3 4 5 6 
#
# 1 0.019589 -0.005196 -0.006377 0.000000 0.000000 0.000000
# 2 -0.005196 0.012793 -0.004934 0.000000 0.000000 0.000000
# 3 -0.006377 -0.004934 0.019704 0.000000 0.000000 0.000000
# 4 0.000000 0.000000 0.000000 0.047459 0.000000 0.000000
# 5 0.000000 0.000000 0.000000 0.000000 0.046460 0.000000
# 6 0.000000 0.000000 0.000000 0.000000 0.000000 0.048141
#
#
# Mechanical properties :
#
#
# Convention : Reuss Voigt Hill
#
# Bulk Modulus (GPa) = 52.43275 55.46307 53.94791
# Shear Modulus (GPa) = 21.41177 21.88445 21.64811
#
# Velocity S-wave (km/s) = 3.62102 3.66077 3.64095
# Velocity P-wave (km/s) = 7.04204 7.19944 7.12117
#
# Compressibility (1/GPa) = 0.01907205
#
# Stress axis : x y z
#
# Youngs Moduli (GPa) = 51.05003 78.16599 50.75101
#
# Poissons Ratio (x) = 0.40611 0.32364
# Poissons Ratio (y) = 0.26523 0.25043
# Poissons Ratio (z) = 0.32555 0.38570
#
# Static dielectric constant tensor:
#      x y z
#    x 3.103310 0.000000 0.000000 
#    y 0.000000 3.207410 0.000000 
#    z 0.000000 0.000000 2.997260 
# 
# 
# High freq. dielectric constant tensor:
#      x y z
#    x 1.625230 0.000000 0.000000 
#    y 0.000000 1.633930 0.000000 
#    z 0.000000 0.000000 1.605050 
# 
# From -- ./inp_files/23305.got.cif
#   From: 2010.03.12/outbox.cif.g09.slc.cpg/sg62_12_cif.got.tgz:23305.got - 2010.04.10 19:12:36.
