data_PCOD8250296
_publ_section_title
;
Structure prediction by ZEFSAII (Michael W. Deem and Ramdas Pophale) SiO2 
 PCOD8250296
Probable space group: P N M A
;
_chemical_formula_sum "Si O2"
_cell_formula_units_Z 64
_cell_length_a 19.076802
_cell_length_b 9.021354
_cell_length_c 19.809905
_cell_angle_alpha 90.000000
_cell_angle_beta 90.000000
_cell_angle_gamma 90.000000
_cell_volume 3409.256600
_symmetry_space_group_name_H-M "P N M A"
_symmetry_group_IT_number 62
_symmetry_cell_setting 'orthorhombic'
loop_
_space_group_symop_operation_xyz
x,y,z
1/2-x,-y,1/2+z
1/2+x,1/2-y,1/2-z
-x,1/2+y,-z
-x,-y,-z
1/2+x,y,1/2-z
1/2-x,1/2+y,1/2+z
x,1/2-y,z
loop_
_atom_site_type_symbol
_atom_site_label
_atom_site_fract_x
_atom_site_fract_y
_atom_site_fract_z
Si Si1 0.395075 0.580667 0.032336
Si Si2 0.461383 0.418289 0.910371
Si Si3 0.040847 0.576567 0.156099
Si Si4 0.763538 0.075007 0.497498
Si Si5 0.123379 0.576846 0.024618
Si Si6 0.753796 0.924705 0.640084
Si Si7 0.371479 0.078187 0.781862
Si Si8 0.595624 0.921046 0.626853
O O1 0.369745 0.750000 0.028065
O O2 0.454305 0.559325 0.089913
O O3 0.328474 0.477092 0.049254
O O4 0.426995 0.535956 0.960171
O O5 0.443221 0.250000 0.934206
O O6 0.432920 0.448110 0.835920
O O7 0.031773 0.750000 0.165193
O O8 0.068130 0.532365 0.081938
O O9 0.096868 0.519166 0.211249
O O10 0.964044 0.508111 0.167514
O O11 0.760893 0.250000 0.503739
O O12 0.693485 0.016250 0.462380
O O13 0.776166 0.006696 0.571596
O O14 0.143172 0.750000 0.027097
O O15 0.091909 0.533719 0.952051
O O16 0.764396 0.750000 0.629693
O O17 0.672381 0.960640 0.656474
O O18 0.801981 0.984084 0.700880
O O19 0.349364 0.250000 0.777669
O O20 0.578745 0.750000 0.636079
#
# Coordination Sequence:
#
# PCOD8250296 Si02
#       8
#     8   8   8   8   8   8   8   8
#     4  10  18  29  48  74 105 139 176 219 269 313
#     4   9  18  31  48  72 103 138 178 221 262 310
#     4  10  21  36  56  81 109 141 177 218 270 325
#     4  11  20  31  51  79 107 136 175 224 271 320
#     4   9  19  36  55  78 107 138 176 225 274 322
#     4  10  20  35  55  80 106 139 177 216 263 317
#     4  10  20  35  54  79 109 141 179 220 262 317
#     4   9  19  35  56  80 106 134 175 223 267 316
#
# _framework density 18.772421999999999
#
# number of rings (size 3 to 8) (size 9 to 14) (size 15 to 20)
#    0.000    2.250    1.250    3.000    0.000    4.000 
#    0.000    1.250    0.000    6.000    0.000    0.000 
#    0.000    0.000    0.000    0.000    0.000    0.000 
#
# Total GULP energy -793598.173215 kJ/mol
# GULP energy per Si atom -12399.971456 kJ/mol
# Density = 1.872970 g / cm^3
# Si number density = 18.772422 Si / 1000 Ang^3
#
#
#
# Elastic Constant Matrix: (Units=GPa)
#
#
# Indices 1 2 3 4 5 6 
#
# 1 138.4971 57.9574 43.7003 0.0000 0.0000 0.0000
# 2 57.9574 80.7678 25.6886 0.0000 0.0000 0.0000
# 3 43.7003 25.6886 63.1745 0.0000 0.0000 0.0000
# 4 0.0000 0.0000 0.0000 19.6203 0.0000 0.0000
# 5 0.0000 0.0000 0.0000 0.0000 25.8311 0.0000
# 6 0.0000 0.0000 0.0000 0.0000 0.0000 36.5266
#
#
#
# Elastic Compliance Matrix: (Units=1/GPa)
#
#
# Indices 1 2 3 4 5 6 
#
# 1 0.011723 -0.006700 -0.005385 0.000000 0.000000 0.000000
# 2 -0.006700 0.018049 -0.002705 0.000000 0.000000 0.000000
# 3 -0.005385 -0.002705 0.020654 0.000000 0.000000 0.000000
# 4 0.000000 0.000000 0.000000 0.050968 0.000000 0.000000
# 5 0.000000 0.000000 0.000000 0.000000 0.038713 0.000000
# 6 0.000000 0.000000 0.000000 0.000000 0.000000 0.027377
#
#
# Mechanical properties :
#
#
# Convention : Reuss Voigt Hill
#
# Bulk Modulus (GPa) = 47.96826 59.68134 53.82480
# Shear Modulus (GPa) = 24.50834 26.73515 25.62175
#
# Velocity S-wave (km/s) = 3.61716 3.77791 3.69841
# Velocity P-wave (km/s) = 6.56149 7.13381 6.85362
#
# Compressibility (1/GPa) = 0.02084712
#
# Stress axis : x y z
#
# Youngs Moduli (GPa) = 85.30154 55.40493 48.41641
#
# Poissons Ratio (x) = 0.37119 0.26073
# Poissons Ratio (y) = 0.57148 0.13096
# Poissons Ratio (z) = 0.45936 0.14987
#
# Static dielectric constant tensor:
#      x y z
#    x 3.633030 0.000000 0.000000 
#    y 0.000000 3.380420 0.000000 
#    z 0.000000 0.000000 3.200620 
# 
# 
# High freq. dielectric constant tensor:
#      x y z
#    x 1.742490 0.000000 0.000000 
#    y 0.000000 1.727840 0.000000 
#    z 0.000000 0.000000 1.690610 
# 
# From -- ./inp_files/27659.got.cif
#   From: 2010.03.12/outbox.cif.g09.slc.cpg/sg62_14_cif.got.tgz:27659.got - 2010.04.10 19:12:36.
