data_PCOD8250594
_publ_section_title
;
Structure prediction by ZEFSAII (Michael W. Deem and Ramdas Pophale) SiO2 
 PCOD8250594
Probable space group: P N M A
;
_chemical_formula_sum "Si O2"
_cell_formula_units_Z 64
_cell_length_a 19.410287
_cell_length_b 9.086404
_cell_length_c 19.760614
_cell_angle_alpha 90.000000
_cell_angle_beta 90.000000
_cell_angle_gamma 90.000000
_cell_volume 3485.173749
_symmetry_space_group_name_H-M "P N M A"
_symmetry_group_IT_number 62
_symmetry_cell_setting 'orthorhombic'
loop_
_space_group_symop_operation_xyz
x,y,z
1/2-x,-y,1/2+z
1/2+x,1/2-y,1/2-z
-x,1/2+y,-z
-x,-y,-z
1/2+x,y,1/2-z
1/2-x,1/2+y,1/2+z
x,1/2-y,z
loop_
_atom_site_type_symbol
_atom_site_label
_atom_site_fract_x
_atom_site_fract_y
_atom_site_fract_z
Si Si1 0.894341 0.581457 0.817591
Si Si2 0.932233 0.580623 0.669195
Si Si3 0.775372 0.920312 0.647712
Si Si4 0.320007 0.580267 0.091160
Si Si5 0.564778 0.422926 0.466086
Si Si6 0.240044 0.918955 0.219968
Si Si7 0.971920 0.925485 0.433163
Si Si8 0.295961 0.075642 0.492004
O O1 0.869041 0.750000 0.817280
O O2 0.939100 0.551480 0.749907
O O3 0.937943 0.546392 0.885135
O O4 0.826882 0.481949 0.817384
O O5 0.948944 0.750000 0.651345
O O6 0.856004 0.538480 0.642594
O O7 0.985334 0.474134 0.632308
O O8 0.768046 0.750000 0.664213
O O9 0.734713 0.964864 0.580910
O O10 0.740507 0.004377 0.709983
O O11 0.322545 0.750000 0.070630
O O12 0.304676 0.557655 0.170348
O O13 0.394439 0.512372 0.075390
O O14 0.259103 0.511126 0.045781
O O15 0.500000 0.500000 0.500000
O O16 0.562413 0.250000 0.481582
O O17 0.633158 0.490070 0.498861
O O18 0.224939 0.750000 0.234654
O O19 0.974909 0.750000 0.439485
O O20 0.000000 0.000000 0.500000
O O21 0.309032 0.250000 0.500478
#
# Coordination Sequence:
#
# PCOD8250594 Si02
#       8
#     8   8   8   8   8   8   8   8
#     4   9  19  37  59  80 110 146 184 228 279 333
#     4   9  18  36  58  81 111 150 190 228 273 330
#     4   9  19  35  57  82 114 151 183 225 280 334
#     4   9  19  35  56  79 108 146 182 225 278 330
#     4  11  23  39  59  84 113 146 185 234 284 339
#     4  10  18  32  57  82 107 139 183 231 273 327
#     4  11  22  37  55  80 114 150 188 230 278 331
#     4  10  19  37  61  82 108 147 188 226 280 337
#
# _framework density 18.363503999999999
#
# number of rings (size 3 to 8) (size 9 to 14) (size 15 to 20)
#    0.000    2.250    1.250    2.625    0.000    5.000 
#    2.250    5.000    0.000    0.000    0.000    0.000 
#    0.000    0.000    0.000    0.000    0.000    0.000 
#
# Total GULP energy -793575.103368 kJ/mol
# GULP energy per Si atom -12399.610990 kJ/mol
# Density = 1.832171 g / cm^3
# Si number density = 18.363504 Si / 1000 Ang^3
#
#
#
# Elastic Constant Matrix: (Units=GPa)
#
#
# Indices 1 2 3 4 5 6 
#
# 1 135.1578 53.7163 77.6693 0.0000 0.0000 0.0000
# 2 53.7163 71.7235 57.8304 0.0000 0.0000 0.0000
# 3 77.6693 57.8304 138.6713 0.0000 0.0000 0.0000
# 4 0.0000 0.0000 0.0000 33.8700 0.0000 0.0000
# 5 0.0000 0.0000 0.0000 0.0000 28.1399 0.0000
# 6 0.0000 0.0000 0.0000 0.0000 0.0000 27.8524
#
#
#
# Elastic Compliance Matrix: (Units=1/GPa)
#
#
# Indices 1 2 3 4 5 6 
#
# 1 0.012180 -0.005456 -0.004547 0.000000 0.000000 0.000000
# 2 -0.005456 0.023450 -0.006723 0.000000 0.000000 0.000000
# 3 -0.004547 -0.006723 0.012562 0.000000 0.000000 0.000000
# 4 0.000000 0.000000 0.000000 0.029525 0.000000 0.000000
# 5 0.000000 0.000000 0.000000 0.000000 0.035537 0.000000
# 6 0.000000 0.000000 0.000000 0.000000 0.000000 0.035903
#
#
# Mechanical properties :
#
#
# Convention : Reuss Voigt Hill
#
# Bulk Modulus (GPa) = 67.84594 80.44273 74.14433
# Shear Modulus (GPa) = 26.66366 28.39492 27.52929
#
# Velocity S-wave (km/s) = 3.81464 3.93653 3.87606
# Velocity P-wave (km/s) = 7.51187 8.03508 7.77788
#
# Compressibility (1/GPa) = 0.01473928
#
# Stress axis : x y z
#
# Youngs Moduli (GPa) = 82.10248 42.64448 79.60741
#
# Poissons Ratio (x) = 0.23267 0.36194
# Poissons Ratio (y) = 0.44796 0.53523
# Poissons Ratio (z) = 0.37328 0.28671
#
# Static dielectric constant tensor:
#      x y z
#    x 3.359370 0.000000 0.000000 
#    y 0.000000 3.308090 0.000000 
#    z 0.000000 0.000000 3.561950 
# 
# 
# High freq. dielectric constant tensor:
#      x y z
#    x 1.699700 0.000000 0.000000 
#    y 0.000000 1.703510 0.000000 
#    z 0.000000 0.000000 1.727540 
# 
# From -- ./inp_files/27677.got.cif
#   From: 2010.03.12/outbox.cif.g09.slc.cpg/sg62_14_cif.got.tgz:27677.got - 2010.04.10 19:12:36.
