data_PCOD8250154
_publ_section_title
;
Structure prediction by ZEFSAII (Michael W. Deem and Ramdas Pophale) SiO2 
 PCOD8250154
Probable space group: P N M A
;
_chemical_formula_sum "Si O2"
_cell_formula_units_Z 64
_cell_length_a 17.576875
_cell_length_b 9.542942
_cell_length_c 21.454891
_cell_angle_alpha 90.000000
_cell_angle_beta 90.000000
_cell_angle_gamma 90.000000
_cell_volume 3598.738259
_symmetry_space_group_name_H-M "P N M A"
_symmetry_group_IT_number 62
_symmetry_cell_setting 'orthorhombic'
loop_
_space_group_symop_operation_xyz
x,y,z
1/2-x,-y,1/2+z
1/2+x,1/2-y,1/2-z
-x,1/2+y,-z
-x,-y,-z
1/2+x,y,1/2-z
1/2-x,1/2+y,1/2+z
x,1/2-y,z
loop_
_atom_site_type_symbol
_atom_site_label
_atom_site_fract_x
_atom_site_fract_y
_atom_site_fract_z
Si Si1 0.279041 0.412687 0.109498
Si Si2 0.439142 0.087518 0.775396
Si Si3 0.074254 0.586802 0.016006
Si Si4 0.843550 0.092556 0.605513
Si Si5 0.059689 0.903858 0.662153
Si Si6 0.954835 0.597470 0.544737
Si Si7 0.210588 0.092233 0.977607
Si Si8 0.359456 0.088847 0.650248
O O1 0.268974 0.250000 0.125277
O O2 0.361493 0.465405 0.134017
O O3 0.216511 0.497668 0.148110
O O4 0.268677 0.438740 0.035276
O O5 0.460819 0.250000 0.775228
O O6 0.369534 0.057525 0.823986
O O7 0.409637 0.036897 0.708419
O O8 0.518510 0.007665 0.789213
O O9 0.065047 0.750000 0.997782
O O10 0.089671 0.567870 0.089099
O O11 0.143505 0.520990 0.976575
O O12 0.000000 0.500000 0.000000
O O13 0.872293 0.250000 0.588747
O O14 0.753577 0.082351 0.589621
O O15 0.876313 0.978777 0.558395
O O16 0.073430 0.750000 0.692964
O O17 0.001463 0.883575 0.606907
O O18 0.938674 0.750000 0.514509
O O19 0.000000 0.500000 0.500000
O O20 0.177134 0.250000 0.985627
O O21 0.334863 0.250000 0.658700
#
# Coordination Sequence:
#
# PCOD8250154 Si02
#       8
#     8   8   8   8   8   8   8   8
#     4   9  17  30  49  71  95 125 161 198 240 290
#     4   9  18  33  51  71  97 131 167 200 240 293
#     4  10  20  35  55  77  99 124 160 207 255 299
#     4   9  17  30  48  69  95 127 159 191 234 288
#     4   9  18  31  46  68  98 129 162 200 238 282
#     4  10  18  27  41  63  94 129 162 196 233 274
#     4   9  17  31  51  74 101 130 158 195 244 294
#     4   9  19  35  53  73  97 125 161 205 248 292
#
# _framework density 17.784009999999999
#
# number of rings (size 3 to 8) (size 9 to 14) (size 15 to 20)
#    0.000    2.750    0.000    1.500    0.000    4.500 
#    0.000    3.750    0.000    6.000    0.000    0.000 
#    0.000    0.000    0.000    0.000    0.000    0.000 
#
# Total GULP energy -793096.857848 kJ/mol
# GULP energy per Si atom -12392.138404 kJ/mol
# Density = 1.774353 g / cm^3
# Si number density = 17.784010 Si / 1000 Ang^3
#
#
#
# Elastic Constant Matrix: (Units=GPa)
#
#
# Indices 1 2 3 4 5 6 
#
# 1 110.9598 51.8591 33.4847 0.0000 0.0000 0.0000
# 2 51.8591 95.3801 30.3222 0.0000 0.0000 0.0000
# 3 33.4847 30.3222 48.5166 0.0000 0.0000 0.0000
# 4 0.0000 0.0000 0.0000 22.5705 0.0000 0.0000
# 5 0.0000 0.0000 0.0000 0.0000 27.8551 0.0000
# 6 0.0000 0.0000 0.0000 0.0000 0.0000 32.9947
#
#
#
# Elastic Compliance Matrix: (Units=1/GPa)
#
#
# Indices 1 2 3 4 5 6 
#
# 1 0.013275 -0.005372 -0.005804 0.000000 0.000000 0.000000
# 2 -0.005372 0.015258 -0.005828 0.000000 0.000000 0.000000
# 3 -0.005804 -0.005828 0.028260 0.000000 0.000000 0.000000
# 4 0.000000 0.000000 0.000000 0.044306 0.000000 0.000000
# 5 0.000000 0.000000 0.000000 0.000000 0.035900 0.000000
# 6 0.000000 0.000000 0.000000 0.000000 0.000000 0.030308
#
#
# Mechanical properties :
#
#
# Convention : Reuss Voigt Hill
#
# Bulk Modulus (GPa) = 43.89198 54.02093 48.95646
# Shear Modulus (GPa) = 23.93369 25.96344 24.94856
#
# Velocity S-wave (km/s) = 3.67249 3.82505 3.74955
# Velocity P-wave (km/s) = 6.53583 7.06754 6.80688
#
# Compressibility (1/GPa) = 0.02278321
#
# Stress axis : x y z
#
# Youngs Moduli (GPa) = 75.33140 65.53819 35.38578
#
# Poissons Ratio (x) = 0.35210 0.20538
# Poissons Ratio (y) = 0.40471 0.20624
# Poissons Ratio (z) = 0.43723 0.38198
#
# Static dielectric constant tensor:
#      x y z
#    x 3.227620 0.000000 0.000000 
#    y 0.000000 3.698970 0.000000 
#    z 0.000000 0.000000 3.370380 
# 
# 
# High freq. dielectric constant tensor:
#      x y z
#    x 1.677000 0.000000 0.000000 
#    y 0.000000 1.696700 0.000000 
#    z 0.000000 0.000000 1.663780 
# 
# From -- ./inp_files/30074.got.cif
#   From: 2010.03.12/outbox.cif.g09.slc.cpg/sg62_16_cif.got.tgz:30074.got - 2010.04.10 19:12:36.
