data_PCOD8250093
_publ_section_title
;
Structure prediction by ZEFSAII (Michael W. Deem and Ramdas Pophale) SiO2 
 PCOD8250093
Probable space group: P N M A
;
_chemical_formula_sum "Si O2"
_cell_formula_units_Z 56
_cell_length_a 8.883496
_cell_length_b 20.725087
_cell_length_c 16.997516
_cell_angle_alpha 90.000000
_cell_angle_beta 90.000000
_cell_angle_gamma 90.000000
_cell_volume 3129.433535
_symmetry_space_group_name_H-M "P N M A"
_symmetry_group_IT_number 62
_symmetry_cell_setting 'orthorhombic'
loop_
_space_group_symop_operation_xyz
x,y,z
1/2-x,-y,1/2+z
1/2+x,1/2-y,1/2-z
-x,1/2+y,-z
-x,-y,-z
1/2+x,y,1/2-z
1/2-x,1/2+y,1/2+z
x,1/2-y,z
loop_
_atom_site_type_symbol
_atom_site_label
_atom_site_fract_x
_atom_site_fract_y
_atom_site_fract_z
Si Si1 0.350311 0.411404 0.404598
Si Si2 0.398345 0.551082 0.339093
Si Si3 0.151692 0.462389 0.520253
Si Si4 0.972142 0.325849 0.222153
Si Si5 0.243678 0.538042 0.181673
Si Si6 0.153540 0.082455 0.005726
Si Si7 0.772233 0.385963 0.339354
O O1 0.366716 0.476005 0.353737
O O2 0.191107 0.409201 0.453151
O O3 0.355913 0.351745 0.344358
O O4 0.484754 0.405569 0.466979
O O5 0.309694 0.570249 0.260368
O O6 0.574706 0.563337 0.327366
O O7 0.336722 0.596101 0.411732
O O8 0.150815 0.435691 0.609435
O O9 0.300312 0.507860 0.516860
O O10 0.000000 0.500000 0.500000
O O11 0.955428 0.250000 0.227734
O O12 0.928523 0.357923 0.306378
O O13 0.140848 0.345250 0.201748
O O14 0.251192 0.460484 0.183818
O O15 0.264748 0.122783 0.064664
#
# Coordination Sequence:
#
# PCOD8250093 Si02
#       7
#     8   8   8   8   8   8   8
#     4  10  17  34  48  57  99 135 157 202 246 284
#     4  11  18  30  46  68  93 125 168 191 245 296
#     4  10  19  28  44  70  93 125 169 196 237 302
#     4  11  21  32  50  72  94 128 175 209 236 279
#     4  11  19  29  47  68  95 130 162 200 240 302
#     4   9  18  33  47  60  91 136 157 189 248 303
#     4  10  19  34  48  65  96 133 162 202 250 284
#
# _framework density 17.894611999999999
#
# number of rings (size 3 to 8) (size 9 to 14) (size 15 to 20)
#    0.000    1.714    7.143    1.286    4.000    2.286 
#    0.000    0.000    0.000    0.000    0.000    0.000 
#    0.000    5.714    0.000    0.000    0.000    0.000 
#
# Total GULP energy -693772.576306 kJ/mol
# GULP energy per Si atom -12388.796005 kJ/mol
# Density = 1.785388 g / cm^3
# Si number density = 17.894612 Si / 1000 Ang^3
#
#
#
# Elastic Constant Matrix: (Units=GPa)
#
#
# Indices 1 2 3 4 5 6 
#
# 1 34.7570 2.7557 38.5033 0.0000 0.0000 0.0000
# 2 2.7557 25.6310 3.5729 0.0000 0.0000 0.0000
# 3 38.5033 3.5729 146.5751 0.0000 0.0000 0.0000
# 4 0.0000 0.0000 0.0000 11.8319 0.0000 0.0000
# 5 0.0000 0.0000 0.0000 0.0000 35.8368 0.0000
# 6 0.0000 0.0000 0.0000 0.0000 0.0000 8.4174
#
#
#
# Elastic Compliance Matrix: (Units=1/GPa)
#
#
# Indices 1 2 3 4 5 6 
#
# 1 0.040794 -0.002902 -0.010645 0.000000 0.000000 0.000000
# 2 -0.002902 0.039355 -0.000197 0.000000 0.000000 0.000000
# 3 -0.010645 -0.000197 0.009624 0.000000 0.000000 0.000000
# 4 0.000000 0.000000 0.000000 0.084518 0.000000 0.000000
# 5 0.000000 0.000000 0.000000 0.000000 0.027904 0.000000
# 6 0.000000 0.000000 0.000000 0.000000 0.000000 0.118802
#
#
# Mechanical properties :
#
#
# Convention : Reuss Voigt Hill
#
# Bulk Modulus (GPa) = 16.05556 32.95854 24.50705
# Shear Modulus (GPa) = 13.54111 22.02595 17.78353
#
# Velocity S-wave (km/s) = 2.75383 3.51218 3.15587
# Velocity P-wave (km/s) = 4.37072 5.90808 5.19656
#
# Compressibility (1/GPa) = 0.06228373
#
# Stress axis : x y z
#
# Youngs Moduli (GPa) = 24.51344 25.40990 103.91104
#
# Poissons Ratio (x) = 0.07374 1.10616
# Poissons Ratio (y) = 0.07114 0.02047
# Poissons Ratio (z) = 0.26095 0.00501
#
# Static dielectric constant tensor:
#      x y z
#    x 3.319510 0.000000 0.000000 
#    y 0.000000 2.720600 0.000000 
#    z 0.000000 0.000000 3.957790 
# 
# 
# High freq. dielectric constant tensor:
#      x y z
#    x 1.695000 0.000000 0.000000 
#    y 0.000000 1.601600 0.000000 
#    z 0.000000 0.000000 1.717240 
# 
# From -- ./inp_files/22507.got.cif
#   From: 2010.03.12/outbox.cif.g09.slc.cpg/sg62_12_cif.got.tgz:22507.got - 2010.04.10 19:12:36.
