data_PCOD8250923
_publ_section_title
;
Structure prediction by ZEFSAII (Michael W. Deem and Ramdas Pophale) SiO2 
 PCOD8250923
Probable space group: P N M A
;
_chemical_formula_sum "Si O2"
_cell_formula_units_Z 64
_cell_length_a 26.064720
_cell_length_b 9.000035
_cell_length_c 18.395574
_cell_angle_alpha 90.000000
_cell_angle_beta 90.000000
_cell_angle_gamma 90.000000
_cell_volume 4315.296152
_symmetry_space_group_name_H-M "P N M A"
_symmetry_group_IT_number 62
_symmetry_cell_setting 'orthorhombic'
loop_
_space_group_symop_operation_xyz
x,y,z
1/2-x,-y,1/2+z
1/2+x,1/2-y,1/2-z
-x,1/2+y,-z
-x,-y,-z
1/2+x,y,1/2-z
1/2-x,1/2+y,1/2+z
x,1/2-y,z
loop_
_atom_site_type_symbol
_atom_site_label
_atom_site_fract_x
_atom_site_fract_y
_atom_site_fract_z
Si Si1 0.650546 0.573581 0.154245
Si Si2 0.196698 0.416919 0.214457
Si Si3 0.055636 0.421709 0.416137
Si Si4 0.351343 0.924645 0.168656
Si Si5 0.549327 0.422338 0.915326
Si Si6 0.694826 0.914282 0.706401
Si Si7 0.248170 0.924625 0.091464
Si Si8 0.743263 0.425221 0.074135
O O1 0.653774 0.750000 0.156529
O O2 0.657988 0.510759 0.235643
O O3 0.595138 0.522189 0.127704
O O4 0.692851 0.512918 0.098312
O O5 0.175358 0.250000 0.204527
O O6 0.251364 0.415369 0.252706
O O7 0.202921 0.493533 0.135662
O O8 0.061682 0.250000 0.393652
O O9 0.065883 0.443964 0.501411
O O10 0.999054 0.477029 0.395146
O O11 0.352442 0.750000 0.171386
O O12 0.404014 0.983176 0.133848
O O13 0.303934 0.979414 0.119094
O O14 0.345557 0.981900 0.251602
O O15 0.536467 0.250000 0.899833
O O16 0.670819 0.750000 0.705221
O O17 0.707488 0.968747 0.624244
O O18 0.241818 0.750000 0.103880
O O19 0.242449 0.969431 0.007570
O O20 0.730849 0.250000 0.081996
#
# Coordination Sequence:
#
# PCOD8250923 Si02
#       8
#     8   8   8   8   8   8   8   8
#     4  11  20  29  43  61  82 111 146 177 207 248
#     4   9  17  29  42  58  82 109 138 173 210 245
#     4  10  19  31  45  60  81 108 138 175 215 249
#     4   9  16  26  41  58  79 108 138 169 203 241
#     4   9  18  31  44  60  82 108 139 173 209 247
#     4   8  15  26  39  56  79 107 137 168 201 239
#     4   9  16  27  43  62  84 111 141 170 206 249
#     4   9  17  29  43  60  85 114 141 173 211 247
#
# _framework density 14.830963000000001
#
# number of rings (size 3 to 8) (size 9 to 14) (size 15 to 20)
#    0.000    2.750    0.000    3.375    0.000    6.500 
#    0.000    2.500    0.000    0.000    0.000    0.000 
#    0.000    1.000    0.000    3.000    0.000    4.625 
#
# Total GULP energy -793445.532948 kJ/mol
# GULP energy per Si atom -12397.586452 kJ/mol
# Density = 1.479721 g / cm^3
# Si number density = 14.830963 Si / 1000 Ang^3
#
#
#
# Elastic Constant Matrix: (Units=GPa)
#
#
# Indices 1 2 3 4 5 6 
#
# 1 66.8872 35.1212 49.0338 0.0000 0.0000 0.0000
# 2 35.1212 65.7571 41.8742 0.0000 0.0000 0.0000
# 3 49.0338 41.8742 111.5309 0.0000 0.0000 0.0000
# 4 0.0000 0.0000 0.0000 24.1578 0.0000 0.0000
# 5 0.0000 0.0000 0.0000 0.0000 23.8860 0.0000
# 6 0.0000 0.0000 0.0000 0.0000 0.0000 22.6127
#
#
#
# Elastic Compliance Matrix: (Units=1/GPa)
#
#
# Indices 1 2 3 4 5 6 
#
# 1 0.025158 -0.008403 -0.007906 0.000000 0.000000 0.000000
# 2 -0.008403 0.022792 -0.004863 0.000000 0.000000 0.000000
# 3 -0.007906 -0.004863 0.014268 0.000000 0.000000 0.000000
# 4 0.000000 0.000000 0.000000 0.041394 0.000000 0.000000
# 5 0.000000 0.000000 0.000000 0.000000 0.041866 0.000000
# 6 0.000000 0.000000 0.000000 0.000000 0.000000 0.044223
#
#
# Mechanical properties :
#
#
# Convention : Reuss Voigt Hill
#
# Bulk Modulus (GPa) = 50.31483 55.13707 52.72595
# Shear Modulus (GPa) = 20.94945 22.00770 21.47857
#
# Velocity S-wave (km/s) = 3.76247 3.85632 3.80968
# Velocity P-wave (km/s) = 7.27145 7.55553 7.41485
#
# Compressibility (1/GPa) = 0.01987486
#
# Stress axis : x y z
#
# Youngs Moduli (GPa) = 39.74828 43.87452 70.08810
#
# Poissons Ratio (x) = 0.36866 0.55411
# Poissons Ratio (y) = 0.33399 0.34085
# Poissons Ratio (z) = 0.31425 0.21337
#
# Static dielectric constant tensor:
#      x y z
#    x 2.682250 0.000000 0.000000 
#    y 0.000000 2.927830 0.000000 
#    z 0.000000 0.000000 3.022380 
# 
# 
# High freq. dielectric constant tensor:
#      x y z
#    x 1.531830 0.000000 0.000000 
#    y 0.000000 1.573090 0.000000 
#    z 0.000000 0.000000 1.558930 
# 
# From -- ./inp_files/24904.got.cif
#   From: 2010.03.12/outbox.cif.g09.slc.cpg/sg62_13_cif.got.tgz:24904.got - 2010.04.10 19:12:36.
