data_PCOD8250066
_publ_section_title
;
Structure prediction by ZEFSAII (Michael W. Deem and Ramdas Pophale) SiO2 
 PCOD8250066
Probable space group: P N M A
;
_chemical_formula_sum "Si O2"
_cell_formula_units_Z 56
_cell_length_a 15.276145
_cell_length_b 9.463527
_cell_length_c 21.085854
_cell_angle_alpha 90.000000
_cell_angle_beta 90.000000
_cell_angle_gamma 90.000000
_cell_volume 3048.302011
_symmetry_space_group_name_H-M "P N M A"
_symmetry_group_IT_number 62
_symmetry_cell_setting 'orthorhombic'
loop_
_space_group_symop_operation_xyz
x,y,z
1/2-x,-y,1/2+z
1/2+x,1/2-y,1/2-z
-x,1/2+y,-z
-x,-y,-z
1/2+x,y,1/2-z
1/2-x,1/2+y,1/2+z
x,1/2-y,z
loop_
_atom_site_type_symbol
_atom_site_label
_atom_site_fract_x
_atom_site_fract_y
_atom_site_fract_z
Si Si1 0.170255 0.580995 0.776546
Si Si2 0.524293 0.092842 0.274682
Si Si3 0.698325 0.080618 0.334478
Si Si4 0.945652 0.907765 0.632160
Si Si5 0.253554 0.091326 0.543511
Si Si6 0.548182 0.091877 0.947836
Si Si7 0.258323 0.582595 0.904361
O O1 0.169647 0.750000 0.773176
O O2 0.230625 0.526282 0.717839
O O3 0.204540 0.522424 0.844327
O O4 0.071013 0.517562 0.771878
O O5 0.506824 0.250000 0.300766
O O6 0.600231 0.023268 0.317976
O O7 0.569695 0.098899 0.206559
O O8 0.700616 0.250000 0.337971
O O9 0.716334 0.018134 0.403665
O O10 0.966774 0.750000 0.605809
O O11 0.858329 0.971245 0.599792
O O12 0.026520 0.012583 0.618184
O O13 0.289097 0.250000 0.558022
O O14 0.149924 0.095603 0.540545
O O15 0.284124 0.040265 0.472672
O O16 0.509832 0.250000 0.946741
O O17 0.500000 0.000000 0.000000
O O18 0.261359 0.750000 0.898027
#
# Coordination Sequence:
#
# PCOD8250066 Si02
#       7
#     8   8   8   8   8   8   8
#     4   9  16  29  52  79 102 132 173 215 258 303
#     4   9  17  29  51  80 104 128 171 224 263 301
#     4  10  19  33  54  80 105 131 169 220 267 303
#     4  10  17  31  52  75 104 134 167 214 265 312
#     4  10  21  35  49  70 104 142 172 205 255 316
#     4  11  21  32  48  73 104 136 172 210 256 314
#     4   9  16  30  50  70 100 140 174 202 248 315
#
# _framework density 18.370882999999999
#
# number of rings (size 3 to 8) (size 9 to 14) (size 15 to 20)
#    0.000    2.286    2.857    1.286    0.000    2.286 
#    0.000    1.429    0.000    1.714    0.000    0.000 
#    0.000    0.000    0.000    0.000    0.000    0.000 
#
# Total GULP energy -693787.884760 kJ/mol
# GULP energy per Si atom -12389.069371 kJ/mol
# Density = 1.832907 g / cm^3
# Si number density = 18.370883 Si / 1000 Ang^3
#
#
#
# Elastic Constant Matrix: (Units=GPa)
#
#
# Indices 1 2 3 4 5 6 
#
# 1 83.7871 16.3436 42.3240 0.0000 0.0000 0.0000
# 2 16.3436 45.8243 22.4088 0.0000 0.0000 0.0000
# 3 42.3240 22.4088 122.4079 0.0000 0.0000 0.0000
# 4 0.0000 0.0000 0.0000 23.9825 0.0000 0.0000
# 5 0.0000 0.0000 0.0000 0.0000 31.3126 0.0000
# 6 0.0000 0.0000 0.0000 0.0000 0.0000 13.4869
#
#
#
# Elastic Compliance Matrix: (Units=1/GPa)
#
#
# Indices 1 2 3 4 5 6 
#
# 1 0.014841 -0.003057 -0.004572 0.000000 0.000000 0.000000
# 2 -0.003057 0.024598 -0.003446 0.000000 0.000000 0.000000
# 3 -0.004572 -0.003446 0.010381 0.000000 0.000000 0.000000
# 4 0.000000 0.000000 0.000000 0.041697 0.000000 0.000000
# 5 0.000000 0.000000 0.000000 0.000000 0.031936 0.000000
# 6 0.000000 0.000000 0.000000 0.000000 0.000000 0.074146
#
#
# Mechanical properties :
#
#
# Convention : Reuss Voigt Hill
#
# Bulk Modulus (GPa) = 36.14067 46.01912 41.07990
# Shear Modulus (GPa) = 21.83672 25.15259 23.49466
#
# Velocity S-wave (km/s) = 3.45143 3.70422 3.58006
# Velocity P-wave (km/s) = 5.96647 6.58783 6.28483
#
# Compressibility (1/GPa) = 0.02766966
#
# Stress axis : x y z
#
# Youngs Moduli (GPa) = 67.38218 40.65361 96.33035
#
# Poissons Ratio (x) = 0.12430 0.44039
# Poissons Ratio (y) = 0.20602 0.33195
# Poissons Ratio (z) = 0.30805 0.14009
#
# Static dielectric constant tensor:
#      x y z
#    x 3.545680 0.000000 0.000000 
#    y 0.000000 3.419060 0.000000 
#    z 0.000000 0.000000 3.670280 
# 
# 
# High freq. dielectric constant tensor:
#      x y z
#    x 1.704490 0.000000 0.000000 
#    y 0.000000 1.656320 0.000000 
#    z 0.000000 0.000000 1.722360 
# 
# From -- ./inp_files/27225.got.cif
#   From: 2010.03.12/outbox.cif.g09.slc.cpg/sg62_14_cif.got.tgz:27225.got - 2010.04.10 19:12:36.
