data_PCOD8250917
_publ_section_title
;
Structure prediction by ZEFSAII (Michael W. Deem and Ramdas Pophale) SiO2 
 PCOD8250917
Probable space group: P N M A
;
_chemical_formula_sum "Si O2"
_cell_formula_units_Z 64
_cell_length_a 19.682423
_cell_length_b 9.640927
_cell_length_c 17.242913
_cell_angle_alpha 90.000000
_cell_angle_beta 90.000000
_cell_angle_gamma 90.000000
_cell_volume 3271.960051
_symmetry_space_group_name_H-M "P N M A"
_symmetry_group_IT_number 62
_symmetry_cell_setting 'orthorhombic'
loop_
_space_group_symop_operation_xyz
x,y,z
1/2-x,-y,1/2+z
1/2+x,1/2-y,1/2-z
-x,1/2+y,-z
-x,-y,-z
1/2+x,y,1/2-z
1/2-x,1/2+y,1/2+z
x,1/2-y,z
loop_
_atom_site_type_symbol
_atom_site_label
_atom_site_fract_x
_atom_site_fract_y
_atom_site_fract_z
Si Si1 0.154448 0.903891 0.768159
Si Si2 0.012019 0.959537 0.088630
Si Si3 0.268358 0.407232 0.111214
Si Si4 0.983033 0.089201 0.618540
Si Si5 0.364302 0.901762 0.402491
Si Si6 0.343836 0.403633 0.548968
Si Si7 0.593419 0.908251 0.966074
Si Si8 0.498032 0.902525 0.744782
O O1 0.165300 0.750000 0.804463
O O2 0.203730 0.928170 0.696922
O O3 0.077811 0.916619 0.738162
O O4 0.171192 0.022265 0.830515
O O5 0.944815 0.874481 0.112961
O O6 0.083739 0.880322 0.091977
O O7 0.017549 0.081589 0.152742
O O8 0.000000 0.000000 0.000000
O O9 0.240996 0.250000 0.099849
O O10 0.208501 0.518508 0.104718
O O11 0.327117 0.438843 0.048073
O O12 0.000135 0.250000 0.634689
O O13 0.921090 0.073500 0.557740
O O14 0.049259 0.015479 0.583300
O O15 0.961517 0.015926 0.699722
O O16 0.330570 0.750000 0.414491
O O17 0.352320 0.999922 0.474886
O O18 0.316682 0.250000 0.527067
O O19 0.575882 0.750000 0.939647
O O20 0.471635 0.750000 0.768159
#
# Coordination Sequence:
#
# PCOD8250917 Si02
#       8
#     8   8   8   8   8   8   8   8
#     4   9  18  34  56  81 109 143 180 225 276 326
#     4   9  21  38  58  83 109 141 184 237 290 340
#     4  10  20  37  58  79 110 152 194 230 274 337
#     4  10  19  30  52  84 115 145 185 234 279 325
#     4  10  20  36  60  85 109 140 183 231 280 337
#     4  11  23  38  56  81 113 147 184 230 283 338
#     4   9  18  35  54  76 110 152 190 229 278 327
#     4  10  19  34  57  84 115 147 182 224 282 341
#
# _framework density 19.560140000000001
#
# number of rings (size 3 to 8) (size 9 to 14) (size 15 to 20)
#    0.000    2.250    1.250    1.500    0.000    9.500 
#    0.000    1.250    0.000    1.500    0.000    0.000 
#    0.000    0.000    0.000    0.000    0.000    0.000 
#
# Total GULP energy -793025.471155 kJ/mol
# GULP energy per Si atom -12391.022987 kJ/mol
# Density = 1.951562 g / cm^3
# Si number density = 19.560140 Si / 1000 Ang^3
#
#
#
# Elastic Constant Matrix: (Units=GPa)
#
#
# Indices 1 2 3 4 5 6 
#
# 1 67.0061 39.5265 31.8143 0.0000 0.0000 0.0000
# 2 39.5265 164.9178 69.2866 0.0000 0.0000 0.0000
# 3 31.8143 69.2866 111.5305 0.0000 0.0000 0.0000
# 4 0.0000 0.0000 0.0000 28.1733 0.0000 0.0000
# 5 0.0000 0.0000 0.0000 0.0000 21.1287 0.0000
# 6 0.0000 0.0000 0.0000 0.0000 0.0000 9.1301
#
#
#
# Elastic Compliance Matrix: (Units=1/GPa)
#
#
# Indices 1 2 3 4 5 6 
#
# 1 0.018273 -0.002963 -0.003372 0.000000 0.000000 0.000000
# 2 -0.002963 0.008686 -0.004551 0.000000 0.000000 0.000000
# 3 -0.003372 -0.004551 0.012755 0.000000 0.000000 0.000000
# 4 0.000000 0.000000 0.000000 0.035495 0.000000 0.000000
# 5 0.000000 0.000000 0.000000 0.000000 0.047329 0.000000
# 6 0.000000 0.000000 0.000000 0.000000 0.000000 0.109527
#
#
# Mechanical properties :
#
#
# Convention : Reuss Voigt Hill
#
# Bulk Modulus (GPa) = 55.73260 69.41213 62.57236
# Shear Modulus (GPa) = 19.24442 25.20823 22.22632
#
# Velocity S-wave (km/s) = 3.14006 3.59382 3.37457
# Velocity P-wave (km/s) = 6.45766 7.26528 6.87334
#
# Compressibility (1/GPa) = 0.01794282
#
# Stress axis : x y z
#
# Youngs Moduli (GPa) = 54.72644 115.13293 78.40122
#
# Poissons Ratio (x) = 0.34114 0.26434
# Poissons Ratio (y) = 0.16215 0.35677
# Poissons Ratio (z) = 0.18452 0.52392
#
# Static dielectric constant tensor:
#      x y z
#    x 3.473810 0.000000 0.000000 
#    y 0.000000 3.649830 0.000000 
#    z 0.000000 0.000000 3.588850 
# 
# 
# High freq. dielectric constant tensor:
#      x y z
#    x 1.728090 0.000000 0.000000 
#    y 0.000000 1.766620 0.000000 
#    z 0.000000 0.000000 1.763770 
# 
# From -- ./inp_files/24787.got.cif
#   From: 2010.03.12/outbox.cif.g09.slc.cpg/sg62_13_cif.got.tgz:24787.got - 2010.04.10 19:12:36.
