data_PCOD8250993
_publ_section_title
;
Structure prediction by ZEFSAII (Michael W. Deem and Ramdas Pophale) SiO2 
 PCOD8250993
Probable space group: P N M A
;
_chemical_formula_sum "Si O2"
_cell_formula_units_Z 64
_cell_length_a 19.900926
_cell_length_b 12.611886
_cell_length_c 15.185645
_cell_angle_alpha 90.000000
_cell_angle_beta 90.000000
_cell_angle_gamma 90.000000
_cell_volume 3811.417856
_symmetry_space_group_name_H-M "P N M A"
_symmetry_group_IT_number 62
_symmetry_cell_setting 'orthorhombic'
loop_
_space_group_symop_operation_xyz
x,y,z
1/2-x,-y,1/2+z
1/2+x,1/2-y,1/2-z
-x,1/2+y,-z
-x,-y,-z
1/2+x,y,1/2-z
1/2-x,1/2+y,1/2+z
x,1/2-y,z
loop_
_atom_site_type_symbol
_atom_site_label
_atom_site_fract_x
_atom_site_fract_y
_atom_site_fract_z
Si Si1 0.972900 0.125547 0.254855
Si Si2 0.392158 0.496805 0.742400
Si Si3 0.781453 0.872289 0.853748
Si Si4 0.634061 0.623882 0.894166
Si Si5 0.195352 0.131671 0.943666
Si Si6 0.918952 0.483398 0.088833
Si Si7 0.048849 0.624932 0.084649
Si Si8 0.349691 0.371953 0.911054
O O1 0.982081 0.250000 0.261000
O O2 0.928811 0.082695 0.337038
O O3 0.932195 0.097786 0.167225
O O4 0.046394 0.076773 0.253998
O O5 0.325594 0.559816 0.714016
O O6 0.409352 0.407452 0.670752
O O7 0.382118 0.442373 0.835853
O O8 0.783783 0.750000 0.823216
O O9 0.704898 0.917084 0.853620
O O10 0.811535 0.883752 0.951488
O O11 0.639776 0.750000 0.895597
O O12 0.623571 0.585081 0.994584
O O13 0.170912 0.250000 0.919301
O O14 0.149995 0.045811 0.893854
O O15 0.270001 0.114950 0.908987
O O16 0.976032 0.572129 0.082116
O O17 0.910978 0.414077 0.000880
O O18 0.039558 0.750000 0.083070
O O19 0.370654 0.250000 0.896353
#
# Coordination Sequence:
#
# PCOD8250993 Si02
#       8
#     8   8   8   8   8   8   8   8
#     4  10  21  34  50  74 104 135 173 216 253 297
#     4  11  20  31  51  78 101 133 170 209 257 302
#     4   9  17  31  51  74 101 133 168 208 248 299
#     4   8  17  35  53  71  97 132 170 210 254 294
#     4   9  17  32  52  74 100 128 169 213 249 301
#     4  10  19  31  49  75  98 137 171 197 255 301
#     4  10  20  32  45  69 106 136 163 200 249 307
#     4   9  19  34  53  75  98 130 173 216 254 300
#
# _framework density 16.791651999999999
#
# number of rings (size 3 to 8) (size 9 to 14) (size 15 to 20)
#    0.000    2.500    1.250    3.000    1.750    0.500 
#    0.000    0.000    0.000    0.000    0.000    2.625 
#    0.000    0.000    0.000    0.000    0.000    0.000 
#
# Total GULP energy -793528.076189 kJ/mol
# GULP energy per Si atom -12398.876190 kJ/mol
# Density = 1.675343 g / cm^3
# Si number density = 16.791652 Si / 1000 Ang^3
#
#
#
# Elastic Constant Matrix: (Units=GPa)
#
#
# Indices 1 2 3 4 5 6 
#
# 1 50.3513 24.5212 52.9587 0.0000 0.0000 0.0000
# 2 24.5212 65.8556 41.9830 0.0000 0.0000 0.0000
# 3 52.9587 41.9830 112.6246 0.0000 0.0000 0.0000
# 4 0.0000 0.0000 0.0000 24.8476 0.0000 0.0000
# 5 0.0000 0.0000 0.0000 0.0000 28.0125 0.0000
# 6 0.0000 0.0000 0.0000 0.0000 0.0000 14.3166
#
#
#
# Elastic Compliance Matrix: (Units=1/GPa)
#
#
# Indices 1 2 3 4 5 6 
#
# 1 0.040010 -0.003809 -0.017394 0.000000 0.000000 0.000000
# 2 -0.003809 0.020281 -0.005769 0.000000 0.000000 0.000000
# 3 -0.017394 -0.005769 0.019208 0.000000 0.000000 0.000000
# 4 0.000000 0.000000 0.000000 0.040245 0.000000 0.000000
# 5 0.000000 0.000000 0.000000 0.000000 0.035698 0.000000
# 6 0.000000 0.000000 0.000000 0.000000 0.000000 0.069849
#
#
# Mechanical properties :
#
#
# Convention : Reuss Voigt Hill
#
# Bulk Modulus (GPa) = 39.13025 51.97306 45.55165
# Shear Modulus (GPa) = 17.37597 20.72657 19.05127
#
# Velocity S-wave (km/s) = 3.22032 3.51713 3.37199
# Velocity P-wave (km/s) = 6.09764 6.89293 6.50745
#
# Compressibility (1/GPa) = 0.02555568
#
# Stress axis : x y z
#
# Youngs Moduli (GPa) = 24.99381 49.30787 52.06041
#
# Poissons Ratio (x) = 0.18782 0.90552
# Poissons Ratio (y) = 0.09520 0.30033
# Poissons Ratio (z) = 0.43473 0.28445
#
# Static dielectric constant tensor:
#      x y z
#    x 3.124020 0.000000 0.000000 
#    y 0.000000 2.965650 0.000000 
#    z 0.000000 0.000000 3.202440 
# 
# 
# High freq. dielectric constant tensor:
#      x y z
#    x 1.646810 0.000000 0.000000 
#    y 0.000000 1.633220 0.000000 
#    z 0.000000 0.000000 1.645280 
# 
# From -- ./inp_files/19887.got.cif
#   From: 2010.03.12/outbox.cif.g09.slc.cpg/sg62_10_cif.got.tgz:19887.got - 2010.04.10 19:12:36.
