data_PCOD8250790
_publ_section_title
;
Structure prediction by ZEFSAII (Michael W. Deem and Ramdas Pophale) SiO2 
 PCOD8250790
Probable space group: P N M A
;
_chemical_formula_sum "Si O2"
_cell_formula_units_Z 56
_cell_length_a 18.186356
_cell_length_b 8.963252
_cell_length_c 21.030423
_cell_angle_alpha 90.000000
_cell_angle_beta 90.000000
_cell_angle_gamma 90.000000
_cell_volume 3428.145947
_symmetry_space_group_name_H-M "P N M A"
_symmetry_group_IT_number 62
_symmetry_cell_setting 'orthorhombic'
loop_
_space_group_symop_operation_xyz
x,y,z
1/2-x,-y,1/2+z
1/2+x,1/2-y,1/2-z
-x,1/2+y,-z
-x,-y,-z
1/2+x,y,1/2-z
1/2-x,1/2+y,1/2+z
x,1/2-y,z
loop_
_atom_site_type_symbol
_atom_site_label
_atom_site_fract_x
_atom_site_fract_y
_atom_site_fract_z
Si Si1 0.858441 0.421313 0.877676
Si Si2 0.786503 0.579630 0.685424
Si Si3 0.723159 0.082306 0.800718
Si Si4 0.573686 0.075734 0.255849
Si Si5 0.662080 0.076556 0.623394
Si Si6 0.425664 0.580534 0.248966
Si Si7 0.579313 0.072792 0.499187
O O1 0.881754 0.250000 0.890518
O O2 0.770026 0.433704 0.865596
O O3 0.903665 0.478104 0.816727
O O4 0.875877 0.522993 0.937562
O O5 0.773577 0.750000 0.668283
O O6 0.750842 0.543994 0.753339
O O7 0.873263 0.543023 0.694957
O O8 0.744912 0.488416 0.630187
O O9 0.736897 0.250000 0.771948
O O10 0.634858 0.062267 0.807988
O O11 0.576868 0.250000 0.274260
O O12 0.492131 0.030535 0.234378
O O13 0.672225 0.250000 0.615414
O O14 0.612646 0.035533 0.684410
O O15 0.622866 0.011958 0.560778
O O16 0.455169 0.750000 0.252125
O O17 0.570761 0.250000 0.499780
O O18 0.500000 0.000000 0.500000
#
# Coordination Sequence:
#
# PCOD8250790 Si02
#       7
#     8   8   8   8   8   8   8
#     4  10  19  32  48  65  89 123 156 186 221 263
#     4   9  17  28  44  65  88 114 147 184 223 265
#     4   8  16  30  46  63  86 116 150 184 221 266
#     4  10  19  29  43  68  96 119 146 184 227 269
#     4   9  19  33  46  62  88 120 153 184 217 261
#     4   9  16  28  46  67  89 116 149 184 223 269
#     4  11  22  34  48  68  93 122 155 188 219 259
#
# _framework density 16.335360000000001
#
# number of rings (size 3 to 8) (size 9 to 14) (size 15 to 20)
#    0.000    2.571    0.000    3.429    0.000    6.857 
#    0.000    0.000    0.000    0.000    0.000    1.000 
#    0.000    0.000    0.000    0.000    0.000    0.000 
#
# Total GULP energy -693990.210409 kJ/mol
# GULP energy per Si atom -12392.682329 kJ/mol
# Density = 1.629818 g / cm^3
# Si number density = 16.335360 Si / 1000 Ang^3
#
#
#
# Elastic Constant Matrix: (Units=GPa)
#
#
# Indices 1 2 3 4 5 6 
#
# 1 122.0488 43.8305 49.9386 0.0000 0.0000 0.0000
# 2 43.8305 52.4389 24.1242 0.0000 0.0000 0.0000
# 3 49.9386 24.1242 65.0492 0.0000 0.0000 0.0000
# 4 0.0000 0.0000 0.0000 21.8182 0.0000 0.0000
# 5 0.0000 0.0000 0.0000 0.0000 25.4181 0.0000
# 6 0.0000 0.0000 0.0000 0.0000 0.0000 27.0179
#
#
#
# Elastic Compliance Matrix: (Units=1/GPa)
#
#
# Indices 1 2 3 4 5 6 
#
# 1 0.014497 -0.008436 -0.008000 0.000000 0.000000 0.000000
# 2 -0.008436 0.027902 -0.003871 0.000000 0.000000 0.000000
# 3 -0.008000 -0.003871 0.022951 0.000000 0.000000 0.000000
# 4 0.000000 0.000000 0.000000 0.045833 0.000000 0.000000
# 5 0.000000 0.000000 0.000000 0.000000 0.039342 0.000000
# 6 0.000000 0.000000 0.000000 0.000000 0.000000 0.037013
#
#
# Mechanical properties :
#
#
# Convention : Reuss Voigt Hill
#
# Bulk Modulus (GPa) = 40.43103 52.81372 46.62238
# Shear Modulus (GPa) = 21.15080 22.96042 22.05561
#
# Velocity S-wave (km/s) = 3.60222 3.75315 3.67846
# Velocity P-wave (km/s) = 6.48889 7.15421 6.82965
#
# Compressibility (1/GPa) = 0.02473348
#
# Stress axis : x y z
#
# Youngs Moduli (GPa) = 68.98146 35.83953 43.57176
#
# Poissons Ratio (x) = 0.30235 0.34859
# Poissons Ratio (y) = 0.58195 0.16868
# Poissons Ratio (z) = 0.55188 0.13874
#
# Static dielectric constant tensor:
#      x y z
#    x 3.318520 0.000000 0.000000 
#    y 0.000000 3.140780 0.000000 
#    z 0.000000 0.000000 2.928770 
# 
# 
# High freq. dielectric constant tensor:
#      x y z
#    x 1.633430 0.000000 0.000000 
#    y 0.000000 1.638410 0.000000 
#    z 0.000000 0.000000 1.582180 
# 
# From -- ./inp_files/27513.got.cif
#   From: 2010.03.12/outbox.cif.g09.slc.cpg/sg62_14_cif.got.tgz:27513.got - 2010.04.10 19:12:36.
