data_PCOD8250814
_publ_section_title
;
Structure prediction by ZEFSAII (Michael W. Deem and Ramdas Pophale) SiO2 
 PCOD8250814
Probable space group: P N M A
;
_chemical_formula_sum "Si O2"
_cell_formula_units_Z 64
_cell_length_a 18.154773
_cell_length_b 9.123959
_cell_length_c 26.335061
_cell_angle_alpha 90.000000
_cell_angle_beta 90.000000
_cell_angle_gamma 90.000000
_cell_volume 4362.229162
_symmetry_space_group_name_H-M "P N M A"
_symmetry_group_IT_number 62
_symmetry_cell_setting 'orthorhombic'
loop_
_space_group_symop_operation_xyz
x,y,z
1/2-x,-y,1/2+z
1/2+x,1/2-y,1/2-z
-x,1/2+y,-z
-x,-y,-z
1/2+x,y,1/2-z
1/2-x,1/2+y,1/2+z
x,1/2-y,z
loop_
_atom_site_type_symbol
_atom_site_label
_atom_site_fract_x
_atom_site_fract_y
_atom_site_fract_z
Si Si1 0.926993 0.583483 0.743510
Si Si2 0.282422 0.919928 0.300270
Si Si3 0.169878 0.421911 0.649203
Si Si4 0.086085 0.920008 0.446357
Si Si5 0.835950 0.576473 0.644860
Si Si6 0.782537 0.919364 0.795005
Si Si7 0.916459 0.581448 0.451722
Si Si8 0.923968 0.581545 0.254806
O O1 0.950548 0.750000 0.735199
O O2 0.887764 0.527139 0.691838
O O3 0.871319 0.567650 0.791666
O O4 0.999854 0.496484 0.756676
O O5 0.262532 0.750000 0.307515
O O6 0.370695 0.942307 0.294261
O O7 0.246468 0.011227 0.346535
O O8 0.249026 0.976995 0.248214
O O9 0.186951 0.250000 0.655073
O O10 0.246542 0.514647 0.653480
O O11 0.135354 0.459846 0.595078
O O12 0.113692 0.476302 0.693173
O O13 0.107197 0.750000 0.442108
O O14 0.000305 0.947526 0.434914
O O15 0.132784 0.012330 0.406719
O O16 0.106640 0.976790 0.502282
O O17 0.829434 0.750000 0.640903
O O18 0.759099 0.750000 0.786978
O O19 0.906710 0.750000 0.468581
O O20 0.942859 0.750000 0.262815
#
# Coordination Sequence:
#
# PCOD8250814 Si02
#       8
#     8   8   8   8   8   8   8   8
#     4   9  18  28  39  58  83 109 137 168 202 241
#     4   9  17  29  42  58  80 106 137 171 205 243
#     4   9  17  29  43  59  80 109 141 171 206 243
#     4  10  19  30  44  61  82 110 141 174 211 245
#     4  10  19  30  43  60  82 110 142 173 207 245
#     4   9  17  28  40  58  82 107 137 171 204 241
#     4   9  18  31  44  60  84 110 140 177 210 243
#     4   9  17  27  41  61  83 107 137 170 203 242
#
# _framework density 14.671398
#
# number of rings (size 3 to 8) (size 9 to 14) (size 15 to 20)
#    0.000    2.750    0.000    3.750    0.000    7.500 
#    0.000    0.000    0.000    0.000    0.000    0.000 
#    0.000    1.000    0.000    3.250    0.000    4.750 
#
# Total GULP energy -793242.242477 kJ/mol
# GULP energy per Si atom -12394.410039 kJ/mol
# Density = 1.463801 g / cm^3
# Si number density = 14.671398 Si / 1000 Ang^3
#
#
#
# Elastic Constant Matrix: (Units=GPa)
#
#
# Indices 1 2 3 4 5 6 
#
# 1 87.5274 51.1090 45.1895 0.0000 0.0000 0.0000
# 2 51.1090 75.5101 41.1343 0.0000 0.0000 0.0000
# 3 45.1895 41.1343 70.0311 0.0000 0.0000 0.0000
# 4 0.0000 0.0000 0.0000 23.8311 0.0000 0.0000
# 5 0.0000 0.0000 0.0000 0.0000 24.3114 0.0000
# 6 0.0000 0.0000 0.0000 0.0000 0.0000 27.4977
#
#
#
# Elastic Compliance Matrix: (Units=1/GPa)
#
#
# Indices 1 2 3 4 5 6 
#
# 1 0.021452 -0.010263 -0.007814 0.000000 0.000000 0.000000
# 2 -0.010263 0.024385 -0.007700 0.000000 0.000000 0.000000
# 3 -0.007814 -0.007700 0.023845 0.000000 0.000000 0.000000
# 4 0.000000 0.000000 0.000000 0.041962 0.000000 0.000000
# 5 0.000000 0.000000 0.000000 0.000000 0.041133 0.000000
# 6 0.000000 0.000000 0.000000 0.000000 0.000000 0.036367
#
#
# Mechanical properties :
#
#
# Convention : Reuss Voigt Hill
#
# Bulk Modulus (GPa) = 55.16921 56.43715 55.80318
# Shear Modulus (GPa) = 20.26416 21.50375 20.88396
#
# Velocity S-wave (km/s) = 3.72048 3.83259 3.77695
# Velocity P-wave (km/s) = 7.49272 7.62469 7.55900
#
# Compressibility (1/GPa) = 0.01812605
#
# Stress axis : x y z
#
# Youngs Moduli (GPa) = 46.61501 41.00955 41.93788
#
# Poissons Ratio (x) = 0.42088 0.32772
# Poissons Ratio (y) = 0.47841 0.32293
# Poissons Ratio (z) = 0.36427 0.31579
#
# Static dielectric constant tensor:
#      x y z
#    x 2.986100 0.000000 0.000000 
#    y 0.000000 2.967220 0.000000 
#    z 0.000000 0.000000 2.715230 
# 
# 
# High freq. dielectric constant tensor:
#      x y z
#    x 1.547860 0.000000 0.000000 
#    y 0.000000 1.574340 0.000000 
#    z 0.000000 0.000000 1.527580 
# 
# From -- ./inp_files/30066.got.cif
#   From: 2010.03.12/outbox.cif.g09.slc.cpg/sg62_16_cif.got.tgz:30066.got - 2010.04.10 19:12:36.
