data_PCOD8250868
_publ_section_title
;
Structure prediction by ZEFSAII (Michael W. Deem and Ramdas Pophale) SiO2 
 PCOD8250868
Probable space group: P N M A
;
_chemical_formula_sum "Si O2"
_cell_formula_units_Z 48
_cell_length_a 13.412780
_cell_length_b 9.027174
_cell_length_c 23.665960
_cell_angle_alpha 90.000000
_cell_angle_beta 90.000000
_cell_angle_gamma 90.000000
_cell_volume 2865.462577
_symmetry_space_group_name_H-M "P N M A"
_symmetry_group_IT_number 62
_symmetry_cell_setting 'orthorhombic'
loop_
_space_group_symop_operation_xyz
x,y,z
1/2-x,-y,1/2+z
1/2+x,1/2-y,1/2-z
-x,1/2+y,-z
-x,-y,-z
1/2+x,y,1/2-z
1/2-x,1/2+y,1/2+z
x,1/2-y,z
loop_
_atom_site_type_symbol
_atom_site_label
_atom_site_fract_x
_atom_site_fract_y
_atom_site_fract_z
Si Si1 0.398472 0.422114 0.227966
Si Si2 0.382860 0.421938 0.559840
Si Si3 0.112801 0.079485 0.946229
Si Si4 0.403594 0.077538 0.769116
Si Si5 0.696264 0.423181 0.333325
Si Si6 0.298638 0.579329 0.328168
O O1 0.422929 0.250000 0.232029
O O2 0.496008 0.507043 0.205600
O O3 0.309913 0.456064 0.184274
O O4 0.369850 0.478597 0.290193
O O5 0.356558 0.250000 0.565623
O O6 0.499065 0.454280 0.571043
O O7 0.352252 0.476410 0.497532
O O8 0.317839 0.513151 0.604338
O O9 0.124007 0.250000 0.964834
O O10 0.183085 0.040024 0.893417
O O11 0.419774 0.250000 0.758087
O O12 0.316716 0.046552 0.814468
O O13 0.379096 0.003531 0.709161
O O14 0.672012 0.250000 0.332033
O O15 0.325910 0.750000 0.315553
#
# Coordination Sequence:
#
# PCOD8250868 Si02
#       6
#     8   8   8   8   8   8
#     4  10  20  32  48  71  98 128 159 193 236 283
#     4  10  19  30  48  73  97 124 157 193 236 283
#     4   9  18  32  48  68  96 126 155 190 234 283
#     4  10  19  31  49  72  97 125 158 197 237 279
#     4  10  20  33  49  70  97 128 160 195 235 280
#     4   9  18  32  50  71  95 126 161 195 234 280
#
# _framework density 16.751221999999999
#
# number of rings (size 3 to 8) (size 9 to 14) (size 15 to 20)
#    0.000    2.333    0.000    3.000    0.000    5.333 
#    0.000    0.000    0.000    1.000    0.000    0.000 
#    0.000    0.000    0.000    0.000    0.000    0.000 
#
# Total GULP energy -595399.341357 kJ/mol
# GULP energy per Si atom -12404.152945 kJ/mol
# Density = 1.671309 g / cm^3
# Si number density = 16.751222 Si / 1000 Ang^3
#
#
#
# Elastic Constant Matrix: (Units=GPa)
#
#
# Indices 1 2 3 4 5 6 
#
# 1 93.1044 54.3571 52.0145 0.0000 0.0000 0.0000
# 2 54.3571 95.0787 52.5913 0.0000 0.0000 0.0000
# 3 52.0145 52.5913 107.1982 0.0000 0.0000 0.0000
# 4 0.0000 0.0000 0.0000 30.4954 0.0000 0.0000
# 5 0.0000 0.0000 0.0000 0.0000 22.0144 0.0000
# 6 0.0000 0.0000 0.0000 0.0000 0.0000 29.2749
#
#
#
# Elastic Compliance Matrix: (Units=1/GPa)
#
#
# Indices 1 2 3 4 5 6 
#
# 1 0.017902 -0.007452 -0.005030 0.000000 0.000000 0.000000
# 2 -0.007452 0.017537 -0.004988 0.000000 0.000000 0.000000
# 3 -0.005030 -0.004988 0.014216 0.000000 0.000000 0.000000
# 4 0.000000 0.000000 0.000000 0.032792 0.000000 0.000000
# 5 0.000000 0.000000 0.000000 0.000000 0.045425 0.000000
# 6 0.000000 0.000000 0.000000 0.000000 0.000000 0.034159
#
#
# Mechanical properties :
#
#
# Convention : Reuss Voigt Hill
#
# Bulk Modulus (GPa) = 67.95899 68.14521 68.05210
# Shear Modulus (GPa) = 24.76778 25.45149 25.10964
#
# Velocity S-wave (km/s) = 3.84938 3.90215 3.87586
# Velocity P-wave (km/s) = 7.77269 7.81482 7.79378
#
# Compressibility (1/GPa) = 0.01471476
#
# Stress axis : x y z
#
# Youngs Moduli (GPa) = 55.86096 57.02271 70.34229
#
# Poissons Ratio (x) = 0.42494 0.35383
# Poissons Ratio (y) = 0.41628 0.35084
# Poissons Ratio (z) = 0.28099 0.28441
#
# Static dielectric constant tensor:
#      x y z
#    x 3.117370 0.000000 0.000000 
#    y 0.000000 3.251690 0.000000 
#    z 0.000000 0.000000 3.004870 
# 
# 
# High freq. dielectric constant tensor:
#      x y z
#    x 1.634520 0.000000 0.000000 
#    y 0.000000 1.659580 0.000000 
#    z 0.000000 0.000000 1.632670 
# 
# From -- ./inp_files/26878.got.cif
#   From: 2010.03.12/outbox.cif.g09.slc.cpg/sg62_14_cif.got.tgz:26878.got - 2010.04.10 19:12:36.
