data_PCOD8250696
_publ_section_title
;
Structure prediction by ZEFSAII (Michael W. Deem and Ramdas Pophale) SiO2 
 PCOD8250696
Probable space group: P N M A
;
_chemical_formula_sum "Si O2"
_cell_formula_units_Z 40
_cell_length_a 5.280348
_cell_length_b 22.670236
_cell_length_c 16.861200
_cell_angle_alpha 90.000000
_cell_angle_beta 90.000000
_cell_angle_gamma 90.000000
_cell_volume 2018.399206
_symmetry_space_group_name_H-M "P N M A"
_symmetry_group_IT_number 62
_symmetry_cell_setting 'orthorhombic'
loop_
_space_group_symop_operation_xyz
x,y,z
1/2-x,-y,1/2+z
1/2+x,1/2-y,1/2-z
-x,1/2+y,-z
-x,-y,-z
1/2+x,y,1/2-z
1/2-x,1/2+y,1/2+z
x,1/2-y,z
loop_
_atom_site_type_symbol
_atom_site_label
_atom_site_fract_x
_atom_site_fract_y
_atom_site_fract_z
Si Si1 0.014868 0.182711 0.942420
Si Si2 0.997437 0.885984 0.704068
Si Si3 0.992124 0.072121 0.842519
Si Si4 0.492157 0.022866 0.829320
Si Si5 0.984155 0.682550 0.542626
O O1 0.002683 0.250000 0.912062
O O2 0.277991 0.169600 0.986340
O O3 0.779060 0.168439 0.999265
O O4 0.998823 0.140790 0.865830
O O5 0.244239 0.863895 0.751773
O O6 0.006089 0.859825 0.617034
O O7 0.000213 0.956217 0.699267
O O8 0.742106 0.040189 0.879473
O O9 0.986223 0.065552 0.747687
O O10 0.237502 0.037678 0.878566
O O11 0.989503 0.750000 0.572049
#
# Coordination Sequence:
#
# PCOD8250696 Si02
#       5
#     8   8   8   8   8
#     4  10  21  40  59  81 116 152 186 231 281 332
#     4  12  21  38  62  82 115 150 185 234 287 327
#     4  10  18  35  59  80 112 155 178 230 285 324
#     4  10  19  35  55  83 115 146 187 231 277 326
#     4  10  23  40  58  84 115 148 191 233 276 336
#
# _framework density 19.817686999999999
#
# number of rings (size 3 to 8) (size 9 to 14) (size 15 to 20)
#    0.000    1.600    4.000    2.400    0.000    0.800 
#    0.000   10.000    0.000    0.000    0.000    0.000 
#    0.000    0.000    0.000    0.000    0.000    0.000 
#
# Total GULP energy -495856.032692 kJ/mol
# GULP energy per Si atom -12396.400817 kJ/mol
# Density = 1.977258 g / cm^3
# Si number density = 19.817687 Si / 1000 Ang^3
#
#
#
# Elastic Constant Matrix: (Units=GPa)
#
#
# Indices 1 2 3 4 5 6 
#
# 1 161.6135 16.8857 -0.5612 0.0000 0.0000 0.0000
# 2 16.8857 69.0731 47.4092 0.0000 0.0000 0.0000
# 3 -0.5612 47.4092 52.9977 0.0000 0.0000 0.0000
# 4 0.0000 0.0000 0.0000 12.3040 0.0000 0.0000
# 5 0.0000 0.0000 0.0000 0.0000 18.4430 0.0000
# 6 0.0000 0.0000 0.0000 0.0000 0.0000 16.6977
#
#
#
# Elastic Compliance Matrix: (Units=1/GPa)
#
#
# Indices 1 2 3 4 5 6 
#
# 1 0.006655 -0.004340 0.003953 0.000000 0.000000 0.000000
# 2 -0.004340 0.040335 -0.036128 0.000000 0.000000 0.000000
# 3 0.003953 -0.036128 0.051229 0.000000 0.000000 0.000000
# 4 0.000000 0.000000 0.000000 0.081274 0.000000 0.000000
# 5 0.000000 0.000000 0.000000 0.000000 0.054221 0.000000
# 6 0.000000 0.000000 0.000000 0.000000 0.000000 0.059889
#
#
# Mechanical properties :
#
#
# Convention : Reuss Voigt Hill
#
# Bulk Modulus (GPa) = 39.70028 45.68351 42.69189
# Shear Modulus (GPa) = 13.33234 24.15232 18.74233
#
# Velocity S-wave (km/s) = 2.59656 3.49481 3.07862
# Velocity P-wave (km/s) = 5.39126 6.27590 5.85032
#
# Compressibility (1/GPa) = 0.02518874
#
# Stress axis : x y z
#
# Youngs Moduli (GPa) = 150.26854 24.79238 19.52034
#
# Poissons Ratio (x) = 0.10759 -0.07716
# Poissons Ratio (y) = 0.65213 0.70522
# Poissons Ratio (z) = -0.59395 0.89569
#
# Static dielectric constant tensor:
#      x y z
#    x 5.332880 0.000000 0.000000 
#    y 0.000000 3.600640 0.000000 
#    z 0.000000 0.000000 3.106370 
# 
# 
# High freq. dielectric constant tensor:
#      x y z
#    x 1.816940 0.000000 0.000000 
#    y 0.000000 1.768150 0.000000 
#    z 0.000000 0.000000 1.728140 
# 
# From -- ./inp_files/16159.got.cif
#   From: 2010.03.12/outbox.cif.g09.slc.cpg/sg62_9_cif.got.tgz:16159.got - 2010.04.10 19:12:36.
