data_PCOD8250660
_publ_section_title
;
Structure prediction by ZEFSAII (Michael W. Deem and Ramdas Pophale) SiO2 
 PCOD8250660
Probable space group: P N M A
;
_chemical_formula_sum "Si O2"
_cell_formula_units_Z 64
_cell_length_a 9.106631
_cell_length_b 17.323437
_cell_length_c 20.794075
_cell_angle_alpha 90.000000
_cell_angle_beta 90.000000
_cell_angle_gamma 90.000000
_cell_volume 3280.434770
_symmetry_space_group_name_H-M "P N M A"
_symmetry_group_IT_number 62
_symmetry_cell_setting 'orthorhombic'
loop_
_space_group_symop_operation_xyz
x,y,z
1/2-x,-y,1/2+z
1/2+x,1/2-y,1/2-z
-x,1/2+y,-z
-x,-y,-z
1/2+x,y,1/2-z
1/2-x,1/2+y,1/2+z
x,1/2-y,z
loop_
_atom_site_type_symbol
_atom_site_label
_atom_site_fract_x
_atom_site_fract_y
_atom_site_fract_z
Si Si1 0.629429 0.040040 0.539070
Si Si2 0.075423 0.067157 0.261468
Si Si3 0.413453 0.493831 0.900027
Si Si4 0.076082 0.838270 0.337003
Si Si5 0.708598 0.925501 0.923261
Si Si6 0.264819 0.663128 0.219451
Si Si7 0.820680 0.337479 0.300702
Si Si8 0.423226 0.041135 0.648772
O O1 0.762909 0.983309 0.562452
O O2 0.713683 0.099985 0.490759
O O3 0.555285 0.074383 0.603628
O O4 0.500000 0.000000 0.500000
O O5 0.228439 0.098660 0.236428
O O6 0.981506 0.144381 0.273760
O O7 0.095244 0.021484 0.326946
O O8 0.009217 0.007957 0.208430
O O9 0.426302 0.399571 0.895920
O O10 0.551054 0.533398 0.936171
O O11 0.073585 0.750000 0.364214
O O12 0.221257 0.853102 0.293613
O O13 0.937321 0.852805 0.289599
O O14 0.689467 0.850995 0.877674
O O15 0.815182 0.987112 0.891184
O O16 0.223201 0.750000 0.201020
O O17 0.171953 0.612559 0.170683
O O18 0.776645 0.250000 0.285086
#
# Coordination Sequence:
#
# PCOD8250660 Si02
#       8
#     8   8   8   8   8   8   8   8
#     4  10  22  36  55  81 108 145 190 237 276 323
#     4  10  20  31  56  88 108 138 180 221 294 345
#     4  11  19  34  59  80 114 144 185 239 270 337
#     4  10  21  33  51  82 118 152 177 213 276 337
#     4   9  20  36  53  76 100 148 192 230 281 322
#     4  10  20  33  50  78 119 150 173 212 274 339
#     4  10  20  35  53  77 111 142 176 235 286 340
#     4  10  18  34  55  80 115 138 182 234 275 338
#
# _framework density 19.509609999999999
#
# number of rings (size 3 to 8) (size 9 to 14) (size 15 to 20)
#    0.000    2.000    2.500    1.500    1.750    0.000 
#    0.000    1.250    0.000    0.000    0.000    8.750 
#    0.000    0.000    0.000    0.000    0.000    0.000 
#
# Total GULP energy -792914.537038 kJ/mol
# GULP energy per Si atom -12389.289641 kJ/mol
# Density = 1.946520 g / cm^3
# Si number density = 19.509610 Si / 1000 Ang^3
#
#
#
# Elastic Constant Matrix: (Units=GPa)
#
#
# Indices 1 2 3 4 5 6 
#
# 1 83.3503 10.7280 37.0033 0.0000 0.0000 0.0000
# 2 10.7280 73.5316 13.2279 0.0000 0.0000 0.0000
# 3 37.0033 13.2279 69.3293 0.0000 0.0000 0.0000
# 4 0.0000 0.0000 0.0000 14.5857 0.0000 0.0000
# 5 0.0000 0.0000 0.0000 0.0000 31.5835 0.0000
# 6 0.0000 0.0000 0.0000 0.0000 0.0000 16.8344
#
#
#
# Elastic Compliance Matrix: (Units=1/GPa)
#
#
# Indices 1 2 3 4 5 6 
#
# 1 0.015770 -0.000815 -0.008262 0.000000 0.000000 0.000000
# 2 -0.000815 0.014125 -0.002260 0.000000 0.000000 0.000000
# 3 -0.008262 -0.002260 0.019265 0.000000 0.000000 0.000000
# 4 0.000000 0.000000 0.000000 0.068561 0.000000 0.000000
# 5 0.000000 0.000000 0.000000 0.000000 0.031662 0.000000
# 6 0.000000 0.000000 0.000000 0.000000 0.000000 0.059402
#
#
# Mechanical properties :
#
#
# Convention : Reuss Voigt Hill
#
# Bulk Modulus (GPa) = 37.75449 38.68108 38.21778
# Shear Modulus (GPa) = 20.80851 23.61752 22.21302
#
# Velocity S-wave (km/s) = 3.26939 3.48308 3.37793
# Velocity P-wave (km/s) = 5.80049 6.00379 5.90302
#
# Compressibility (1/GPa) = 0.02648692
#
# Stress axis : x y z
#
# Youngs Moduli (GPa) = 63.41100 70.79625 51.90856
#
# Poissons Ratio (x) = 0.05767 0.42885
# Poissons Ratio (y) = 0.05165 0.11733
# Poissons Ratio (z) = 0.52388 0.16002
#
# Static dielectric constant tensor:
#      x y z
#    x 3.859770 0.000000 0.000000 
#    y 0.000000 3.247290 0.000000 
#    z 0.000000 0.000000 3.894230 
# 
# 
# High freq. dielectric constant tensor:
#      x y z
#    x 1.776960 0.000000 0.000000 
#    y 0.000000 1.725000 0.000000 
#    z 0.000000 0.000000 1.757990 
# 
# From -- ./inp_files/26184.got.cif
#   From: 2010.03.12/outbox.cif.g09.slc.cpg/sg62_14_cif.got.tgz:26184.got - 2010.04.10 19:12:36.
