data_PCOD8250717
_publ_section_title
;
Structure prediction by ZEFSAII (Michael W. Deem and Ramdas Pophale) SiO2 
 PCOD8250717
Probable space group: P N M A
;
_chemical_formula_sum "Si O2"
_cell_formula_units_Z 64
_cell_length_a 14.443901
_cell_length_b 13.659399
_cell_length_c 17.980260
_cell_angle_alpha 90.000000
_cell_angle_beta 90.000000
_cell_angle_gamma 90.000000
_cell_volume 3547.415520
_symmetry_space_group_name_H-M "P N M A"
_symmetry_group_IT_number 62
_symmetry_cell_setting 'orthorhombic'
loop_
_space_group_symop_operation_xyz
x,y,z
1/2-x,-y,1/2+z
1/2+x,1/2-y,1/2-z
-x,1/2+y,-z
-x,-y,-z
1/2+x,y,1/2-z
1/2-x,1/2+y,1/2+z
x,1/2-y,z
loop_
_atom_site_type_symbol
_atom_site_label
_atom_site_fract_x
_atom_site_fract_y
_atom_site_fract_z
Si Si1 0.188535 0.638841 0.450296
Si Si2 0.988917 0.046284 0.773117
Si Si3 0.674056 0.460358 0.951121
Si Si4 0.211240 0.525428 0.196136
Si Si5 0.494100 0.637747 0.120017
Si Si6 0.768963 0.859190 0.599675
Si Si7 0.676974 0.457471 0.658401
Si Si8 0.608453 0.138655 0.237645
O O1 0.191837 0.750000 0.477850
O O2 0.179537 0.572823 0.523435
O O3 0.280548 0.615165 0.403108
O O4 0.100870 0.615940 0.398205
O O5 0.888438 0.081419 0.803093
O O6 0.021216 0.114914 0.706098
O O7 0.066507 0.057782 0.836813
O O8 0.981924 0.931614 0.745817
O O9 0.741989 0.449858 0.881469
O O10 0.569796 0.432543 0.929476
O O11 0.705414 0.387936 0.016126
O O12 0.276402 0.565041 0.262031
O O13 0.190174 0.409046 0.210501
O O14 0.467138 0.750000 0.103832
O O15 0.727462 0.750000 0.600054
O O16 0.860591 0.864711 0.651325
O O17 0.691726 0.931025 0.632458
O O18 0.587558 0.250000 0.263354
#
# Coordination Sequence:
#
# PCOD8250717 Si02
#       8
#     8   8   8   8   8   8   8   8
#     4  10  22  38  56  81 116 154 186 227 286 345
#     4  10  19  35  56  84 112 141 190 234 285 324
#     4  11  20  36  58  84 116 146 185 236 284 332
#     4   9  19  34  57  81 112 143 183 236 282 319
#     4  11  21  35  57  85 115 149 186 230 283 340
#     4   9  18  34  54  79 113 151 185 223 278 340
#     4  10  18  36  58  77 109 150 185 229 277 334
#     4   8  17  34  56  78 110 148 184 229 279 333
#
# _framework density 18.041304
#
# number of rings (size 3 to 8) (size 9 to 14) (size 15 to 20)
#    0.750    1.500    2.500    1.500    0.000    1.500 
#    0.000    5.625    0.000    1.500    0.000    0.000 
#    0.000    0.000    0.000    0.000    0.000    0.000 
#
# Total GULP energy -793211.092280 kJ/mol
# GULP energy per Si atom -12393.923317 kJ/mol
# Density = 1.800024 g / cm^3
# Si number density = 18.041304 Si / 1000 Ang^3
#
#
#
# Elastic Constant Matrix: (Units=GPa)
#
#
# Indices 1 2 3 4 5 6 
#
# 1 70.8551 19.1999 18.1975 0.0000 0.0000 0.0000
# 2 19.1999 53.1981 13.0168 0.0000 0.0000 0.0000
# 3 18.1975 13.0168 65.3874 0.0000 0.0000 0.0000
# 4 0.0000 0.0000 0.0000 17.5318 0.0000 0.0000
# 5 0.0000 0.0000 0.0000 0.0000 30.0998 0.0000
# 6 0.0000 0.0000 0.0000 0.0000 0.0000 11.5084
#
#
#
# Elastic Compliance Matrix: (Units=1/GPa)
#
#
# Indices 1 2 3 4 5 6 
#
# 1 0.016395 -0.005046 -0.003558 0.000000 0.000000 0.000000
# 2 -0.005046 0.021314 -0.002838 0.000000 0.000000 0.000000
# 3 -0.003558 -0.002838 0.016849 0.000000 0.000000 0.000000
# 4 0.000000 0.000000 0.000000 0.057039 0.000000 0.000000
# 5 0.000000 0.000000 0.000000 0.000000 0.033223 0.000000
# 6 0.000000 0.000000 0.000000 0.000000 0.000000 0.086893
#
#
# Mechanical properties :
#
#
# Convention : Reuss Voigt Hill
#
# Bulk Modulus (GPa) = 31.57470 32.25210 31.91340
# Shear Modulus (GPa) = 18.85689 21.09643 19.97666
#
# Velocity S-wave (km/s) = 3.23647 3.42327 3.33118
# Velocity P-wave (km/s) = 5.61299 5.79143 5.70291
#
# Compressibility (1/GPa) = 0.03167092
#
# Stress axis : x y z
#
# Youngs Moduli (GPa) = 60.99587 46.91860 59.35157
#
# Poissons Ratio (x) = 0.23677 0.21118
# Poissons Ratio (y) = 0.30781 0.16847
# Poissons Ratio (z) = 0.21703 0.13318
#
# Static dielectric constant tensor:
#      x y z
#    x 3.166960 0.000000 0.000000 
#    y 0.000000 3.304290 0.000000 
#    z 0.000000 0.000000 3.155170 
# 
# 
# High freq. dielectric constant tensor:
#      x y z
#    x 1.682810 0.000000 0.000000 
#    y 0.000000 1.693630 0.000000 
#    z 0.000000 0.000000 1.687200 
# 
# From -- ./inp_files/24095.got.cif
#   From: 2010.03.12/outbox.cif.g09.slc.cpg/sg62_13_cif.got.tgz:24095.got - 2010.04.10 19:12:36.
