data_PCOD8250588
_publ_section_title
;
Structure prediction by ZEFSAII (Michael W. Deem and Ramdas Pophale) SiO2 
 PCOD8250588
Probable space group: P N M A
;
_chemical_formula_sum "Si O2"
_cell_formula_units_Z 40
_cell_length_a 9.254792
_cell_length_b 8.933556
_cell_length_c 28.676066
_cell_angle_alpha 90.000000
_cell_angle_beta 90.000000
_cell_angle_gamma 90.000000
_cell_volume 2370.885595
_symmetry_space_group_name_H-M "P N M A"
_symmetry_group_IT_number 62
_symmetry_cell_setting 'orthorhombic'
loop_
_space_group_symop_operation_xyz
x,y,z
1/2-x,-y,1/2+z
1/2+x,1/2-y,1/2-z
-x,1/2+y,-z
-x,-y,-z
1/2+x,y,1/2-z
1/2-x,1/2+y,1/2+z
x,1/2-y,z
loop_
_atom_site_type_symbol
_atom_site_label
_atom_site_fract_x
_atom_site_fract_y
_atom_site_fract_z
Si Si1 0.999955 0.572503 0.050283
Si Si2 0.158570 0.580701 0.873813
Si Si3 0.658406 0.080700 0.373798
Si Si4 0.331519 0.923329 0.204332
Si Si5 0.168333 0.576672 0.295685
O O1 0.999938 0.750000 0.046418
O O2 0.143273 0.515214 0.078233
O O3 0.856610 0.515191 0.078215
O O4 0.000000 0.500000 0.000000
O O5 0.203987 0.750000 0.886440
O O6 0.279591 0.511663 0.840899
O O7 0.000093 0.578231 0.848656
O O8 0.703821 0.250000 0.386427
O O9 0.779404 0.011679 0.340874
O O10 0.294315 0.750000 0.196518
O O11 0.499929 0.951921 0.211404
O O12 0.249948 0.984629 0.250013
O O13 0.205529 0.750000 0.303500
#
# Coordination Sequence:
#
# PCOD8250588 Si02
#       5
#     8   8   8   8   8
#     4  10  18  32  56  82 108 136 172 220 265 314
#     4   9  19  33  50  76 105 136 175 216 261 312
#     4   9  19  33  50  76 105 136 175 216 261 312
#     4  10  20  33  51  75 104 142 183 220 264 316
#     4  10  20  33  51  75 104 142 183 220 264 316
#
# _framework density 16.871333
#
# number of rings (size 3 to 8) (size 9 to 14) (size 15 to 20)
#    1.200    1.200    0.000    3.600    0.000    3.200 
#    0.000    0.000    0.000    1.200    0.000    0.000 
#    0.000    0.000    0.000    0.000    0.000    0.000 
#
# Total GULP energy -495727.683570 kJ/mol
# GULP energy per Si atom -12393.192089 kJ/mol
# Density = 1.683293 g / cm^3
# Si number density = 16.871333 Si / 1000 Ang^3
#
#
#
# Elastic Constant Matrix: (Units=GPa)
#
#
# Indices 1 2 3 4 5 6 
#
# 1 60.9269 41.0615 43.5205 0.0000 0.0000 0.0000
# 2 41.0615 130.7120 73.2009 0.0000 0.0000 0.0000
# 3 43.5205 73.2009 134.5673 0.0000 0.0000 0.0000
# 4 0.0000 0.0000 0.0000 32.5308 0.0000 0.0000
# 5 0.0000 0.0000 0.0000 0.0000 26.3884 0.0000
# 6 0.0000 0.0000 0.0000 0.0000 0.0000 25.0989
#
#
#
# Elastic Compliance Matrix: (Units=1/GPa)
#
#
# Indices 1 2 3 4 5 6 
#
# 1 0.022975 -0.004395 -0.005040 0.000000 0.000000 0.000000
# 2 -0.004395 0.011843 -0.005021 0.000000 0.000000 0.000000
# 3 -0.005040 -0.005021 0.011792 0.000000 0.000000 0.000000
# 4 0.000000 0.000000 0.000000 0.030740 0.000000 0.000000
# 5 0.000000 0.000000 0.000000 0.000000 0.037895 0.000000
# 6 0.000000 0.000000 0.000000 0.000000 0.000000 0.039842
#
#
# Mechanical properties :
#
#
# Convention : Reuss Voigt Hill
#
# Bulk Modulus (GPa) = 56.49963 71.30799 63.90381
# Shear Modulus (GPa) = 26.32991 28.03185 27.18088
#
# Velocity S-wave (km/s) = 3.95477 4.08058 4.01817
# Velocity P-wave (km/s) = 7.37664 8.03487 7.71278
#
# Compressibility (1/GPa) = 0.01769923
#
# Stress axis : x y z
#
# Youngs Moduli (GPa) = 43.52569 84.43989 84.80181
#
# Poissons Ratio (x) = 0.37112 0.42736
# Poissons Ratio (y) = 0.19130 0.42577
# Poissons Ratio (z) = 0.21935 0.42395
#
# Static dielectric constant tensor:
#      x y z
#    x 2.904450 0.000000 0.000000 
#    y 0.000000 3.207440 0.000000 
#    z 0.000000 0.000000 2.996640 
# 
# 
# High freq. dielectric constant tensor:
#      x y z
#    x 1.624670 0.000000 0.000000 
#    y 0.000000 1.661330 0.000000 
#    z 0.000000 0.000000 1.639360 
# 
# From -- ./inp_files/31791.got.cif
#   From: 2010.03.12/outbox.cif.g09.slc.cpg/sg62_16_cif.got.tgz:31791.got - 2010.04.10 19:12:36.
