data_PCOD8250387
_publ_section_title
;
Structure prediction by ZEFSAII (Michael W. Deem and Ramdas Pophale) SiO2 
 PCOD8250387
Probable space group: P N M A
;
_chemical_formula_sum "Si O2"
_cell_formula_units_Z 48
_cell_length_a 18.386603
_cell_length_b 8.958503
_cell_length_c 16.461931
_cell_angle_alpha 90.000000
_cell_angle_beta 90.000000
_cell_angle_gamma 90.000000
_cell_volume 2711.550639
_symmetry_space_group_name_H-M "P N M A"
_symmetry_group_IT_number 62
_symmetry_cell_setting 'orthorhombic'
loop_
_space_group_symop_operation_xyz
x,y,z
1/2-x,-y,1/2+z
1/2+x,1/2-y,1/2-z
-x,1/2+y,-z
-x,-y,-z
1/2+x,y,1/2-z
1/2-x,1/2+y,1/2+z
x,1/2-y,z
loop_
_atom_site_type_symbol
_atom_site_label
_atom_site_fract_x
_atom_site_fract_y
_atom_site_fract_z
Si Si1 0.328114 0.925782 0.667671
Si Si2 0.426009 0.580876 0.518067
Si Si3 0.660106 0.918779 0.170806
Si Si4 0.794839 0.574859 0.421356
Si Si5 0.077850 0.925480 0.495702
Si Si6 0.784154 0.918887 0.060698
O O1 0.316135 0.750000 0.663569
O O2 0.385550 0.979261 0.599009
O O3 0.359570 0.972249 0.755310
O O4 0.250125 0.006168 0.654332
O O5 0.500000 0.500000 0.500000
O O6 0.448007 0.750000 0.532522
O O7 0.371689 0.562076 0.440067
O O8 0.643590 0.750000 0.198419
O O9 0.612530 0.961499 0.092241
O O10 0.746401 0.937566 0.148478
O O11 0.805976 0.750000 0.407711
O O12 0.873240 0.496356 0.432305
O O13 0.748427 0.543381 0.501873
O O14 0.071360 0.750000 0.510695
O O15 0.000000 0.000000 0.500000
O O16 0.765286 0.750000 0.027542
#
# Coordination Sequence:
#
# PCOD8250387 Si02
#       6
#     8   8   8   8   8   8
#     4  10  20  34  51  73 102 133 167 212 260 302
#     4   9  18  32  50  72  99 131 164 201 246 295
#     4   9  18  33  53  75  99 130 168 210 254 301
#     4  10  18  30  51  75  97 127 168 207 247 299
#     4  10  20  35  54  77 106 137 171 210 253 305
#     4   8  16  32  50  70  98 128 160 202 248 294
#
# _framework density 17.70205
#
# number of rings (size 3 to 8) (size 9 to 14) (size 15 to 20)
#    0.000    2.667    0.000    4.500    0.000    6.667 
#    0.000    1.667    0.000    6.000    0.000    0.000 
#    0.000    0.000    0.000    0.000    0.000    0.000 
#
# Total GULP energy -594829.459528 kJ/mol
# GULP energy per Si atom -12392.280407 kJ/mol
# Density = 1.766176 g / cm^3
# Si number density = 17.702050 Si / 1000 Ang^3
#
#
#
# Elastic Constant Matrix: (Units=GPa)
#
#
# Indices 1 2 3 4 5 6 
#
# 1 134.4141 51.3410 41.0358 0.0000 0.0000 0.0000
# 2 51.3410 93.9228 37.4625 0.0000 0.0000 0.0000
# 3 41.0358 37.4625 76.7133 0.0000 0.0000 0.0000
# 4 0.0000 0.0000 0.0000 28.0686 0.0000 0.0000
# 5 0.0000 0.0000 0.0000 0.0000 16.9667 0.0000
# 6 0.0000 0.0000 0.0000 0.0000 0.0000 34.1275
#
#
#
# Elastic Compliance Matrix: (Units=1/GPa)
#
#
# Indices 1 2 3 4 5 6 
#
# 1 0.010049 -0.004159 -0.003345 0.000000 0.000000 0.000000
# 2 -0.004159 0.014944 -0.005073 0.000000 0.000000 0.000000
# 3 -0.003345 -0.005073 0.017302 0.000000 0.000000 0.000000
# 4 0.000000 0.000000 0.000000 0.035627 0.000000 0.000000
# 5 0.000000 0.000000 0.000000 0.000000 0.058939 0.000000
# 6 0.000000 0.000000 0.000000 0.000000 0.000000 0.029302
#
#
# Mechanical properties :
#
#
# Convention : Reuss Voigt Hill
#
# Bulk Modulus (GPa) = 58.33644 62.74764 60.54204
# Shear Modulus (GPa) = 25.37672 27.51327 26.44499
#
# Velocity S-wave (km/s) = 3.79033 3.94666 3.86929
# Velocity P-wave (km/s) = 7.22368 7.50278 7.36455
#
# Compressibility (1/GPa) = 0.01714194
#
# Stress axis : x y z
#
# Youngs Moduli (GPa) = 99.50780 66.91623 57.79695
#
# Poissons Ratio (x) = 0.27833 0.19330
# Poissons Ratio (y) = 0.41389 0.29320
# Poissons Ratio (z) = 0.33281 0.33946
#
# Static dielectric constant tensor:
#      x y z
#    x 3.353540 0.000000 0.000000 
#    y 0.000000 3.238950 0.000000 
#    z 0.000000 0.000000 3.148740 
# 
# 
# High freq. dielectric constant tensor:
#      x y z
#    x 1.678970 0.000000 0.000000 
#    y 0.000000 1.688740 0.000000 
#    z 0.000000 0.000000 1.657820 
# 
# From -- ./inp_files/24224.got.cif
#   From: 2010.03.12/outbox.cif.g09.slc.cpg/sg62_13_cif.got.tgz:24224.got - 2010.04.10 19:12:36.
