data_PCOD8250202
_publ_section_title
;
Structure prediction by ZEFSAII (Michael W. Deem and Ramdas Pophale) SiO2 
 PCOD8250202
Probable space group: P N M A
;
_chemical_formula_sum "Si O2"
_cell_formula_units_Z 56
_cell_length_a 20.744792
_cell_length_b 8.992668
_cell_length_c 18.461707
_cell_angle_alpha 90.000000
_cell_angle_beta 90.000000
_cell_angle_gamma 90.000000
_cell_volume 3444.050404
_symmetry_space_group_name_H-M "P N M A"
_symmetry_group_IT_number 62
_symmetry_cell_setting 'orthorhombic'
loop_
_space_group_symop_operation_xyz
x,y,z
1/2-x,-y,1/2+z
1/2+x,1/2-y,1/2-z
-x,1/2+y,-z
-x,-y,-z
1/2+x,y,1/2-z
1/2-x,1/2+y,1/2+z
x,1/2-y,z
loop_
_atom_site_type_symbol
_atom_site_label
_atom_site_fract_x
_atom_site_fract_y
_atom_site_fract_z
Si Si1 0.620289 0.072286 0.155441
Si Si2 0.253095 0.075125 0.418179
Si Si3 0.247457 0.427978 0.067805
Si Si4 0.183084 0.587089 0.774889
Si Si5 0.321380 0.587789 0.702784
Si Si6 0.635903 0.421588 0.856372
Si Si7 0.002536 0.577192 0.422990
O O1 0.611800 0.250000 0.156057
O O2 0.681113 0.028356 0.105664
O O3 0.631461 0.009893 0.238301
O O4 0.557658 0.993850 0.125627
O O5 0.255526 0.250000 0.434395
O O6 0.306303 0.030906 0.357406
O O7 0.272555 0.984438 0.489278
O O8 0.249863 0.250000 0.070350
O O9 0.193106 0.490711 0.125214
O O10 0.317682 0.487492 0.090168
O O11 0.149400 0.750000 0.774561
O O12 0.253229 0.605550 0.741647
O O13 0.140862 0.473544 0.727399
O O14 0.350687 0.750000 0.686558
O O15 0.655537 0.250000 0.861460
O O16 0.563708 0.450287 0.881516
O O17 0.016945 0.750000 0.434699
O O18 0.000000 0.500000 0.500000
#
# Coordination Sequence:
#
# PCOD8250202 Si02
#       7
#     8   8   8   8   8   8   8
#     4   9  17  31  48  62  84 119 151 180 216 257
#     4   9  17  29  45  68  95 117 141 180 226 263
#     4  10  18  28  45  68  92 118 148 179 215 264
#     4   8  15  29  47  64  85 114 146 179 217 266
#     4   7  13  27  44  62  84 111 143 178 216 257
#     4  10  20  32  44  61  89 120 149 184 222 256
#     4  11  23  34  44  63  90 119 151 184 215 251
#
# _framework density 16.259924999999999
#
# number of rings (size 3 to 8) (size 9 to 14) (size 15 to 20)
#    0.000    2.857    0.000    4.714    0.000    6.857 
#    0.000    6.429    0.000    0.000    0.000    1.000 
#    0.000    0.000    0.000    0.000    0.000    0.000 
#
# Total GULP energy -693824.807340 kJ/mol
# GULP energy per Si atom -12389.728702 kJ/mol
# Density = 1.622292 g / cm^3
# Si number density = 16.259925 Si / 1000 Ang^3
#
#
#
# Elastic Constant Matrix: (Units=GPa)
#
#
# Indices 1 2 3 4 5 6 
#
# 1 55.0441 35.6936 51.4874 0.0000 0.0000 0.0000
# 2 35.6936 64.5755 55.9437 0.0000 0.0000 0.0000
# 3 51.4874 55.9437 155.1635 0.0000 0.0000 0.0000
# 4 0.0000 0.0000 0.0000 28.1192 0.0000 0.0000
# 5 0.0000 0.0000 0.0000 0.0000 24.6885 0.0000
# 6 0.0000 0.0000 0.0000 0.0000 0.0000 20.3286
#
#
#
# Elastic Compliance Matrix: (Units=1/GPa)
#
#
# Indices 1 2 3 4 5 6 
#
# 1 0.031897 -0.012305 -0.006148 0.000000 0.000000 0.000000
# 2 -0.012305 0.027267 -0.005748 0.000000 0.000000 0.000000
# 3 -0.006148 -0.005748 0.010557 0.000000 0.000000 0.000000
# 4 0.000000 0.000000 0.000000 0.035563 0.000000 0.000000
# 5 0.000000 0.000000 0.000000 0.000000 0.040505 0.000000
# 6 0.000000 0.000000 0.000000 0.000000 0.000000 0.049192
#
#
# Mechanical properties :
#
#
# Convention : Reuss Voigt Hill
#
# Bulk Modulus (GPa) = 46.90448 62.33693 54.62071
# Shear Modulus (GPa) = 19.96107 23.40447 21.68277
#
# Velocity S-wave (km/s) = 3.50755 3.79805 3.65569
# Velocity P-wave (km/s) = 6.73150 7.59306 7.17523
#
# Compressibility (1/GPa) = 0.02131992
#
# Stress axis : x y z
#
# Youngs Moduli (GPa) = 31.35108 36.67481 94.72208
#
# Poissons Ratio (x) = 0.45127 0.58233
# Poissons Ratio (y) = 0.38577 0.54445
# Poissons Ratio (z) = 0.19274 0.21080
#
# Static dielectric constant tensor:
#      x y z
#    x 2.846260 0.000000 0.000000 
#    y 0.000000 3.000290 0.000000 
#    z 0.000000 0.000000 3.568260 
# 
# 
# High freq. dielectric constant tensor:
#      x y z
#    x 1.583200 0.000000 0.000000 
#    y 0.000000 1.616620 0.000000 
#    z 0.000000 0.000000 1.638340 
# 
# From -- ./inp_files/24621.got.cif
#   From: 2010.03.12/outbox.cif.g09.slc.cpg/sg62_13_cif.got.tgz:24621.got - 2010.04.10 19:12:36.
