data_PCOD8250900
_publ_section_title
;
Structure prediction by ZEFSAII (Michael W. Deem and Ramdas Pophale) SiO2 
 PCOD8250900
Probable space group: P N M A
;
_chemical_formula_sum "Si O2"
_cell_formula_units_Z 64
_cell_length_a 9.909265
_cell_length_b 11.062198
_cell_length_c 31.853941
_cell_angle_alpha 90.000000
_cell_angle_beta 90.000000
_cell_angle_gamma 90.000000
_cell_volume 3491.773315
_symmetry_space_group_name_H-M "P N M A"
_symmetry_group_IT_number 62
_symmetry_cell_setting 'orthorhombic'
loop_
_space_group_symop_operation_xyz
x,y,z
1/2-x,-y,1/2+z
1/2+x,1/2-y,1/2-z
-x,1/2+y,-z
-x,-y,-z
1/2+x,y,1/2-z
1/2-x,1/2+y,1/2+z
x,1/2-y,z
loop_
_atom_site_type_symbol
_atom_site_label
_atom_site_fract_x
_atom_site_fract_y
_atom_site_fract_z
Si Si1 0.000821 0.116319 0.551076
Si Si2 0.719806 0.019657 0.006293
Si Si3 0.356860 0.390482 0.779237
Si Si4 0.863517 0.388908 0.085085
Si Si5 0.845252 0.886039 0.929361
Si Si6 0.331315 0.888506 0.842264
Si Si7 0.607576 0.543084 0.873918
Si Si8 0.839374 0.614304 0.295542
O O1 0.993992 0.250000 0.568871
O O2 0.854432 0.084376 0.532774
O O3 0.108165 0.108817 0.513148
O O4 0.040540 0.037002 0.590362
O O5 0.815144 0.092507 0.037525
O O6 0.808756 0.965141 0.969378
O O7 0.322970 0.250000 0.794461
O O8 0.312770 0.501062 0.809535
O O9 0.517172 0.401660 0.771951
O O10 0.280848 0.418947 0.736037
O O11 0.869441 0.250000 0.095484
O O12 0.760405 0.440138 0.119673
O O13 0.015830 0.441591 0.089775
O O14 0.870707 0.750000 0.945148
O O15 0.728813 0.881253 0.894181
O O16 0.291363 0.750000 0.826816
O O17 0.487274 0.873933 0.856368
O O18 0.673242 0.467146 0.836521
O O19 0.822194 0.750000 0.311811
#
# Coordination Sequence:
#
# PCOD8250900 Si02
#       8
#     8   8   8   8   8   8   8   8
#     4  10  19  30  50  78 104 133 181 230 269 311
#     4  10  19  33  49  73 101 141 179 222 271 317
#     4   9  19  36  57  82 108 138 174 213 266 325
#     4  10  20  35  52  72 103 141 179 220 274 324
#     4  10  21  34  50  73 105 142 178 223 270 320
#     4  10  20  36  56  78 107 141 179 221 268 322
#     4  10  19  34  54  79 105 136 178 220 265 318
#     4   9  18  34  57  80 106 137 170 214 265 319
#
# _framework density 18.328796000000001
#
# number of rings (size 3 to 8) (size 9 to 14) (size 15 to 20)
#    0.000    2.250    1.250    1.875    0.000    1.500 
#    0.000    3.125    0.000    6.000    0.000    0.000 
#    0.000    0.000    0.000    0.000    0.000    0.000 
#
# Total GULP energy -793029.002839 kJ/mol
# GULP energy per Si atom -12391.078169 kJ/mol
# Density = 1.828708 g / cm^3
# Si number density = 18.328796 Si / 1000 Ang^3
#
#
#
# Elastic Constant Matrix: (Units=GPa)
#
#
# Indices 1 2 3 4 5 6 
#
# 1 66.4881 2.4629 17.2276 0.0000 0.0000 0.0000
# 2 2.4629 65.6463 20.8455 0.0000 0.0000 0.0000
# 3 17.2276 20.8455 63.4362 0.0000 0.0000 0.0000
# 4 0.0000 0.0000 0.0000 -18.6712 0.0000 0.0000
# 5 0.0000 0.0000 0.0000 0.0000 25.8173 0.0000
# 6 0.0000 0.0000 0.0000 0.0000 0.0000 -39.4857
#
#
#
# Elastic Compliance Matrix: (Units=1/GPa)
#
#
# Indices 1 2 3 4 5 6 
#
# 1 0.016224 0.000883 -0.004696 0.000000 0.000000 0.000000
# 2 0.000883 0.017056 -0.005844 0.000000 0.000000 0.000000
# 3 -0.004696 -0.005844 0.018960 0.000000 0.000000 0.000000
# 4 0.000000 0.000000 0.000000 -0.053558 0.000000 0.000000
# 5 0.000000 0.000000 0.000000 0.000000 0.038734 0.000000
# 6 0.000000 0.000000 0.000000 0.000000 0.000000 -0.025326
#
#
# Mechanical properties :
#
#
# Convention : Reuss Voigt Hill
#
# Bulk Modulus (GPa) = 30.37287 30.73805 30.55546
# Shear Modulus (GPa) = 117.97974 3.86772 60.92373
#
# Velocity S-wave (km/s) = 8.03170 1.45423 5.77161
# Velocity P-wave (km/s) = 10.13006 4.43018 7.81807
#
# Compressibility (1/GPa) = 0.03292412
#
# Stress axis : x y z
#
# Youngs Moduli (GPa) = 61.63561 58.63090 52.74354
#
# Poissons Ratio (x) = -0.05174 0.24769
# Poissons Ratio (y) = -0.05439 0.30825
# Poissons Ratio (z) = 0.28945 0.34266
#
# Static dielectric constant tensor:
#      x y z
#    x 3.641470 0.000000 0.000000 
#    y 0.000000 3.269300 0.000000 
#    z 0.000000 0.000000 3.302980 
# 
# 
# High freq. dielectric constant tensor:
#      x y z
#    x 1.717280 0.000000 0.000000 
#    y 0.000000 1.703570 0.000000 
#    z 0.000000 0.000000 1.699070 
# 
# From -- ./inp_files/32271.got.cif
#   From: 2010.03.12/outbox.cif.g09.slc.cpg/sg62_17_cif.got.tgz:32271.got - 2010.04.10 19:12:36.
