data_PCOD8250686
_publ_section_title
;
Structure prediction by ZEFSAII (Michael W. Deem and Ramdas Pophale) SiO2 
 PCOD8250686
Probable space group: P N M A
;
_chemical_formula_sum "Si O2"
_cell_formula_units_Z 28
_cell_length_a 13.385492
_cell_length_b 5.236354
_cell_length_c 19.319192
_cell_angle_alpha 90.000000
_cell_angle_beta 90.000000
_cell_angle_gamma 90.000000
_cell_volume 1354.104859
_symmetry_space_group_name_H-M "P N M A"
_symmetry_group_IT_number 62
_symmetry_cell_setting 'orthorhombic'
loop_
_space_group_symop_operation_xyz
x,y,z
1/2-x,-y,1/2+z
1/2+x,1/2-y,1/2-z
-x,1/2+y,-z
-x,-y,-z
1/2+x,y,1/2-z
1/2-x,1/2+y,1/2+z
x,1/2-y,z
loop_
_atom_site_type_symbol
_atom_site_label
_atom_site_fract_x
_atom_site_fract_y
_atom_site_fract_z
Si Si1 0.729963 0.750000 0.662082
Si Si2 0.466256 0.250000 0.539743
Si Si3 0.426966 0.750000 0.171823
Si Si4 0.609484 0.250000 0.663360
Si Si5 0.792493 0.250000 0.875890
Si Si6 0.046937 0.250000 0.332842
Si Si7 0.164296 0.250000 0.204359
O O1 0.672201 0.496960 0.639237
O O2 0.843209 0.750000 0.630753
O O3 0.737758 0.750000 0.746181
O O4 0.500000 0.500000 0.500000
O O5 0.508977 0.250000 0.618365
O O6 0.344408 0.250000 0.547852
O O7 0.409394 0.750000 0.254281
O O8 0.326598 0.750000 0.125811
O O9 0.486946 0.502317 0.146364
O O10 0.836249 0.499294 0.840351
O O11 0.062294 0.250000 0.249414
#
# Coordination Sequence:
#
# PCOD8250686 Si02
#       7
#     4   4   4   4   4   4   4
#     4  10  20  35  53  91 122 153 192 258 323 391
#     4  12  28  46  62  89 126 185 229 247 294 368
#     4  12  19  33  56  95 113 166 180 257 345 362
#     4  12  21  37  63  83 124 161 221 254 311 376
#     4  12  22  39  59  83 129 158 215 269 296 377
#     4  10  20  29  51  83 134 135 182 226 323 414
#     4  10  18  35  52  88 128 152 185 257 322 378
#
# _framework density 20.677866999999999
#
# number of rings (size 3 to 8) (size 9 to 14) (size 15 to 20)
#    0.857    0.000    2.857    6.857    0.000    0.000 
#    0.000    0.000    0.000    0.000    0.000   20.000 
#    0.000    0.000    0.000    0.000    0.000    0.000 
#
# Total GULP energy -347040.620459 kJ/mol
# GULP energy per Si atom -12394.307874 kJ/mol
# Density = 2.063080 g / cm^3
# Si number density = 20.677867 Si / 1000 Ang^3
#
#
#
# Elastic Constant Matrix: (Units=GPa)
#
#
# Indices 1 2 3 4 5 6 
#
# 1 114.1456 48.0902 15.5589 0.0000 0.0000 0.0000
# 2 48.0902 194.3819 6.8949 0.0000 0.0000 0.0000
# 3 15.5589 6.8949 24.9347 0.0000 0.0000 0.0000
# 4 0.0000 0.0000 0.0000 22.8335 0.0000 0.0000
# 5 0.0000 0.0000 0.0000 0.0000 32.0179 0.0000
# 6 0.0000 0.0000 0.0000 0.0000 0.0000 23.8467
#
#
#
# Elastic Compliance Matrix: (Units=1/GPa)
#
#
# Indices 1 2 3 4 5 6 
#
# 1 0.010585 -0.002408 -0.005939 0.000000 0.000000 0.000000
# 2 -0.002408 0.005743 -0.000086 0.000000 0.000000 0.000000
# 3 -0.005939 -0.000086 0.043834 0.000000 0.000000 0.000000
# 4 0.000000 0.000000 0.000000 0.043795 0.000000 0.000000
# 5 0.000000 0.000000 0.000000 0.000000 0.031232 0.000000
# 6 0.000000 0.000000 0.000000 0.000000 0.000000 0.041934
#
#
# Mechanical properties :
#
#
# Convention : Reuss Voigt Hill
#
# Bulk Modulus (GPa) = 23.09612 52.72781 37.91196
# Shear Modulus (GPa) = 23.98981 33.26752 28.62866
#
# Velocity S-wave (km/s) = 3.40982 4.01539 3.72493
# Velocity P-wave (km/s) = 5.16684 6.85951 6.07244
#
# Compressibility (1/GPa) = 0.04329732
#
# Stress axis : x y z
#
# Youngs Moduli (GPa) = 94.47539 174.11615 22.81325
#
# Poissons Ratio (x) = 0.41928 0.13549
# Poissons Ratio (y) = 0.22750 0.00195
# Poissons Ratio (z) = 0.56108 0.01489
#
# Static dielectric constant tensor:
#      x y z
#    x 3.893900 0.000000 0.000000 
#    y 0.000000 3.808880 0.000000 
#    z 0.000000 0.000000 3.253540 
# 
# 
# High freq. dielectric constant tensor:
#      x y z
#    x 1.822710 0.000000 0.000000 
#    y 0.000000 1.838150 0.000000 
#    z 0.000000 0.000000 1.743690 
# 
# From -- ./inp_files/22689.got.cif
#   From: 2010.03.12/outbox.cif.g09.slc.cpg/sg62_12_cif.got.tgz:22689.got - 2010.04.10 19:12:36.
