data_PCOD8250016
_publ_section_title
;
Structure prediction by ZEFSAII (Michael W. Deem and Ramdas Pophale) SiO2 
 PCOD8250016
Probable space group: P N M A
;
_chemical_formula_sum "Si O2"
_cell_formula_units_Z 64
_cell_length_a 30.361448
_cell_length_b 9.043969
_cell_length_c 14.335865
_cell_angle_alpha 90.000000
_cell_angle_beta 90.000000
_cell_angle_gamma 90.000000
_cell_volume 3936.456420
_symmetry_space_group_name_H-M "P N M A"
_symmetry_group_IT_number 62
_symmetry_cell_setting 'orthorhombic'
loop_
_space_group_symop_operation_xyz
x,y,z
1/2-x,-y,1/2+z
1/2+x,1/2-y,1/2-z
-x,1/2+y,-z
-x,-y,-z
1/2+x,y,1/2-z
1/2-x,1/2+y,1/2+z
x,1/2-y,z
loop_
_atom_site_type_symbol
_atom_site_label
_atom_site_fract_x
_atom_site_fract_y
_atom_site_fract_z
Si Si1 0.455789 0.574093 0.393327
Si Si2 0.813306 0.584935 0.983217
Si Si3 0.633516 0.422310 0.300436
Si Si4 0.273254 0.923562 0.010042
Si Si5 0.803772 0.425365 0.667372
Si Si6 0.282927 0.926068 0.222107
Si Si7 0.635389 0.416704 0.666442
Si Si8 0.543599 0.075636 0.392758
O O1 0.459040 0.750000 0.386672
O O2 0.414000 0.514458 0.331725
O O3 0.449078 0.524093 0.500688
O O4 0.499910 0.501789 0.351547
O O5 0.792180 0.750000 0.982354
O O6 0.777079 0.465116 0.011364
O O7 0.851993 0.579616 0.058018
O O8 0.833454 0.543753 0.884467
O O9 0.633573 0.250000 0.274196
O O10 0.651124 0.517313 0.213890
O O11 0.584674 0.475171 0.329147
O O12 0.280304 0.750000 0.997980
O O13 0.303985 0.008999 0.936989
O O14 0.283999 0.977442 0.114957
O O15 0.804656 0.250000 0.662406
O O16 0.760932 0.484110 0.724974
O O17 0.282778 0.750000 0.231215
O O18 0.326962 0.995578 0.270558
O O19 0.632174 0.250000 0.703489
O O20 0.537375 0.250000 0.387564
#
# Coordination Sequence:
#
# PCOD8250016 Si02
#       8
#     8   8   8   8   8   8   8   8
#     4   9  16  27  46  69  92 123 162 195 226 279
#     4  10  17  28  48  69  94 128 163 194 231 276
#     4  10  19  31  48  71  97 130 165 196 235 286
#     4  11  21  33  46  68  97 125 160 201 238 276
#     4  11  21  34  50  69  94 128 164 199 238 280
#     4   9  18  30  47  68  92 122 158 195 233 277
#     4   9  15  28  48  68  91 126 164 192 227 279
#     4   9  17  29  44  66  98 129 154 189 239 286
#
# _framework density 16.258277
#
# number of rings (size 3 to 8) (size 9 to 14) (size 15 to 20)
#    0.000    2.250    3.750    0.750    0.000    0.500 
#    0.000    0.625    0.000    0.000    0.000    0.875 
#    0.000    0.000    0.000    0.000    0.000    0.000 
#
# Total GULP energy -793273.310686 kJ/mol
# GULP energy per Si atom -12394.895479 kJ/mol
# Density = 1.622127 g / cm^3
# Si number density = 16.258277 Si / 1000 Ang^3
#
#
#
# Elastic Constant Matrix: (Units=GPa)
#
#
# Indices 1 2 3 4 5 6 
#
# 1 111.5150 24.2351 28.6586 0.0000 0.0000 0.0000
# 2 24.2351 32.1979 17.2998 0.0000 0.0000 0.0000
# 3 28.6586 17.2998 65.5871 0.0000 0.0000 0.0000
# 4 0.0000 0.0000 0.0000 19.4435 0.0000 0.0000
# 5 0.0000 0.0000 0.0000 0.0000 20.2674 0.0000
# 6 0.0000 0.0000 0.0000 0.0000 0.0000 25.4322
#
#
#
# Elastic Compliance Matrix: (Units=1/GPa)
#
#
# Indices 1 2 3 4 5 6 
#
# 1 0.011245 -0.006786 -0.003124 0.000000 0.000000 0.000000
# 2 -0.006786 0.040281 -0.007660 0.000000 0.000000 0.000000
# 3 -0.003124 -0.007660 0.018632 0.000000 0.000000 0.000000
# 4 0.000000 0.000000 0.000000 0.051431 0.000000 0.000000
# 5 0.000000 0.000000 0.000000 0.000000 0.049340 0.000000
# 6 0.000000 0.000000 0.000000 0.000000 0.000000 0.039320
#
#
# Mechanical properties :
#
#
# Convention : Reuss Voigt Hill
#
# Bulk Modulus (GPa) = 28.55525 38.85413 33.70469
# Shear Modulus (GPa) = 19.45064 22.30240 20.87652
#
# Velocity S-wave (km/s) = 3.46259 3.70774 3.58726
# Velocity P-wave (km/s) = 5.79549 6.50229 6.15903
#
# Compressibility (1/GPa) = 0.03501983
#
# Stress axis : x y z
#
# Youngs Moduli (GPa) = 88.92963 24.82565 53.67044
#
# Poissons Ratio (x) = 0.16846 0.16765
# Poissons Ratio (y) = 0.60344 0.41111
# Poissons Ratio (z) = 0.27779 0.19016
#
# Static dielectric constant tensor:
#      x y z
#    x 3.194080 0.000000 0.000000 
#    y 0.000000 2.845020 0.000000 
#    z 0.000000 0.000000 2.989290 
# 
# 
# High freq. dielectric constant tensor:
#      x y z
#    x 1.620730 0.000000 0.000000 
#    y 0.000000 1.602780 0.000000 
#    z 0.000000 0.000000 1.601000 
# 
# From -- ./inp_files/21244.got.cif
#   From: 2010.03.12/outbox.cif.g09.slc.cpg/sg62_11_cif.got.tgz:21244.got - 2010.04.10 19:12:36.
