data_PCOD8250629
_publ_section_title
;
Structure prediction by ZEFSAII (Michael W. Deem and Ramdas Pophale) SiO2 
 PCOD8250629
Probable space group: P N M A
;
_chemical_formula_sum "Si O2"
_cell_formula_units_Z 64
_cell_length_a 11.991466
_cell_length_b 8.818394
_cell_length_c 30.831856
_cell_angle_alpha 90.000000
_cell_angle_beta 90.000000
_cell_angle_gamma 90.000000
_cell_volume 3260.329160
_symmetry_space_group_name_H-M "P N M A"
_symmetry_group_IT_number 62
_symmetry_cell_setting 'orthorhombic'
loop_
_space_group_symop_operation_xyz
x,y,z
1/2-x,-y,1/2+z
1/2+x,1/2-y,1/2-z
-x,1/2+y,-z
-x,-y,-z
1/2+x,y,1/2-z
1/2-x,1/2+y,1/2+z
x,1/2-y,z
loop_
_atom_site_type_symbol
_atom_site_label
_atom_site_fract_x
_atom_site_fract_y
_atom_site_fract_z
Si Si1 0.410805 0.069562 0.625806
Si Si2 0.737221 0.923526 0.163808
Si Si3 0.344649 0.569724 0.118429
Si Si4 0.538850 0.076001 0.709133
Si Si5 0.549017 0.071072 0.542747
Si Si6 0.242346 0.425774 0.423570
Si Si7 0.502232 0.571222 0.952837
Si Si8 0.498464 0.929841 0.196318
O O1 0.419225 0.250000 0.626877
O O2 0.283098 0.015235 0.622047
O O3 0.465429 0.002287 0.670189
O O4 0.480296 0.009283 0.584440
O O5 0.728918 0.750000 0.146918
O O6 0.829548 0.938162 0.200851
O O7 0.620733 0.982051 0.182247
O O8 0.775338 0.031445 0.125134
O O9 0.353577 0.750000 0.114153
O O10 0.397764 0.498119 0.075359
O O11 0.408909 0.509305 0.161311
O O12 0.501272 0.250000 0.712513
O O13 0.520099 0.997332 0.755964
O O14 0.541414 0.250000 0.539628
O O15 0.500000 0.000000 0.500000
O O16 0.677768 0.020104 0.544702
O O17 0.262870 0.250000 0.432605
O O18 0.114480 0.472395 0.430606
O O19 0.519476 0.750000 0.956419
O O20 0.500000 0.500000 0.000000
O O21 0.487381 0.750000 0.198892
#
# Coordination Sequence:
#
# PCOD8250629 Si02
#       8
#     8   8   8   8   8   8   8   8
#     4   9  19  34  54  81 117 151 184 232 288 336
#     4  10  18  33  57  83 112 150 195 241 289 346
#     4  10  20  36  57  84 117 151 187 232 284 342
#     4   9  17  30  51  84 118 147 184 239 288 331
#     4  11  23  40  60  87 118 154 195 240 291 348
#     4  11  23  40  61  84 113 150 194 244 293 344
#     4  11  25  42  61  85 113 149 190 238 291 347
#     4   9  18  29  51  86 116 146 190 236 284 339
#
# _framework density 19.629918
#
# number of rings (size 3 to 8) (size 9 to 14) (size 15 to 20)
#    0.000    2.000    2.500    1.125    3.500    1.500 
#    0.000    0.625    0.000    1.500    0.000    0.000 
#    0.000    0.000    0.000    0.000    0.000    0.000 
#
# Total GULP energy -793586.843686 kJ/mol
# GULP energy per Si atom -12399.794433 kJ/mol
# Density = 1.958524 g / cm^3
# Si number density = 19.629918 Si / 1000 Ang^3
#
#
#
# Elastic Constant Matrix: (Units=GPa)
#
#
# Indices 1 2 3 4 5 6 
#
# 1 116.9960 27.4514 35.7114 0.0000 0.0000 0.0000
# 2 27.4514 39.0416 26.2893 0.0000 0.0000 0.0000
# 3 35.7114 26.2893 130.3941 0.0000 0.0000 0.0000
# 4 0.0000 0.0000 0.0000 22.1300 0.0000 0.0000
# 5 0.0000 0.0000 0.0000 0.0000 32.5789 0.0000
# 6 0.0000 0.0000 0.0000 0.0000 0.0000 21.2233
#
#
#
# Elastic Compliance Matrix: (Units=1/GPa)
#
#
# Indices 1 2 3 4 5 6 
#
# 1 0.010520 -0.006314 -0.001608 0.000000 0.000000 0.000000
# 2 -0.006314 0.033427 -0.005010 0.000000 0.000000 0.000000
# 3 -0.001608 -0.005010 0.009120 0.000000 0.000000 0.000000
# 4 0.000000 0.000000 0.000000 0.045187 0.000000 0.000000
# 5 0.000000 0.000000 0.000000 0.000000 0.030695 0.000000
# 6 0.000000 0.000000 0.000000 0.000000 0.000000 0.047118
#
#
# Mechanical properties :
#
#
# Convention : Reuss Voigt Hill
#
# Bulk Modulus (GPa) = 36.76215 51.70399 44.23307
# Shear Modulus (GPa) = 23.69695 28.31841 26.00768
#
# Velocity S-wave (km/s) = 3.47823 3.80230 3.64387
# Velocity P-wave (km/s) = 5.90754 6.75819 6.34713
#
# Compressibility (1/GPa) = 0.02720189
#
# Stress axis : x y z
#
# Youngs Moduli (GPa) = 95.06069 29.91614 109.65420
#
# Poissons Ratio (x) = 0.18889 0.17633
# Poissons Ratio (y) = 0.60020 0.54938
# Poissons Ratio (z) = 0.15286 0.14988
#
# Static dielectric constant tensor:
#      x y z
#    x 3.669470 0.000000 0.000000 
#    y 0.000000 3.150910 0.000000 
#    z 0.000000 0.000000 3.707630 
# 
# 
# High freq. dielectric constant tensor:
#      x y z
#    x 1.779490 0.000000 0.000000 
#    y 0.000000 1.717300 0.000000 
#    z 0.000000 0.000000 1.776340 
# 
# From -- ./inp_files/32565.got.cif
#   From: 2010.03.12/outbox.cif.g09.slc.cpg/sg62_17_cif.got.tgz:32565.got - 2010.04.10 19:12:36.
