data_PCOD8250837
_publ_section_title
;
Structure prediction by ZEFSAII (Michael W. Deem and Ramdas Pophale) SiO2 
 PCOD8250837
Probable space group: P N M A
;
_chemical_formula_sum "Si O2"
_cell_formula_units_Z 56
_cell_length_a 19.531121
_cell_length_b 8.896172
_cell_length_c 19.160280
_cell_angle_alpha 90.000000
_cell_angle_beta 90.000000
_cell_angle_gamma 90.000000
_cell_volume 3329.141028
_symmetry_space_group_name_H-M "P N M A"
_symmetry_group_IT_number 62
_symmetry_cell_setting 'orthorhombic'
loop_
_space_group_symop_operation_xyz
x,y,z
1/2-x,-y,1/2+z
1/2+x,1/2-y,1/2-z
-x,1/2+y,-z
-x,-y,-z
1/2+x,y,1/2-z
1/2-x,1/2+y,1/2+z
x,1/2-y,z
loop_
_atom_site_type_symbol
_atom_site_label
_atom_site_fract_x
_atom_site_fract_y
_atom_site_fract_z
Si Si1 0.517200 0.927767 0.209363
Si Si2 0.766636 0.573001 0.369934
Si Si3 0.159777 0.572327 0.237738
Si Si4 0.193455 0.424837 0.480030
Si Si5 0.948885 0.428476 0.554826
Si Si6 0.869676 0.571650 0.250923
Si Si7 0.263609 0.076771 0.339621
O O1 0.511253 0.750000 0.205893
O O2 0.580266 0.977081 0.259394
O O3 0.529258 0.988268 0.131231
O O4 0.446743 0.992357 0.241389
O O5 0.768536 0.750000 0.376087
O O6 0.693803 0.522412 0.336024
O O7 0.776503 0.507531 0.447477
O O8 0.827715 0.518607 0.319306
O O9 0.167675 0.750000 0.249074
O O10 0.198925 0.496138 0.301482
O O11 0.171928 0.250000 0.486975
O O12 0.127779 0.520769 0.460148
O O13 0.252690 0.444907 0.422330
O O14 0.953412 0.250000 0.550017
O O15 0.000000 0.500000 0.500000
O O16 0.868004 0.750000 0.242796
O O17 0.834904 0.501335 0.182177
O O18 0.267320 0.250000 0.318435
#
# Coordination Sequence:
#
# PCOD8250837 Si02
#       7
#     8   8   8   8   8   8   8
#     4   9  17  30  50  72  92 120 161 203 236 275
#     4   8  15  28  48  68  90 122 158 195 231 277
#     4   9  16  31  52  70  89 119 164 204 235 274
#     4  10  19  32  48  69  97 128 160 193 239 288
#     4  11  21  32  47  70 101 130 158 192 237 291
#     4   9  17  31  50  68  90 121 159 199 233 274
#     4  10  19  30  46  69  97 125 156 195 239 291
#
# _framework density 16.821155000000001
#
# number of rings (size 3 to 8) (size 9 to 14) (size 15 to 20)
#    0.000    2.571    1.429    2.571    0.000    2.857 
#    0.000    7.857    0.000    0.857    0.000    0.000 
#    0.000    0.000    0.000    0.000    0.000    0.143 
#
# Total GULP energy -694156.766733 kJ/mol
# GULP energy per Si atom -12395.656549 kJ/mol
# Density = 1.678287 g / cm^3
# Si number density = 16.821155 Si / 1000 Ang^3
#
#
#
# Elastic Constant Matrix: (Units=GPa)
#
#
# Indices 1 2 3 4 5 6 
#
# 1 157.9110 30.2279 75.1368 0.0000 0.0000 0.0000
# 2 30.2279 41.0760 26.6104 0.0000 0.0000 0.0000
# 3 75.1368 26.6104 90.0163 0.0000 0.0000 0.0000
# 4 0.0000 0.0000 0.0000 19.8931 0.0000 0.0000
# 5 0.0000 0.0000 0.0000 0.0000 27.5117 0.0000
# 6 0.0000 0.0000 0.0000 0.0000 0.0000 19.3300
#
#
#
# Elastic Compliance Matrix: (Units=1/GPa)
#
#
# Indices 1 2 3 4 5 6 
#
# 1 0.010723 -0.002588 -0.008185 0.000000 0.000000 0.000000
# 2 -0.002588 0.030737 -0.006926 0.000000 0.000000 0.000000
# 3 -0.008185 -0.006926 0.019989 0.000000 0.000000 0.000000
# 4 0.000000 0.000000 0.000000 0.050269 0.000000 0.000000
# 5 0.000000 0.000000 0.000000 0.000000 0.036348 0.000000
# 6 0.000000 0.000000 0.000000 0.000000 0.000000 0.051733
#
#
# Mechanical properties :
#
#
# Convention : Reuss Voigt Hill
#
# Bulk Modulus (GPa) = 38.38848 61.43928 49.91388
# Shear Modulus (GPa) = 20.50191 23.81552 22.15871
#
# Velocity S-wave (km/s) = 3.49494 3.76680 3.63342
# Velocity P-wave (km/s) = 6.25758 7.45136 6.88041
#
# Compressibility (1/GPa) = 0.02604948
#
# Stress axis : x y z
#
# Youngs Moduli (GPa) = 93.25924 32.53449 50.02829
#
# Poissons Ratio (x) = 0.08421 0.40949
# Poissons Ratio (y) = 0.24138 0.34649
# Poissons Ratio (z) = 0.76335 0.22533
#
# Static dielectric constant tensor:
#      x y z
#    x 3.473340 0.000000 0.000000 
#    y 0.000000 2.947230 0.000000 
#    z 0.000000 0.000000 3.379170 
# 
# 
# High freq. dielectric constant tensor:
#      x y z
#    x 1.646220 0.000000 0.000000 
#    y 0.000000 1.625190 0.000000 
#    z 0.000000 0.000000 1.640210 
# 
# From -- ./inp_files/24630.got.cif
#   From: 2010.03.12/outbox.cif.g09.slc.cpg/sg62_13_cif.got.tgz:24630.got - 2010.04.10 19:12:36.
