data_PCOD8250391
_publ_section_title
;
Structure prediction by ZEFSAII (Michael W. Deem and Ramdas Pophale) SiO2 
 PCOD8250391
Probable space group: P N M A
;
_chemical_formula_sum "Si O2"
_cell_formula_units_Z 40
_cell_length_a 8.392790
_cell_length_b 26.232464
_cell_length_c 8.935775
_cell_angle_alpha 90.000000
_cell_angle_beta 90.000000
_cell_angle_gamma 90.000000
_cell_volume 1967.332049
_symmetry_space_group_name_H-M "P N M A"
_symmetry_group_IT_number 62
_symmetry_cell_setting 'orthorhombic'
loop_
_space_group_symop_operation_xyz
x,y,z
1/2-x,-y,1/2+z
1/2+x,1/2-y,1/2-z
-x,1/2+y,-z
-x,-y,-z
1/2+x,y,1/2-z
1/2-x,1/2+y,1/2+z
x,1/2-y,z
loop_
_atom_site_type_symbol
_atom_site_label
_atom_site_fract_x
_atom_site_fract_y
_atom_site_fract_z
Si Si1 0.707546 0.145550 0.049357
Si Si2 0.317680 0.750000 0.624211
Si Si3 0.312018 0.250000 0.450696
Si Si4 0.661422 0.048303 0.869913
Si Si5 0.661491 0.646852 0.874695
Si Si6 0.293854 0.451174 0.950495
O O1 0.761155 0.197968 0.963598
O O2 0.525251 0.147246 0.097230
O O3 0.815404 0.140317 0.197283
O O4 0.742699 0.098921 0.938264
O O5 0.296811 0.750000 0.801982
O O6 0.502657 0.750000 0.586318
O O7 0.236286 0.801055 0.558780
O O8 0.680848 0.046648 0.692587
O O9 0.475075 0.047800 0.898913
O O10 0.745278 0.999421 0.944699
O O11 0.745967 0.599903 0.958046
#
# Coordination Sequence:
#
# PCOD8250391 Si02
#       6
#     8   4   4   8   8   8
#     4  10  19  33  54  80 109 140 177 218 261 310
#     4  10  18  30  51  78 107 140 178 216 260 310
#     4  10  18  30  51  78 107 140 178 216 260 310
#     4  10  22  38  56  80 108 139 176 218 264 315
#     4  10  19  33  54  80 109 140 177 218 261 310
#     4  10  22  38  56  80 108 139 176 218 264 315
#
# _framework density 20.332101999999999
#
# number of rings (size 3 to 8) (size 9 to 14) (size 15 to 20)
#    0.000    2.000    0.000    6.600    0.000    4.000 
#    0.000    1.000    0.000    0.000    0.000    0.000 
#    0.000    0.000    0.000    0.000    0.000    0.000 
#
# Total GULP energy -496006.674311 kJ/mol
# GULP energy per Si atom -12400.166858 kJ/mol
# Density = 2.028583 g / cm^3
# Si number density = 20.332102 Si / 1000 Ang^3
#
#
#
# Elastic Constant Matrix: (Units=GPa)
#
#
# Indices 1 2 3 4 5 6 
#
# 1 33.9055 13.5920 -9.8428 0.0000 0.0000 0.0000
# 2 13.5920 191.4705 37.3514 0.0000 0.0000 0.0000
# 3 -9.8428 37.3514 53.3758 0.0000 0.0000 0.0000
# 4 0.0000 0.0000 0.0000 34.0876 0.0000 0.0000
# 5 0.0000 0.0000 0.0000 0.0000 21.5825 0.0000
# 6 0.0000 0.0000 0.0000 0.0000 0.0000 26.3158
#
#
#
# Elastic Compliance Matrix: (Units=1/GPa)
#
#
# Indices 1 2 3 4 5 6 
#
# 1 0.033837 -0.004191 0.009173 0.000000 0.000000 0.000000
# 2 -0.004191 0.006568 -0.005369 0.000000 0.000000 0.000000
# 3 0.009173 -0.005369 0.024184 0.000000 0.000000 0.000000
# 4 0.000000 0.000000 0.000000 0.029336 0.000000 0.000000
# 5 0.000000 0.000000 0.000000 0.000000 0.046334 0.000000
# 6 0.000000 0.000000 0.000000 0.000000 0.000000 0.038000
#
#
# Mechanical properties :
#
#
# Convention : Reuss Voigt Hill
#
# Bulk Modulus (GPa) = 15.67078 40.10592 27.88835
# Shear Modulus (GPa) = 24.96206 32.24057 28.60132
#
# Velocity S-wave (km/s) = 3.50768 3.98640 3.75468
# Velocity P-wave (km/s) = 4.91215 6.39975 5.70465
#
# Compressibility (1/GPa) = 0.06381305
#
# Stress axis : x y z
#
# Youngs Moduli (GPa) = 29.55361 152.26258 41.35041
#
# Poissons Ratio (x) = 0.63819 -0.37930
# Poissons Ratio (y) = 0.12387 0.22200
# Poissons Ratio (z) = -0.27109 0.81747
#
# Static dielectric constant tensor:
#      x y z
#    x 3.496770 0.000000 0.000000 
#    y 0.000000 4.593080 0.000000 
#    z 0.000000 0.000000 3.417840 
# 
# 
# High freq. dielectric constant tensor:
#      x y z
#    x 1.793980 0.000000 0.000000 
#    y 0.000000 1.825740 0.000000 
#    z 0.000000 0.000000 1.754500 
# 
# From -- ./inp_files/4425.got.cif
#   From: 2010.03.12/outbox.cif.g09.slc.cpg/sg62_3_cif.got.tgz:4425.got - 2010.04.10 19:12:36.
