data_PCOD8250445
_publ_section_title
;
Structure prediction by ZEFSAII (Michael W. Deem and Ramdas Pophale) SiO2 
 PCOD8250445
Probable space group: P N M A
;
_chemical_formula_sum "Si O2"
_cell_formula_units_Z 64
_cell_length_a 20.032623
_cell_length_b 9.592018
_cell_length_c 19.927232
_cell_angle_alpha 90.000000
_cell_angle_beta 90.000000
_cell_angle_gamma 90.000000
_cell_volume 3829.082998
_symmetry_space_group_name_H-M "P N M A"
_symmetry_group_IT_number 62
_symmetry_cell_setting 'orthorhombic'
loop_
_space_group_symop_operation_xyz
x,y,z
1/2-x,-y,1/2+z
1/2+x,1/2-y,1/2-z
-x,1/2+y,-z
-x,-y,-z
1/2+x,y,1/2-z
1/2-x,1/2+y,1/2+z
x,1/2-y,z
loop_
_atom_site_type_symbol
_atom_site_label
_atom_site_fract_x
_atom_site_fract_y
_atom_site_fract_z
Si Si1 0.230003 0.586874 0.071239
Si Si2 0.440812 0.909319 0.421377
Si Si3 0.731336 0.413164 0.075616
Si Si4 0.334960 0.584160 0.176045
Si Si5 0.177025 0.087050 0.826946
Si Si6 0.958805 0.588297 0.408416
Si Si7 0.421186 0.909081 0.940976
Si Si8 0.914647 0.410526 0.951509
O O1 0.245684 0.750000 0.069307
O O2 0.276929 0.519490 0.128406
O O3 0.152621 0.554209 0.090046
O O4 0.246590 0.528250 0.997215
O O5 0.433381 0.750000 0.444975
O O6 0.397769 0.938060 0.355091
O O7 0.519234 0.944294 0.407488
O O8 0.412722 0.003277 0.480427
O O9 0.749150 0.250000 0.083206
O O10 0.768689 0.500204 0.132403
O O11 0.652819 0.439888 0.085336
O O12 0.331517 0.750000 0.175478
O O13 0.323893 0.528900 0.251196
O O14 0.407059 0.536684 0.148326
O O15 0.196374 0.250000 0.830475
O O16 0.976284 0.750000 0.400026
O O17 0.924478 0.557246 0.479938
O O18 0.027452 0.504285 0.399618
O O19 0.441559 0.750000 0.927854
O O20 0.913244 0.250000 0.973796
#
# Coordination Sequence:
#
# PCOD8250445 Si02
#       8
#     8   8   8   8   8   8   8   8
#     4   9  15  27  49  72  90 120 166 202 228 276
#     4   9  17  28  42  67  97 119 144 190 245 282
#     4  10  18  31  51  72  95 126 165 202 238 286
#     4   9  17  31  49  70  98 131 163 196 239 290
#     4  10  20  32  47  70 102 131 157 199 250 290
#     4   9  16  29  49  71  95 124 159 197 237 288
#     4   9  17  29  48  73  97 120 154 203 246 277
#     4   9  16  27  47  69  88 115 157 197 227 272
#
# _framework density 16.714183999999999
#
# number of rings (size 3 to 8) (size 9 to 14) (size 15 to 20)
#    0.000    2.750    2.500    0.000    0.000    0.500 
#    0.000    1.875    0.000    6.750    0.000    3.500 
#    0.000    0.000    0.000    0.000    0.000    0.000 
#
# Total GULP energy -793339.550663 kJ/mol
# GULP energy per Si atom -12395.930479 kJ/mol
# Density = 1.667614 g / cm^3
# Si number density = 16.714184 Si / 1000 Ang^3
#
#
#
# Elastic Constant Matrix: (Units=GPa)
#
#
# Indices 1 2 3 4 5 6 
#
# 1 136.8647 45.9412 75.5176 0.0000 0.0000 0.0000
# 2 45.9412 41.2298 36.2157 0.0000 0.0000 0.0000
# 3 75.5176 36.2157 116.8177 0.0000 0.0000 0.0000
# 4 0.0000 0.0000 0.0000 18.1499 0.0000 0.0000
# 5 0.0000 0.0000 0.0000 0.0000 25.9981 0.0000
# 6 0.0000 0.0000 0.0000 0.0000 0.0000 25.7329
#
#
#
# Elastic Compliance Matrix: (Units=1/GPa)
#
#
# Indices 1 2 3 4 5 6 
#
# 1 0.014059 -0.010557 -0.005816 0.000000 0.000000 0.000000
# 2 -0.010557 0.041259 -0.005966 0.000000 0.000000 0.000000
# 3 -0.005816 -0.005966 0.014170 0.000000 0.000000 0.000000
# 4 0.000000 0.000000 0.000000 0.055097 0.000000 0.000000
# 5 0.000000 0.000000 0.000000 0.000000 0.038464 0.000000
# 6 0.000000 0.000000 0.000000 0.000000 0.000000 0.038861
#
#
# Mechanical properties :
#
#
# Convention : Reuss Voigt Hill
#
# Bulk Modulus (GPa) = 40.30778 67.80679 54.05728
# Shear Modulus (GPa) = 19.61885 23.12536 21.37210
#
# Velocity S-wave (km/s) = 3.42977 3.72368 3.57974
# Velocity P-wave (km/s) = 6.31290 7.69053 7.03551
#
# Compressibility (1/GPa) = 0.02480911
#
# Stress axis : x y z
#
# Youngs Moduli (GPa) = 71.12819 24.23739 70.57400
#
# Poissons Ratio (x) = 0.25588 0.41043
# Poissons Ratio (y) = 0.75092 0.42105
# Poissons Ratio (z) = 0.41366 0.14460
#
# Static dielectric constant tensor:
#      x y z
#    x 3.390090 0.000000 0.000000 
#    y 0.000000 2.928050 0.000000 
#    z 0.000000 0.000000 3.044930 
# 
# 
# High freq. dielectric constant tensor:
#      x y z
#    x 1.661340 0.000000 0.000000 
#    y 0.000000 1.616330 0.000000 
#    z 0.000000 0.000000 1.615940 
# 
# From -- ./inp_files/27887.got.cif
#   From: 2010.03.12/outbox.cif.g09.slc.cpg/sg62_14_cif.got.tgz:27887.got - 2010.04.10 19:12:36.
