data_PCOD8250174
_publ_section_title
;
Structure prediction by ZEFSAII (Michael W. Deem and Ramdas Pophale) SiO2 
 PCOD8250174
Probable space group: P N M A
;
_chemical_formula_sum "Si O2"
_cell_formula_units_Z 64
_cell_length_a 26.188088
_cell_length_b 8.810476
_cell_length_c 18.532667
_cell_angle_alpha 90.000000
_cell_angle_beta 90.000000
_cell_angle_gamma 90.000000
_cell_volume 4276.033376
_symmetry_space_group_name_H-M "P N M A"
_symmetry_group_IT_number 62
_symmetry_cell_setting 'orthorhombic'
loop_
_space_group_symop_operation_xyz
x,y,z
1/2-x,-y,1/2+z
1/2+x,1/2-y,1/2-z
-x,1/2+y,-z
-x,-y,-z
1/2+x,y,1/2-z
1/2-x,1/2+y,1/2+z
x,1/2-y,z
loop_
_atom_site_type_symbol
_atom_site_label
_atom_site_fract_x
_atom_site_fract_y
_atom_site_fract_z
Si Si1 0.253087 0.930983 0.931600
Si Si2 0.550018 0.072937 0.915760
Si Si3 0.697955 0.083652 0.277057
Si Si4 0.694734 0.584607 0.699293
Si Si5 0.752365 0.071378 0.416377
Si Si6 0.644400 0.931533 0.837907
Si Si7 0.846911 0.072548 0.646967
Si Si8 0.943662 0.926639 0.581934
O O1 0.254860 0.750000 0.925914
O O2 0.208952 0.997546 0.876706
O O3 0.308397 0.991071 0.908071
O O4 0.238858 0.982006 0.011282
O O5 0.539342 0.250000 0.904104
O O6 0.594540 0.017350 0.863774
O O7 0.499735 0.979931 0.894643
O O8 0.565901 0.038126 0.997835
O O9 0.671269 0.250000 0.278252
O O10 0.752868 0.103578 0.242004
O O11 0.708371 0.024868 0.358609
O O12 0.663586 0.968370 0.230819
O O13 0.672132 0.750000 0.680859
O O14 0.655359 0.506557 0.755646
O O15 0.750895 0.250000 0.431304
O O16 0.808570 0.022625 0.389527
O O17 0.636902 0.750000 0.838291
O O18 0.840793 0.250000 0.635863
O O19 0.903825 0.021850 0.628468
O O20 0.937361 0.750000 0.599448
#
# Coordination Sequence:
#
# PCOD8250174 Si02
#       8
#     8   8   8   8   8   8   8   8
#     4  10  18  28  42  60  85 115 145 175 208 248
#     4  10  20  31  43  62  84 105 136 177 212 242
#     4   8  15  29  44  58  81 111 140 171 209 250
#     4   7  13  26  41  56  76 107 142 170 198 239
#     4   9  17  28  43  63  86 112 143 177 209 246
#     4   9  16  28  44  58  78 111 144 170 204 248
#     4  11  20  29  43  62  84 110 143 179 211 246
#     4  10  20  33  46  59  80 111 141 170 209 252
#
# _framework density 14.967143
#
# number of rings (size 3 to 8) (size 9 to 14) (size 15 to 20)
#    0.000    2.750    0.000    5.250    0.000    4.500 
#    0.000    5.625    0.000    0.000    0.000    0.000 
#    0.000    1.000    0.000    3.000    0.000    4.625 
#
# Total GULP energy -793073.027646 kJ/mol
# GULP energy per Si atom -12391.766057 kJ/mol
# Density = 1.493308 g / cm^3
# Si number density = 14.967143 Si / 1000 Ang^3
#
#
#
# Elastic Constant Matrix: (Units=GPa)
#
#
# Indices 1 2 3 4 5 6 
#
# 1 62.9491 25.9607 45.7145 0.0000 0.0000 0.0000
# 2 25.9607 57.9365 36.8754 0.0000 0.0000 0.0000
# 3 45.7145 36.8754 111.7378 0.0000 0.0000 0.0000
# 4 0.0000 0.0000 0.0000 21.9567 0.0000 0.0000
# 5 0.0000 0.0000 0.0000 0.0000 23.9283 0.0000
# 6 0.0000 0.0000 0.0000 0.0000 0.0000 19.3580
#
#
#
# Elastic Compliance Matrix: (Units=1/GPa)
#
#
# Indices 1 2 3 4 5 6 
#
# 1 0.024002 -0.005703 -0.007938 0.000000 0.000000 0.000000
# 2 -0.005703 0.023205 -0.005325 0.000000 0.000000 0.000000
# 3 -0.007938 -0.005325 0.013954 0.000000 0.000000 0.000000
# 4 0.000000 0.000000 0.000000 0.045544 0.000000 0.000000
# 5 0.000000 0.000000 0.000000 0.000000 0.041792 0.000000
# 6 0.000000 0.000000 0.000000 0.000000 0.000000 0.051658
#
#
# Mechanical properties :
#
#
# Convention : Reuss Voigt Hill
#
# Bulk Modulus (GPa) = 43.04706 49.96942 46.50824
# Shear Modulus (GPa) = 20.33923 21.32010 20.82967
#
# Velocity S-wave (km/s) = 3.69036 3.77830 3.73459
# Velocity P-wave (km/s) = 6.85433 7.24518 7.05246
#
# Compressibility (1/GPa) = 0.02323039
#
# Stress axis : x y z
#
# Youngs Moduli (GPa) = 41.66254 43.09454 71.66223
#
# Poissons Ratio (x) = 0.24576 0.56884
# Poissons Ratio (y) = 0.23760 0.38159
# Poissons Ratio (z) = 0.33071 0.22947
#
# Static dielectric constant tensor:
#      x y z
#    x 2.682360 0.000000 0.000000 
#    y 0.000000 2.806670 0.000000 
#    z 0.000000 0.000000 3.175970 
# 
# 
# High freq. dielectric constant tensor:
#      x y z
#    x 1.538240 0.000000 0.000000 
#    y 0.000000 1.569570 0.000000 
#    z 0.000000 0.000000 1.568370 
# 
# From -- ./inp_files/25009.got.cif
#   From: 2010.03.12/outbox.cif.g09.slc.cpg/sg62_13_cif.got.tgz:25009.got - 2010.04.10 19:12:36.
