data_PCOD8250924
_publ_section_title
;
Structure prediction by ZEFSAII (Michael W. Deem and Ramdas Pophale) SiO2 
 PCOD8250924
Probable space group: P N M A
;
_chemical_formula_sum "Si O2"
_cell_formula_units_Z 64
_cell_length_a 30.624731
_cell_length_b 9.163598
_cell_length_c 14.382270
_cell_angle_alpha 90.000000
_cell_angle_beta 90.000000
_cell_angle_gamma 90.000000
_cell_volume 4036.135604
_symmetry_space_group_name_H-M "P N M A"
_symmetry_group_IT_number 62
_symmetry_cell_setting 'orthorhombic'
loop_
_space_group_symop_operation_xyz
x,y,z
1/2-x,-y,1/2+z
1/2+x,1/2-y,1/2-z
-x,1/2+y,-z
-x,-y,-z
1/2+x,y,1/2-z
1/2-x,1/2+y,1/2+z
x,1/2-y,z
loop_
_atom_site_type_symbol
_atom_site_label
_atom_site_fract_x
_atom_site_fract_y
_atom_site_fract_z
Si Si1 0.634502 0.913859 0.822273
Si Si2 0.797888 0.918695 0.827849
Si Si3 0.316557 0.085499 0.989356
Si Si4 0.862474 0.583821 0.670799
Si Si5 0.951242 0.422405 0.399922
Si Si6 0.952434 0.918191 0.591737
Si Si7 0.770547 0.422961 0.000485
Si Si8 0.214513 0.576183 0.790238
O O1 0.631465 0.750000 0.783904
O O2 0.585148 0.982155 0.825289
O O3 0.670555 0.993158 0.756862
O O4 0.648419 0.917669 0.929303
O O5 0.789881 0.750000 0.853490
O O6 0.843753 0.940548 0.774088
O O7 0.757828 0.978247 0.763900
O O8 0.802682 0.010973 0.922554
O O9 0.299900 0.250000 0.971202
O O10 0.337788 0.025579 0.896299
O O11 0.276997 0.984662 0.022128
O O12 0.852350 0.750000 0.638555
O O13 0.914630 0.553284 0.668365
O O14 0.944492 0.250000 0.410537
O O15 0.942319 0.489610 0.500616
O O16 0.000244 0.461937 0.365091
O O17 0.953400 0.750000 0.560832
O O18 0.770351 0.250000 0.993307
O O19 0.784812 0.475997 0.103110
O O20 0.213971 0.750000 0.783267
#
# Coordination Sequence:
#
# PCOD8250924 Si02
#       8
#     8   8   8   8   8   8   8   8
#     4   9  16  27  44  64  86 118 151 179 215 263
#     4  10  19  33  48  63  89 123 154 183 224 270
#     4  11  19  28  46  68  92 122 156 186 219 265
#     4  10  19  31  45  64  93 127 154 183 226 269
#     4   9  16  27  43  65  90 116 148 184 221 268
#     4   9  17  27  42  65  92 118 146 182 225 269
#     4  11  21  33  47  66  91 118 153 193 229 263
#     4   9  17  30  46  63  86 117 148 181 223 265
#
# _framework density 15.856752
#
# number of rings (size 3 to 8) (size 9 to 14) (size 15 to 20)
#    0.000    2.250    3.750    0.750    0.000    0.500 
#    0.000    0.000    0.000    0.000    0.000    0.875 
#    0.000    0.000    0.000    0.000    0.000    0.000 
#
# Total GULP energy -793080.084662 kJ/mol
# GULP energy per Si atom -12391.876323 kJ/mol
# Density = 1.582066 g / cm^3
# Si number density = 15.856752 Si / 1000 Ang^3
#
#
#
# Elastic Constant Matrix: (Units=GPa)
#
#
# Indices 1 2 3 4 5 6 
#
# 1 119.8038 19.2641 39.4119 0.0000 0.0000 0.0000
# 2 19.2641 39.8721 25.4404 0.0000 0.0000 0.0000
# 3 39.4119 25.4404 75.9149 0.0000 0.0000 0.0000
# 4 0.0000 0.0000 0.0000 21.6194 0.0000 0.0000
# 5 0.0000 0.0000 0.0000 0.0000 24.9159 0.0000
# 6 0.0000 0.0000 0.0000 0.0000 0.0000 15.0988
#
#
#
# Elastic Compliance Matrix: (Units=1/GPa)
#
#
# Indices 1 2 3 4 5 6 
#
# 1 0.010186 -0.001968 -0.004629 0.000000 0.000000 0.000000
# 2 -0.001968 0.032282 -0.009796 0.000000 0.000000 0.000000
# 3 -0.004629 -0.009796 0.018859 0.000000 0.000000 0.000000
# 4 0.000000 0.000000 0.000000 0.046255 0.000000 0.000000
# 5 0.000000 0.000000 0.000000 0.000000 0.040135 0.000000
# 6 0.000000 0.000000 0.000000 0.000000 0.000000 0.066230
#
#
# Mechanical properties :
#
#
# Convention : Reuss Voigt Hill
#
# Bulk Modulus (GPa) = 35.03844 44.86929 39.95386
# Shear Modulus (GPa) = 19.51249 22.42513 20.96881
#
# Velocity S-wave (km/s) = 3.51172 3.76471 3.64041
# Velocity P-wave (km/s) = 6.21190 6.87426 6.55146
#
# Compressibility (1/GPa) = 0.02854009
#
# Stress axis : x y z
#
# Youngs Moduli (GPa) = 98.17260 30.97733 53.02610
#
# Poissons Ratio (x) = 0.06096 0.24544
# Poissons Ratio (y) = 0.19321 0.51947
# Poissons Ratio (z) = 0.45441 0.30347
#
# Static dielectric constant tensor:
#      x y z
#    x 3.371340 0.000000 0.000000 
#    y 0.000000 2.908090 0.000000 
#    z 0.000000 0.000000 2.892270 
# 
# 
# High freq. dielectric constant tensor:
#      x y z
#    x 1.611020 0.000000 0.000000 
#    y 0.000000 1.591510 0.000000 
#    z 0.000000 0.000000 1.577760 
# 
# From -- ./inp_files/21216.got.cif
#   From: 2010.03.12/outbox.cif.g09.slc.cpg/sg62_11_cif.got.tgz:21216.got - 2010.04.10 19:12:36.
