data_PCOD8250441
_publ_section_title
;
Structure prediction by ZEFSAII (Michael W. Deem and Ramdas Pophale) SiO2 
 PCOD8250441
Probable space group: P N M A
;
_chemical_formula_sum "Si O2"
_cell_formula_units_Z 64
_cell_length_a 29.522943
_cell_length_b 8.862365
_cell_length_c 12.378930
_cell_angle_alpha 90.000000
_cell_angle_beta 90.000000
_cell_angle_gamma 90.000000
_cell_volume 3238.861580
_symmetry_space_group_name_H-M "P N M A"
_symmetry_group_IT_number 62
_symmetry_cell_setting 'orthorhombic'
loop_
_space_group_symop_operation_xyz
x,y,z
1/2-x,-y,1/2+z
1/2+x,1/2-y,1/2-z
-x,1/2+y,-z
-x,-y,-z
1/2+x,y,1/2-z
1/2-x,1/2+y,1/2+z
x,1/2-y,z
loop_
_atom_site_type_symbol
_atom_site_label
_atom_site_fract_x
_atom_site_fract_y
_atom_site_fract_z
Si Si1 0.155825 0.419213 0.872766
Si Si2 0.562680 0.928606 0.306767
Si Si3 0.663773 0.929117 0.251097
Si Si4 0.940618 0.921519 0.033104
Si Si5 0.976608 0.428158 0.242451
Si Si6 0.318070 0.070837 0.987663
Si Si7 0.882787 0.071928 0.330156
Si Si8 0.279664 0.571275 0.557791
O O1 0.165792 0.250000 0.831963
O O2 0.149184 0.520944 0.767993
O O3 0.112943 0.422980 0.951183
O O4 0.196732 0.481541 0.946132
O O5 0.560730 0.750000 0.316323
O O6 0.612193 0.983307 0.269995
O O7 0.548885 0.005593 0.418586
O O8 0.523542 0.987803 0.223601
O O9 0.666855 0.750000 0.256997
O O10 0.678339 0.992907 0.133770
O O11 0.698053 0.994369 0.338740
O O12 0.959389 0.750000 0.039345
O O13 0.964597 0.026328 0.120590
O O14 0.983488 0.250000 0.251637
O O15 0.934774 0.485712 0.318244
O O16 0.318723 0.250000 0.981563
O O17 0.360991 0.012454 0.058052
O O18 0.272224 0.017343 0.047031
O O19 0.882867 0.250000 0.326086
O O20 0.284678 0.750000 0.571724
#
# Coordination Sequence:
#
# PCOD8250441 Si02
#       8
#     8   8   8   8   8   8   8   8
#     4   9  18  31  51  80 111 143 174 217 274 322
#     4  11  21  33  51  77 108 145 185 228 276 327
#     4  10  22  39  59  82 112 147 186 229 273 330
#     4  10  18  31  50  75 111 146 176 219 272 326
#     4  10  20  33  52  78 108 144 186 230 275 328
#     4   9  20  39  60  81 110 148 185 227 278 328
#     4   9  19  36  57  79 107 145 188 227 268 325
#     4  10  20  36  58  83 112 144 179 223 279 333
#
# _framework density 19.76003
#
# number of rings (size 3 to 8) (size 9 to 14) (size 15 to 20)
#    0.000    2.250    1.250    1.500    1.750    2.000 
#    0.000    1.875    0.000    0.000    0.000    0.000 
#    0.000    0.000    0.000    0.000    0.000    0.000 
#
# Total GULP energy -793372.177902 kJ/mol
# GULP energy per Si atom -12396.440280 kJ/mol
# Density = 1.971506 g / cm^3
# Si number density = 19.760030 Si / 1000 Ang^3
#
#
#
# Elastic Constant Matrix: (Units=GPa)
#
#
# Indices 1 2 3 4 5 6 
#
# 1 130.9219 19.3238 49.4839 0.0000 0.0000 0.0000
# 2 19.3238 28.6826 9.7827 0.0000 0.0000 0.0000
# 3 49.4839 9.7827 80.7920 0.0000 0.0000 0.0000
# 4 0.0000 0.0000 0.0000 18.6099 0.0000 0.0000
# 5 0.0000 0.0000 0.0000 0.0000 18.1254 0.0000
# 6 0.0000 0.0000 0.0000 0.0000 0.0000 24.1632
#
#
#
# Elastic Compliance Matrix: (Units=1/GPa)
#
#
# Indices 1 2 3 4 5 6 
#
# 1 0.010621 -0.005150 -0.005882 0.000000 0.000000 0.000000
# 2 -0.005150 0.038863 -0.001552 0.000000 0.000000 0.000000
# 3 -0.005882 -0.001552 0.016168 0.000000 0.000000 0.000000
# 4 0.000000 0.000000 0.000000 0.053735 0.000000 0.000000
# 5 0.000000 0.000000 0.000000 0.000000 0.055171 0.000000
# 6 0.000000 0.000000 0.000000 0.000000 0.000000 0.041385
#
#
# Mechanical properties :
#
#
# Convention : Reuss Voigt Hill
#
# Bulk Modulus (GPa) = 24.69999 44.17524 34.43761
# Shear Modulus (GPa) = 19.63828 22.96679 21.30254
#
# Velocity S-wave (km/s) = 3.15594 3.41293 3.28695
# Velocity P-wave (km/s) = 5.08007 6.15915 5.64545
#
# Compressibility (1/GPa) = 0.04048585
#
# Stress axis : x y z
#
# Youngs Moduli (GPa) = 94.14999 25.73150 61.85090
#
# Poissons Ratio (x) = 0.13251 0.36380
# Poissons Ratio (y) = 0.48483 0.09597
# Poissons Ratio (z) = 0.55378 0.03993
#
# Static dielectric constant tensor:
#      x y z
#    x 4.057230 0.000000 0.000000 
#    y 0.000000 3.396520 0.000000 
#    z 0.000000 0.000000 3.522390 
# 
# 
# High freq. dielectric constant tensor:
#      x y z
#    x 1.789580 0.000000 0.000000 
#    y 0.000000 1.750050 0.000000 
#    z 0.000000 0.000000 1.748750 
# 
# From -- ./inp_files/15776.got.cif
#   From: 2010.03.12/outbox.cif.g09.slc.cpg/sg62_8_cif.got.tgz:15776.got - 2010.04.10 19:12:36.
