data_PCOD8250845
_publ_section_title
;
Structure prediction by ZEFSAII (Michael W. Deem and Ramdas Pophale) SiO2 
 PCOD8250845
Probable space group: P N M A
;
_chemical_formula_sum "Si O2"
_cell_formula_units_Z 40
_cell_length_a 25.662929
_cell_length_b 9.348684
_cell_length_c 9.301538
_cell_angle_alpha 90.000000
_cell_angle_beta 90.000000
_cell_angle_gamma 90.000000
_cell_volume 2231.574896
_symmetry_space_group_name_H-M "P N M A"
_symmetry_group_IT_number 62
_symmetry_cell_setting 'orthorhombic'
loop_
_space_group_symop_operation_xyz
x,y,z
1/2-x,-y,1/2+z
1/2+x,1/2-y,1/2-z
-x,1/2+y,-z
-x,-y,-z
1/2+x,y,1/2-z
1/2-x,1/2+y,1/2+z
x,1/2-y,z
loop_
_atom_site_type_symbol
_atom_site_label
_atom_site_fract_x
_atom_site_fract_y
_atom_site_fract_z
Si Si1 0.282074 0.916223 0.035499
Si Si2 0.692113 0.582980 0.247164
Si Si3 0.485862 0.082575 0.143802
Si Si4 0.094968 0.092256 0.279418
Si Si5 0.391412 0.908411 0.120768
O O1 0.286456 0.750000 0.990717
O O2 0.283080 0.009420 0.891996
O O3 0.228884 0.949479 0.117844
O O4 0.330923 0.954627 0.141225
O O5 0.686886 0.750000 0.215208
O O6 0.634912 0.521776 0.287932
O O7 0.478350 0.250000 0.110873
O O8 0.533894 0.057939 0.256213
O O9 0.431089 0.017095 0.201831
O O10 0.500000 0.000000 0.000000
O O11 0.109469 0.250000 0.220458
O O12 0.099446 0.090070 0.450699
O O13 0.401572 0.750000 0.183854
#
# Coordination Sequence:
#
# PCOD8250845 Si02
#       5
#     8   8   8   8   8
#     4   9  19  33  45  64  94 119 145 185 224 258
#     4  10  19  30  47  68  88 117 154 183 214 263
#     4   9  15  22  34  55  82 109 138 172 212 257
#     4   8  15  26  38  56  86 116 138 174 223 258
#     4   8  14  25  39  55  81 113 138 170 217 258
#
# _framework density 17.92456
#
# number of rings (size 3 to 8) (size 9 to 14) (size 15 to 20)
#    0.000    3.200    0.000    3.600    0.000    9.600 
#    0.000    0.000    0.000    0.000    0.000    1.400 
#    0.000    0.000    0.000    0.000    0.000    0.000 
#
# Total GULP energy -495549.049659 kJ/mol
# GULP energy per Si atom -12388.726241 kJ/mol
# Density = 1.788376 g / cm^3
# Si number density = 17.924560 Si / 1000 Ang^3
#
#
#
# Elastic Constant Matrix: (Units=GPa)
#
#
# Indices 1 2 3 4 5 6 
#
# 1 27.2065 7.8333 -10.6232 0.0000 0.0000 0.0000
# 2 7.8333 78.1613 7.5864 0.0000 0.0000 0.0000
# 3 -10.6232 7.5864 10.3539 0.0000 0.0000 0.0000
# 4 0.0000 0.0000 0.0000 12.7868 0.0000 0.0000
# 5 0.0000 0.0000 0.0000 0.0000 15.0067 0.0000
# 6 0.0000 0.0000 0.0000 0.0000 0.0000 37.0373
#
#
#
# Elastic Compliance Matrix: (Units=1/GPa)
#
#
# Indices 1 2 3 4 5 6 
#
# 1 0.077233 -0.016613 0.091415 0.000000 0.000000 0.000000
# 2 -0.016613 0.017347 -0.029756 0.000000 0.000000 0.000000
# 3 0.091415 -0.029756 0.212176 0.000000 0.000000 0.000000
# 4 0.000000 0.000000 0.000000 0.078205 0.000000 0.000000
# 5 0.000000 0.000000 0.000000 0.000000 0.066637 0.000000
# 6 0.000000 0.000000 0.000000 0.000000 0.000000 0.027000
#
#
# Mechanical properties :
#
#
# Convention : Reuss Voigt Hill
#
# Bulk Modulus (GPa) = 2.51985 13.92388 8.22187
# Shear Modulus (GPa) = 9.60079 20.36117 14.98098
#
# Velocity S-wave (km/s) = 2.31686 3.37402 2.89412
# Velocity P-wave (km/s) = 2.92677 4.79204 3.97049
#
# Compressibility (1/GPa) = 0.39684855
#
# Stress axis : x y z
#
# Youngs Moduli (GPa) = 12.94778 57.64640 4.71306
#
# Poissons Ratio (x) = 0.95769 -0.43084
# Poissons Ratio (y) = 0.21510 0.14024
# Poissons Ratio (z) = -1.18362 1.71531
#
# Static dielectric constant tensor:
#      x y z
#    x 4.487270 0.000000 0.000000 
#    y 0.000000 3.566420 0.000000 
#    z 0.000000 0.000000 2.537150 
# 
# 
# High freq. dielectric constant tensor:
#      x y z
#    x 1.720690 0.000000 0.000000 
#    y 0.000000 1.700260 0.000000 
#    z 0.000000 0.000000 1.605330 
# 
# From -- ./inp_files/9709.got.cif
#   From: 2010.03.12/outbox.cif.g09.slc.cpg/sg62_5_cif.got.tgz:9709.got - 2010.04.10 19:12:36.
