data_PCOD8250973
_publ_section_title
;
Structure prediction by ZEFSAII (Michael W. Deem and Ramdas Pophale) SiO2 
 PCOD8250973
Probable space group: P N M A
;
_chemical_formula_sum "Si O2"
_cell_formula_units_Z 64
_cell_length_a 19.028354
_cell_length_b 8.939012
_cell_length_c 23.193298
_cell_angle_alpha 90.000000
_cell_angle_beta 90.000000
_cell_angle_gamma 90.000000
_cell_volume 3945.056712
_symmetry_space_group_name_H-M "P N M A"
_symmetry_group_IT_number 62
_symmetry_cell_setting 'orthorhombic'
loop_
_space_group_symop_operation_xyz
x,y,z
1/2-x,-y,1/2+z
1/2+x,1/2-y,1/2-z
-x,1/2+y,-z
-x,-y,-z
1/2+x,y,1/2-z
1/2-x,1/2+y,1/2+z
x,1/2-y,z
loop_
_atom_site_type_symbol
_atom_site_label
_atom_site_fract_x
_atom_site_fract_y
_atom_site_fract_z
Si Si1 0.721714 0.921029 0.669167
Si Si2 0.850570 0.574329 0.273749
Si Si3 0.864347 0.925783 0.940069
Si Si4 0.996505 0.074268 0.754198
Si Si5 0.859089 0.922136 0.729328
Si Si6 0.864140 0.425161 0.058994
Si Si7 0.767522 0.923419 0.835984
Si Si8 0.500244 0.571898 0.386134
O O1 0.704934 0.750000 0.686777
O O2 0.805355 0.950953 0.676262
O O3 0.699174 0.953401 0.603864
O O4 0.678245 0.026051 0.711622
O O5 0.843453 0.750000 0.278065
O O6 0.807252 0.504332 0.326925
O O7 0.931905 0.523578 0.277527
O O8 0.883384 0.750000 0.940827
O O9 0.797694 0.957689 0.899004
O O10 0.930166 0.021179 0.918880
O O11 0.841871 0.983749 0.002522
O O12 0.989138 0.250000 0.754539
O O13 0.996018 0.016482 0.820153
O O14 0.931259 0.009236 0.718357
O O15 0.879319 0.750000 0.735880
O O16 0.822784 0.981768 0.788124
O O17 0.873839 0.250000 0.045205
O O18 0.936030 0.489560 0.083664
O O19 0.753691 0.750000 0.825457
O O20 0.490834 0.750000 0.391459
#
# Coordination Sequence:
#
# PCOD8250973 Si02
#       8
#     8   8   8   8   8   8   8   8
#     4   9  19  34  49  69  96 126 162 201 241 288
#     4  10  19  31  49  72  98 125 158 199 242 286
#     4  11  22  36  51  69  97 131 170 207 242 285
#     4  10  20  31  46  73 102 128 158 196 239 287
#     4   9  17  31  50  70  93 124 160 195 238 289
#     4  11  22  35  51  70  96 132 171 205 243 286
#     4   9  19  34  49  69  95 126 162 200 242 289
#     4  11  21  34  48  68 101 134 170 203 235 284
#
# _framework density 16.222833999999999
#
# number of rings (size 3 to 8) (size 9 to 14) (size 15 to 20)
#    0.000    2.000    2.500    2.625    0.000    5.000 
#    0.000    0.000    0.000    0.000    0.000    0.875 
#    0.000    0.000    0.000    0.000    0.000    0.000 
#
# Total GULP energy -793607.709036 kJ/mol
# GULP energy per Si atom -12400.120454 kJ/mol
# Density = 1.618591 g / cm^3
# Si number density = 16.222834 Si / 1000 Ang^3
#
#
#
# Elastic Constant Matrix: (Units=GPa)
#
#
# Indices 1 2 3 4 5 6 
#
# 1 121.8873 39.3244 51.8768 0.0000 0.0000 0.0000
# 2 39.3244 41.6652 23.5595 0.0000 0.0000 0.0000
# 3 51.8768 23.5595 76.2580 0.0000 0.0000 0.0000
# 4 0.0000 0.0000 0.0000 24.2774 0.0000 0.0000
# 5 0.0000 0.0000 0.0000 0.0000 22.9752 0.0000
# 6 0.0000 0.0000 0.0000 0.0000 0.0000 25.9037
#
#
#
# Elastic Compliance Matrix: (Units=1/GPa)
#
#
# Indices 1 2 3 4 5 6 
#
# 1 0.014122 -0.009568 -0.006651 0.000000 0.000000 0.000000
# 2 -0.009568 0.035563 -0.004478 0.000000 0.000000 0.000000
# 3 -0.006651 -0.004478 0.019021 0.000000 0.000000 0.000000
# 4 0.000000 0.000000 0.000000 0.041191 0.000000 0.000000
# 5 0.000000 0.000000 0.000000 0.000000 0.043525 0.000000
# 6 0.000000 0.000000 0.000000 0.000000 0.000000 0.038604
#
#
# Mechanical properties :
#
#
# Convention : Reuss Voigt Hill
#
# Bulk Modulus (GPa) = 36.61316 52.14800 44.38058
# Shear Modulus (GPa) = 20.61644 22.96793 21.79219
#
# Velocity S-wave (km/s) = 3.56874 3.76676 3.66909
# Velocity P-wave (km/s) = 6.29278 7.15071 6.73542
#
# Compressibility (1/GPa) = 0.02731258
#
# Stress axis : x y z
#
# Youngs Moduli (GPa) = 70.81242 28.11886 52.57229
#
# Poissons Ratio (x) = 0.26903 0.34965
# Poissons Ratio (y) = 0.67751 0.23544
# Poissons Ratio (z) = 0.47097 0.12593
#
# Static dielectric constant tensor:
#      x y z
#    x 3.172890 0.000000 0.000000 
#    y 0.000000 3.095710 0.000000 
#    z 0.000000 0.000000 3.030460 
# 
# 
# High freq. dielectric constant tensor:
#      x y z
#    x 1.619570 0.000000 0.000000 
#    y 0.000000 1.632650 0.000000 
#    z 0.000000 0.000000 1.597750 
# 
# From -- ./inp_files/27746.got.cif
#   From: 2010.03.12/outbox.cif.g09.slc.cpg/sg62_14_cif.got.tgz:27746.got - 2010.04.10 19:12:36.
