data_PCOD8250995
_publ_section_title
;
Structure prediction by ZEFSAII (Michael W. Deem and Ramdas Pophale) SiO2 
 PCOD8250995
Probable space group: P N M A
;
_chemical_formula_sum "Si O2"
_cell_formula_units_Z 64
_cell_length_a 14.897156
_cell_length_b 8.823105
_cell_length_c 25.201808
_cell_angle_alpha 90.000000
_cell_angle_beta 90.000000
_cell_angle_gamma 90.000000
_cell_volume 3312.504766
_symmetry_space_group_name_H-M "P N M A"
_symmetry_group_IT_number 62
_symmetry_cell_setting 'orthorhombic'
loop_
_space_group_symop_operation_xyz
x,y,z
1/2-x,-y,1/2+z
1/2+x,1/2-y,1/2-z
-x,1/2+y,-z
-x,-y,-z
1/2+x,y,1/2-z
1/2-x,1/2+y,1/2+z
x,1/2-y,z
loop_
_atom_site_type_symbol
_atom_site_label
_atom_site_fract_x
_atom_site_fract_y
_atom_site_fract_z
Si Si1 0.375968 0.081054 0.218650
Si Si2 0.057682 0.574541 0.298878
Si Si3 0.208452 0.072198 0.984673
Si Si4 0.354094 0.572834 0.591959
Si Si5 0.814484 0.428888 0.796733
Si Si6 0.871889 0.418844 0.159565
Si Si7 0.032215 0.427017 0.926832
Si Si8 0.203423 0.925354 0.381187
O O1 0.362181 0.250000 0.195322
O O2 0.399051 0.086279 0.279887
O O3 0.463350 0.007718 0.192010
O O4 0.286145 0.988193 0.208625
O O5 0.038858 0.750000 0.287721
O O6 0.119437 0.509659 0.250127
O O7 0.105901 0.549316 0.355958
O O8 0.195312 0.250000 0.983924
O O9 0.114876 0.007172 0.961405
O O10 0.289838 0.026450 0.944210
O O11 0.221621 0.026197 0.046985
O O12 0.350180 0.750000 0.606410
O O13 0.348359 0.476744 0.645262
O O14 0.445834 0.530256 0.561149
O O15 0.810806 0.250000 0.793000
O O16 0.882131 0.250000 0.134935
O O17 0.939835 0.539509 0.133941
O O18 0.769831 0.473661 0.153695
O O19 0.010569 0.250000 0.934480
O O20 0.232932 0.750000 0.375363
#
# Coordination Sequence:
#
# PCOD8250995 Si02
#       8
#     8   8   8   8   8   8   8   8
#     4  11  23  36  54  80 113 148 181 225 278 330
#     4  10  21  36  58  83 108 142 182 226 274 326
#     4   8  17  32  53  77 105 142 183 227 276 324
#     4  11  21  34  51  76 110 145 180 225 279 330
#     4  11  23  39  58  82 112 150 189 226 270 330
#     4  10  19  31  49  76 107 141 176 219 271 320
#     4  10  19  32  51  76 107 146 188 226 264 322
#     4   9  17  34  56  78 103 137 179 223 266 319
#
# _framework density 19.320727999999999
#
# number of rings (size 3 to 8) (size 9 to 14) (size 15 to 20)
#    0.000    2.000    1.250    3.750    0.000    5.000 
#    0.000    5.625    0.000    0.750    0.000    0.000 
#    0.000    0.000    0.000    0.000    0.000    0.000 
#
# Total GULP energy -792949.221906 kJ/mol
# GULP energy per Si atom -12389.831592 kJ/mol
# Density = 1.927675 g / cm^3
# Si number density = 19.320728 Si / 1000 Ang^3
#
#
#
# Elastic Constant Matrix: (Units=GPa)
#
#
# Indices 1 2 3 4 5 6 
#
# 1 67.9073 18.2687 8.0974 0.0000 0.0000 0.0000
# 2 18.2687 56.3531 6.9304 0.0000 0.0000 0.0000
# 3 8.0974 6.9304 58.4312 0.0000 0.0000 0.0000
# 4 0.0000 0.0000 0.0000 21.7827 0.0000 0.0000
# 5 0.0000 0.0000 0.0000 0.0000 16.1663 0.0000
# 6 0.0000 0.0000 0.0000 0.0000 0.0000 23.2643
#
#
#
# Elastic Compliance Matrix: (Units=1/GPa)
#
#
# Indices 1 2 3 4 5 6 
#
# 1 0.016289 -0.005077 -0.001655 0.000000 0.000000 0.000000
# 2 -0.005077 0.019590 -0.001620 0.000000 0.000000 0.000000
# 3 -0.001655 -0.001620 0.017536 0.000000 0.000000 0.000000
# 4 0.000000 0.000000 0.000000 0.045908 0.000000 0.000000
# 5 0.000000 0.000000 0.000000 0.000000 0.061857 0.000000
# 6 0.000000 0.000000 0.000000 0.000000 0.000000 0.042984
#
#
# Mechanical properties :
#
#
# Convention : Reuss Voigt Hill
#
# Bulk Modulus (GPa) = 27.24001 27.69828 27.46914
# Shear Modulus (GPa) = 21.44947 22.20234 21.82590
#
# Velocity S-wave (km/s) = 3.33555 3.39358 3.36469
# Velocity P-wave (km/s) = 5.38182 5.45182 5.41693
#
# Compressibility (1/GPa) = 0.03671071
#
# Stress axis : x y z
#
# Youngs Moduli (GPa) = 61.39042 51.04546 57.02668
#
# Poissons Ratio (x) = 0.25916 0.09439
# Poissons Ratio (y) = 0.31169 0.09238
# Poissons Ratio (z) = 0.10161 0.08269
#
# Static dielectric constant tensor:
#      x y z
#    x 3.319550 0.000000 0.000000 
#    y 0.000000 3.538990 0.000000 
#    z 0.000000 0.000000 3.819660 
# 
# 
# High freq. dielectric constant tensor:
#      x y z
#    x 1.725360 0.000000 0.000000 
#    y 0.000000 1.745210 0.000000 
#    z 0.000000 0.000000 1.752250 
# 
# From -- ./inp_files/29902.got.cif
#   From: 2010.03.12/outbox.cif.g09.slc.cpg/sg62_15_cif.got.tgz:29902.got - 2010.04.10 19:12:36.
