data_PCOD8250767
_publ_section_title
;
Structure prediction by ZEFSAII (Michael W. Deem and Ramdas Pophale) SiO2 
 PCOD8250767
Probable space group: P N M A
;
_chemical_formula_sum "Si O2"
_cell_formula_units_Z 64
_cell_length_a 21.807824
_cell_length_b 9.105790
_cell_length_c 17.493709
_cell_angle_alpha 90.000000
_cell_angle_beta 90.000000
_cell_angle_gamma 90.000000
_cell_volume 3473.856399
_symmetry_space_group_name_H-M "P N M A"
_symmetry_group_IT_number 62
_symmetry_cell_setting 'orthorhombic'
loop_
_space_group_symop_operation_xyz
x,y,z
1/2-x,-y,1/2+z
1/2+x,1/2-y,1/2-z
-x,1/2+y,-z
-x,-y,-z
1/2+x,y,1/2-z
1/2-x,1/2+y,1/2+z
x,1/2-y,z
loop_
_atom_site_type_symbol
_atom_site_label
_atom_site_fract_x
_atom_site_fract_y
_atom_site_fract_z
Si Si1 0.510355 0.420173 0.726711
Si Si2 0.951083 0.406614 0.459674
Si Si3 0.977710 0.579728 0.924768
Si Si4 0.664855 0.913764 0.064213
Si Si5 0.843493 0.584809 0.870176
Si Si6 0.395844 0.923187 0.794872
Si Si7 0.889456 0.585277 0.339367
Si Si8 0.271840 0.922057 0.070458
O O1 0.490637 0.250000 0.717242
O O2 0.510387 0.503048 0.646632
O O3 0.461673 0.495432 0.785704
O O4 0.582588 0.427723 0.753792
O O5 0.980557 0.250000 0.440764
O O6 0.893956 0.390252 0.513741
O O7 0.935589 0.478810 0.380626
O O8 0.000000 0.500000 0.500000
O O9 0.997165 0.750000 0.925642
O O10 0.904682 0.563153 0.919652
O O11 0.000000 0.500000 0.000000
O O12 0.689801 0.750000 0.087386
O O13 0.646178 0.008127 0.138318
O O14 0.713508 0.998540 0.010208
O O15 0.818021 0.750000 0.880126
O O16 0.857194 0.552162 0.781961
O O17 0.794219 0.470550 0.900787
O O18 0.407132 0.750000 0.810039
O O19 0.898427 0.750000 0.370589
O O20 0.819379 0.539302 0.359288
O O21 0.271132 0.750000 0.053477
#
# Coordination Sequence:
#
# PCOD8250767 Si02
#       8
#     8   8   8   8   8   8   8   8
#     4  10  19  33  54  79 109 142 175 216 269 324
#     4  10  19  28  42  66  97 134 171 207 249 296
#     4  10  21  38  60  85 110 136 172 221 275 327
#     4  10  20  33  49  72 103 138 176 218 263 311
#     4   9  20  38  57  78 106 138 172 217 270 319
#     4  10  20  34  53  78 106 136 176 224 270 319
#     4   9  19  33  48  71 103 136 170 209 252 302
#     4  10  20  35  55  77 104 142 184 220 260 316
#
# _framework density 18.423328999999999
#
# number of rings (size 3 to 8) (size 9 to 14) (size 15 to 20)
#    0.000    2.250    0.000    3.750    0.000    9.000 
#    0.000    1.250    0.000    4.500    0.000    0.000 
#    0.000    0.000    0.000    0.000    0.000    0.000 
#
# Total GULP energy -792989.055631 kJ/mol
# GULP energy per Si atom -12390.453994 kJ/mol
# Density = 1.838140 g / cm^3
# Si number density = 18.423329 Si / 1000 Ang^3
#
#
#
# Elastic Constant Matrix: (Units=GPa)
#
#
# Indices 1 2 3 4 5 6 
#
# 1 63.5137 35.6881 47.1458 0.0000 0.0000 0.0000
# 2 35.6881 117.5364 54.8220 0.0000 0.0000 0.0000
# 3 47.1458 54.8220 101.4476 0.0000 0.0000 0.0000
# 4 0.0000 0.0000 0.0000 31.8332 0.0000 0.0000
# 5 0.0000 0.0000 0.0000 0.0000 26.6049 0.0000
# 6 0.0000 0.0000 0.0000 0.0000 0.0000 19.7129
#
#
#
# Elastic Compliance Matrix: (Units=1/GPa)
#
#
# Indices 1 2 3 4 5 6 
#
# 1 0.024742 -0.002874 -0.009945 0.000000 0.000000 0.000000
# 2 -0.002874 0.011709 -0.004992 0.000000 0.000000 0.000000
# 3 -0.009945 -0.004992 0.017177 0.000000 0.000000 0.000000
# 4 0.000000 0.000000 0.000000 0.031414 0.000000 0.000000
# 5 0.000000 0.000000 0.000000 0.000000 0.037587 0.000000
# 6 0.000000 0.000000 0.000000 0.000000 0.000000 0.050728
#
#
# Mechanical properties :
#
#
# Convention : Reuss Voigt Hill
#
# Bulk Modulus (GPa) = 55.53849 61.97885 58.75867
# Shear Modulus (GPa) = 23.25797 25.28632 24.27214
#
# Velocity S-wave (km/s) = 3.55691 3.70877 3.63363
# Velocity P-wave (km/s) = 6.86149 7.21488 7.04040
#
# Compressibility (1/GPa) = 0.01800553
#
# Stress axis : x y z
#
# Youngs Moduli (GPa) = 40.41767 85.40476 58.21792
#
# Poissons Ratio (x) = 0.24543 0.57899
# Poissons Ratio (y) = 0.11615 0.29062
# Poissons Ratio (z) = 0.40196 0.42634
#
# Static dielectric constant tensor:
#      x y z
#    x 3.160640 0.000000 0.000000 
#    y 0.000000 3.847410 0.000000 
#    z 0.000000 0.000000 3.355810 
# 
# 
# High freq. dielectric constant tensor:
#      x y z
#    x 1.695320 0.000000 0.000000 
#    y 0.000000 1.736650 0.000000 
#    z 0.000000 0.000000 1.706140 
# 
# From -- ./inp_files/24764.got.cif
#   From: 2010.03.12/outbox.cif.g09.slc.cpg/sg62_13_cif.got.tgz:24764.got - 2010.04.10 19:12:36.
