data_PCOD8250388
_publ_section_title
;
Structure prediction by ZEFSAII (Michael W. Deem and Ramdas Pophale) SiO2 
 PCOD8250388
Probable space group: P N M A
;
_chemical_formula_sum "Si O2"
_cell_formula_units_Z 48
_cell_length_a 31.143248
_cell_length_b 8.965174
_cell_length_c 9.600164
_cell_angle_alpha 90.000000
_cell_angle_beta 90.000000
_cell_angle_gamma 90.000000
_cell_volume 2680.410307
_symmetry_space_group_name_H-M "P N M A"
_symmetry_group_IT_number 62
_symmetry_cell_setting 'orthorhombic'
loop_
_space_group_symop_operation_xyz
x,y,z
1/2-x,-y,1/2+z
1/2+x,1/2-y,1/2-z
-x,1/2+y,-z
-x,-y,-z
1/2+x,y,1/2-z
1/2-x,1/2+y,1/2+z
x,1/2-y,z
loop_
_atom_site_type_symbol
_atom_site_label
_atom_site_fract_x
_atom_site_fract_y
_atom_site_fract_z
Si Si1 0.626216 0.419529 0.873876
Si Si2 0.719513 0.418841 0.902844
Si Si3 0.875235 0.075034 0.089416
Si Si4 0.710503 0.423317 0.578616
Si Si5 0.538185 0.073293 0.583825
Si Si6 0.033682 0.419224 0.595419
O O1 0.624703 0.250000 0.808679
O O2 0.670342 0.436487 0.960864
O O3 0.626785 0.541387 0.753082
O O4 0.582589 0.443205 0.963519
O O5 0.735768 0.250000 0.926792
O O6 0.720384 0.460354 0.739623
O O7 0.748742 0.531978 0.987007
O O8 0.878657 0.250000 0.060587
O O9 0.831242 0.011900 0.022211
O O10 0.917024 0.993375 0.025113
O O11 0.701280 0.250000 0.558286
O O12 0.538186 0.250000 0.563024
O O13 0.532375 0.025857 0.745043
O O14 0.500000 0.000000 0.500000
O O15 0.019470 0.250000 0.588478
O O16 0.000000 0.500000 0.500000
#
# Coordination Sequence:
#
# PCOD8250388 Si02
#       6
#     8   8   8   8   8   8
#     4   8  16  32  50  70  99 132 166 205 246 293
#     4   9  18  33  52  73  98 130 169 210 249 295
#     4  10  18  30  51  75  98 130 169 205 245 298
#     4  10  20  34  52  75 103 133 165 205 251 298
#     4  10  20  35  53  75 102 133 169 209 251 295
#     4   9  18  32  51  74 101 132 166 204 246 293
#
# _framework density 17.907706000000001
#
# number of rings (size 3 to 8) (size 9 to 14) (size 15 to 20)
#    0.000    2.667    0.000    4.500    0.000    6.667 
#    0.000    1.667    0.000    8.000    0.000    0.000 
#    0.000    0.000    0.000    0.000    0.000    0.000 
#
# Total GULP energy -594851.267423 kJ/mol
# GULP energy per Si atom -12392.734738 kJ/mol
# Density = 1.786695 g / cm^3
# Si number density = 17.907706 Si / 1000 Ang^3
#
#
#
# Elastic Constant Matrix: (Units=GPa)
#
#
# Indices 1 2 3 4 5 6 
#
# 1 173.9556 66.2695 54.7323 0.0000 0.0000 0.0000
# 2 66.2695 95.0526 34.7426 0.0000 0.0000 0.0000
# 3 54.7323 34.7426 45.8367 0.0000 0.0000 0.0000
# 4 0.0000 0.0000 0.0000 26.3351 0.0000 0.0000
# 5 0.0000 0.0000 0.0000 0.0000 30.8657 0.0000
# 6 0.0000 0.0000 0.0000 0.0000 0.0000 37.1813
#
#
#
# Elastic Compliance Matrix: (Units=1/GPa)
#
#
# Indices 1 2 3 4 5 6 
#
# 1 0.010034 -0.003619 -0.009238 0.000000 0.000000 0.000000
# 2 -0.003619 0.015857 -0.007698 0.000000 0.000000 0.000000
# 3 -0.009238 -0.007698 0.038683 0.000000 0.000000 0.000000
# 4 0.000000 0.000000 0.000000 0.037972 0.000000 0.000000
# 5 0.000000 0.000000 0.000000 0.000000 0.032398 0.000000
# 6 0.000000 0.000000 0.000000 0.000000 0.000000 0.026895
#
#
# Mechanical properties :
#
#
# Convention : Reuss Voigt Hill
#
# Bulk Modulus (GPa) = 42.61957 69.59263 56.10610
# Shear Modulus (GPa) = 23.72245 29.48311 26.60278
#
# Velocity S-wave (km/s) = 3.64360 4.06198 3.85846
# Velocity P-wave (km/s) = 6.44611 7.80678 7.15884
#
# Compressibility (1/GPa) = 0.02346340
#
# Stress axis : x y z
#
# Youngs Moduli (GPa) = 99.66251 63.06270 25.85144
#
# Poissons Ratio (x) = 0.22821 0.23882
# Poissons Ratio (y) = 0.36066 0.19901
# Poissons Ratio (z) = 0.92070 0.48546
#
# Static dielectric constant tensor:
#      x y z
#    x 4.047540 0.000000 0.000000 
#    y 0.000000 3.287980 0.000000 
#    z 0.000000 0.000000 3.049550 
# 
# 
# High freq. dielectric constant tensor:
#      x y z
#    x 1.719070 0.000000 0.000000 
#    y 0.000000 1.697940 0.000000 
#    z 0.000000 0.000000 1.637370 
# 
# From -- ./inp_files/15397.got.cif
#   From: 2010.03.12/outbox.cif.g09.slc.cpg/sg62_8_cif.got.tgz:15397.got - 2010.04.10 19:12:36.
