data_PCOD8250046
_publ_section_title
;
Structure prediction by ZEFSAII (Michael W. Deem and Ramdas Pophale) SiO2 
 PCOD8250046
Probable space group: P N M A
;
_chemical_formula_sum "Si O2"
_cell_formula_units_Z 48
_cell_length_a 9.808668
_cell_length_b 18.249624
_cell_length_c 14.421637
_cell_angle_alpha 90.000000
_cell_angle_beta 90.000000
_cell_angle_gamma 90.000000
_cell_volume 2581.537963
_symmetry_space_group_name_H-M "P N M A"
_symmetry_group_IT_number 62
_symmetry_cell_setting 'orthorhombic'
loop_
_space_group_symop_operation_xyz
x,y,z
1/2-x,-y,1/2+z
1/2+x,1/2-y,1/2-z
-x,1/2+y,-z
-x,-y,-z
1/2+x,y,1/2-z
1/2-x,1/2+y,1/2+z
x,1/2-y,z
loop_
_atom_site_type_symbol
_atom_site_label
_atom_site_fract_x
_atom_site_fract_y
_atom_site_fract_z
Si Si1 0.029942 0.053539 0.414211
Si Si2 0.824450 0.461452 0.737504
Si Si3 0.443809 0.943031 0.363130
Si Si4 0.251287 0.667989 0.879000
Si Si5 0.988949 0.603047 0.931363
Si Si6 0.230836 0.896074 0.677489
O O1 0.151751 0.110819 0.433292
O O2 0.905624 0.106564 0.384303
O O3 0.072004 0.001565 0.330806
O O4 0.000000 0.000000 0.500000
O O5 0.701945 0.419882 0.683391
O O6 0.750076 0.517815 0.805364
O O7 0.927588 0.412905 0.801510
O O8 0.447154 0.907969 0.463236
O O9 0.454129 0.031161 0.376707
O O10 0.310122 0.750000 0.888296
O O11 0.224495 0.650061 0.771242
O O12 0.105637 0.664095 0.929199
O O13 0.856758 0.635469 0.880848
#
# Coordination Sequence:
#
# PCOD8250046 Si02
#       6
#     8   8   8   8   8   8
#     4  11  21  33  53  84 120 151 199 246 290 341
#     4  10  17  30  48  78 110 143 178 234 297 334
#     4  10  18  30  50  76 110 137 186 237 288 331
#     4  11  23  38  55  80 118 161 193 231 301 373
#     4  10  20  32  51  77 107 148 189 233 278 342
#     4  10  19  33  50  79 113 150 190 229 282 343
#
# _framework density 18.593568000000001
#
# number of rings (size 3 to 8) (size 9 to 14) (size 15 to 20)
#    0.000    1.667    5.000    3.000    4.667    2.667 
#    0.000    0.000    0.000    0.000    0.000    4.667 
#    0.000    0.000    0.000    0.000    0.000    0.000 
#
# Total GULP energy -594868.186841 kJ/mol
# GULP energy per Si atom -12393.087226 kJ/mol
# Density = 1.855125 g / cm^3
# Si number density = 18.593568 Si / 1000 Ang^3
#
#
#
# Elastic Constant Matrix: (Units=GPa)
#
#
# Indices 1 2 3 4 5 6 
#
# 1 133.9740 23.1882 42.8188 0.0000 0.0000 0.0000
# 2 23.1882 49.4364 25.0339 0.0000 0.0000 0.0000
# 3 42.8188 25.0339 68.7150 0.0000 0.0000 0.0000
# 4 0.0000 0.0000 0.0000 11.1974 0.0000 0.0000
# 5 0.0000 0.0000 0.0000 0.0000 34.8900 0.0000
# 6 0.0000 0.0000 0.0000 0.0000 0.0000 15.6877
#
#
#
# Elastic Compliance Matrix: (Units=1/GPa)
#
#
# Indices 1 2 3 4 5 6 
#
# 1 0.009446 -0.001778 -0.005238 0.000000 0.000000 0.000000
# 2 -0.001778 0.025139 -0.008050 0.000000 0.000000 0.000000
# 3 -0.005238 -0.008050 0.020750 0.000000 0.000000 0.000000
# 4 0.000000 0.000000 0.000000 0.089306 0.000000 0.000000
# 5 0.000000 0.000000 0.000000 0.000000 0.028662 0.000000
# 6 0.000000 0.000000 0.000000 0.000000 0.000000 0.063744
#
#
# Mechanical properties :
#
#
# Convention : Reuss Voigt Hill
#
# Bulk Modulus (GPa) = 39.68103 48.24523 43.96313
# Shear Modulus (GPa) = 18.14347 23.09398 20.61873
#
# Velocity S-wave (km/s) = 3.12716 3.52808 3.33365
# Velocity P-wave (km/s) = 5.86740 6.52688 6.20590
#
# Compressibility (1/GPa) = 0.02520096
#
# Stress axis : x y z
#
# Youngs Moduli (GPa) = 105.86368 39.77944 48.19271
#
# Poissons Ratio (x) = 0.07073 0.25246
# Poissons Ratio (y) = 0.18823 0.38797
# Poissons Ratio (z) = 0.55456 0.32024
#
# Static dielectric constant tensor:
#      x y z
#    x 3.730550 0.000000 0.000000 
#    y 0.000000 2.864330 0.000000 
#    z 0.000000 0.000000 3.476240 
# 
# 
# High freq. dielectric constant tensor:
#      x y z
#    x 1.749080 0.000000 0.000000 
#    y 0.000000 1.641700 0.000000 
#    z 0.000000 0.000000 1.722650 
# 
# From -- ./inp_files/16945.got.cif
#   From: 2010.03.12/outbox.cif.g09.slc.cpg/sg62_9_cif.got.tgz:16945.got - 2010.04.10 19:12:36.
