data_PCOD8250681
_publ_section_title
;
Structure prediction by ZEFSAII (Michael W. Deem and Ramdas Pophale) SiO2 
 PCOD8250681
Probable space group: P N M A
;
_chemical_formula_sum "Si O2"
_cell_formula_units_Z 64
_cell_length_a 12.552735
_cell_length_b 17.269031
_cell_length_c 16.339977
_cell_angle_alpha 90.000000
_cell_angle_beta 90.000000
_cell_angle_gamma 90.000000
_cell_volume 3542.075146
_symmetry_space_group_name_H-M "P N M A"
_symmetry_group_IT_number 62
_symmetry_cell_setting 'orthorhombic'
loop_
_space_group_symop_operation_xyz
x,y,z
1/2-x,-y,1/2+z
1/2+x,1/2-y,1/2-z
-x,1/2+y,-z
-x,-y,-z
1/2+x,y,1/2-z
1/2-x,1/2+y,1/2+z
x,1/2-y,z
loop_
_atom_site_type_symbol
_atom_site_label
_atom_site_fract_x
_atom_site_fract_y
_atom_site_fract_z
Si Si1 0.694149 0.161128 0.855308
Si Si2 0.286872 0.040392 0.524109
Si Si3 0.794679 0.431159 0.719970
Si Si4 0.403811 0.955097 0.654540
Si Si5 0.651395 0.937634 0.657808
Si Si6 0.224139 0.657976 0.694431
Si Si7 0.592752 0.564851 0.932960
Si Si8 0.019190 0.913815 0.396874
O O1 0.711645 0.250000 0.873692
O O2 0.758294 0.115396 0.923871
O O3 0.743029 0.141170 0.766795
O O4 0.568919 0.141166 0.856615
O O5 0.315731 0.073611 0.435866
O O6 0.384831 0.993227 0.565051
O O7 0.186750 0.982776 0.522794
O O8 0.866086 0.483656 0.778546
O O9 0.694637 0.479689 0.686964
O O10 0.868586 0.399060 0.647615
O O11 0.525429 0.934732 0.667205
O O12 0.337040 0.875773 0.664500
O O13 0.700176 0.868640 0.712715
O O14 0.227634 0.750000 0.689845
O O15 0.132022 0.625883 0.634222
O O16 0.514849 0.504136 0.887311
O O17 0.530936 0.608019 0.006663
#
# Coordination Sequence:
#
# PCOD8250681 Si02
#       8
#     8   8   8   8   8   8   8   8
#     4  10  22  36  50  79 116 144 174 215 274 335
#     4   9  18  35  57  82 103 138 179 234 268 314
#     4  10  19  34  56  82 106 136 180 231 268 309
#     4   9  19  34  55  78 107 140 178 223 273 315
#     4  11  19  34  60  83 102 135 190 229 268 318
#     4  10  22  36  50  77 116 147 172 216 275 334
#     4   9  18  35  58  82 107 135 186 231 270 317
#     4  10  18  34  61  81 104 139 184 233 271 309
#
# _framework density 18.068503
#
# number of rings (size 3 to 8) (size 9 to 14) (size 15 to 20)
#    0.000    2.250    1.250    4.125    0.000    2.000 
#    0.000    0.000    0.000    0.000    0.000    0.000 
#    0.000    0.000    0.000    0.000    0.000    0.000 
#
# Total GULP energy -793581.242911 kJ/mol
# GULP energy per Si atom -12399.706920 kJ/mol
# Density = 1.802738 g / cm^3
# Si number density = 18.068503 Si / 1000 Ang^3
#
#
#
# Elastic Constant Matrix: (Units=GPa)
#
#
# Indices 1 2 3 4 5 6 
#
# 1 99.3459 38.4032 45.8499 0.0000 0.0000 0.0000
# 2 38.4032 108.0515 46.5619 0.0000 0.0000 0.0000
# 3 45.8499 46.5619 108.4322 0.0000 0.0000 0.0000
# 4 0.0000 0.0000 0.0000 15.9621 0.0000 0.0000
# 5 0.0000 0.0000 0.0000 0.0000 30.1555 0.0000
# 6 0.0000 0.0000 0.0000 0.0000 0.0000 10.8009
#
#
#
# Elastic Compliance Matrix: (Units=1/GPa)
#
#
# Indices 1 2 3 4 5 6 
#
# 1 0.013161 -0.002797 -0.004364 0.000000 0.000000 0.000000
# 2 -0.002797 0.011951 -0.003949 0.000000 0.000000 0.000000
# 3 -0.004364 -0.003949 0.012763 0.000000 0.000000 0.000000
# 4 0.000000 0.000000 0.000000 0.062648 0.000000 0.000000
# 5 0.000000 0.000000 0.000000 0.000000 0.033161 0.000000
# 6 0.000000 0.000000 0.000000 0.000000 0.000000 0.092585
#
#
# Mechanical properties :
#
#
# Convention : Reuss Voigt Hill
#
# Bulk Modulus (GPa) = 63.87745 64.16219 64.01982
# Shear Modulus (GPa) = 19.70763 23.71800 21.71282
#
# Velocity S-wave (km/s) = 3.30618 3.62701 3.47031
# Velocity P-wave (km/s) = 7.07136 7.28889 7.18095
#
# Compressibility (1/GPa) = 0.01565498
#
# Stress axis : x y z
#
# Youngs Moduli (GPa) = 75.98112 83.67710 78.34912
#
# Poissons Ratio (x) = 0.23406 0.34192
# Poissons Ratio (y) = 0.21253 0.30940
# Poissons Ratio (z) = 0.33158 0.33044
#
# Static dielectric constant tensor:
#      x y z
#    x 3.399310 0.000000 0.000000 
#    y 0.000000 2.998920 0.000000 
#    z 0.000000 0.000000 3.511430 
# 
# 
# High freq. dielectric constant tensor:
#      x y z
#    x 1.705020 0.000000 0.000000 
#    y 0.000000 1.665500 0.000000 
#    z 0.000000 0.000000 1.710010 
# 
# From -- ./inp_files/18251.got.cif
#   From: 2010.03.12/outbox.cif.g09.slc.cpg/sg62_10_cif.got.tgz:18251.got - 2010.04.10 19:12:36.
