data_PCOD8250713
_publ_section_title
;
Structure prediction by ZEFSAII (Michael W. Deem and Ramdas Pophale) SiO2 
 PCOD8250713
Probable space group: P N M A
;
_chemical_formula_sum "Si O2"
_cell_formula_units_Z 48
_cell_length_a 18.101229
_cell_length_b 11.369324
_cell_length_c 12.871530
_cell_angle_alpha 90.000000
_cell_angle_beta 90.000000
_cell_angle_gamma 90.000000
_cell_volume 2648.944621
_symmetry_space_group_name_H-M "P N M A"
_symmetry_group_IT_number 62
_symmetry_cell_setting 'orthorhombic'
loop_
_space_group_symop_operation_xyz
x,y,z
1/2-x,-y,1/2+z
1/2+x,1/2-y,1/2-z
-x,1/2+y,-z
-x,-y,-z
1/2+x,y,1/2-z
1/2-x,1/2+y,1/2+z
x,1/2-y,z
loop_
_atom_site_type_symbol
_atom_site_label
_atom_site_fract_x
_atom_site_fract_y
_atom_site_fract_z
Si Si1 0.163673 0.023320 0.534978
Si Si2 0.116482 0.250000 0.172678
Si Si3 0.472041 0.250000 0.234014
Si Si4 0.872154 0.112284 0.662270
Si Si5 0.676761 0.250000 0.092865
Si Si6 0.196135 0.750000 0.777252
Si Si7 0.285989 0.952832 0.674440
Si Si8 0.016925 0.991313 0.620751
O O1 0.148782 0.136961 0.466300
O O2 0.152266 0.912392 0.457140
O O3 0.245986 0.025356 0.582778
O O4 0.103414 0.027658 0.629228
O O5 0.141671 0.250000 0.293226
O O6 0.149840 0.129932 0.123706
O O7 0.027847 0.250000 0.166974
O O8 0.391699 0.250000 0.284861
O O9 0.490568 0.139930 0.162255
O O10 0.863910 0.250000 0.685573
O O11 0.818764 0.041265 0.740244
O O12 0.958069 0.074199 0.680974
O O13 0.766276 0.250000 0.108028
O O14 0.221991 0.868356 0.719269
O O15 0.000000 0.000000 0.500000
#
# Coordination Sequence:
#
# PCOD8250713 Si02
#       8
#     8   4   4   8   4   4   8   8
#     4  11  21  35  57  80 109 146 186 220 281 333
#     4  10  18  36  56  75 113 140 180 234 268 317
#     4  12  18  36  56  79 107 148 185 225 269 330
#     4  11  23  36  50  79 122 145 172 229 284 329
#     4  10  20  38  56  79 115 146 174 242 271 319
#     4  10  20  36  58  77 109 142 193 223 264 326
#     4  10  20  35  51  82 108 145 184 224 271 330
#     4  10  22  30  50  83 111 139 171 219 281 340
#
# _framework density 18.120422999999999
#
# number of rings (size 3 to 8) (size 9 to 14) (size 15 to 20)
#    0.000    1.667    6.667    1.000    9.333    0.000 
#    0.000    0.000    0.000    1.000    0.000    0.000 
#    0.000    0.000    0.000    0.000    0.000    0.000 
#
# Total GULP energy -594762.619661 kJ/mol
# GULP energy per Si atom -12390.887910 kJ/mol
# Density = 1.807918 g / cm^3
# Si number density = 18.120423 Si / 1000 Ang^3
#
#
#
# Elastic Constant Matrix: (Units=GPa)
#
#
# Indices 1 2 3 4 5 6 
#
# 1 100.4809 24.5746 8.6312 0.0000 0.0000 0.0000
# 2 24.5746 95.0691 9.8893 0.0000 0.0000 0.0000
# 3 8.6312 9.8893 21.3741 0.0000 0.0000 0.0000
# 4 0.0000 0.0000 0.0000 15.9984 0.0000 0.0000
# 5 0.0000 0.0000 0.0000 0.0000 33.5798 0.0000
# 6 0.0000 0.0000 0.0000 0.0000 0.0000 25.2421
#
#
#
# Elastic Compliance Matrix: (Units=1/GPa)
#
#
# Indices 1 2 3 4 5 6 
#
# 1 0.010833 -0.002464 -0.003234 0.000000 0.000000 0.000000
# 2 -0.002464 0.011611 -0.004377 0.000000 0.000000 0.000000
# 3 -0.003234 -0.004377 0.050117 0.000000 0.000000 0.000000
# 4 0.000000 0.000000 0.000000 0.062506 0.000000 0.000000
# 5 0.000000 0.000000 0.000000 0.000000 0.029780 0.000000
# 6 0.000000 0.000000 0.000000 0.000000 0.000000 0.039616
#
#
# Mechanical properties :
#
#
# Convention : Reuss Voigt Hill
#
# Bulk Modulus (GPa) = 19.08047 33.67938 26.37993
# Shear Modulus (GPa) = 20.65404 26.55264 23.60334
#
# Velocity S-wave (km/s) = 3.37979 3.83213 3.61305
# Velocity P-wave (km/s) = 5.07772 6.18119 5.65643
#
# Compressibility (1/GPa) = 0.05240962
#
# Stress axis : x y z
#
# Youngs Moduli (GPa) = 92.31462 86.12656 19.95335
#
# Poissons Ratio (x) = 0.21219 0.06454
# Poissons Ratio (y) = 0.22743 0.08734
# Poissons Ratio (z) = 0.29859 0.37699
#
# Static dielectric constant tensor:
#      x y z
#    x 4.036200 0.000000 0.000000 
#    y 0.000000 3.269690 0.000000 
#    z 0.000000 0.000000 2.950580 
# 
# 
# High freq. dielectric constant tensor:
#      x y z
#    x 1.717030 0.000000 0.000000 
#    y 0.000000 1.707430 0.000000 
#    z 0.000000 0.000000 1.646820 
# 
# From -- ./inp_files/19774.got.cif
#   From: 2010.03.12/outbox.cif.g09.slc.cpg/sg62_10_cif.got.tgz:19774.got - 2010.04.10 19:12:36.
