data_PCOD8250903
_publ_section_title
;
Structure prediction by ZEFSAII (Michael W. Deem and Ramdas Pophale) SiO2 
 PCOD8250903
Probable space group: P N M A
;
_chemical_formula_sum "Si O2"
_cell_formula_units_Z 64
_cell_length_a 20.131014
_cell_length_b 9.015155
_cell_length_c 20.091630
_cell_angle_alpha 90.000000
_cell_angle_beta 90.000000
_cell_angle_gamma 90.000000
_cell_volume 3646.313629
_symmetry_space_group_name_H-M "P N M A"
_symmetry_group_IT_number 62
_symmetry_cell_setting 'orthorhombic'
loop_
_space_group_symop_operation_xyz
x,y,z
1/2-x,-y,1/2+z
1/2+x,1/2-y,1/2-z
-x,1/2+y,-z
-x,-y,-z
1/2+x,y,1/2-z
1/2-x,1/2+y,1/2+z
x,1/2-y,z
loop_
_atom_site_type_symbol
_atom_site_label
_atom_site_fract_x
_atom_site_fract_y
_atom_site_fract_z
Si Si1 0.092906 0.422313 0.551432
Si Si2 0.087499 0.423892 0.948419
Si Si3 0.275240 0.426035 0.074716
Si Si4 0.446376 0.421035 0.918878
Si Si5 0.268590 0.574247 0.429004
Si Si6 0.826518 0.075826 0.826175
Si Si7 0.666044 0.575764 0.177624
Si Si8 0.444745 0.421482 0.582388
O O1 0.111870 0.250000 0.550516
O O2 0.150753 0.512878 0.588342
O O3 0.083844 0.476659 0.476115
O O4 0.024525 0.451046 0.592012
O O5 0.091066 0.250000 0.959185
O O6 0.155599 0.476353 0.912702
O O7 0.022026 0.470012 0.905994
O O8 0.086479 0.490323 0.021726
O O9 0.275203 0.250000 0.079753
O O10 0.227045 0.489439 0.130713
O O11 0.252227 0.483790 0.002059
O O12 0.433878 0.250000 0.940037
O O13 0.407601 0.459022 0.850707
O O14 0.260540 0.750000 0.428572
O O15 0.221065 0.505446 0.372192
O O16 0.809717 0.250000 0.829013
O O17 0.825328 0.009489 0.751445
O O18 0.901334 0.045493 0.852465
O O19 0.677059 0.750000 0.183104
O O20 0.442231 0.250000 0.562450
#
# Coordination Sequence:
#
# PCOD8250903 Si02
#       8
#     8   8   8   8   8   8   8   8
#     4  10  19  30  50  80 107 130 168 220 262 299
#     4   9  16  28  47  71  95 121 161 201 238 293
#     4  11  20  33  53  74 101 136 174 215 258 311
#     4   9  17  32  52  75 104 137 172 208 255 313
#     4   9  16  28  50  74  93 127 172 206 241 297
#     4  10  20  33  50  74 104 134 168 214 262 305
#     4   9  17  32  52  73 101 136 171 206 250 308
#     4   9  17  28  44  70  99 122 151 200 254 294
#
# _framework density 17.551973
#
# number of rings (size 3 to 8) (size 9 to 14) (size 15 to 20)
#    0.000    2.500    2.500    0.750    0.000    0.500 
#    0.000    1.875    0.000    6.000    0.000    3.500 
#    0.000    0.000    0.000    0.000    0.000    0.000 
#
# Total GULP energy -793285.179237 kJ/mol
# GULP energy per Si atom -12395.080926 kJ/mol
# Density = 1.751202 g / cm^3
# Si number density = 17.551973 Si / 1000 Ang^3
#
#
#
# Elastic Constant Matrix: (Units=GPa)
#
#
# Indices 1 2 3 4 5 6 
#
# 1 157.7321 37.6209 81.3437 0.0000 0.0000 0.0000
# 2 37.6209 39.4867 30.2479 0.0000 0.0000 0.0000
# 3 81.3437 30.2479 127.4348 0.0000 0.0000 0.0000
# 4 0.0000 0.0000 0.0000 18.5540 0.0000 0.0000
# 5 0.0000 0.0000 0.0000 0.0000 25.9367 0.0000
# 6 0.0000 0.0000 0.0000 0.0000 0.0000 22.6390
#
#
#
# Elastic Compliance Matrix: (Units=1/GPa)
#
#
# Indices 1 2 3 4 5 6 
#
# 1 0.010479 -0.005940 -0.005279 0.000000 0.000000 0.000000
# 2 -0.005940 0.034320 -0.004355 0.000000 0.000000 0.000000
# 3 -0.005279 -0.004355 0.012250 0.000000 0.000000 0.000000
# 4 0.000000 0.000000 0.000000 0.053897 0.000000 0.000000
# 5 0.000000 0.000000 0.000000 0.000000 0.038555 0.000000
# 6 0.000000 0.000000 0.000000 0.000000 0.000000 0.044171
#
#
# Mechanical properties :
#
#
# Convention : Reuss Voigt Hill
#
# Bulk Modulus (GPa) = 38.60666 69.23097 53.91882
# Shear Modulus (GPa) = 21.41745 25.12203 23.26974
#
# Velocity S-wave (km/s) = 3.49697 3.78735 3.64505
# Velocity P-wave (km/s) = 6.19261 7.65862 6.96430
#
# Compressibility (1/GPa) = 0.02590227
#
# Stress axis : x y z
#
# Youngs Moduli (GPa) = 95.42838 29.13747 81.62962
#
# Poissons Ratio (x) = 0.17308 0.43093
# Poissons Ratio (y) = 0.56685 0.35546
# Poissons Ratio (z) = 0.50377 0.12688
#
# Static dielectric constant tensor:
#      x y z
#    x 3.764730 0.000000 0.000000 
#    y 0.000000 3.064520 0.000000 
#    z 0.000000 0.000000 3.256590 
# 
# 
# High freq. dielectric constant tensor:
#      x y z
#    x 1.699650 0.000000 0.000000 
#    y 0.000000 1.654410 0.000000 
#    z 0.000000 0.000000 1.646780 
# 
# From -- ./inp_files/27880.got.cif
#   From: 2010.03.12/outbox.cif.g09.slc.cpg/sg62_14_cif.got.tgz:27880.got - 2010.04.10 19:12:36.
