data_PCOD8250871
_publ_section_title
;
Structure prediction by ZEFSAII (Michael W. Deem and Ramdas Pophale) SiO2 
 PCOD8250871
Probable space group: P N M A
;
_chemical_formula_sum "Si O2"
_cell_formula_units_Z 56
_cell_length_a 20.256884
_cell_length_b 8.938905
_cell_length_c 17.499025
_cell_angle_alpha 90.000000
_cell_angle_beta 90.000000
_cell_angle_gamma 90.000000
_cell_volume 3168.624782
_symmetry_space_group_name_H-M "P N M A"
_symmetry_group_IT_number 62
_symmetry_cell_setting 'orthorhombic'
loop_
_space_group_symop_operation_xyz
x,y,z
1/2-x,-y,1/2+z
1/2+x,1/2-y,1/2-z
-x,1/2+y,-z
-x,-y,-z
1/2+x,y,1/2-z
1/2-x,1/2+y,1/2+z
x,1/2-y,z
loop_
_atom_site_type_symbol
_atom_site_label
_atom_site_fract_x
_atom_site_fract_y
_atom_site_fract_z
Si Si1 0.530759 0.924081 0.073159
Si Si2 0.105581 0.077118 0.631083
Si Si3 0.401549 0.082316 0.529305
Si Si4 0.116474 0.426326 0.797268
Si Si5 0.994655 0.082802 0.116430
Si Si6 0.793039 0.573529 0.062707
Si Si7 0.155175 0.428215 0.469158
O O1 0.545069 0.750000 0.058785
O O2 0.474079 0.947478 0.137244
O O3 0.599876 0.008163 0.090006
O O4 0.500000 0.000000 0.000000
O O5 0.121815 0.250000 0.623032
O O6 0.136113 0.018131 0.711442
O O7 0.139176 0.006489 0.554895
O O8 0.378289 0.250000 0.550995
O O9 0.452756 0.088082 0.460571
O O10 0.437368 0.007351 0.602149
O O11 0.338457 0.983052 0.506800
O O12 0.103704 0.250000 0.799248
O O13 0.047391 0.502706 0.818301
O O14 0.174258 0.470622 0.856000
O O15 0.012634 0.250000 0.143221
O O16 0.782928 0.750000 0.054634
O O17 0.724395 0.488796 0.059553
O O18 0.154367 0.250000 0.465840
#
# Coordination Sequence:
#
# PCOD8250871 Si02
#       7
#     8   8   8   8   8   8   8
#     4   9  16  29  50  75  98 120 154 198 244 288
#     4   8  16  31  52  74  95 123 162 204 242 291
#     4   9  16  27  44  65  91 124 161 196 233 281
#     4   9  17  31  50  71  96 127 165 203 244 295
#     4   9  16  26  42  67  95 121 154 198 241 279
#     4  10  19  30  48  73  99 129 165 206 248 292
#     4  10  19  32  51  73  99 130 166 204 243 295
#
# _framework density 17.673283000000001
#
# number of rings (size 3 to 8) (size 9 to 14) (size 15 to 20)
#    0.000    2.857    0.000    3.000    0.000    4.000 
#    0.000    4.286    3.143    0.000    0.000    0.000 
#    0.000    0.000    0.000    0.000    0.000    0.000 
#
# Total GULP energy -693906.477035 kJ/mol
# GULP energy per Si atom -12391.187090 kJ/mol
# Density = 1.763306 g / cm^3
# Si number density = 17.673283 Si / 1000 Ang^3
#
#
#
# Elastic Constant Matrix: (Units=GPa)
#
#
# Indices 1 2 3 4 5 6 
#
# 1 102.8547 42.6078 34.5905 0.0000 0.0000 0.0000
# 2 42.6078 88.3068 26.1498 0.0000 0.0000 0.0000
# 3 34.5905 26.1498 69.0638 0.0000 0.0000 0.0000
# 4 0.0000 0.0000 0.0000 16.2280 0.0000 0.0000
# 5 0.0000 0.0000 0.0000 0.0000 16.2011 0.0000
# 6 0.0000 0.0000 0.0000 0.0000 0.0000 33.9837
#
#
#
# Elastic Compliance Matrix: (Units=1/GPa)
#
#
# Indices 1 2 3 4 5 6 
#
# 1 0.013437 -0.005057 -0.004815 0.000000 0.000000 0.000000
# 2 -0.005057 0.014658 -0.003017 0.000000 0.000000 0.000000
# 3 -0.004815 -0.003017 0.018033 0.000000 0.000000 0.000000
# 4 0.000000 0.000000 0.000000 0.061622 0.000000 0.000000
# 5 0.000000 0.000000 0.000000 0.000000 0.061724 0.000000
# 6 0.000000 0.000000 0.000000 0.000000 0.000000 0.029426
#
#
# Mechanical properties :
#
#
# Convention : Reuss Voigt Hill
#
# Bulk Modulus (GPa) = 49.14174 51.88017 50.51095
# Shear Modulus (GPa) = 21.60191 23.74105 22.67148
#
# Velocity S-wave (km/s) = 3.49992 3.66912 3.58552
# Velocity P-wave (km/s) = 6.64821 6.88250 6.76637
#
# Compressibility (1/GPa) = 0.02034930
#
# Stress axis : x y z
#
# Youngs Moduli (GPa) = 74.42270 68.22342 55.45335
#
# Poissons Ratio (x) = 0.34503 0.26700
# Poissons Ratio (y) = 0.37639 0.16730
# Poissons Ratio (z) = 0.35834 0.20582
#
# Static dielectric constant tensor:
#      x y z
#    x 3.403650 0.000000 0.000000 
#    y 0.000000 3.436140 0.000000 
#    z 0.000000 0.000000 3.348560 
# 
# 
# High freq. dielectric constant tensor:
#      x y z
#    x 1.672810 0.000000 0.000000 
#    y 0.000000 1.685930 0.000000 
#    z 0.000000 0.000000 1.651150 
# 
# From -- ./inp_files/24580.got.cif
#   From: 2010.03.12/outbox.cif.g09.slc.cpg/sg62_13_cif.got.tgz:24580.got - 2010.04.10 19:12:36.
