data_PCOD8250762
_publ_section_title
;
Structure prediction by ZEFSAII (Michael W. Deem and Ramdas Pophale) SiO2 
 PCOD8250762
Probable space group: P N M A
;
_chemical_formula_sum "Si O2"
_cell_formula_units_Z 48
_cell_length_a 14.043668
_cell_length_b 9.107844
_cell_length_c 23.629173
_cell_angle_alpha 90.000000
_cell_angle_beta 90.000000
_cell_angle_gamma 90.000000
_cell_volume 3022.349328
_symmetry_space_group_name_H-M "P N M A"
_symmetry_group_IT_number 62
_symmetry_cell_setting 'orthorhombic'
loop_
_space_group_symop_operation_xyz
x,y,z
1/2-x,-y,1/2+z
1/2+x,1/2-y,1/2-z
-x,1/2+y,-z
-x,-y,-z
1/2+x,y,1/2-z
1/2-x,1/2+y,1/2+z
x,1/2-y,z
loop_
_atom_site_type_symbol
_atom_site_label
_atom_site_fract_x
_atom_site_fract_y
_atom_site_fract_z
Si Si1 0.220140 0.424290 0.664576
Si Si2 0.110808 0.423962 0.772754
Si Si3 0.401861 0.578031 0.933545
Si Si4 0.400906 0.075935 0.725741
Si Si5 0.903225 0.578336 0.437535
Si Si6 0.293217 0.422209 0.838642
O O1 0.222529 0.250000 0.669077
O O2 0.148380 0.485361 0.712613
O O3 0.327022 0.483930 0.677874
O O4 0.183639 0.474082 0.602789
O O5 0.103322 0.250000 0.768560
O O6 0.184878 0.466395 0.822317
O O7 0.006018 0.491822 0.785019
O O8 0.409188 0.750000 0.922832
O O9 0.502830 0.506976 0.918224
O O10 0.319473 0.510874 0.894814
O O11 0.374225 0.541197 0.998346
O O12 0.405344 0.250000 0.722002
O O13 0.363645 0.030959 0.787863
O O14 0.925128 0.750000 0.429534
O O15 0.301754 0.250000 0.851282
#
# Coordination Sequence:
#
# PCOD8250762 Si02
#       6
#     8   8   8   8   8   8
#     4   8  13  22  39  62  83 102 128 166 206 237
#     4   8  13  21  37  63  86 101 125 164 205 238
#     4  10  19  28  40  60  84 109 135 164 201 244
#     4   8  13  22  40  65  85 101 130 171 205 234
#     4   9  17  29  44  61  81 106 136 169 204 240
#     4   9  16  26  42  62  83 107 132 162 201 240
#
# _framework density 15.881684
#
# number of rings (size 3 to 8) (size 9 to 14) (size 15 to 20)
#    0.000    3.333    0.000    3.500    0.000    3.333 
#    0.000    0.000    0.000   10.000    0.000    0.000 
#    0.000    0.000    0.000    0.000    0.000    0.500 
#
# Total GULP energy -594824.419330 kJ/mol
# GULP energy per Si atom -12392.175403 kJ/mol
# Density = 1.584554 g / cm^3
# Si number density = 15.881684 Si / 1000 Ang^3
#
#
#
# Elastic Constant Matrix: (Units=GPa)
#
#
# Indices 1 2 3 4 5 6 
#
# 1 156.5799 22.2930 75.5126 0.0000 0.0000 0.0000
# 2 22.2930 24.0968 26.2190 0.0000 0.0000 0.0000
# 3 75.5126 26.2190 102.0896 0.0000 0.0000 0.0000
# 4 0.0000 0.0000 0.0000 19.3953 0.0000 0.0000
# 5 0.0000 0.0000 0.0000 0.0000 27.5662 0.0000
# 6 0.0000 0.0000 0.0000 0.0000 0.0000 11.1409
#
#
#
# Elastic Compliance Matrix: (Units=1/GPa)
#
#
# Indices 1 2 3 4 5 6 
#
# 1 0.009976 -0.001666 -0.006951 0.000000 0.000000 0.000000
# 2 -0.001666 0.057871 -0.013631 0.000000 0.000000 0.000000
# 3 -0.006951 -0.013631 0.018437 0.000000 0.000000 0.000000
# 4 0.000000 0.000000 0.000000 0.051559 0.000000 0.000000
# 5 0.000000 0.000000 0.000000 0.000000 0.036276 0.000000
# 6 0.000000 0.000000 0.000000 0.000000 0.000000 0.089759
#
#
# Mechanical properties :
#
#
# Convention : Reuss Voigt Hill
#
# Bulk Modulus (GPa) = 23.92924 58.97950 41.45437
# Shear Modulus (GPa) = 15.51328 22.20325 18.85826
#
# Velocity S-wave (km/s) = 3.12878 3.74310 3.44964
# Velocity P-wave (km/s) = 5.30587 7.47653 6.48269
#
# Compressibility (1/GPa) = 0.04178987
#
# Stress axis : x y z
#
# Youngs Moduli (GPa) = 100.24124 17.27966 54.23744
#
# Poissons Ratio (x) = 0.02879 0.37701
# Poissons Ratio (y) = 0.16699 0.73928
# Poissons Ratio (z) = 0.69678 0.23553
#
# Static dielectric constant tensor:
#      x y z
#    x 3.429100 0.000000 0.000000 
#    y 0.000000 2.575910 0.000000 
#    z 0.000000 0.000000 3.047510 
# 
# 
# High freq. dielectric constant tensor:
#      x y z
#    x 1.609330 0.000000 0.000000 
#    y 0.000000 1.562690 0.000000 
#    z 0.000000 0.000000 1.601070 
# 
# From -- ./inp_files/26879.got.cif
#   From: 2010.03.12/outbox.cif.g09.slc.cpg/sg62_14_cif.got.tgz:26879.got - 2010.04.10 19:12:36.
