data_PCOD8250043
_publ_section_title
;
Structure prediction by ZEFSAII (Michael W. Deem and Ramdas Pophale) SiO2 
 PCOD8250043
Probable space group: P N M A
;
_chemical_formula_sum "Si O2"
_cell_formula_units_Z 64
_cell_length_a 12.199936
_cell_length_b 17.191941
_cell_length_c 17.036181
_cell_angle_alpha 90.000000
_cell_angle_beta 90.000000
_cell_angle_gamma 90.000000
_cell_volume 3573.178482
_symmetry_space_group_name_H-M "P N M A"
_symmetry_group_IT_number 62
_symmetry_cell_setting 'orthorhombic'
loop_
_space_group_symop_operation_xyz
x,y,z
1/2-x,-y,1/2+z
1/2+x,1/2-y,1/2-z
-x,1/2+y,-z
-x,-y,-z
1/2+x,y,1/2-z
1/2-x,1/2+y,1/2+z
x,1/2-y,z
loop_
_atom_site_type_symbol
_atom_site_label
_atom_site_fract_x
_atom_site_fract_y
_atom_site_fract_z
Si Si1 0.429864 0.074107 0.524296
Si Si2 0.844282 0.976785 0.844803
Si Si3 0.992056 0.334979 0.461473
Si Si4 0.315535 0.336946 0.911340
Si Si5 0.610101 0.978475 0.173393
Si Si6 0.304458 0.572502 0.963351
Si Si7 0.610281 0.980087 0.891464
Si Si8 0.876140 0.840198 0.967912
O O1 0.323911 0.090557 0.470459
O O2 0.510076 0.148303 0.516332
O O3 0.500000 0.000000 0.500000
O O4 0.385500 0.055095 0.611057
O O5 0.713228 0.979803 0.833005
O O6 0.875261 0.896825 0.891314
O O7 0.897319 0.984944 0.759788
O O8 0.979577 0.250000 0.423521
O O9 0.120997 0.351299 0.476631
O O10 0.931475 0.338593 0.544768
O O11 0.939173 0.393866 0.399306
O O12 0.288619 0.250000 0.879810
O O13 0.325540 0.395868 0.837173
O O14 0.222368 0.363794 0.973664
O O15 0.677142 0.041093 0.123577
O O16 0.485437 0.965879 0.143358
O O17 0.348474 0.506878 0.023104
O O18 0.866069 0.750000 0.941301
#
# Coordination Sequence:
#
# PCOD8250043 Si02
#       8
#     8   8   8   8   8   8   8   8
#     4   9  19  35  54  75 104 143 190 228 257 321
#     4  10  21  33  52  81 109 139 178 222 277 324
#     4  10  17  29  54  79 100 129 176 227 265 308
#     4  10  18  32  57  82 102 136 184 226 262 319
#     4  11  19  32  54  80 111 140 171 226 280 320
#     4  10  18  33  53  76 107 137 186 227 264 324
#     4  10  18  34  51  76 106 139 182 219 262 322
#     4  10  20  37  59  78 103 146 193 225 259 320
#
# _framework density 17.911223
#
# number of rings (size 3 to 8) (size 9 to 14) (size 15 to 20)
#    0.000    2.000    3.750    2.250    0.000    3.500 
#    0.000    3.125    0.000    3.000    0.000    0.000 
#    0.000    0.000    0.000    0.000    0.000    0.000 
#
# Total GULP energy -793106.042690 kJ/mol
# GULP energy per Si atom -12392.281917 kJ/mol
# Density = 1.787046 g / cm^3
# Si number density = 17.911223 Si / 1000 Ang^3
#
#
#
# Elastic Constant Matrix: (Units=GPa)
#
#
# Indices 1 2 3 4 5 6 
#
# 1 121.1723 35.6862 34.2980 0.0000 0.0000 0.0000
# 2 35.6862 94.6361 35.9407 0.0000 0.0000 0.0000
# 3 34.2980 35.9407 76.0983 0.0000 0.0000 0.0000
# 4 0.0000 0.0000 0.0000 18.8759 0.0000 0.0000
# 5 0.0000 0.0000 0.0000 0.0000 13.0780 0.0000
# 6 0.0000 0.0000 0.0000 0.0000 0.0000 21.1725
#
#
#
# Elastic Compliance Matrix: (Units=1/GPa)
#
#
# Indices 1 2 3 4 5 6 
#
# 1 0.009918 -0.002489 -0.003295 0.000000 0.000000 0.000000
# 2 -0.002489 0.013501 -0.005255 0.000000 0.000000 0.000000
# 3 -0.003295 -0.005255 0.017108 0.000000 0.000000 0.000000
# 4 0.000000 0.000000 0.000000 0.052978 0.000000 0.000000
# 5 0.000000 0.000000 0.000000 0.000000 0.076464 0.000000
# 6 0.000000 0.000000 0.000000 0.000000 0.000000 0.047231
#
#
# Mechanical properties :
#
#
# Convention : Reuss Voigt Hill
#
# Bulk Modulus (GPa) = 54.19965 55.97295 55.08630
# Shear Modulus (GPa) = 20.37270 23.02406 21.69838
#
# Velocity S-wave (km/s) = 3.37623 3.58921 3.48435
# Velocity P-wave (km/s) = 6.74718 6.96381 6.85635
#
# Compressibility (1/GPa) = 0.01845030
#
# Stress axis : x y z
#
# Youngs Moduli (GPa) = 100.82395 74.06917 58.45347
#
# Poissons Ratio (x) = 0.18434 0.19259
# Poissons Ratio (y) = 0.25093 0.30715
# Poissons Ratio (z) = 0.33219 0.38921
#
# Static dielectric constant tensor:
#      x y z
#    x 3.715670 0.000000 0.000000 
#    y 0.000000 3.375830 0.000000 
#    z 0.000000 0.000000 2.944250 
# 
# 
# High freq. dielectric constant tensor:
#      x y z
#    x 1.709910 0.000000 0.000000 
#    y 0.000000 1.683260 0.000000 
#    z 0.000000 0.000000 1.650530 
# 
# From -- ./inp_files/23323.got.cif
#   From: 2010.03.12/outbox.cif.g09.slc.cpg/sg62_12_cif.got.tgz:23323.got - 2010.04.10 19:12:36.
