data_PCOD8250149
_publ_section_title
;
Structure prediction by ZEFSAII (Michael W. Deem and Ramdas Pophale) SiO2 
 PCOD8250149
Probable space group: P N M A
;
_chemical_formula_sum "Si O2"
_cell_formula_units_Z 64
_cell_length_a 25.972897
_cell_length_b 9.159523
_cell_length_c 18.412615
_cell_angle_alpha 90.000000
_cell_angle_beta 90.000000
_cell_angle_gamma 90.000000
_cell_volume 4380.349093
_symmetry_space_group_name_H-M "P N M A"
_symmetry_group_IT_number 62
_symmetry_cell_setting 'orthorhombic'
loop_
_space_group_symop_operation_xyz
x,y,z
1/2-x,-y,1/2+z
1/2+x,1/2-y,1/2-z
-x,1/2+y,-z
-x,-y,-z
1/2+x,y,1/2-z
1/2-x,1/2+y,1/2+z
x,1/2-y,z
loop_
_atom_site_type_symbol
_atom_site_label
_atom_site_fract_x
_atom_site_fract_y
_atom_site_fract_z
Si Si1 0.255490 0.423798 0.584319
Si Si2 0.196679 0.910634 0.303689
Si Si3 0.852037 0.419928 0.157884
Si Si4 0.696326 0.086941 0.780169
Si Si5 0.950835 0.920730 0.912003
Si Si6 0.358090 0.423165 0.661889
Si Si7 0.555610 0.420866 0.579821
Si Si8 0.754059 0.581014 0.576668
O O1 0.258195 0.250000 0.583421
O O2 0.209252 0.472140 0.638630
O O3 0.310975 0.480325 0.611893
O O4 0.244271 0.487608 0.504226
O O5 0.182752 0.750000 0.332553
O O6 0.250180 0.906154 0.261698
O O7 0.153423 0.962725 0.246280
O O8 0.200727 0.013236 0.374037
O O9 0.866576 0.250000 0.160147
O O10 0.842505 0.476490 0.240052
O O11 0.897584 0.512009 0.123850
O O12 0.801955 0.449943 0.109423
O O13 0.672002 0.250000 0.782519
O O14 0.957026 0.750000 0.895889
O O15 0.908475 0.988829 0.859581
O O16 0.934647 0.950466 0.994934
O O17 0.004139 0.999838 0.893645
O O18 0.366646 0.250000 0.651868
O O19 0.550884 0.250000 0.596800
O O20 0.766436 0.750000 0.573193
#
# Coordination Sequence:
#
# PCOD8250149 Si02
#       8
#     8   8   8   8   8   8   8   8
#     4   8  14  25  41  59  79 108 142 169 197 238
#     4   8  15  26  39  56  78 106 137 166 197 236
#     4  10  18  27  41  60  82 107 136 170 205 238
#     4   8  14  26  41  55  76 106 138 168 197 236
#     4  10  20  31  43  61  82 103 133 173 207 233
#     4   9  16  28  44  58  78 110 141 166 199 243
#     4  10  20  32  44  58  79 108 138 166 200 241
#     4   9  16  25  39  59  82 108 137 169 204 238
#
# _framework density 14.610707
#
# number of rings (size 3 to 8) (size 9 to 14) (size 15 to 20)
#    0.000    3.000    0.000    3.375    0.000    3.500 
#    0.000    3.125    0.000    0.000    0.000    0.000 
#    0.000    1.000    0.000    3.000    0.000    4.625 
#
# Total GULP energy -793302.217690 kJ/mol
# GULP energy per Si atom -12395.347151 kJ/mol
# Density = 1.457745 g / cm^3
# Si number density = 14.610707 Si / 1000 Ang^3
#
#
#
# Elastic Constant Matrix: (Units=GPa)
#
#
# Indices 1 2 3 4 5 6 
#
# 1 54.8098 41.5154 36.1988 0.0000 0.0000 0.0000
# 2 41.5154 67.6306 43.4072 0.0000 0.0000 0.0000
# 3 36.1988 43.4072 98.9634 0.0000 0.0000 0.0000
# 4 0.0000 0.0000 0.0000 21.6653 0.0000 0.0000
# 5 0.0000 0.0000 0.0000 0.0000 24.2255 0.0000
# 6 0.0000 0.0000 0.0000 0.0000 0.0000 22.9882
#
#
#
# Elastic Compliance Matrix: (Units=1/GPa)
#
#
# Indices 1 2 3 4 5 6 
#
# 1 0.035661 -0.018816 -0.004791 0.000000 0.000000 0.000000
# 2 -0.018816 0.030507 -0.006499 0.000000 0.000000 0.000000
# 3 -0.004791 -0.006499 0.014708 0.000000 0.000000 0.000000
# 4 0.000000 0.000000 0.000000 0.046157 0.000000 0.000000
# 5 0.000000 0.000000 0.000000 0.000000 0.041279 0.000000
# 6 0.000000 0.000000 0.000000 0.000000 0.000000 0.043501
#
#
# Mechanical properties :
#
#
# Convention : Reuss Voigt Hill
#
# Bulk Modulus (GPa) = 48.39092 51.51630 49.95361
# Shear Modulus (GPa) = 17.92683 20.46128 19.19406
#
# Velocity S-wave (km/s) = 3.50661 3.74629 3.62843
# Velocity P-wave (km/s) = 7.04181 7.35179 7.19847
#
# Compressibility (1/GPa) = 0.02066503
#
# Stress axis : x y z
#
# Youngs Moduli (GPa) = 28.04191 32.77905 67.99147
#
# Poissons Ratio (x) = 0.61676 0.32576
# Poissons Ratio (y) = 0.52762 0.44186
# Poissons Ratio (z) = 0.13435 0.21302
#
# Static dielectric constant tensor:
#      x y z
#    x 2.613350 0.000000 0.000000 
#    y 0.000000 2.851230 0.000000 
#    z 0.000000 0.000000 3.101650 
# 
# 
# High freq. dielectric constant tensor:
#      x y z
#    x 1.525230 0.000000 0.000000 
#    y 0.000000 1.556310 0.000000 
#    z 0.000000 0.000000 1.550790 
# 
# From -- ./inp_files/24911.got.cif
#   From: 2010.03.12/outbox.cif.g09.slc.cpg/sg62_13_cif.got.tgz:24911.got - 2010.04.10 19:12:36.
