data_PCOD8250264
_publ_section_title
;
Structure prediction by ZEFSAII (Michael W. Deem and Ramdas Pophale) SiO2 
 PCOD8250264
Probable space group: P N M A
;
_chemical_formula_sum "Si O2"
_cell_formula_units_Z 48
_cell_length_a 18.409712
_cell_length_b 8.911609
_cell_length_c 17.320025
_cell_angle_alpha 90.000000
_cell_angle_beta 90.000000
_cell_angle_gamma 90.000000
_cell_volume 2841.525989
_symmetry_space_group_name_H-M "P N M A"
_symmetry_group_IT_number 62
_symmetry_cell_setting 'orthorhombic'
loop_
_space_group_symop_operation_xyz
x,y,z
1/2-x,-y,1/2+z
1/2+x,1/2-y,1/2-z
-x,1/2+y,-z
-x,-y,-z
1/2+x,y,1/2-z
1/2-x,1/2+y,1/2+z
x,1/2-y,z
loop_
_atom_site_type_symbol
_atom_site_label
_atom_site_fract_x
_atom_site_fract_y
_atom_site_fract_z
Si Si1 0.584079 0.426237 0.776724
Si Si2 0.682626 0.079668 0.923842
Si Si3 0.188200 0.926865 0.418448
Si Si4 0.706243 0.920780 0.304363
Si Si5 0.076063 0.922609 0.290987
Si Si6 0.699722 0.925287 0.681286
O O1 0.582170 0.250000 0.759661
O O2 0.627007 0.461859 0.855539
O O3 0.503201 0.498052 0.784676
O O4 0.621532 0.504465 0.702779
O O5 0.670667 0.250000 0.951901
O O6 0.765805 0.057533 0.892151
O O7 0.667674 0.969533 0.994486
O O8 0.196582 0.750000 0.410709
O O9 0.124383 0.987983 0.361621
O O10 0.265320 0.001910 0.395730
O O11 0.727784 0.750000 0.277541
O O12 0.619863 0.943557 0.290619
O O13 0.746585 0.041405 0.251868
O O14 0.061886 0.750000 0.309680
O O15 0.690592 0.750000 0.667451
#
# Coordination Sequence:
#
# PCOD8250264 Si02
#       6
#     8   8   8   8   8   8
#     4   9  17  31  49  68  93 122 151 184 227 276
#     4   9  17  28  44  68  96 123 149 184 228 269
#     4  10  19  31  47  67  92 123 157 189 224 269
#     4   8  15  30  49  67  90 121 156 189 224 268
#     4   8  15  29  49  69  89 120 156 186 222 272
#     4  10  18  29  46  67  90 117 153 192 227 266
#
# _framework density 16.892332
#
# number of rings (size 3 to 8) (size 9 to 14) (size 15 to 20)
#    0.000    3.000    0.000    4.000    0.000    3.333 
#    0.000    4.167    0.000    1.000    0.000    0.000 
#    0.000    0.000    0.000    0.000    0.000    0.000 
#
# Total GULP energy -594721.766638 kJ/mol
# GULP energy per Si atom -12390.036805 kJ/mol
# Density = 1.685388 g / cm^3
# Si number density = 16.892332 Si / 1000 Ang^3
#
#
#
# Elastic Constant Matrix: (Units=GPa)
#
#
# Indices 1 2 3 4 5 6 
#
# 1 131.2623 31.2604 53.0259 0.0000 0.0000 0.0000
# 2 31.2604 58.5715 18.6121 0.0000 0.0000 0.0000
# 3 53.0259 18.6121 35.3330 0.0000 0.0000 0.0000
# 4 0.0000 0.0000 0.0000 26.5010 0.0000 0.0000
# 5 0.0000 0.0000 0.0000 0.0000 17.3973 0.0000
# 6 0.0000 0.0000 0.0000 0.0000 0.0000 12.6205
#
#
#
# Elastic Compliance Matrix: (Units=1/GPa)
#
#
# Indices 1 2 3 4 5 6 
#
# 1 0.019434 -0.001326 -0.028467 0.000000 0.000000 0.000000
# 2 -0.001326 0.020596 -0.008859 0.000000 0.000000 0.000000
# 3 -0.028467 -0.008859 0.075690 0.000000 0.000000 0.000000
# 4 0.000000 0.000000 0.000000 0.037734 0.000000 0.000000
# 5 0.000000 0.000000 0.000000 0.000000 0.057480 0.000000
# 6 0.000000 0.000000 0.000000 0.000000 0.000000 0.079236
#
#
# Mechanical properties :
#
#
# Convention : Reuss Voigt Hill
#
# Bulk Modulus (GPa) = 26.03063 47.88484 36.95773
# Shear Modulus (GPa) = 13.14824 19.45497 16.30161
#
# Velocity S-wave (km/s) = 2.79293 3.39736 3.10986
# Velocity P-wave (km/s) = 5.08368 6.61801 5.90092
#
# Compressibility (1/GPa) = 0.03841629
#
# Stress axis : x y z
#
# Youngs Moduli (GPa) = 51.45670 48.55301 13.21184
#
# Poissons Ratio (x) = 0.06440 0.37610
# Poissons Ratio (y) = 0.06825 0.11704
# Poissons Ratio (z) = 1.46479 0.43012
#
# Static dielectric constant tensor:
#      x y z
#    x 3.464820 0.000000 0.000000 
#    y 0.000000 2.918650 0.000000 
#    z 0.000000 0.000000 3.021240 
# 
# 
# High freq. dielectric constant tensor:
#      x y z
#    x 1.644980 0.000000 0.000000 
#    y 0.000000 1.633860 0.000000 
#    z 0.000000 0.000000 1.625460 
# 
# From -- ./inp_files/24184.got.cif
#   From: 2010.03.12/outbox.cif.g09.slc.cpg/sg62_13_cif.got.tgz:24184.got - 2010.04.10 19:12:36.
