data_PCOD8250254
_publ_section_title
;
Structure prediction by ZEFSAII (Michael W. Deem and Ramdas Pophale) SiO2 
 PCOD8250254
Probable space group: P N M A
;
_chemical_formula_sum "Si O2"
_cell_formula_units_Z 64
_cell_length_a 18.816021
_cell_length_b 9.341991
_cell_length_c 23.406757
_cell_angle_alpha 90.000000
_cell_angle_beta 90.000000
_cell_angle_gamma 90.000000
_cell_volume 4114.418652
_symmetry_space_group_name_H-M "P N M A"
_symmetry_group_IT_number 62
_symmetry_cell_setting 'orthorhombic'
loop_
_space_group_symop_operation_xyz
x,y,z
1/2-x,-y,1/2+z
1/2+x,1/2-y,1/2-z
-x,1/2+y,-z
-x,-y,-z
1/2+x,y,1/2-z
1/2-x,1/2+y,1/2+z
x,1/2-y,z
loop_
_atom_site_type_symbol
_atom_site_label
_atom_site_fract_x
_atom_site_fract_y
_atom_site_fract_z
Si Si1 0.728914 0.084444 0.830564
Si Si2 0.000956 0.581012 0.611097
Si Si3 0.134298 0.417891 0.565264
Si Si4 0.249151 0.083595 0.339720
Si Si5 0.498771 0.082372 0.243698
Si Si6 0.852487 0.917991 0.563657
Si Si7 0.135008 0.418125 0.778448
Si Si8 0.157301 0.413920 0.228841
O O1 0.748129 0.250000 0.829925
O O2 0.696135 0.035919 0.890966
O O3 0.671604 0.046423 0.781997
O O4 0.802502 0.002268 0.820220
O O5 0.008630 0.750000 0.601543
O O6 0.063047 0.503746 0.576994
O O7 0.004589 0.540206 0.677407
O O8 0.927536 0.519078 0.585300
O O9 0.117068 0.250000 0.571405
O O10 0.161696 0.457651 0.502098
O O11 0.271569 0.250000 0.342867
O O12 0.213436 0.026013 0.398303
O O13 0.191144 0.057453 0.290576
O O14 0.318940 0.988635 0.329031
O O15 0.482775 0.250000 0.251827
O O16 0.575336 0.040041 0.268878
O O17 0.442223 0.989859 0.278879
O O18 0.856986 0.750000 0.574142
O O19 0.127790 0.250000 0.789661
O O20 0.165003 0.250000 0.211373
#
# Coordination Sequence:
#
# PCOD8250254 Si02
#       8
#     8   8   8   8   8   8   8   8
#     4   9  18  30  42  62  91 120 150 182 220 268
#     4  10  18  29  44  65  92 122 157 190 216 253
#     4  10  19  31  45  64  93 127 157 185 220 265
#     4   9  16  30  48  66  86 116 155 192 225 260
#     4  10  18  29  46  68  91 118 151 187 225 267
#     4   9  17  30  48  66  89 123 160 192 221 258
#     4  10  19  30  44  65  93 121 148 182 227 275
#     4   9  17  29  47  66  86 113 150 191 228 263
#
# _framework density 15.555052999999999
#
# number of rings (size 3 to 8) (size 9 to 14) (size 15 to 20)
#    0.000    2.500    2.500    0.750    0.000    1.500 
#    0.000    1.250    0.000    0.000    0.000    0.875 
#    0.000    0.000    0.000    0.000    0.000    0.000 
#
# Total GULP energy -793615.607226 kJ/mol
# GULP energy per Si atom -12400.243863 kJ/mol
# Density = 1.551965 g / cm^3
# Si number density = 15.555053 Si / 1000 Ang^3
#
#
#
# Elastic Constant Matrix: (Units=GPa)
#
#
# Indices 1 2 3 4 5 6 
#
# 1 103.6640 42.2076 49.8034 0.0000 0.0000 0.0000
# 2 42.2076 43.3332 26.7650 0.0000 0.0000 0.0000
# 3 49.8034 26.7650 84.0674 0.0000 0.0000 0.0000
# 4 0.0000 0.0000 0.0000 15.2354 0.0000 0.0000
# 5 0.0000 0.0000 0.0000 0.0000 24.5428 0.0000
# 6 0.0000 0.0000 0.0000 0.0000 0.0000 26.1709
#
#
#
# Elastic Compliance Matrix: (Units=1/GPa)
#
#
# Indices 1 2 3 4 5 6 
#
# 1 0.018446 -0.013963 -0.006482 0.000000 0.000000 0.000000
# 2 -0.013963 0.039295 -0.004239 0.000000 0.000000 0.000000
# 3 -0.006482 -0.004239 0.017085 0.000000 0.000000 0.000000
# 4 0.000000 0.000000 0.000000 0.065637 0.000000 0.000000
# 5 0.000000 0.000000 0.000000 0.000000 0.040745 0.000000
# 6 0.000000 0.000000 0.000000 0.000000 0.000000 0.038210
#
#
# Mechanical properties :
#
#
# Convention : Reuss Voigt Hill
#
# Bulk Modulus (GPa) = 39.27993 52.06853 45.67423
# Shear Modulus (GPa) = 18.03277 20.67571 19.35424
#
# Velocity S-wave (km/s) = 3.40852 3.64977 3.53121
# Velocity P-wave (km/s) = 6.38731 7.16292 6.78621
#
# Compressibility (1/GPa) = 0.02545830
#
# Stress axis : x y z
#
# Youngs Moduli (GPa) = 54.21214 25.44825 58.53081
#
# Poissons Ratio (x) = 0.35534 0.37942
# Poissons Ratio (y) = 0.75697 0.24809
# Poissons Ratio (z) = 0.35142 0.10787
#
# Static dielectric constant tensor:
#      x y z
#    x 2.983230 0.000000 0.000000 
#    y 0.000000 2.851020 0.000000 
#    z 0.000000 0.000000 2.935720 
# 
# 
# High freq. dielectric constant tensor:
#      x y z
#    x 1.591430 0.000000 0.000000 
#    y 0.000000 1.586420 0.000000 
#    z 0.000000 0.000000 1.575610 
# 
# From -- ./inp_files/30033.got.cif
#   From: 2010.03.12/outbox.cif.g09.slc.cpg/sg62_16_cif.got.tgz:30033.got - 2010.04.10 19:12:36.
