data_PCOD8250759
_publ_section_title
;
Structure prediction by ZEFSAII (Michael W. Deem and Ramdas Pophale) SiO2 
 PCOD8250759
Probable space group: P N M A
;
_chemical_formula_sum "Si O2"
_cell_formula_units_Z 48
_cell_length_a 5.161262
_cell_length_b 24.099094
_cell_length_c 22.079099
_cell_angle_alpha 90.000000
_cell_angle_beta 90.000000
_cell_angle_gamma 90.000000
_cell_volume 2746.236709
_symmetry_space_group_name_H-M "P N M A"
_symmetry_group_IT_number 62
_symmetry_cell_setting 'orthorhombic'
loop_
_space_group_symop_operation_xyz
x,y,z
1/2-x,-y,1/2+z
1/2+x,1/2-y,1/2-z
-x,1/2+y,-z
-x,-y,-z
1/2+x,y,1/2-z
1/2-x,1/2+y,1/2+z
x,1/2-y,z
loop_
_atom_site_type_symbol
_atom_site_label
_atom_site_fract_x
_atom_site_fract_y
_atom_site_fract_z
Si Si1 0.246052 0.027401 0.423521
Si Si2 0.855590 0.310695 0.099226
Si Si3 0.738430 0.429108 0.485013
Si Si4 0.644134 0.811279 0.975766
Si Si5 0.254126 0.357707 0.278424
Si Si6 0.249302 0.484514 0.280801
O O1 0.283256 0.969475 0.458318
O O2 0.475845 0.069241 0.444389
O O3 0.258894 0.011292 0.353296
O O4 0.972042 0.054930 0.439843
O O5 0.810432 0.250000 0.128453
O O6 0.654137 0.317451 0.043972
O O7 0.787903 0.356368 0.149289
O O8 0.155080 0.315272 0.080097
O O9 0.784575 0.367026 0.513635
O O10 0.682156 0.750000 0.007879
O O11 0.492865 0.327704 0.244254
O O12 0.239510 0.421277 0.258294
O O13 0.496626 0.513820 0.248790
#
# Coordination Sequence:
#
# PCOD8250759 Si02
#       6
#     8   8   8   8   8   8
#     4  10  20  32  49  71  93 121 152 187 231 271
#     4  10  20  31  43  59  81 112 147 184 221 255
#     4  10  19  32  50  70  94 120 150 190 229 272
#     4  10  19  31  47  65  86 113 144 178 221 269
#     4  10  19  28  40  56  76 108 145 182 219 250
#     4  10  19  30  44  63  88 116 148 183 221 269
#
# _framework density 17.478463999999999
#
# number of rings (size 3 to 8) (size 9 to 14) (size 15 to 20)
#    0.000    2.000    0.000    5.000    0.000    3.333 
#    0.000    0.000    0.000    0.000    0.000    0.000 
#    0.000    1.333    0.000    0.000    0.000    4.000 
#
# Total GULP energy -594740.706668 kJ/mol
# GULP energy per Si atom -12390.431389 kJ/mol
# Density = 1.743868 g / cm^3
# Si number density = 17.478464 Si / 1000 Ang^3
#
#
#
# Elastic Constant Matrix: (Units=GPa)
#
#
# Indices 1 2 3 4 5 6 
#
# 1 124.3605 3.5155 28.6418 0.0000 0.0000 0.0000
# 2 3.5155 56.9802 5.1946 0.0000 0.0000 0.0000
# 3 28.6418 5.1946 60.6766 0.0000 0.0000 0.0000
# 4 0.0000 0.0000 0.0000 17.3363 0.0000 0.0000
# 5 0.0000 0.0000 0.0000 0.0000 21.0889 0.0000
# 6 0.0000 0.0000 0.0000 0.0000 0.0000 14.6540
#
#
#
# Elastic Compliance Matrix: (Units=1/GPa)
#
#
# Indices 1 2 3 4 5 6 
#
# 1 0.009024 -0.000170 -0.004245 0.000000 0.000000 0.000000
# 2 -0.000170 0.017691 -0.001434 0.000000 0.000000 0.000000
# 3 -0.004245 -0.001434 0.018607 0.000000 0.000000 0.000000
# 4 0.000000 0.000000 0.000000 0.057683 0.000000 0.000000
# 5 0.000000 0.000000 0.000000 0.000000 0.047418 0.000000
# 6 0.000000 0.000000 0.000000 0.000000 0.000000 0.068241
#
#
# Mechanical properties :
#
#
# Convention : Reuss Voigt Hill
#
# Bulk Modulus (GPa) = 29.74074 35.19124 32.46599
# Shear Modulus (GPa) = 20.69794 24.26019 22.47906
#
# Velocity S-wave (km/s) = 3.44495 3.72964 3.59012
# Velocity P-wave (km/s) = 5.73377 6.22292 5.98334
#
# Compressibility (1/GPa) = 0.03362391
#
# Stress axis : x y z
#
# Youngs Moduli (GPa) = 110.82032 56.52524 53.74195
#
# Poissons Ratio (x) = 0.00959 0.22813
# Poissons Ratio (y) = 0.01881 0.07709
# Poissons Ratio (z) = 0.47043 0.08108
#
# Static dielectric constant tensor:
#      x y z
#    x 3.799140 0.000000 0.000000 
#    y 0.000000 3.345260 0.000000 
#    z 0.000000 0.000000 2.756020 
# 
# 
# High freq. dielectric constant tensor:
#      x y z
#    x 1.710310 0.000000 0.000000 
#    y 0.000000 1.654150 0.000000 
#    z 0.000000 0.000000 1.619580 
# 
# From -- ./inp_files/21600.got.cif
#   From: 2010.03.12/outbox.cif.g09.slc.cpg/sg62_11_cif.got.tgz:21600.got - 2010.04.10 19:12:36.
