data_PCOD8250644
_publ_section_title
;
Structure prediction by ZEFSAII (Michael W. Deem and Ramdas Pophale) SiO2 
 PCOD8250644
Probable space group: P N M A
;
_chemical_formula_sum "Si O2"
_cell_formula_units_Z 64
_cell_length_a 23.886122
_cell_length_b 8.849359
_cell_length_c 15.246019
_cell_angle_alpha 90.000000
_cell_angle_beta 90.000000
_cell_angle_gamma 90.000000
_cell_volume 3222.655756
_symmetry_space_group_name_H-M "P N M A"
_symmetry_group_IT_number 62
_symmetry_cell_setting 'orthorhombic'
loop_
_space_group_symop_operation_xyz
x,y,z
1/2-x,-y,1/2+z
1/2+x,1/2-y,1/2-z
-x,1/2+y,-z
-x,-y,-z
1/2+x,y,1/2-z
1/2-x,1/2+y,1/2+z
x,1/2-y,z
loop_
_atom_site_type_symbol
_atom_site_label
_atom_site_fract_x
_atom_site_fract_y
_atom_site_fract_z
Si Si1 0.109238 0.423762 0.399801
Si Si2 0.875232 0.575920 0.401436
Si Si3 0.682214 0.570758 0.248750
Si Si4 0.802548 0.429334 0.258068
Si Si5 0.496677 0.578373 0.346802
Si Si6 0.501286 0.077912 0.857398
Si Si7 0.113870 0.929467 0.086202
Si Si8 0.117069 0.928189 0.893123
O O1 0.111359 0.250000 0.369205
O O2 0.136763 0.442607 0.495509
O O3 0.143555 0.526763 0.332989
O O4 0.044692 0.476513 0.406713
O O5 0.871142 0.750000 0.371798
O O6 0.827713 0.483256 0.350515
O O7 0.936873 0.512702 0.377206
O O8 0.689039 0.750000 0.250071
O O9 0.741807 0.493984 0.240034
O O10 0.655008 0.507763 0.338842
O O11 0.799772 0.250000 0.257757
O O12 0.840871 0.495003 0.179185
O O13 0.481793 0.750000 0.373478
O O14 0.511816 0.569096 0.244988
O O15 0.550426 0.514277 0.398503
O O16 0.445674 0.472088 0.370305
O O17 0.496990 0.250000 0.892061
O O18 0.113522 0.750000 0.092608
O O19 0.133847 0.987224 0.990473
O O20 0.120787 0.750000 0.891746
#
# Coordination Sequence:
#
# PCOD8250644 Si02
#       8
#     8   8   8   8   8   8   8   8
#     4  11  23  38  60  90 121 153 196 247 298 349
#     4  10  22  40  61  86 119 160 197 238 297 360
#     4  11  23  42  64  83 112 158 201 242 298 356
#     4  11  24  40  59  87 118 151 197 251 294 344
#     4  10  18  33  59  87 117 149 190 233 277 348
#     4  10  19  35  60  88 120 156 195 236 291 360
#     4   9  19  37  59  84 113 150 189 229 285 350
#     4  10  21  37  58  85 118 150 184 231 291 346
#
# _framework density 19.859397000000001
#
# number of rings (size 3 to 8) (size 9 to 14) (size 15 to 20)
#    0.000    1.750    2.500    1.875    0.000    3.500 
#    0.000    3.750    0.000    0.000    0.000    0.000 
#    0.000    0.000    0.000    0.000    0.000    0.000 
#
# Total GULP energy -793760.729831 kJ/mol
# GULP energy per Si atom -12402.511404 kJ/mol
# Density = 1.981420 g / cm^3
# Si number density = 19.859397 Si / 1000 Ang^3
#
#
#
# Elastic Constant Matrix: (Units=GPa)
#
#
# Indices 1 2 3 4 5 6 
#
# 1 103.2470 19.1931 34.5442 0.0000 0.0000 0.0000
# 2 19.1931 42.5955 24.5639 0.0000 0.0000 0.0000
# 3 34.5442 24.5639 94.7348 0.0000 0.0000 0.0000
# 4 0.0000 0.0000 0.0000 25.3915 0.0000 0.0000
# 5 0.0000 0.0000 0.0000 0.0000 15.7478 0.0000
# 6 0.0000 0.0000 0.0000 0.0000 0.0000 32.3901
#
#
#
# Elastic Compliance Matrix: (Units=1/GPa)
#
#
# Indices 1 2 3 4 5 6 
#
# 1 0.011395 -0.003220 -0.003320 0.000000 0.000000 0.000000
# 2 -0.003220 0.028514 -0.006219 0.000000 0.000000 0.000000
# 3 -0.003320 -0.006219 0.013379 0.000000 0.000000 0.000000
# 4 0.000000 0.000000 0.000000 0.039383 0.000000 0.000000
# 5 0.000000 0.000000 0.000000 0.000000 0.063501 0.000000
# 6 0.000000 0.000000 0.000000 0.000000 0.000000 0.030874
#
#
# Mechanical properties :
#
#
# Convention : Reuss Voigt Hill
#
# Bulk Modulus (GPa) = 36.01089 44.13106 40.07098
# Shear Modulus (GPa) = 22.54072 25.52430 24.03251
#
# Velocity S-wave (km/s) = 3.37265 3.58893 3.48247
# Velocity P-wave (km/s) = 5.77397 6.28044 6.03252
#
# Compressibility (1/GPa) = 0.02776938
#
# Stress axis : x y z
#
# Youngs Moduli (GPa) = 87.75841 35.07047 74.74343
#
# Poissons Ratio (x) = 0.11292 0.24816
# Poissons Ratio (y) = 0.28256 0.46486
# Poissons Ratio (z) = 0.29138 0.21812
#
# Static dielectric constant tensor:
#      x y z
#    x 3.582210 0.000000 0.000000 
#    y 0.000000 3.417840 0.000000 
#    z 0.000000 0.000000 3.889480 
# 
# 
# High freq. dielectric constant tensor:
#      x y z
#    x 1.773380 0.000000 0.000000 
#    y 0.000000 1.756380 0.000000 
#    z 0.000000 0.000000 1.788040 
# 
# From -- ./inp_files/20847.got.cif
#   From: 2010.03.12/outbox.cif.g09.slc.cpg/sg62_11_cif.got.tgz:20847.got - 2010.04.10 19:12:36.
