data_PCOD8250306
_publ_section_title
;
Structure prediction by ZEFSAII (Michael W. Deem and Ramdas Pophale) SiO2 
 PCOD8250306
Probable space group: P N M A
;
_chemical_formula_sum "Si O2"
_cell_formula_units_Z 64
_cell_length_a 20.813904
_cell_length_b 9.131892
_cell_length_c 19.216404
_cell_angle_alpha 90.000000
_cell_angle_beta 90.000000
_cell_angle_gamma 90.000000
_cell_volume 3652.468123
_symmetry_space_group_name_H-M "P N M A"
_symmetry_group_IT_number 62
_symmetry_cell_setting 'orthorhombic'
loop_
_space_group_symop_operation_xyz
x,y,z
1/2-x,-y,1/2+z
1/2+x,1/2-y,1/2-z
-x,1/2+y,-z
-x,-y,-z
1/2+x,y,1/2-z
1/2-x,1/2+y,1/2+z
x,1/2-y,z
loop_
_atom_site_type_symbol
_atom_site_label
_atom_site_fract_x
_atom_site_fract_y
_atom_site_fract_z
Si Si1 0.139207 0.419634 0.321377
Si Si2 0.184828 0.424108 0.468576
Si Si3 0.501315 0.082822 0.323748
Si Si4 0.632607 0.577691 0.318177
Si Si5 0.056007 0.423400 0.542374
Si Si6 0.941474 0.080734 0.035080
Si Si7 0.510836 0.583247 0.830070
Si Si8 0.186030 0.923025 0.035972
O O1 0.152235 0.250000 0.306031
O O2 0.179776 0.475891 0.388016
O O3 0.160388 0.507397 0.252506
O O4 0.064790 0.446963 0.339051
O O5 0.186062 0.250000 0.470249
O O6 0.123758 0.479127 0.512373
O O7 0.248754 0.491569 0.504064
O O8 0.527358 0.250000 0.324148
O O9 0.446660 0.058357 0.381732
O O10 0.468853 0.049596 0.249358
O O11 0.561866 0.979117 0.337578
O O12 0.628268 0.750000 0.307307
O O13 0.679419 0.536194 0.382475
O O14 0.048347 0.250000 0.536060
O O15 0.000000 0.500000 0.500000
O O16 0.051543 0.473104 0.622487
O O17 0.946315 0.250000 0.013803
O O18 0.874319 0.013930 0.007946
O O19 0.000000 0.000000 0.000000
O O20 0.526695 0.750000 0.851421
O O21 0.188240 0.750000 0.026369
#
# Coordination Sequence:
#
# PCOD8250306 Si02
#       8
#     8   8   8   8   8   8   8   8
#     4   9  17  32  52  72  97 132 169 204 247 304
#     4   9  18  34  52  71  99 136 172 203 245 304
#     4   9  18  31  49  72 103 136 164 202 253 303
#     4  10  18  29  49  77 102 126 164 212 251 292
#     4  11  20  32  52  75  98 128 167 209 254 299
#     4  10  18  31  52  77 101 130 168 209 250 294
#     4   9  17  31  48  73 103 129 163 206 254 299
#     4   9  18  32  51  75 102 133 171 207 244 298
#
# _framework density 17.522397999999999
#
# number of rings (size 3 to 8) (size 9 to 14) (size 15 to 20)
#    0.000    2.500    2.500    1.500    0.000    2.000 
#    0.000    1.250    0.000    8.250    0.000    0.000 
#    0.000    0.000    0.000    0.000    0.000    0.000 
#
# Total GULP energy -793432.839829 kJ/mol
# GULP energy per Si atom -12397.388122 kJ/mol
# Density = 1.748252 g / cm^3
# Si number density = 17.522398 Si / 1000 Ang^3
#
#
#
# Elastic Constant Matrix: (Units=GPa)
#
#
# Indices 1 2 3 4 5 6 
#
# 1 118.1848 33.1114 80.3344 0.0000 0.0000 0.0000
# 2 33.1114 52.0190 47.0207 0.0000 0.0000 0.0000
# 3 80.3344 47.0207 161.9252 0.0000 0.0000 0.0000
# 4 0.0000 0.0000 0.0000 28.8784 0.0000 0.0000
# 5 0.0000 0.0000 0.0000 0.0000 29.6452 0.0000
# 6 0.0000 0.0000 0.0000 0.0000 0.0000 15.5631
#
#
#
# Elastic Compliance Matrix: (Units=1/GPa)
#
#
# Indices 1 2 3 4 5 6 
#
# 1 0.013187 -0.003363 -0.005566 0.000000 0.000000 0.000000
# 2 -0.003363 0.026923 -0.006150 0.000000 0.000000 0.000000
# 3 -0.005566 -0.006150 0.010723 0.000000 0.000000 0.000000
# 4 0.000000 0.000000 0.000000 0.034628 0.000000 0.000000
# 5 0.000000 0.000000 0.000000 0.000000 0.033732 0.000000
# 6 0.000000 0.000000 0.000000 0.000000 0.000000 0.064255
#
#
# Mechanical properties :
#
#
# Convention : Reuss Voigt Hill
#
# Bulk Modulus (GPa) = 48.36495 72.56245 60.46370
# Shear Modulus (GPa) = 22.67619 26.26151 24.46885
#
# Velocity S-wave (km/s) = 3.60130 3.87556 3.74094
# Velocity P-wave (km/s) = 6.70479 7.84396 7.29664
#
# Compressibility (1/GPa) = 0.02067613
#
# Stress axis : x y z
#
# Youngs Moduli (GPa) = 75.83435 37.14284 93.25988
#
# Poissons Ratio (x) = 0.12490 0.51905
# Poissons Ratio (y) = 0.25501 0.57352
# Poissons Ratio (z) = 0.42207 0.22842
#
# Static dielectric constant tensor:
#      x y z
#    x 3.236250 0.000000 0.000000 
#    y 0.000000 3.076340 0.000000 
#    z 0.000000 0.000000 3.734910 
# 
# 
# High freq. dielectric constant tensor:
#      x y z
#    x 1.646720 0.000000 0.000000 
#    y 0.000000 1.653370 0.000000 
#    z 0.000000 0.000000 1.697670 
# 
# From -- ./inp_files/27937.got.cif
#   From: 2010.03.12/outbox.cif.g09.slc.cpg/sg62_14_cif.got.tgz:27937.got - 2010.04.10 19:12:36.
