data_PCOD8250575
_publ_section_title
;
Structure prediction by ZEFSAII (Michael W. Deem and Ramdas Pophale) SiO2 
 PCOD8250575
Probable space group: P N M A
;
_chemical_formula_sum "Si O2"
_cell_formula_units_Z 64
_cell_length_a 33.720940
_cell_length_b 8.847301
_cell_length_c 11.949367
_cell_angle_alpha 90.000000
_cell_angle_beta 90.000000
_cell_angle_gamma 90.000000
_cell_volume 3564.965860
_symmetry_space_group_name_H-M "P N M A"
_symmetry_group_IT_number 62
_symmetry_cell_setting 'orthorhombic'
loop_
_space_group_symop_operation_xyz
x,y,z
1/2-x,-y,1/2+z
1/2+x,1/2-y,1/2-z
-x,1/2+y,-z
-x,-y,-z
1/2+x,y,1/2-z
1/2-x,1/2+y,1/2+z
x,1/2-y,z
loop_
_atom_site_type_symbol
_atom_site_label
_atom_site_fract_x
_atom_site_fract_y
_atom_site_fract_z
Si Si1 0.659674 0.074751 0.554563
Si Si2 0.130497 0.574738 0.161818
Si Si3 0.313656 0.073662 0.864259
Si Si4 0.171764 0.428961 0.601244
Si Si5 0.270189 0.575500 0.290036
Si Si6 0.887893 0.423837 0.247011
Si Si7 0.463724 0.076587 0.374098
Si Si8 0.551756 0.075086 0.396133
O O1 0.647505 0.250000 0.564121
O O2 0.704681 0.050244 0.596401
O O3 0.656007 0.019034 0.427863
O O4 0.630349 0.976727 0.629756
O O5 0.132482 0.750000 0.129127
O O6 0.149665 0.544454 0.282369
O O7 0.085027 0.521014 0.168039
O O8 0.308009 0.250000 0.891631
O O9 0.273418 0.005018 0.808703
O O10 0.322242 0.986893 0.977541
O O11 0.171946 0.250000 0.602433
O O12 0.206231 0.495338 0.683704
O O13 0.129050 0.482187 0.648482
O O14 0.264606 0.750000 0.262224
O O15 0.877163 0.250000 0.267569
O O16 0.935460 0.448021 0.234026
O O17 0.460653 0.250000 0.416906
O O18 0.509084 0.040066 0.339415
O O19 0.449590 0.967954 0.473500
O O20 0.563347 0.250000 0.386627
#
# Coordination Sequence:
#
# PCOD8250575 Si02
#       8
#     8   8   8   8   8   8   8   8
#     4  10  19  32  52  78 108 137 174 219 266 316
#     4  11  22  34  51  76 109 146 181 218 265 322
#     4  10  22  39  56  74 103 144 183 219 266 318
#     4  10  21  37  56  79 107 136 177 224 266 313
#     4   8  18  36  55  76 104 134 169 221 269 315
#     4  10  18  32  55  79 107 139 174 212 262 320
#     4   9  18  31  50  79 109 140 175 214 262 320
#     4  10  19  31  50  76 111 144 174 217 266 315
#
# _framework density 17.952487000000001
#
# number of rings (size 3 to 8) (size 9 to 14) (size 15 to 20)
#    0.000    2.250    1.250    2.625    1.750    2.000 
#    0.000    3.125    0.000    0.750    0.000    0.000 
#    0.000    0.000    0.000    0.000    0.000    0.000 
#
# Total GULP energy -793469.988445 kJ/mol
# GULP energy per Si atom -12397.968569 kJ/mol
# Density = 1.791163 g / cm^3
# Si number density = 17.952487 Si / 1000 Ang^3
#
#
#
# Elastic Constant Matrix: (Units=GPa)
#
#
# Indices 1 2 3 4 5 6 
#
# 1 134.8891 38.8405 55.1263 0.0000 0.0000 0.0000
# 2 38.8405 60.2090 41.2589 0.0000 0.0000 0.0000
# 3 55.1263 41.2589 96.2251 0.0000 0.0000 0.0000
# 4 0.0000 0.0000 0.0000 28.4124 0.0000 0.0000
# 5 0.0000 0.0000 0.0000 0.0000 23.3434 0.0000
# 6 0.0000 0.0000 0.0000 0.0000 0.0000 22.4363
#
#
#
# Elastic Compliance Matrix: (Units=1/GPa)
#
#
# Indices 1 2 3 4 5 6 
#
# 1 0.010218 -0.003654 -0.004287 0.000000 0.000000 0.000000
# 2 -0.003654 0.024826 -0.008552 0.000000 0.000000 0.000000
# 3 -0.004287 -0.008552 0.016515 0.000000 0.000000 0.000000
# 4 0.000000 0.000000 0.000000 0.035196 0.000000 0.000000
# 5 0.000000 0.000000 0.000000 0.000000 0.042839 0.000000
# 6 0.000000 0.000000 0.000000 0.000000 0.000000 0.044571
#
#
# Mechanical properties :
#
#
# Convention : Reuss Voigt Hill
#
# Bulk Modulus (GPa) = 53.83854 62.41937 58.12896
# Shear Modulus (GPa) = 23.43690 25.24493 24.34092
#
# Velocity S-wave (km/s) = 3.61708 3.75401 3.68618
# Velocity P-wave (km/s) = 6.89195 7.32358 7.11104
#
# Compressibility (1/GPa) = 0.01857405
#
# Stress axis : x y z
#
# Youngs Moduli (GPa) = 97.87123 40.28067 60.55127
#
# Poissons Ratio (x) = 0.14717 0.25958
# Poissons Ratio (y) = 0.35758 0.51781
# Poissons Ratio (z) = 0.41957 0.34446
#
# Static dielectric constant tensor:
#      x y z
#    x 3.635980 0.000000 0.000000 
#    y 0.000000 3.304500 0.000000 
#    z 0.000000 0.000000 3.060040 
# 
# 
# High freq. dielectric constant tensor:
#      x y z
#    x 1.703330 0.000000 0.000000 
#    y 0.000000 1.694780 0.000000 
#    z 0.000000 0.000000 1.663200 
# 
# From -- ./inp_files/15841.got.cif
#   From: 2010.03.12/outbox.cif.g09.slc.cpg/sg62_8_cif.got.tgz:15841.got - 2010.04.10 19:12:36.
