data_PCOD8250334
_publ_section_title
;
Structure prediction by ZEFSAII (Michael W. Deem and Ramdas Pophale) SiO2 
 PCOD8250334
Probable space group: P N M A
;
_chemical_formula_sum "Si O2"
_cell_formula_units_Z 56
_cell_length_a 5.072187
_cell_length_b 23.606530
_cell_length_c 29.264001
_cell_angle_alpha 90.000000
_cell_angle_beta 90.000000
_cell_angle_gamma 90.000000
_cell_volume 3503.975921
_symmetry_space_group_name_H-M "P N M A"
_symmetry_group_IT_number 62
_symmetry_cell_setting 'orthorhombic'
loop_
_space_group_symop_operation_xyz
x,y,z
1/2-x,-y,1/2+z
1/2+x,1/2-y,1/2-z
-x,1/2+y,-z
-x,-y,-z
1/2+x,y,1/2-z
1/2-x,1/2+y,1/2+z
x,1/2-y,z
loop_
_atom_site_type_symbol
_atom_site_label
_atom_site_fract_x
_atom_site_fract_y
_atom_site_fract_z
Si Si1 0.999698 0.473805 0.880437
Si Si2 0.995280 0.869642 0.053041
Si Si3 0.485808 0.587929 0.008229
Si Si4 0.139235 0.539102 0.224370
Si Si5 0.916401 0.750000 0.349520
Si Si6 0.279794 0.171670 0.725466
Si Si7 0.984916 0.484232 0.426727
Si Si8 0.427836 0.750000 0.406665
O O1 0.977160 0.410345 0.902154
O O2 0.960537 0.472705 0.826347
O O3 0.783709 0.518608 0.898047
O O4 0.282792 0.499746 0.892136
O O5 0.271684 0.865841 0.025407
O O6 0.783443 0.893928 0.017703
O O7 0.886745 0.807544 0.065214
O O8 0.422344 0.531420 0.035794
O O9 0.457800 0.574451 0.953890
O O10 0.421002 0.513794 0.240280
O O11 0.201153 0.605104 0.227725
O O12 0.832459 0.693034 0.322785
O O13 0.734992 0.750000 0.393925
O O14 0.222576 0.750000 0.364072
O O15 0.570110 0.195578 0.736898
#
# Coordination Sequence:
#
# PCOD8250334 Si02
#       8
#     8   8   8   8   4   8   8   4
#     4  10  18  30  46  65  86 110 142 184 221 256
#     4  10  20  32  46  62  87 112 141 179 219 262
#     4   9  17  31  47  66  86 106 130 174 225 264
#     4  10  20  31  43  59  83 113 143 176 217 264
#     4  12  22  33  46  58  78 100 144 196 230 261
#     4  10  20  33  46  58  73 101 141 186 234 270
#     4   9  17  28  48  69  84 103 134 174 225 267
#     4  12  24  33  44  64  84 116 146 174 218 271
#
# _framework density 15.981844000000001
#
# number of rings (size 3 to 8) (size 9 to 14) (size 15 to 20)
#    0.000    2.000    0.000    4.714    0.000    8.000 
#    0.000    0.000    0.000    0.000    0.000    0.000 
#    0.000    0.000    0.000    0.000    0.000    0.000 
#
# Total GULP energy -693819.066543 kJ/mol
# GULP energy per Si atom -12389.626188 kJ/mol
# Density = 1.594547 g / cm^3
# Si number density = 15.981844 Si / 1000 Ang^3
#
#
#
# Elastic Constant Matrix: (Units=GPa)
#
#
# Indices 1 2 3 4 5 6 
#
# 1 89.1519 7.3946 37.0685 0.0000 0.0000 0.0000
# 2 7.3946 27.3415 31.8600 0.0000 0.0000 0.0000
# 3 37.0685 31.8600 76.5121 0.0000 0.0000 0.0000
# 4 0.0000 0.0000 0.0000 21.8156 0.0000 0.0000
# 5 0.0000 0.0000 0.0000 0.0000 27.4800 0.0000
# 6 0.0000 0.0000 0.0000 0.0000 0.0000 9.5600
#
#
#
# Elastic Compliance Matrix: (Units=1/GPa)
#
#
# Indices 1 2 3 4 5 6 
#
# 1 0.015015 0.008578 -0.010847 0.000000 0.000000 0.000000
# 2 0.008578 0.075949 -0.035782 0.000000 0.000000 0.000000
# 3 -0.010847 -0.035782 0.033224 0.000000 0.000000 0.000000
# 4 0.000000 0.000000 0.000000 0.045839 0.000000 0.000000
# 5 0.000000 0.000000 0.000000 0.000000 0.036390 0.000000
# 6 0.000000 0.000000 0.000000 0.000000 0.000000 0.104603
#
#
# Mechanical properties :
#
#
# Convention : Reuss Voigt Hill
#
# Bulk Modulus (GPa) = 20.79480 38.40574 29.60027
# Shear Modulus (GPa) = 12.40233 19.54995 15.97614
#
# Velocity S-wave (km/s) = 2.78875 3.50131 3.16514
# Velocity P-wave (km/s) = 4.83831 6.35835 5.64968
#
# Compressibility (1/GPa) = 0.04808894
#
# Stress axis : x y z
#
# Youngs Moduli (GPa) = 66.59920 13.16668 30.09842
#
# Poissons Ratio (x) = -0.11295 0.32646
# Poissons Ratio (y) = -0.57130 1.07697
# Poissons Ratio (z) = 0.72237 0.47112
#
# Static dielectric constant tensor:
#      x y z
#    x 3.411600 0.000000 0.000000 
#    y 0.000000 2.705500 0.000000 
#    z 0.000000 0.000000 2.986950 
# 
# 
# High freq. dielectric constant tensor:
#      x y z
#    x 1.644610 0.000000 0.000000 
#    y 0.000000 1.550720 0.000000 
#    z 0.000000 0.000000 1.595330 
# 
# From -- ./inp_files/28399.got.cif
#   From: 2010.03.12/outbox.cif.g09.slc.cpg/sg62_15_cif.got.tgz:28399.got - 2010.04.10 19:12:36.
