data_PCOD8250822
_publ_section_title
;
Structure prediction by ZEFSAII (Michael W. Deem and Ramdas Pophale) SiO2 
 PCOD8250822
Probable space group: P N M A
;
_chemical_formula_sum "Si O2"
_cell_formula_units_Z 56
_cell_length_a 21.129136
_cell_length_b 8.620514
_cell_length_c 18.314195
_cell_angle_alpha 90.000000
_cell_angle_beta 90.000000
_cell_angle_gamma 90.000000
_cell_volume 3335.820967
_symmetry_space_group_name_H-M "P N M A"
_symmetry_group_IT_number 62
_symmetry_cell_setting 'orthorhombic'
loop_
_space_group_symop_operation_xyz
x,y,z
1/2-x,-y,1/2+z
1/2+x,1/2-y,1/2-z
-x,1/2+y,-z
-x,-y,-z
1/2+x,y,1/2-z
1/2-x,1/2+y,1/2+z
x,1/2-y,z
loop_
_atom_site_type_symbol
_atom_site_label
_atom_site_fract_x
_atom_site_fract_y
_atom_site_fract_z
Si Si1 0.248206 0.429101 0.920284
Si Si2 0.371357 0.067120 0.340931
Si Si3 0.802612 0.571343 0.280056
Si Si4 0.126798 0.432563 0.152241
Si Si5 0.246006 0.572397 0.072533
Si Si6 0.002889 0.932960 0.919835
Si Si7 0.813317 0.572509 0.703408
O O1 0.231574 0.250000 0.913062
O O2 0.187643 0.525947 0.893148
O O3 0.310086 0.469676 0.870470
O O4 0.264210 0.468445 0.003592
O O5 0.374442 0.250000 0.328508
O O6 0.434945 0.004089 0.378880
O O7 0.366755 0.981403 0.261442
O O8 0.786287 0.750000 0.260458
O O9 0.802475 0.550104 0.367711
O O10 0.751000 0.454334 0.247878
O O11 0.138548 0.250000 0.139469
O O12 0.178649 0.525690 0.106221
O O13 0.058225 0.487456 0.125687
O O14 0.130918 0.472022 0.239353
O O15 0.241307 0.750000 0.047320
O O16 0.005316 0.750000 0.926269
O O17 0.000000 0.000000 0.000000
O O18 0.818730 0.750000 0.678793
#
# Coordination Sequence:
#
# PCOD8250822 Si02
#       7
#     8   8   8   8   8   8   8
#     4  11  20  29  44  66  92 118 146 182 223 265
#     4  10  19  31  46  64  90 121 152 183 216 258
#     4   9  17  29  45  64  87 114 145 182 221 263
#     4   9  18  32  47  64  89 120 152 183 218 260
#     4  10  19  30  45  67  92 116 146 183 224 266
#     4  10  21  33  45  65  91 121 154 184 213 250
#     4   9  16  28  46  64  85 114 146 181 221 264
#
# _framework density 16.787472000000001
#
# number of rings (size 3 to 8) (size 9 to 14) (size 15 to 20)
#    0.000    2.286    0.000    5.571    0.000    6.286 
#    0.000    0.000    0.000    0.000    0.000    1.000 
#    0.000    0.000    0.000    0.000    0.000    0.000 
#
# Total GULP energy -694049.269076 kJ/mol
# GULP energy per Si atom -12393.736948 kJ/mol
# Density = 1.674926 g / cm^3
# Si number density = 16.787472 Si / 1000 Ang^3
#
#
#
# Elastic Constant Matrix: (Units=GPa)
#
#
# Indices 1 2 3 4 5 6 
#
# 1 77.0755 18.9736 58.4884 0.0000 0.0000 0.0000
# 2 18.9736 47.6598 33.5120 0.0000 0.0000 0.0000
# 3 58.4884 33.5120 134.7350 0.0000 0.0000 0.0000
# 4 0.0000 0.0000 0.0000 29.6162 0.0000 0.0000
# 5 0.0000 0.0000 0.0000 0.0000 29.7171 0.0000
# 6 0.0000 0.0000 0.0000 0.0000 0.0000 15.5617
#
#
#
# Elastic Compliance Matrix: (Units=1/GPa)
#
#
# Indices 1 2 3 4 5 6 
#
# 1 0.019536 -0.002199 -0.007934 0.000000 0.000000 0.000000
# 2 -0.002199 0.025677 -0.005432 0.000000 0.000000 0.000000
# 3 -0.007934 -0.005432 0.012217 0.000000 0.000000 0.000000
# 4 0.000000 0.000000 0.000000 0.033765 0.000000 0.000000
# 5 0.000000 0.000000 0.000000 0.000000 0.033651 0.000000
# 6 0.000000 0.000000 0.000000 0.000000 0.000000 0.064260
#
#
# Mechanical properties :
#
#
# Convention : Reuss Voigt Hill
#
# Bulk Modulus (GPa) = 38.02136 53.49092 45.75614
# Shear Modulus (GPa) = 21.83386 24.87877 23.35631
#
# Velocity S-wave (km/s) = 3.61030 3.85383 3.73405
# Velocity P-wave (km/s) = 6.33063 7.19274 6.77541
#
# Compressibility (1/GPa) = 0.02630101
#
# Stress axis : x y z
#
# Youngs Moduli (GPa) = 51.18757 38.94550 81.85286
#
# Poissons Ratio (x) = 0.08563 0.64939
# Poissons Ratio (y) = 0.11255 0.44462
# Poissons Ratio (z) = 0.40610 0.21155
#
# Static dielectric constant tensor:
#      x y z
#    x 3.067320 0.000000 0.000000 
#    y 0.000000 3.169150 0.000000 
#    z 0.000000 0.000000 3.525740 
# 
# 
# High freq. dielectric constant tensor:
#      x y z
#    x 1.598950 0.000000 0.000000 
#    y 0.000000 1.657240 0.000000 
#    z 0.000000 0.000000 1.655130 
# 
# From -- ./inp_files/24884.got.cif
#   From: 2010.03.12/outbox.cif.g09.slc.cpg/sg62_13_cif.got.tgz:24884.got - 2010.04.10 19:12:36.
