data_PCOD8250480
_publ_section_title
;
Structure prediction by ZEFSAII (Michael W. Deem and Ramdas Pophale) SiO2 
 PCOD8250480
Probable space group: P N M A
;
_chemical_formula_sum "Si O2"
_cell_formula_units_Z 40
_cell_length_a 9.137155
_cell_length_b 8.527018
_cell_length_c 26.091243
_cell_angle_alpha 90.000000
_cell_angle_beta 90.000000
_cell_angle_gamma 90.000000
_cell_volume 2032.838801
_symmetry_space_group_name_H-M "P N M A"
_symmetry_group_IT_number 62
_symmetry_cell_setting 'orthorhombic'
loop_
_space_group_symop_operation_xyz
x,y,z
1/2-x,-y,1/2+z
1/2+x,1/2-y,1/2-z
-x,1/2+y,-z
-x,-y,-z
1/2+x,y,1/2-z
1/2-x,1/2+y,1/2+z
x,1/2-y,z
loop_
_atom_site_type_symbol
_atom_site_label
_atom_site_fract_x
_atom_site_fract_y
_atom_site_fract_z
Si Si1 0.650841 0.936274 0.305902
Si Si2 0.317884 0.564464 0.294189
Si Si3 0.355577 0.064572 0.892221
Si Si4 0.177792 0.933629 0.600876
Si Si5 0.162892 0.064682 0.497138
O O1 0.664043 0.750000 0.313358
O O2 0.746202 0.998308 0.258161
O O3 0.485033 0.990515 0.296259
O O4 0.704591 0.022956 0.356525
O O5 0.305553 0.750000 0.294632
O O6 0.229295 0.497236 0.342812
O O7 0.342732 0.250000 0.896157
O O8 0.525250 0.019586 0.887260
O O9 0.274848 0.990860 0.942211
O O10 0.147759 0.750000 0.599139
O O11 0.245820 0.990669 0.546229
O O12 0.167199 0.250000 0.501279
O O13 0.000000 0.000000 0.500000
#
# Coordination Sequence:
#
# PCOD8250480 Si02
#       5
#     8   8   8   8   8
#     4  10  19  36  57  80 105 137 177 219 263 316
#     4   9  19  34  58  83 106 136 176 218 265 319
#     4  10  18  33  56  83 110 141 176 218 263 315
#     4  11  21  34  52  79 109 143 180 220 263 311
#     4  10  18  31  52  79 107 141 178 219 262 311
#
# _framework density 19.676917
#
# number of rings (size 3 to 8) (size 9 to 14) (size 15 to 20)
#    0.000    2.000    0.000    7.800    0.000    3.200 
#    0.000    8.000    0.000    0.000    0.000    0.000 
#    0.000    0.000    0.000    0.000    0.000    0.000 
#
# Total GULP energy -495957.860369 kJ/mol
# GULP energy per Si atom -12398.946509 kJ/mol
# Density = 1.963213 g / cm^3
# Si number density = 19.676917 Si / 1000 Ang^3
#
#
#
# Elastic Constant Matrix: (Units=GPa)
#
#
# Indices 1 2 3 4 5 6 
#
# 1 68.6751 6.1301 27.8986 0.0000 0.0000 0.0000
# 2 6.1301 74.4141 26.7724 0.0000 0.0000 0.0000
# 3 27.8986 26.7724 125.0724 0.0000 0.0000 0.0000
# 4 0.0000 0.0000 0.0000 32.6420 0.0000 0.0000
# 5 0.0000 0.0000 0.0000 0.0000 33.6842 0.0000
# 6 0.0000 0.0000 0.0000 0.0000 0.0000 13.5280
#
#
#
# Elastic Compliance Matrix: (Units=1/GPa)
#
#
# Indices 1 2 3 4 5 6 
#
# 1 0.016012 -0.000037 -0.003564 0.000000 0.000000 0.000000
# 2 -0.000037 0.014560 -0.003108 0.000000 0.000000 0.000000
# 3 -0.003564 -0.003108 0.009456 0.000000 0.000000 0.000000
# 4 0.000000 0.000000 0.000000 0.030635 0.000000 0.000000
# 5 0.000000 0.000000 0.000000 0.000000 0.029688 0.000000
# 6 0.000000 0.000000 0.000000 0.000000 0.000000 0.073920
#
#
# Mechanical properties :
#
#
# Convention : Reuss Voigt Hill
#
# Bulk Modulus (GPa) = 37.58041 43.30707 40.44374
# Shear Modulus (GPa) = 25.43766 29.79490 27.61628
#
# Velocity S-wave (km/s) = 3.59941 3.89550 3.75038
# Velocity P-wave (km/s) = 6.03444 6.50308 6.27314
#
# Compressibility (1/GPa) = 0.02660961
#
# Stress axis : x y z
#
# Youngs Moduli (GPa) = 62.45172 68.68293 105.75672
#
# Poissons Ratio (x) = 0.00253 0.37690
# Poissons Ratio (y) = 0.00230 0.32873
# Poissons Ratio (z) = 0.22257 0.21349
#
# Static dielectric constant tensor:
#      x y z
#    x 3.360810 0.000000 0.000000 
#    y 0.000000 3.386890 0.000000 
#    z 0.000000 0.000000 4.428910 
# 
# 
# High freq. dielectric constant tensor:
#      x y z
#    x 1.734260 0.000000 0.000000 
#    y 0.000000 1.752620 0.000000 
#    z 0.000000 0.000000 1.795710 
# 
# From -- ./inp_files/30671.got.cif
#   From: 2010.03.12/outbox.cif.g09.slc.cpg/sg62_16_cif.got.tgz:30671.got - 2010.04.10 19:12:36.
