data_PCOD8250865
_publ_section_title
;
Structure prediction by ZEFSAII (Michael W. Deem and Ramdas Pophale) SiO2 
 PCOD8250865
Probable space group: P N M A
;
_chemical_formula_sum "Si O2"
_cell_formula_units_Z 56
_cell_length_a 21.626209
_cell_length_b 9.157043
_cell_length_c 15.642027
_cell_angle_alpha 90.000000
_cell_angle_beta 90.000000
_cell_angle_gamma 90.000000
_cell_volume 3097.623858
_symmetry_space_group_name_H-M "P N M A"
_symmetry_group_IT_number 62
_symmetry_cell_setting 'orthorhombic'
loop_
_space_group_symop_operation_xyz
x,y,z
1/2-x,-y,1/2+z
1/2+x,1/2-y,1/2-z
-x,1/2+y,-z
-x,-y,-z
1/2+x,y,1/2-z
1/2-x,1/2+y,1/2+z
x,1/2-y,z
loop_
_atom_site_type_symbol
_atom_site_label
_atom_site_fract_x
_atom_site_fract_y
_atom_site_fract_z
Si Si1 0.477373 0.915280 0.623907
Si Si2 0.308774 0.576542 0.052785
Si Si3 0.953275 0.586653 0.255635
Si Si4 0.715645 0.077363 0.573567
Si Si5 0.316594 0.921185 0.241676
Si Si6 0.596737 0.916333 0.505395
Si Si7 0.948858 0.910907 0.452076
O O1 0.454351 0.750000 0.636567
O O2 0.538026 0.921990 0.566137
O O3 0.494523 0.984944 0.714476
O O4 0.421388 0.008577 0.584105
O O5 0.299896 0.750000 0.041467
O O6 0.288688 0.525884 0.149902
O O7 0.379482 0.526264 0.038155
O O8 0.269655 0.493223 0.981698
O O9 0.956448 0.750000 0.215041
O O10 0.885317 0.514345 0.241871
O O11 0.969258 0.593443 0.354474
O O12 0.713974 0.250000 0.557612
O O13 0.726201 0.043304 0.675608
O O14 0.650782 0.009398 0.547175
O O15 0.327921 0.750000 0.230164
O O16 0.618671 0.750000 0.488900
O O17 0.949313 0.750000 0.491942
O O18 0.000000 0.000000 0.500000
#
# Coordination Sequence:
#
# PCOD8250865 Si02
#       7
#     8   8   8   8   8   8   8
#     4  10  19  30  47  76 106 134 171 214 255 298
#     4   9  19  37  56  77 105 140 176 214 263 324
#     4   9  16  31  53  75 100 137 178 215 258 318
#     4  11  20  33  55  81 105 137 178 223 263 306
#     4   8  16  32  54  74  99 137 179 215 255 312
#     4  10  20  32  48  72 106 143 171 203 253 310
#     4   9  19  35  57  79 102 135 176 217 267 317
#
# _framework density 18.078372000000002
#
# number of rings (size 3 to 8) (size 9 to 14) (size 15 to 20)
#    0.000    2.571    1.429    3.000    0.000    2.286 
#    0.000    5.000    0.000    5.143    0.000    0.000 
#    0.000    0.000    0.000    0.000    0.000    0.000 
#
# Total GULP energy -694026.452197 kJ/mol
# GULP energy per Si atom -12393.329504 kJ/mol
# Density = 1.803722 g / cm^3
# Si number density = 18.078372 Si / 1000 Ang^3
#
#
#
# Elastic Constant Matrix: (Units=GPa)
#
#
# Indices 1 2 3 4 5 6 
#
# 1 55.8685 38.9864 53.6144 0.0000 0.0000 0.0000
# 2 38.9864 88.9057 51.7574 0.0000 0.0000 0.0000
# 3 53.6144 51.7574 111.8962 0.0000 0.0000 0.0000
# 4 0.0000 0.0000 0.0000 29.8762 0.0000 0.0000
# 5 0.0000 0.0000 0.0000 0.0000 33.6342 0.0000
# 6 0.0000 0.0000 0.0000 0.0000 0.0000 31.1244
#
#
#
# Elastic Compliance Matrix: (Units=1/GPa)
#
#
# Indices 1 2 3 4 5 6 
#
# 1 0.036926 -0.008064 -0.013963 0.000000 0.000000 0.000000
# 2 -0.008064 0.017154 -0.004071 0.000000 0.000000 0.000000
# 3 -0.013963 -0.004071 0.017510 0.000000 0.000000 0.000000
# 4 0.000000 0.000000 0.000000 0.033471 0.000000 0.000000
# 5 0.000000 0.000000 0.000000 0.000000 0.029732 0.000000
# 6 0.000000 0.000000 0.000000 0.000000 0.000000 0.032129
#
#
# Mechanical properties :
#
#
# Convention : Reuss Voigt Hill
#
# Bulk Modulus (GPa) = 51.56034 60.59852 56.07943
# Shear Modulus (GPa) = 22.16490 26.41444 24.28967
#
# Velocity S-wave (km/s) = 3.50529 3.82659 3.66946
# Velocity P-wave (km/s) = 6.70560 7.28810 7.00291
#
# Compressibility (1/GPa) = 0.01939475
#
# Stress axis : x y z
#
# Youngs Moduli (GPa) = 27.08123 58.29617 57.11023
#
# Poissons Ratio (x) = 0.47009 0.79743
# Poissons Ratio (y) = 0.21838 0.23248
# Poissons Ratio (z) = 0.37813 0.23731
#
# Static dielectric constant tensor:
#      x y z
#    x 3.110540 0.000000 0.000000 
#    y 0.000000 3.359540 0.000000 
#    z 0.000000 0.000000 3.480350 
# 
# 
# High freq. dielectric constant tensor:
#      x y z
#    x 1.674520 0.000000 0.000000 
#    y 0.000000 1.691050 0.000000 
#    z 0.000000 0.000000 1.702220 
# 
# From -- ./inp_files/20397.got.cif
#   From: 2010.03.12/outbox.cif.g09.slc.cpg/sg62_11_cif.got.tgz:20397.got - 2010.04.10 19:12:36.
