data_PCOD8250374
_publ_section_title
;
Structure prediction by ZEFSAII (Michael W. Deem and Ramdas Pophale) SiO2 
 PCOD8250374
Probable space group: P N M A
;
_chemical_formula_sum "Si O2"
_cell_formula_units_Z 40
_cell_length_a 18.663419
_cell_length_b 8.873342
_cell_length_c 13.662395
_cell_angle_alpha 90.000000
_cell_angle_beta 90.000000
_cell_angle_gamma 90.000000
_cell_volume 2262.586878
_symmetry_space_group_name_H-M "P N M A"
_symmetry_group_IT_number 62
_symmetry_cell_setting 'orthorhombic'
loop_
_space_group_symop_operation_xyz
x,y,z
1/2-x,-y,1/2+z
1/2+x,1/2-y,1/2-z
-x,1/2+y,-z
-x,-y,-z
1/2+x,y,1/2-z
1/2-x,1/2+y,1/2+z
x,1/2-y,z
loop_
_atom_site_type_symbol
_atom_site_label
_atom_site_fract_x
_atom_site_fract_y
_atom_site_fract_z
Si Si1 0.001109 0.072303 0.394221
Si Si2 0.281033 0.925761 0.605796
Si Si3 0.140983 0.570992 0.713125
Si Si4 0.211823 0.428613 0.889615
Si Si5 0.349719 0.573637 0.802078
O O1 0.997285 0.250000 0.407667
O O2 0.072047 0.022137 0.336299
O O3 0.933660 0.013586 0.331645
O O4 0.000000 0.000000 0.500000
O O5 0.269495 0.750000 0.591785
O O6 0.205034 0.991134 0.644110
O O7 0.302378 0.991236 0.499824
O O8 0.342585 0.961105 0.685847
O O9 0.143378 0.750000 0.723416
O O10 0.151310 0.502083 0.821058
O O11 0.205593 0.250000 0.881754
O O12 0.291762 0.478121 0.861123
O O13 0.335480 0.750000 0.822279
#
# Coordination Sequence:
#
# PCOD8250374 Si02
#       5
#     8   8   8   8   8
#     4  10  20  33  52  74  99 130 162 198 244 293
#     4   8  15  29  48  66  91 125 158 191 233 281
#     4   9  18  33  49  69  98 130 160 194 240 296
#     4  10  18  30  50  73  94 123 162 205 242 276
#     4   9  18  33  50  70  96 128 161 194 238 296
#
# _framework density 17.678878999999998
#
# number of rings (size 3 to 8) (size 9 to 14) (size 15 to 20)
#    0.000    2.800    0.000    3.000    0.000    3.200 
#    0.000   11.000    0.000    0.000    0.000    0.000 
#    0.000    0.000    0.000    0.000    0.000    0.000 
#
# Total GULP energy -495868.125804 kJ/mol
# GULP energy per Si atom -12396.703145 kJ/mol
# Density = 1.763864 g / cm^3
# Si number density = 17.678879 Si / 1000 Ang^3
#
#
#
# Elastic Constant Matrix: (Units=GPa)
#
#
# Indices 1 2 3 4 5 6 
#
# 1 132.2350 23.7371 78.9456 0.0000 0.0000 0.0000
# 2 23.7371 29.2800 31.6495 0.0000 0.0000 0.0000
# 3 78.9456 31.6495 179.0336 0.0000 0.0000 0.0000
# 4 0.0000 0.0000 0.0000 28.0540 0.0000 0.0000
# 5 0.0000 0.0000 0.0000 0.0000 26.1145 0.0000
# 6 0.0000 0.0000 0.0000 0.0000 0.0000 20.7324
#
#
#
# Elastic Compliance Matrix: (Units=1/GPa)
#
#
# Indices 1 2 3 4 5 6 
#
# 1 0.010708 -0.004422 -0.003940 0.000000 0.000000 0.000000
# 2 -0.004422 0.044047 -0.005837 0.000000 0.000000 0.000000
# 3 -0.003940 -0.005837 0.008355 0.000000 0.000000 0.000000
# 4 0.000000 0.000000 0.000000 0.035646 0.000000 0.000000
# 5 0.000000 0.000000 0.000000 0.000000 0.038293 0.000000
# 6 0.000000 0.000000 0.000000 0.000000 0.000000 0.048234
#
#
# Mechanical properties :
#
#
# Convention : Reuss Voigt Hill
#
# Bulk Modulus (GPa) = 28.80827 67.69035 48.24931
# Shear Modulus (GPa) = 22.19743 28.72794 25.46269
#
# Velocity S-wave (km/s) = 3.54728 4.03549 3.79923
# Velocity P-wave (km/s) = 5.75398 7.75148 6.82619
#
# Compressibility (1/GPa) = 0.03471225
#
# Stress axis : x y z
#
# Youngs Moduli (GPa) = 93.38435 22.70295 119.69203
#
# Poissons Ratio (x) = 0.10040 0.47161
# Poissons Ratio (y) = 0.41297 0.69860
# Poissons Ratio (z) = 0.36795 0.13251
#
# Static dielectric constant tensor:
#      x y z
#    x 3.345540 0.000000 0.000000 
#    y 0.000000 3.036290 0.000000 
#    z 0.000000 0.000000 3.631450 
# 
# 
# High freq. dielectric constant tensor:
#      x y z
#    x 1.672450 0.000000 0.000000 
#    y 0.000000 1.661540 0.000000 
#    z 0.000000 0.000000 1.695720 
# 
# From -- ./inp_files/14606.got.cif
#   From: 2010.03.12/outbox.cif.g09.slc.cpg/sg62_8_cif.got.tgz:14606.got - 2010.04.10 19:12:36.
