data_PCOD8250279
_publ_section_title
;
Structure prediction by ZEFSAII (Michael W. Deem and Ramdas Pophale) SiO2 
 PCOD8250279
Probable space group: P N M A
;
_chemical_formula_sum "Si O2"
_cell_formula_units_Z 56
_cell_length_a 20.692198
_cell_length_b 8.858217
_cell_length_c 18.225306
_cell_angle_alpha 90.000000
_cell_angle_beta 90.000000
_cell_angle_gamma 90.000000
_cell_volume 3340.625326
_symmetry_space_group_name_H-M "P N M A"
_symmetry_group_IT_number 62
_symmetry_cell_setting 'orthorhombic'
loop_
_space_group_symop_operation_xyz
x,y,z
1/2-x,-y,1/2+z
1/2+x,1/2-y,1/2-z
-x,1/2+y,-z
-x,-y,-z
1/2+x,y,1/2-z
1/2-x,1/2+y,1/2+z
x,1/2-y,z
loop_
_atom_site_type_symbol
_atom_site_label
_atom_site_fract_x
_atom_site_fract_y
_atom_site_fract_z
Si Si1 0.381832 0.921190 0.353049
Si Si2 0.997970 0.572919 0.920687
Si Si3 0.185882 0.074320 0.288509
Si Si4 0.803372 0.920996 0.280271
Si Si5 0.756541 0.424830 0.579454
Si Si6 0.621338 0.925413 0.340804
Si Si7 0.247593 0.420241 0.571105
O O1 0.402680 0.750000 0.372455
O O2 0.370353 0.937895 0.264698
O O3 0.316222 0.964830 0.395725
O O4 0.437046 0.035651 0.376501
O O5 0.992246 0.750000 0.930678
O O6 0.937117 0.514496 0.876291
O O7 0.000000 0.500000 0.000000
O O8 0.169209 0.250000 0.289027
O O9 0.254635 0.045045 0.250591
O O10 0.190469 0.013897 0.371992
O O11 0.131151 0.987245 0.241819
O O12 0.775301 0.750000 0.265711
O O13 0.809751 0.942713 0.368175
O O14 0.770763 0.250000 0.590125
O O15 0.765581 0.466457 0.494719
O O16 0.603743 0.750000 0.337222
O O17 0.684560 0.956474 0.389732
O O18 0.247734 0.250000 0.540134
#
# Coordination Sequence:
#
# PCOD8250279 Si02
#       7
#     8   8   8   8   8   8   8
#     4   9  18  33  49  65  91 128 164 196 232 275
#     4  12  24  35  48  69  96 127 163 198 233 275
#     4  10  18  29  47  69  93 121 155 194 235 279
#     4   8  16  31  48  66  92 124 156 191 234 283
#     4  10  19  30  46  69  97 127 157 191 233 279
#     4  10  20  35  51  67  93 127 161 196 235 281
#     4   9  17  29  47  71  95 120 152 192 235 276
#
# _framework density 16.763328000000001
#
# number of rings (size 3 to 8) (size 9 to 14) (size 15 to 20)
#    0.000    2.286    0.000    6.000    0.000    8.000 
#    0.000    0.000    0.000    0.000    0.000    1.000 
#    0.000    0.000    0.000    0.000    0.000    0.000 
#
# Total GULP energy -694199.811125 kJ/mol
# GULP energy per Si atom -12396.425199 kJ/mol
# Density = 1.672517 g / cm^3
# Si number density = 16.763328 Si / 1000 Ang^3
#
#
#
# Elastic Constant Matrix: (Units=GPa)
#
#
# Indices 1 2 3 4 5 6 
#
# 1 59.8807 37.1632 47.7323 0.0000 0.0000 0.0000
# 2 37.1632 105.4025 52.4079 0.0000 0.0000 0.0000
# 3 47.7323 52.4079 126.4156 0.0000 0.0000 0.0000
# 4 0.0000 0.0000 0.0000 31.2395 0.0000 0.0000
# 5 0.0000 0.0000 0.0000 0.0000 23.2502 0.0000
# 6 0.0000 0.0000 0.0000 0.0000 0.0000 24.1562
#
#
#
# Elastic Compliance Matrix: (Units=1/GPa)
#
#
# Indices 1 2 3 4 5 6 
#
# 1 0.026144 -0.005429 -0.007621 0.000000 0.000000 0.000000
# 2 -0.005429 0.013078 -0.003372 0.000000 0.000000 0.000000
# 3 -0.007621 -0.003372 0.012186 0.000000 0.000000 0.000000
# 4 0.000000 0.000000 0.000000 0.032011 0.000000 0.000000
# 5 0.000000 0.000000 0.000000 0.000000 0.043010 0.000000
# 6 0.000000 0.000000 0.000000 0.000000 0.000000 0.041397
#
#
# Mechanical properties :
#
#
# Convention : Reuss Voigt Hill
#
# Bulk Modulus (GPa) = 53.86574 62.92284 58.39429
# Shear Modulus (GPa) = 24.17122 26.02220 25.09671
#
# Velocity S-wave (km/s) = 3.80137 3.94423 3.87346
# Velocity P-wave (km/s) = 7.17426 7.63938 7.41047
#
# Compressibility (1/GPa) = 0.01856468
#
# Stress axis : x y z
#
# Youngs Moduli (GPa) = 38.25001 76.46366 82.06230
#
# Poissons Ratio (x) = 0.41509 0.62539
# Poissons Ratio (y) = 0.20765 0.27671
# Poissons Ratio (z) = 0.29150 0.25784
#
# Static dielectric constant tensor:
#      x y z
#    x 2.934910 0.000000 0.000000 
#    y 0.000000 3.174240 0.000000 
#    z 0.000000 0.000000 3.385780 
# 
# 
# High freq. dielectric constant tensor:
#      x y z
#    x 1.599270 0.000000 0.000000 
#    y 0.000000 1.655110 0.000000 
#    z 0.000000 0.000000 1.652890 
# 
# From -- ./inp_files/24590.got.cif
#   From: 2010.03.12/outbox.cif.g09.slc.cpg/sg62_13_cif.got.tgz:24590.got - 2010.04.10 19:12:36.
