data_PCOD8250212
_publ_section_title
;
Structure prediction by ZEFSAII (Michael W. Deem and Ramdas Pophale) SiO2 
 PCOD8250212
Probable space group: P N M A
;
_chemical_formula_sum "Si O2"
_cell_formula_units_Z 64
_cell_length_a 20.032122
_cell_length_b 9.381288
_cell_length_c 19.185044
_cell_angle_alpha 90.000000
_cell_angle_beta 90.000000
_cell_angle_gamma 90.000000
_cell_volume 3605.389792
_symmetry_space_group_name_H-M "P N M A"
_symmetry_group_IT_number 62
_symmetry_cell_setting 'orthorhombic'
loop_
_space_group_symop_operation_xyz
x,y,z
1/2-x,-y,1/2+z
1/2+x,1/2-y,1/2-z
-x,1/2+y,-z
-x,-y,-z
1/2+x,y,1/2-z
1/2-x,1/2+y,1/2+z
x,1/2-y,z
loop_
_atom_site_type_symbol
_atom_site_label
_atom_site_fract_x
_atom_site_fract_y
_atom_site_fract_z
Si Si1 0.522353 0.911078 0.904362
Si Si2 0.279172 0.081760 0.880475
Si Si3 0.371470 0.413230 0.592335
Si Si4 0.977045 0.915184 0.123947
Si Si5 0.902923 0.415682 0.535203
Si Si6 0.348182 0.582414 0.459774
Si Si7 0.859389 0.417110 0.751513
Si Si8 0.994219 0.585583 0.746633
O O1 0.498153 0.750000 0.920168
O O2 0.539728 0.927867 0.822822
O O3 0.462847 0.015506 0.922603
O O4 0.587515 0.945355 0.952199
O O5 0.276446 0.250000 0.884118
O O6 0.332991 0.021910 0.936607
O O7 0.206567 0.024029 0.903970
O O8 0.299822 0.036581 0.801418
O O9 0.360014 0.250000 0.571489
O O10 0.450225 0.449453 0.593412
O O11 0.335981 0.509637 0.534480
O O12 0.338861 0.446716 0.668093
O O13 0.970638 0.750000 0.145176
O O14 0.921418 0.958916 0.067845
O O15 0.964504 0.009183 0.192512
O O16 0.905677 0.250000 0.553259
O O17 0.340801 0.750000 0.471562
O O18 0.877718 0.250000 0.742662
O O19 0.923905 0.509064 0.732351
O O20 0.980927 0.750000 0.766487
#
# Coordination Sequence:
#
# PCOD8250212 Si02
#       8
#     8   8   8   8   8   8   8   8
#     4   9  17  27  42  70 101 124 156 202 242 278
#     4   9  17  31  52  73  95 129 169 201 233 286
#     4   9  18  32  51  73  96 123 158 203 251 293
#     4   9  19  34  51  71  96 127 165 207 249 295
#     4   9  16  28  47  67  92 130 166 195 235 285
#     4  10  20  34  52  74  98 127 165 206 244 291
#     4   9  17  32  52  73  96 126 163 197 236 291
#     4  10  18  28  46  73 102 126 156 203 251 290
#
# _framework density 17.751200999999998
#
# number of rings (size 3 to 8) (size 9 to 14) (size 15 to 20)
#    0.000    2.750    1.250    1.500    0.000    3.000 
#    0.000    2.500    0.000    0.000    0.000    0.000 
#    0.000    0.000    0.000    0.000    0.000    0.000 
#
# Total GULP energy -793177.705363 kJ/mol
# GULP energy per Si atom -12393.401646 kJ/mol
# Density = 1.771080 g / cm^3
# Si number density = 17.751201 Si / 1000 Ang^3
#
#
#
# Elastic Constant Matrix: (Units=GPa)
#
#
# Indices 1 2 3 4 5 6 
#
# 1 69.0169 18.8925 50.7229 0.0000 0.0000 0.0000
# 2 18.8925 46.1832 42.9024 0.0000 0.0000 0.0000
# 3 50.7229 42.9024 143.4077 0.0000 0.0000 0.0000
# 4 0.0000 0.0000 0.0000 29.2152 0.0000 0.0000
# 5 0.0000 0.0000 0.0000 0.0000 25.8735 0.0000
# 6 0.0000 0.0000 0.0000 0.0000 0.0000 13.9394
#
#
#
# Elastic Compliance Matrix: (Units=1/GPa)
#
#
# Indices 1 2 3 4 5 6 
#
# 1 0.019739 -0.002201 -0.006323 0.000000 0.000000 0.000000
# 2 -0.002201 0.030232 -0.008266 0.000000 0.000000 0.000000
# 3 -0.006323 -0.008266 0.011682 0.000000 0.000000 0.000000
# 4 0.000000 0.000000 0.000000 0.034229 0.000000 0.000000
# 5 0.000000 0.000000 0.000000 0.000000 0.038650 0.000000
# 6 0.000000 0.000000 0.000000 0.000000 0.000000 0.071739
#
#
# Mechanical properties :
#
#
# Convention : Reuss Voigt Hill
#
# Bulk Modulus (GPa) = 35.62075 53.73816 44.67945
# Shear Modulus (GPa) = 20.06358 23.54495 21.80427
#
# Velocity S-wave (km/s) = 3.36559 3.64591 3.50855
# Velocity P-wave (km/s) = 5.93407 6.93269 6.45273
#
# Compressibility (1/GPa) = 0.02807353
#
# Stress axis : x y z
#
# Youngs Moduli (GPa) = 50.66181 33.07767 85.59833
#
# Poissons Ratio (x) = 0.07279 0.54125
# Poissons Ratio (y) = 0.11149 0.70755
# Poissons Ratio (z) = 0.32034 0.27342
#
# Static dielectric constant tensor:
#      x y z
#    x 3.218180 0.000000 0.000000 
#    y 0.000000 3.167380 0.000000 
#    z 0.000000 0.000000 3.522660 
# 
# 
# High freq. dielectric constant tensor:
#      x y z
#    x 1.651250 0.000000 0.000000 
#    y 0.000000 1.673340 0.000000 
#    z 0.000000 0.000000 1.699180 
# 
# From -- ./inp_files/27905.got.cif
#   From: 2010.03.12/outbox.cif.g09.slc.cpg/sg62_14_cif.got.tgz:27905.got - 2010.04.10 19:12:36.
