data_PCOD8250937
_publ_section_title
;
Structure prediction by ZEFSAII (Michael W. Deem and Ramdas Pophale) SiO2 
 PCOD8250937
Probable space group: P N M A
;
_chemical_formula_sum "Si O2"
_cell_formula_units_Z 64
_cell_length_a 14.330877
_cell_length_b 9.221695
_cell_length_c 28.176645
_cell_angle_alpha 90.000000
_cell_angle_beta 90.000000
_cell_angle_gamma 90.000000
_cell_volume 3723.683866
_symmetry_space_group_name_H-M "P N M A"
_symmetry_group_IT_number 62
_symmetry_cell_setting 'orthorhombic'
loop_
_space_group_symop_operation_xyz
x,y,z
1/2-x,-y,1/2+z
1/2+x,1/2-y,1/2-z
-x,1/2+y,-z
-x,-y,-z
1/2+x,y,1/2-z
1/2-x,1/2+y,1/2+z
x,1/2-y,z
loop_
_atom_site_type_symbol
_atom_site_label
_atom_site_fract_x
_atom_site_fract_y
_atom_site_fract_z
Si Si1 0.289089 0.084002 0.858473
Si Si2 0.233019 0.920524 0.634525
Si Si3 0.596334 0.580483 0.946970
Si Si4 0.089118 0.581800 0.445810
Si Si5 0.398161 0.915272 0.314444
Si Si6 0.607847 0.921908 0.319535
Si Si7 0.893435 0.416956 0.277968
Si Si8 0.108809 0.419231 0.276770
O O1 0.316078 0.250000 0.845550
O O2 0.324934 0.044118 0.911058
O O3 0.176546 0.064124 0.856976
O O4 0.334109 0.975107 0.821369
O O5 0.255009 0.750000 0.636183
O O6 0.184119 0.965683 0.585171
O O7 0.164640 0.969837 0.676833
O O8 0.329049 0.010141 0.638735
O O9 0.577080 0.750000 0.941186
O O10 0.502750 0.502664 0.928879
O O11 0.619329 0.535340 0.001098
O O12 0.063386 0.750000 0.444352
O O13 0.405801 0.750000 0.297991
O O14 0.500719 0.967302 0.331043
O O15 0.359750 0.000470 0.268881
O O16 0.622086 0.750000 0.317241
O O17 0.639790 0.993186 0.269944
O O18 0.874886 0.250000 0.267581
O O19 0.001206 0.448975 0.288542
O O20 0.129806 0.250000 0.268123
#
# Coordination Sequence:
#
# PCOD8250937 Si02
#       8
#     8   8   8   8   8   8   8   8
#     4  10  19  31  48  70  94 122 158 194 230 276
#     4  10  19  31  48  69  93 123 158 193 232 279
#     4   9  18  33  51  72  99 126 152 188 236 286
#     4   9  18  32  51  74  98 124 154 190 234 284
#     4   9  19  33  46  62  89 123 155 190 229 268
#     4  10  20  33  47  65  91 124 160 196 233 271
#     4   9  18  30  44  65  93 122 151 184 224 273
#     4  10  19  31  47  69  97 126 154 187 230 277
#
# _framework density 17.187282
#
# number of rings (size 3 to 8) (size 9 to 14) (size 15 to 20)
#    0.000    2.500    0.000    2.250    0.000    6.000 
#    0.000    0.000    0.000    0.750    0.000    0.000 
#    0.000    0.000    0.000    0.000    0.000    0.375 
#
# Total GULP energy -793615.321444 kJ/mol
# GULP energy per Si atom -12400.239398 kJ/mol
# Density = 1.714816 g / cm^3
# Si number density = 17.187282 Si / 1000 Ang^3
#
#
#
# Elastic Constant Matrix: (Units=GPa)
#
#
# Indices 1 2 3 4 5 6 
#
# 1 96.7562 40.5249 68.3321 0.0000 0.0000 0.0000
# 2 40.5249 53.3140 37.7775 0.0000 0.0000 0.0000
# 3 68.3321 37.7775 95.2787 0.0000 0.0000 0.0000
# 4 0.0000 0.0000 0.0000 20.8088 0.0000 0.0000
# 5 0.0000 0.0000 0.0000 0.0000 30.3906 0.0000
# 6 0.0000 0.0000 0.0000 0.0000 0.0000 25.3100
#
#
#
# Elastic Compliance Matrix: (Units=1/GPa)
#
#
# Indices 1 2 3 4 5 6 
#
# 1 0.023232 -0.008140 -0.013434 0.000000 0.000000 0.000000
# 2 -0.008140 0.028938 -0.005636 0.000000 0.000000 0.000000
# 3 -0.013434 -0.005636 0.022365 0.000000 0.000000 0.000000
# 4 0.000000 0.000000 0.000000 0.048057 0.000000 0.000000
# 5 0.000000 0.000000 0.000000 0.000000 0.032905 0.000000
# 6 0.000000 0.000000 0.000000 0.000000 0.000000 0.039510
#
#
# Mechanical properties :
#
#
# Convention : Reuss Voigt Hill
#
# Bulk Modulus (GPa) = 49.71488 59.84641 54.78064
# Shear Modulus (GPa) = 19.52126 21.88285 20.70205
#
# Velocity S-wave (km/s) = 3.37381 3.57206 3.47435
# Velocity P-wave (km/s) = 6.64568 7.20476 6.93086
#
# Compressibility (1/GPa) = 0.02011470
#
# Stress axis : x y z
#
# Youngs Moduli (GPa) = 43.04371 34.55723 44.71290
#
# Poissons Ratio (x) = 0.28129 0.60069
# Poissons Ratio (y) = 0.35037 0.25199
# Poissons Ratio (z) = 0.57826 0.19476
#
# Static dielectric constant tensor:
#      x y z
#    x 3.350400 0.000000 0.000000 
#    y 0.000000 3.199310 0.000000 
#    z 0.000000 0.000000 3.205120 
# 
# 
# High freq. dielectric constant tensor:
#      x y z
#    x 1.664640 0.000000 0.000000 
#    y 0.000000 1.664540 0.000000 
#    z 0.000000 0.000000 1.641410 
# 
# From -- ./inp_files/32704.got.cif
#   From: 2010.03.12/outbox.cif.g09.slc.cpg/sg62_17_cif.got.tgz:32704.got - 2010.04.10 19:12:36.
