data_PCOD8250558
_publ_section_title
;
Structure prediction by ZEFSAII (Michael W. Deem and Ramdas Pophale) SiO2 
 PCOD8250558
Probable space group: P N M A
;
_chemical_formula_sum "Si O2"
_cell_formula_units_Z 56
_cell_length_a 15.604884
_cell_length_b 8.825843
_cell_length_c 22.174477
_cell_angle_alpha 90.000000
_cell_angle_beta 90.000000
_cell_angle_gamma 90.000000
_cell_volume 3054.007701
_symmetry_space_group_name_H-M "P N M A"
_symmetry_group_IT_number 62
_symmetry_cell_setting 'orthorhombic'
loop_
_space_group_symop_operation_xyz
x,y,z
1/2-x,-y,1/2+z
1/2+x,1/2-y,1/2-z
-x,1/2+y,-z
-x,-y,-z
1/2+x,y,1/2-z
1/2-x,1/2+y,1/2+z
x,1/2-y,z
loop_
_atom_site_type_symbol
_atom_site_label
_atom_site_fract_x
_atom_site_fract_y
_atom_site_fract_z
Si Si1 0.048304 0.073105 0.944756
Si Si2 0.739517 0.920236 0.685294
Si Si3 0.549230 0.570032 0.680766
Si Si4 0.498568 0.922177 0.095132
Si Si5 0.223199 0.579062 0.952023
Si Si6 0.077142 0.069889 0.287643
Si Si7 0.370675 0.078522 0.014188
O O1 0.029747 0.250000 0.942393
O O2 0.017173 0.999720 0.881992
O O3 0.147722 0.041523 0.955325
O O4 0.000000 0.000000 0.000000
O O5 0.730900 0.750000 0.708717
O O6 0.645344 0.995470 0.697650
O O7 0.763607 0.927997 0.614652
O O8 0.823617 0.990645 0.719106
O O9 0.556138 0.750000 0.672219
O O10 0.478683 0.522800 0.729753
O O11 0.470218 0.750000 0.106991
O O12 0.569136 0.930461 0.043588
O O13 0.533384 0.992659 0.155891
O O14 0.416549 0.018772 0.074319
O O15 0.191049 0.750000 0.965780
O O16 0.291018 0.531054 0.002288
O O17 0.077194 0.250000 0.297565
O O18 0.339858 0.250000 0.025592
#
# Coordination Sequence:
#
# PCOD8250558 Si02
#       7
#     8   8   8   8   8   8   8
#     4  11  22  38  59  81 107 138 179 225 274 325
#     4   8  15  29  50  75 100 133 175 219 265 317
#     4   9  19  35  55  80 107 138 180 225 271 327
#     4  10  20  31  47  73 109 144 179 222 266 314
#     4  10  18  32  55  80 108 137 177 226 274 325
#     4  10  18  32  54  76 104 143 182 222 272 328
#     4  10  19  31  48  75 107 142 183 221 263 316
#
# _framework density 18.336561
#
# number of rings (size 3 to 8) (size 9 to 14) (size 15 to 20)
#    0.000    2.286    1.429    3.429    0.000    1.714 
#    0.000    1.429    0.000    3.429    0.000    0.000 
#    0.000    0.000    0.000    0.000    0.000    0.000 
#
# Total GULP energy -694060.866686 kJ/mol
# GULP energy per Si atom -12393.944048 kJ/mol
# Density = 1.829483 g / cm^3
# Si number density = 18.336561 Si / 1000 Ang^3
#
#
#
# Elastic Constant Matrix: (Units=GPa)
#
#
# Indices 1 2 3 4 5 6 
#
# 1 100.9274 31.6752 67.0687 0.0000 0.0000 0.0000
# 2 31.6752 65.8457 35.3876 0.0000 0.0000 0.0000
# 3 67.0687 35.3876 95.9618 0.0000 0.0000 0.0000
# 4 0.0000 0.0000 0.0000 26.3035 0.0000 0.0000
# 5 0.0000 0.0000 0.0000 0.0000 35.0227 0.0000
# 6 0.0000 0.0000 0.0000 0.0000 0.0000 24.4317
#
#
#
# Elastic Compliance Matrix: (Units=1/GPa)
#
#
# Indices 1 2 3 4 5 6 
#
# 1 0.018818 -0.002475 -0.012240 0.000000 0.000000 0.000000
# 2 -0.002475 0.019266 -0.005375 0.000000 0.000000 0.000000
# 3 -0.012240 -0.005375 0.020958 0.000000 0.000000 0.000000
# 4 0.000000 0.000000 0.000000 0.038018 0.000000 0.000000
# 5 0.000000 0.000000 0.000000 0.000000 0.028553 0.000000
# 6 0.000000 0.000000 0.000000 0.000000 0.000000 0.040931
#
#
# Mechanical properties :
#
#
# Convention : Reuss Voigt Hill
#
# Bulk Modulus (GPa) = 53.01410 58.99977 56.00693
# Shear Modulus (GPa) = 23.47304 25.72513 24.59908
#
# Velocity S-wave (km/s) = 3.58176 3.74965 3.66667
# Velocity P-wave (km/s) = 6.78821 7.14089 6.96678
#
# Compressibility (1/GPa) = 0.01886291
#
# Stress axis : x y z
#
# Youngs Moduli (GPa) = 53.13954 51.90428 47.71545
#
# Poissons Ratio (x) = 0.12844 0.58403
# Poissons Ratio (y) = 0.13150 0.25648
# Poissons Ratio (z) = 0.65042 0.27900
#
# Static dielectric constant tensor:
#      x y z
#    x 4.369780 0.000000 0.000000 
#    y 0.000000 4.250170 0.000000 
#    z 0.000000 0.000000 3.562560 
# 
# 
# High freq. dielectric constant tensor:
#      x y z
#    x 1.712850 0.000000 0.000000 
#    y 0.000000 1.701260 0.000000 
#    z 0.000000 0.000000 1.687920 
# 
# From -- ./inp_files/27543.got.cif
#   From: 2010.03.12/outbox.cif.g09.slc.cpg/sg62_14_cif.got.tgz:27543.got - 2010.04.10 19:12:36.
