data_PCOD8250505
_publ_section_title
;
Structure prediction by ZEFSAII (Michael W. Deem and Ramdas Pophale) SiO2 
 PCOD8250505
Probable space group: P N M A
;
_chemical_formula_sum "Si O2"
_cell_formula_units_Z 56
_cell_length_a 20.097955
_cell_length_b 16.067184
_cell_length_c 8.809001
_cell_angle_alpha 90.000000
_cell_angle_beta 90.000000
_cell_angle_gamma 90.000000
_cell_volume 2844.580942
_symmetry_space_group_name_H-M "P N M A"
_symmetry_group_IT_number 62
_symmetry_cell_setting 'orthorhombic'
loop_
_space_group_symop_operation_xyz
x,y,z
1/2-x,-y,1/2+z
1/2+x,1/2-y,1/2-z
-x,1/2+y,-z
-x,-y,-z
1/2+x,y,1/2-z
1/2-x,1/2+y,1/2+z
x,1/2-y,z
loop_
_atom_site_type_symbol
_atom_site_label
_atom_site_fract_x
_atom_site_fract_y
_atom_site_fract_z
Si Si1 0.850385 0.512263 0.618085
Si Si2 0.899109 0.654759 0.033263
Si Si3 0.168336 0.656641 0.493446
Si Si4 0.526508 0.430748 0.286228
Si Si5 0.986086 0.158994 0.490562
Si Si6 0.785008 0.843215 0.789869
Si Si7 0.923048 0.947240 0.312834
O O1 0.815621 0.420032 0.622969
O O2 0.912080 0.510508 0.734454
O O3 0.799059 0.585913 0.664166
O O4 0.871640 0.526349 0.442773
O O5 0.919474 0.750000 0.057913
O O6 0.960792 0.606706 0.952953
O O7 0.833198 0.645436 0.933756
O O8 0.885397 0.613631 0.196775
O O9 0.181881 0.750000 0.423435
O O10 0.091673 0.646596 0.539098
O O11 0.210424 0.645981 0.647790
O O12 0.454873 0.475806 0.280595
O O13 0.525208 0.354149 0.167279
O O14 0.003175 0.250000 0.552135
O O15 0.011506 0.094259 0.614226
O O16 0.794513 0.750000 0.719854
#
# Coordination Sequence:
#
# PCOD8250505 Si02
#       7
#     8   8   8   8   8   8   8
#     4  10  19  35  59  80 106 144 184 230 273 321
#     4  10  21  34  50  75 108 145 178 224 276 322
#     4  10  19  35  56  81 109 141 182 227 273 332
#     4  10  18  34  51  76 110 139 178 216 272 333
#     4  10  18  31  55  80 105 140 182 226 274 327
#     4   9  21  38  56  77 107 146 189 225 269 331
#     4  11  19  32  53  83 111 136 181 230 274 323
#
# _framework density 19.686556
#
# number of rings (size 3 to 8) (size 9 to 14) (size 15 to 20)
#    0.000    2.000    2.857    2.143    0.000    5.143 
#    0.000    0.000    0.000    0.857    0.000    7.000 
#    0.000    0.000    0.000    0.000    0.000    0.000 
#
# Total GULP energy -694022.427457 kJ/mol
# GULP energy per Si atom -12393.257633 kJ/mol
# Density = 1.964175 g / cm^3
# Si number density = 19.686556 Si / 1000 Ang^3
#
#
#
# Elastic Constant Matrix: (Units=GPa)
#
#
# Indices 1 2 3 4 5 6 
#
# 1 53.7075 31.3055 11.5220 0.0000 0.0000 0.0000
# 2 31.3055 154.5077 41.8969 0.0000 0.0000 0.0000
# 3 11.5220 41.8969 69.8222 0.0000 0.0000 0.0000
# 4 0.0000 0.0000 0.0000 34.0075 0.0000 0.0000
# 5 0.0000 0.0000 0.0000 0.0000 21.3951 0.0000
# 6 0.0000 0.0000 0.0000 0.0000 0.0000 27.7469
#
#
#
# Elastic Compliance Matrix: (Units=1/GPa)
#
#
# Indices 1 2 3 4 5 6 
#
# 1 0.021183 -0.003994 -0.001099 0.000000 0.000000 0.000000
# 2 -0.003994 0.008483 -0.004431 0.000000 0.000000 0.000000
# 3 -0.001099 -0.004431 0.017162 0.000000 0.000000 0.000000
# 4 0.000000 0.000000 0.000000 0.029405 0.000000 0.000000
# 5 0.000000 0.000000 0.000000 0.000000 0.046740 0.000000
# 6 0.000000 0.000000 0.000000 0.000000 0.000000 0.036040
#
#
# Mechanical properties :
#
#
# Convention : Reuss Voigt Hill
#
# Bulk Modulus (GPa) = 35.99684 49.72067 42.85876
# Shear Modulus (GPa) = 26.69202 29.51743 28.10473
#
# Velocity S-wave (km/s) = 3.68618 3.87637 3.78247
# Velocity P-wave (km/s) = 6.03672 6.73394 6.39484
#
# Compressibility (1/GPa) = 0.02778021
#
# Stress axis : x y z
#
# Youngs Moduli (GPa) = 47.20721 117.88322 58.26706
#
# Poissons Ratio (x) = 0.47083 0.06404
# Poissons Ratio (y) = 0.18855 0.25819
# Poissons Ratio (z) = 0.05188 0.52236
#
# Static dielectric constant tensor:
#      x y z
#    x 3.399130 0.000000 0.000000 
#    y 0.000000 4.057290 0.000000 
#    z 0.000000 0.000000 3.307250 
# 
# 
# High freq. dielectric constant tensor:
#      x y z
#    x 1.750880 0.000000 0.000000 
#    y 0.000000 1.787480 0.000000 
#    z 0.000000 0.000000 1.732760 
# 
# From -- ./inp_files/8749.got.cif
#   From: 2010.03.12/outbox.cif.g09.slc.cpg/sg62_5_cif.got.tgz:8749.got - 2010.04.10 19:12:36.
