data_PCOD8250646
_publ_section_title
;
Structure prediction by ZEFSAII (Michael W. Deem and Ramdas Pophale) SiO2 
 PCOD8250646
Probable space group: P N M A
;
_chemical_formula_sum "Si O2"
_cell_formula_units_Z 48
_cell_length_a 16.004493
_cell_length_b 13.773056
_cell_length_c 11.356448
_cell_angle_alpha 90.000000
_cell_angle_beta 90.000000
_cell_angle_gamma 90.000000
_cell_volume 2503.310672
_symmetry_space_group_name_H-M "P N M A"
_symmetry_group_IT_number 62
_symmetry_cell_setting 'orthorhombic'
loop_
_space_group_symop_operation_xyz
x,y,z
1/2-x,-y,1/2+z
1/2+x,1/2-y,1/2-z
-x,1/2+y,-z
-x,-y,-z
1/2+x,y,1/2-z
1/2-x,1/2+y,1/2+z
x,1/2-y,z
loop_
_atom_site_type_symbol
_atom_site_label
_atom_site_fract_x
_atom_site_fract_y
_atom_site_fract_z
Si Si1 0.412842 0.018911 0.746366
Si Si2 0.681485 0.036096 0.482261
Si Si3 0.348067 0.362980 0.957306
Si Si4 0.882584 0.359249 0.102638
Si Si5 0.974539 0.638721 0.080555
Si Si6 0.028337 0.860138 0.662054
O O1 0.362720 0.092539 0.829102
O O2 0.489869 0.075420 0.687242
O O3 0.347311 0.978979 0.651564
O O4 0.449148 0.930030 0.822480
O O5 0.771729 0.083857 0.478564
O O6 0.619018 0.106551 0.552410
O O7 0.686296 0.932968 0.551404
O O8 0.326504 0.250000 0.943733
O O9 0.430601 0.379225 0.035509
O O10 0.850115 0.250000 0.078985
O O11 0.900037 0.377593 0.239752
O O12 0.970302 0.378986 0.036032
O O13 0.974782 0.750000 0.120643
O O14 0.994788 0.750000 0.672455
#
# Coordination Sequence:
#
# PCOD8250646 Si02
#       6
#     8   8   8   8   8   8
#     4  11  21  39  62  84 113 159 201 238 284 352
#     4  11  21  36  60  88 115 149 195 244 291 340
#     4  11  26  40  55  86 126 155 183 236 308 352
#     4   9  17  33  58  86 112 145 193 242 284 333
#     4  10  18  33  60  88 113 145 198 245 280 334
#     4  10  20  38  61  84 115 155 195 242 288 345
#
# _framework density 19.174607999999999
#
# number of rings (size 3 to 8) (size 9 to 14) (size 15 to 20)
#    0.000    1.667    3.333    2.500    2.333    1.333 
#    0.000    0.833    0.000    2.000    0.000    0.000 
#    0.000    0.000    0.000    0.000    0.000    0.000 
#
# Total GULP energy -595424.884030 kJ/mol
# GULP energy per Si atom -12404.685084 kJ/mol
# Density = 1.913097 g / cm^3
# Si number density = 19.174608 Si / 1000 Ang^3
#
#
#
# Elastic Constant Matrix: (Units=GPa)
#
#
# Indices 1 2 3 4 5 6 
#
# 1 38.6326 31.7734 28.2899 0.0000 0.0000 0.0000
# 2 31.7734 113.9205 34.8768 0.0000 0.0000 0.0000
# 3 28.2899 34.8768 79.8465 0.0000 0.0000 0.0000
# 4 0.0000 0.0000 0.0000 29.6054 0.0000 0.0000
# 5 0.0000 0.0000 0.0000 0.0000 19.3331 0.0000
# 6 0.0000 0.0000 0.0000 0.0000 0.0000 32.4648
#
#
#
# Elastic Compliance Matrix: (Units=1/GPa)
#
#
# Indices 1 2 3 4 5 6 
#
# 1 0.040340 -0.007937 -0.010826 0.000000 0.000000 0.000000
# 2 -0.007937 0.011695 -0.002296 0.000000 0.000000 0.000000
# 3 -0.010826 -0.002296 0.017363 0.000000 0.000000 0.000000
# 4 0.000000 0.000000 0.000000 0.033778 0.000000 0.000000
# 5 0.000000 0.000000 0.000000 0.000000 0.051725 0.000000
# 6 0.000000 0.000000 0.000000 0.000000 0.000000 0.030803
#
#
# Mechanical properties :
#
#
# Convention : Reuss Voigt Hill
#
# Bulk Modulus (GPa) = 36.65729 46.91997 41.78863
# Shear Modulus (GPa) = 21.10476 25.44463 23.27470
#
# Velocity S-wave (km/s) = 3.32122 3.64675 3.48778
# Velocity P-wave (km/s) = 5.81949 6.50036 6.16932
#
# Compressibility (1/GPa) = 0.02727970
#
# Stress axis : x y z
#
# Youngs Moduli (GPa) = 24.78921 85.50896 57.59495
#
# Poissons Ratio (x) = 0.67867 0.62351
# Poissons Ratio (y) = 0.19675 0.13225
# Poissons Ratio (z) = 0.26836 0.19634
#
# Static dielectric constant tensor:
#      x y z
#    x 3.079550 0.000000 0.000000 
#    y 0.000000 3.765850 0.000000 
#    z 0.000000 0.000000 3.452790 
# 
# 
# High freq. dielectric constant tensor:
#      x y z
#    x 1.710980 0.000000 0.000000 
#    y 0.000000 1.766210 0.000000 
#    z 0.000000 0.000000 1.745010 
# 
# From -- ./inp_files/14188.got.cif
#   From: 2010.03.12/outbox.cif.g09.slc.cpg/sg62_8_cif.got.tgz:14188.got - 2010.04.10 19:12:36.
