data_PCOD8250750
_publ_section_title
;
Structure prediction by ZEFSAII (Michael W. Deem and Ramdas Pophale) SiO2 
 PCOD8250750
Probable space group: P N M A
;
_chemical_formula_sum "Si O2"
_cell_formula_units_Z 48
_cell_length_a 18.840659
_cell_length_b 14.994536
_cell_length_c 8.556924
_cell_angle_alpha 90.000000
_cell_angle_beta 90.000000
_cell_angle_gamma 90.000000
_cell_volume 2417.390412
_symmetry_space_group_name_H-M "P N M A"
_symmetry_group_IT_number 62
_symmetry_cell_setting 'orthorhombic'
loop_
_space_group_symop_operation_xyz
x,y,z
1/2-x,-y,1/2+z
1/2+x,1/2-y,1/2-z
-x,1/2+y,-z
-x,-y,-z
1/2+x,y,1/2-z
1/2-x,1/2+y,1/2+z
x,1/2-y,z
loop_
_atom_site_type_symbol
_atom_site_label
_atom_site_fract_x
_atom_site_fract_y
_atom_site_fract_z
Si Si1 0.724472 0.250000 0.491599
Si Si2 0.967789 0.417198 0.593192
Si Si3 0.338341 0.750000 0.183041
Si Si4 0.972067 0.750000 0.538506
Si Si5 0.419682 0.750000 0.613266
Si Si6 0.955870 0.921864 0.084327
Si Si7 0.812538 0.943331 0.262469
Si Si8 0.690159 0.927449 0.045748
O O1 0.662237 0.250000 0.627338
O O2 0.666565 0.250000 0.354342
O O3 0.776077 0.166161 0.494196
O O4 0.884750 0.421638 0.632535
O O5 0.000000 0.500000 0.500000
O O6 0.978611 0.335410 0.476945
O O7 0.004867 0.396623 0.756548
O O8 0.300759 0.653902 0.150786
O O9 0.413515 0.750000 0.099568
O O10 0.941354 0.750000 0.708710
O O11 0.451712 0.662025 0.531346
O O12 0.876308 0.948596 0.136705
O O13 0.000000 0.000000 0.000000
O O14 0.742366 0.973164 0.169710
O O15 0.825395 0.015002 0.394170
#
# Coordination Sequence:
#
# PCOD8250750 Si02
#       8
#     4   8   4   4   4   8   8   8
#     4  10  21  43  65  89 135 170 214 269 335 394
#     4  12  23  42  65  98 131 172 218 275 332 398
#     4  10  18  44  65  87 126 181 208 266 322 398
#     4  12  23  38  69  97 127 172 228 270 329 405
#     4  12  24  43  69  99 130 181 222 273 346 395
#     4  12  24  43  69  95 136 177 223 277 334 398
#     4  11  23  43  67  94 135 170 222 271 331 401
#     4  11  24  40  66  96 130 174 217 272 335 394
#
# _framework density 19.856123
#
# number of rings (size 3 to 8) (size 9 to 14) (size 15 to 20)
#    0.000    0.667    6.667    2.000    2.333    2.667 
#    0.000    0.000    0.000    0.000    0.000    0.000 
#    0.000    0.000    0.000    0.000    0.000    0.000 
#
# Total GULP energy -594720.984755 kJ/mol
# GULP energy per Si atom -12390.020516 kJ/mol
# Density = 1.981093 g / cm^3
# Si number density = 19.856123 Si / 1000 Ang^3
#
#
#
# Elastic Constant Matrix: (Units=GPa)
#
#
# Indices 1 2 3 4 5 6 
#
# 1 147.1354 26.3332 43.7108 0.0000 0.0000 0.0000
# 2 26.3332 114.0242 26.7438 0.0000 0.0000 0.0000
# 3 43.7108 26.7438 74.9621 0.0000 0.0000 0.0000
# 4 0.0000 0.0000 0.0000 30.1278 0.0000 0.0000
# 5 0.0000 0.0000 0.0000 0.0000 33.5451 0.0000
# 6 0.0000 0.0000 0.0000 0.0000 0.0000 31.2228
#
#
#
# Elastic Compliance Matrix: (Units=1/GPa)
#
#
# Indices 1 2 3 4 5 6 
#
# 1 0.008296 -0.000853 -0.004533 0.000000 0.000000 0.000000
# 2 -0.000853 0.009659 -0.002949 0.000000 0.000000 0.000000
# 3 -0.004533 -0.002949 0.017035 0.000000 0.000000 0.000000
# 4 0.000000 0.000000 0.000000 0.033192 0.000000 0.000000
# 5 0.000000 0.000000 0.000000 0.000000 0.029811 0.000000
# 6 0.000000 0.000000 0.000000 0.000000 0.000000 0.032028
#
#
# Mechanical properties :
#
#
# Convention : Reuss Voigt Hill
#
# Bulk Modulus (GPa) = 54.58260 58.85525 56.71893
# Shear Modulus (GPa) = 32.72341 34.93473 33.82907
#
# Velocity S-wave (km/s) = 4.06399 4.19906 4.13208
# Velocity P-wave (km/s) = 7.04060 7.29484 7.16885
#
# Compressibility (1/GPa) = 0.01832086
#
# Stress axis : x y z
#
# Youngs Moduli (GPa) = 120.54360 103.53503 58.70149
#
# Poissons Ratio (x) = 0.08828 0.26610
# Poissons Ratio (y) = 0.10278 0.17309
# Poissons Ratio (z) = 0.54644 0.30529
#
# Static dielectric constant tensor:
#      x y z
#    x 3.786820 0.000000 0.000000 
#    y 0.000000 4.857380 0.000000 
#    z 0.000000 0.000000 3.673200 
# 
# 
# High freq. dielectric constant tensor:
#      x y z
#    x 1.781710 0.000000 0.000000 
#    y 0.000000 1.788160 0.000000 
#    z 0.000000 0.000000 1.769900 
# 
# From -- ./inp_files/7722.got.cif
#   From: 2010.03.12/outbox.cif.g09.slc.cpg/sg62_4_cif.got.tgz:7722.got - 2010.04.10 19:12:36.
