data_PCOD8250934
_publ_section_title
;
Structure prediction by ZEFSAII (Michael W. Deem and Ramdas Pophale) SiO2 
 PCOD8250934
Probable space group: P N M A
;
_chemical_formula_sum "Si O2"
_cell_formula_units_Z 48
_cell_length_a 8.323063
_cell_length_b 23.731485
_cell_length_c 10.885823
_cell_angle_alpha 90.000000
_cell_angle_beta 90.000000
_cell_angle_gamma 90.000000
_cell_volume 2150.153006
_symmetry_space_group_name_H-M "P N M A"
_symmetry_group_IT_number 62
_symmetry_cell_setting 'orthorhombic'
loop_
_space_group_symop_operation_xyz
x,y,z
1/2-x,-y,1/2+z
1/2+x,1/2-y,1/2-z
-x,1/2+y,-z
-x,-y,-z
1/2+x,y,1/2-z
1/2-x,1/2+y,1/2+z
x,1/2-y,z
loop_
_atom_site_type_symbol
_atom_site_label
_atom_site_fract_x
_atom_site_fract_y
_atom_site_fract_z
Si Si1 0.128111 0.451133 0.496980
Si Si2 0.565423 0.250000 0.830292
Si Si3 0.944329 0.862016 0.995985
Si Si4 0.425634 0.250000 0.572074
Si Si5 0.443517 0.033560 0.379371
Si Si6 0.891695 0.065688 0.801355
Si Si7 0.404621 0.361222 0.933056
O O1 0.249546 0.461708 0.382580
O O2 0.226591 0.446476 0.625372
O O3 0.000000 0.500000 0.500000
O O4 0.034196 0.391939 0.478759
O O5 0.557028 0.250000 0.682302
O O6 0.750492 0.250000 0.867924
O O7 0.478299 0.304504 0.881857
O O8 0.755879 0.847494 0.991434
O O9 0.046956 0.804502 0.986314
O O10 0.993958 0.892493 0.122168
O O11 0.983620 0.903153 0.880609
O O12 0.500000 0.000000 0.500000
O O13 0.512608 0.993755 0.271095
O O14 0.852695 0.095099 0.673484
#
# Coordination Sequence:
#
# PCOD8250934 Si02
#       7
#     8   4   8   4   8   8   8
#     4  10  19  32  49  67  92 127 173 208 246 295
#     4  12  24  32  46  70 106 135 170 199 244 294
#     4  10  19  32  47  64  96 129 168 202 245 287
#     4  12  22  34  44  68  98 139 170 201 240 296
#     4   8  17  33  47  62  92 131 164 208 251 289
#     4  10  19  31  47  67  94 130 164 209 252 292
#     4  12  21  32  51  75 100 137 172 209 245 300
#
# _framework density 22.323990999999999
#
# number of rings (size 3 to 8) (size 9 to 14) (size 15 to 20)
#    0.000    2.000    1.667    7.500    0.000    0.000 
#    0.000    0.000    0.000    0.000    0.000    0.000 
#    0.000    1.333    0.000   68.750    0.000   36.500 
#
# Total GULP energy -594941.508336 kJ/mol
# GULP energy per Si atom -12394.614757 kJ/mol
# Density = 2.227318 g / cm^3
# Si number density = 22.323991 Si / 1000 Ang^3
#
#
#
# Elastic Constant Matrix: (Units=GPa)
#
#
# Indices 1 2 3 4 5 6 
#
# 1 149.5659 53.2324 16.3611 0.0000 0.0000 0.0000
# 2 53.2324 178.9873 16.6649 0.0000 0.0000 0.0000
# 3 16.3611 16.6649 11.7252 0.0000 0.0000 0.0000
# 4 0.0000 0.0000 0.0000 16.7849 0.0000 0.0000
# 5 0.0000 0.0000 0.0000 0.0000 22.4555 0.0000
# 6 0.0000 0.0000 0.0000 0.0000 0.0000 38.3893
#
#
#
# Elastic Compliance Matrix: (Units=1/GPa)
#
#
# Indices 1 2 3 4 5 6 
#
# 1 0.008268 -0.001596 -0.009268 0.000000 0.000000 0.000000
# 2 -0.001596 0.006747 -0.007363 0.000000 0.000000 0.000000
# 3 -0.009268 -0.007363 0.108683 0.000000 0.000000 0.000000
# 4 0.000000 0.000000 0.000000 0.059577 0.000000 0.000000
# 5 0.000000 0.000000 0.000000 0.000000 0.044532 0.000000
# 6 0.000000 0.000000 0.000000 0.000000 0.000000 0.026049
#
#
# Mechanical properties :
#
#
# Convention : Reuss Voigt Hill
#
# Bulk Modulus (GPa) = 11.46206 56.97727 34.21966
# Shear Modulus (GPa) = 15.65470 32.46062 24.05766
#
# Velocity S-wave (km/s) = 2.65099 3.81736 3.28633
# Velocity P-wave (km/s) = 3.80997 6.70880 5.45545
#
# Compressibility (1/GPa) = 0.08724435
#
# Stress axis : x y z
#
# Youngs Moduli (GPa) = 120.94918 148.21048 9.20103
#
# Poissons Ratio (x) = 0.23654 0.08528
# Poissons Ratio (y) = 0.19304 0.06774
# Poissons Ratio (z) = 1.12102 1.09122
#
# Static dielectric constant tensor:
#      x y z
#    x 4.421930 0.000000 0.000000 
#    y 0.000000 4.777310 0.000000 
#    z 0.000000 0.000000 3.672930 
# 
# 
# High freq. dielectric constant tensor:
#      x y z
#    x 1.906330 0.000000 0.000000 
#    y 0.000000 1.890250 0.000000 
#    z 0.000000 0.000000 1.806130 
# 
# From -- ./inp_files/17095.got.cif
#   From: 2010.03.12/outbox.cif.g09.slc.cpg/sg62_9_cif.got.tgz:17095.got - 2010.04.10 19:12:36.
