data_PCOD8250350
_publ_section_title
;
Structure prediction by ZEFSAII (Michael W. Deem and Ramdas Pophale) SiO2 
 PCOD8250350
Probable space group: P N M A
;
_chemical_formula_sum "Si O2"
_cell_formula_units_Z 64
_cell_length_a 14.832859
_cell_length_b 13.951357
_cell_length_c 18.070988
_cell_angle_alpha 90.000000
_cell_angle_beta 90.000000
_cell_angle_gamma 90.000000
_cell_volume 3739.583353
_symmetry_space_group_name_H-M "P N M A"
_symmetry_group_IT_number 62
_symmetry_cell_setting 'orthorhombic'
loop_
_space_group_symop_operation_xyz
x,y,z
1/2-x,-y,1/2+z
1/2+x,1/2-y,1/2-z
-x,1/2+y,-z
-x,-y,-z
1/2+x,y,1/2-z
1/2-x,1/2+y,1/2+z
x,1/2-y,z
loop_
_atom_site_type_symbol
_atom_site_label
_atom_site_fract_x
_atom_site_fract_y
_atom_site_fract_z
Si Si1 0.980866 0.142742 0.805374
Si Si2 0.736733 0.639858 0.556885
Si Si3 0.644772 0.136900 0.607349
Si Si4 0.188800 0.957078 0.163206
Si Si5 0.295154 0.483242 0.830653
Si Si6 0.393731 0.502289 0.514963
Si Si7 0.151919 0.141567 0.585165
Si Si8 0.037044 0.863094 0.358272
O O1 0.013634 0.250000 0.809484
O O2 0.049242 0.093481 0.862911
O O3 0.876160 0.135317 0.827901
O O4 0.997896 0.106676 0.722735
O O5 0.716793 0.750000 0.579149
O O6 0.765429 0.581411 0.629853
O O7 0.647833 0.597169 0.516994
O O8 0.819549 0.633111 0.499829
O O9 0.653597 0.250000 0.599085
O O10 0.719110 0.098358 0.664427
O O11 0.655332 0.090374 0.526520
O O12 0.190593 0.008993 0.243539
O O13 0.135975 0.019331 0.100656
O O14 0.288245 0.927263 0.137333
O O15 0.380097 0.434985 0.873669
O O16 0.500000 0.500000 0.500000
O O17 0.163816 0.250000 0.614901
O O18 0.046305 0.113097 0.587549
O O19 0.066015 0.750000 0.362537
#
# Coordination Sequence:
#
# PCOD8250350 Si02
#       8
#     8   8   8   8   8   8   8   8
#     4   9  16  25  42  69 100 131 159 196 256 315
#     4   9  20  36  53  72  97 136 180 215 250 298
#     4  10  19  31  48  73 106 137 165 206 262 317
#     4  10  18  30  48  73 102 135 165 213 253 308
#     4  10  20  32  49  73 100 137 169 210 257 308
#     4  10  19  33  52  78 106 132 171 213 261 316
#     4   9  17  30  49  72  98 128 168 212 258 305
#     4   9  17  28  44  72 102 128 162 206 257 309
#
# _framework density 17.114205999999999
#
# number of rings (size 3 to 8) (size 9 to 14) (size 15 to 20)
#    0.000    2.500    1.250    1.500    0.000    4.000 
#    0.000    0.625    0.000    0.000    0.000    0.000 
#    0.000    0.000    0.000    0.000    0.000    0.000 
#
# Total GULP energy -792908.991491 kJ/mol
# GULP energy per Si atom -12389.202992 kJ/mol
# Density = 1.707525 g / cm^3
# Si number density = 17.114206 Si / 1000 Ang^3
#
#
#
# Elastic Constant Matrix: (Units=GPa)
#
#
# Indices 1 2 3 4 5 6 
#
# 1 87.2751 30.8955 32.4854 0.0000 0.0000 0.0000
# 2 30.8955 81.9579 36.8375 0.0000 0.0000 0.0000
# 3 32.4854 36.8375 91.6910 0.0000 0.0000 0.0000
# 4 0.0000 0.0000 0.0000 20.0418 0.0000 0.0000
# 5 0.0000 0.0000 0.0000 0.0000 24.5657 0.0000
# 6 0.0000 0.0000 0.0000 0.0000 0.0000 20.0201
#
#
#
# Elastic Compliance Matrix: (Units=1/GPa)
#
#
# Indices 1 2 3 4 5 6 
#
# 1 0.014080 -0.003741 -0.003485 0.000000 0.000000 0.000000
# 2 -0.003741 0.015884 -0.005056 0.000000 0.000000 0.000000
# 3 -0.003485 -0.005056 0.014172 0.000000 0.000000 0.000000
# 4 0.000000 0.000000 0.000000 0.049896 0.000000 0.000000
# 5 0.000000 0.000000 0.000000 0.000000 0.040707 0.000000
# 6 0.000000 0.000000 0.000000 0.000000 0.000000 0.049950
#
#
# Mechanical properties :
#
#
# Convention : Reuss Voigt Hill
#
# Bulk Modulus (GPa) = 51.09555 51.26232 51.17894
# Shear Modulus (GPa) = 23.17200 23.63924 23.40562
#
# Velocity S-wave (km/s) = 3.68362 3.72057 3.70214
# Velocity P-wave (km/s) = 6.92910 6.96240 6.94577
#
# Compressibility (1/GPa) = 0.01957118
#
# Stress axis : x y z
#
# Youngs Moduli (GPa) = 71.02448 62.95557 70.55985
#
# Poissons Ratio (x) = 0.23552 0.24592
# Poissons Ratio (y) = 0.26570 0.35676
# Poissons Ratio (z) = 0.24754 0.31831
#
# Static dielectric constant tensor:
#      x y z
#    x 3.475550 0.000000 0.000000 
#    y 0.000000 2.940630 0.000000 
#    z 0.000000 0.000000 3.266550 
# 
# 
# High freq. dielectric constant tensor:
#      x y z
#    x 1.670940 0.000000 0.000000 
#    y 0.000000 1.623320 0.000000 
#    z 0.000000 0.000000 1.658920 
# 
# From -- ./inp_files/24109.got.cif
#   From: 2010.03.12/outbox.cif.g09.slc.cpg/sg62_13_cif.got.tgz:24109.got - 2010.04.10 19:12:36.
