data_PCOD8250456
_publ_section_title
;
Structure prediction by ZEFSAII (Michael W. Deem and Ramdas Pophale) SiO2 
 PCOD8250456
Probable space group: P N M A
;
_chemical_formula_sum "Si O2"
_cell_formula_units_Z 56
_cell_length_a 13.202300
_cell_length_b 13.488034
_cell_length_c 17.139279
_cell_angle_alpha 90.000000
_cell_angle_beta 90.000000
_cell_angle_gamma 90.000000
_cell_volume 3052.044051
_symmetry_space_group_name_H-M "P N M A"
_symmetry_group_IT_number 62
_symmetry_cell_setting 'orthorhombic'
loop_
_space_group_symop_operation_xyz
x,y,z
1/2-x,-y,1/2+z
1/2+x,1/2-y,1/2-z
-x,1/2+y,-z
-x,-y,-z
1/2+x,y,1/2-z
1/2-x,1/2+y,1/2+z
x,1/2-y,z
loop_
_atom_site_type_symbol
_atom_site_label
_atom_site_fract_x
_atom_site_fract_y
_atom_site_fract_z
Si Si1 0.347806 0.008281 0.772289
Si Si2 0.683736 0.858146 0.705676
Si Si3 0.516460 0.637243 0.826433
Si Si4 0.885859 0.506925 0.898061
Si Si5 0.303177 0.137332 0.067736
Si Si6 0.390147 0.043761 0.436045
Si Si7 0.755852 0.863892 0.102851
O O1 0.252413 0.939248 0.752428
O O2 0.425677 0.941229 0.821775
O O3 0.389163 0.045637 0.687517
O O4 0.313122 0.101782 0.824060
O O5 0.732441 0.750000 0.717531
O O6 0.572668 0.864067 0.743272
O O7 0.675265 0.878231 0.613066
O O8 0.477665 0.750000 0.844193
O O9 0.592863 0.597685 0.893749
O O10 0.795977 0.585716 0.898007
O O11 0.992376 0.559993 0.915890
O O12 0.868615 0.433310 0.972221
O O13 0.291156 0.250000 0.095441
O O14 0.313055 0.127013 0.974545
O O15 0.355364 0.932163 0.410008
O O16 0.790449 0.750000 0.116732
#
# Coordination Sequence:
#
# PCOD8250456 Si02
#       7
#     8   8   8   8   8   8   8
#     4  11  20  32  54  78 107 135 170 219 262 306
#     4  10  19  32  50  76 107 135 164 205 264 319
#     4  10  19  30  50  81 108 133 165 208 261 317
#     4  10  18  31  51  77 105 135 172 210 263 308
#     4   9  18  33  53  76 104 139 179 213 252 313
#     4   9  19  34  52  76 105 137 170 215 257 312
#     4   9  20  38  55  71  98 142 187 220 252 297
#
# _framework density 18.348358999999999
#
# number of rings (size 3 to 8) (size 9 to 14) (size 15 to 20)
#    0.000    2.286    2.857    0.429    0.000    1.714 
#    0.000    3.571    0.000    0.000    0.000    0.000 
#    0.000    0.000    0.000    0.000    0.000    0.000 
#
# Total GULP energy -693883.922391 kJ/mol
# GULP energy per Si atom -12390.784328 kJ/mol
# Density = 1.830660 g / cm^3
# Si number density = 18.348359 Si / 1000 Ang^3
#
#
#
# Elastic Constant Matrix: (Units=GPa)
#
#
# Indices 1 2 3 4 5 6 
#
# 1 55.4835 13.2493 17.8825 0.0000 0.0000 0.0000
# 2 13.2493 59.2739 19.7560 0.0000 0.0000 0.0000
# 3 17.8825 19.7560 122.3600 0.0000 0.0000 0.0000
# 4 0.0000 0.0000 0.0000 12.1077 0.0000 0.0000
# 5 0.0000 0.0000 0.0000 0.0000 29.4183 0.0000
# 6 0.0000 0.0000 0.0000 0.0000 0.0000 19.2217
#
#
#
# Elastic Compliance Matrix: (Units=1/GPa)
#
#
# Indices 1 2 3 4 5 6 
#
# 1 0.019625 -0.003626 -0.002283 0.000000 0.000000 0.000000
# 2 -0.003626 0.018500 -0.002457 0.000000 0.000000 0.000000
# 3 -0.002283 -0.002457 0.008903 0.000000 0.000000 0.000000
# 4 0.000000 0.000000 0.000000 0.082592 0.000000 0.000000
# 5 0.000000 0.000000 0.000000 0.000000 0.033992 0.000000
# 6 0.000000 0.000000 0.000000 0.000000 0.000000 0.052024
#
#
# Mechanical properties :
#
#
# Convention : Reuss Voigt Hill
#
# Bulk Modulus (GPa) = 33.00681 37.65480 35.33080
# Shear Modulus (GPa) = 20.62133 24.56486 22.59309
#
# Velocity S-wave (km/s) = 3.35607 3.66294 3.51285
# Velocity P-wave (km/s) = 5.74853 6.20131 5.97921
#
# Compressibility (1/GPa) = 0.03029678
#
# Stress axis : x y z
#
# Youngs Moduli (GPa) = 50.95551 54.05327 112.32254
#
# Poissons Ratio (x) = 0.19599 0.25640
# Poissons Ratio (y) = 0.18476 0.27599
# Poissons Ratio (z) = 0.11632 0.13281
#
# Static dielectric constant tensor:
#      x y z
#    x 3.274040 0.000000 0.000000 
#    y 0.000000 3.107640 0.000000 
#    z 0.000000 0.000000 3.660580 
# 
# 
# High freq. dielectric constant tensor:
#      x y z
#    x 1.703720 0.000000 0.000000 
#    y 0.000000 1.672780 0.000000 
#    z 0.000000 0.000000 1.728440 
# 
# From -- ./inp_files/24082.got.cif
#   From: 2010.03.12/outbox.cif.g09.slc.cpg/sg62_13_cif.got.tgz:24082.got - 2010.04.10 19:12:36.
