data_PCOD8250851
_publ_section_title
;
Structure prediction by ZEFSAII (Michael W. Deem and Ramdas Pophale) SiO2 
 PCOD8250851
Probable space group: P N M A
;
_chemical_formula_sum "Si O2"
_cell_formula_units_Z 56
_cell_length_a 18.226860
_cell_length_b 8.880148
_cell_length_c 20.477127
_cell_angle_alpha 90.000000
_cell_angle_beta 90.000000
_cell_angle_gamma 90.000000
_cell_volume 3314.370735
_symmetry_space_group_name_H-M "P N M A"
_symmetry_group_IT_number 62
_symmetry_cell_setting 'orthorhombic'
loop_
_space_group_symop_operation_xyz
x,y,z
1/2-x,-y,1/2+z
1/2+x,1/2-y,1/2-z
-x,1/2+y,-z
-x,-y,-z
1/2+x,y,1/2-z
1/2-x,1/2+y,1/2+z
x,1/2-y,z
loop_
_atom_site_type_symbol
_atom_site_label
_atom_site_fract_x
_atom_site_fract_y
_atom_site_fract_z
Si Si1 0.927832 0.076304 0.259108
Si Si2 0.582069 0.926364 0.241908
Si Si3 0.921193 0.574553 0.000533
Si Si4 0.795870 0.923037 0.311744
Si Si5 0.785013 0.576625 0.696579
Si Si6 0.147962 0.580704 0.879573
Si Si7 0.152304 0.923301 0.119964
O O1 0.947762 0.250000 0.269777
O O2 0.893740 0.046615 0.187972
O O3 0.998874 0.974903 0.268033
O O4 0.868725 0.026133 0.314384
O O5 0.590298 0.750000 0.228441
O O6 0.607967 0.969852 0.314926
O O7 0.631303 0.018667 0.188678
O O8 0.934006 0.750000 0.997890
O O9 0.873978 0.526957 0.938465
O O10 0.877787 0.535467 0.066269
O O11 0.000000 0.500000 0.000000
O O12 0.820606 0.750000 0.307704
O O13 0.740223 0.949419 0.372341
O O14 0.749299 0.962796 0.248269
O O15 0.782766 0.750000 0.721389
O O16 0.736074 0.563142 0.630842
O O17 0.129641 0.750000 0.903149
O O18 0.135693 0.750000 0.102929
#
# Coordination Sequence:
#
# PCOD8250851 Si02
#       7
#     8   8   8   8   8   8   8
#     4  10  19  30  47  71  97 125 155 192 235 278
#     4  10  19  30  47  71  97 125 155 192 235 278
#     4  12  24  34  48  68  93 126 161 196 230 268
#     4   9  17  30  48  68  91 121 154 191 234 279
#     4   9  17  30  48  68  91 121 154 191 234 279
#     4   9  19  34  49  66  92 125 159 193 230 273
#     4   9  19  34  49  66  92 125 159 193 230 273
#
# _framework density 16.896117
#
# number of rings (size 3 to 8) (size 9 to 14) (size 15 to 20)
#    0.000    2.286    0.000    5.571    0.000    9.143 
#    0.000    0.000    0.000    0.000    0.000    1.000 
#    0.000    0.000    0.000    0.000    0.000    0.000 
#
# Total GULP energy -694191.407189 kJ/mol
# GULP energy per Si atom -12396.275128 kJ/mol
# Density = 1.685766 g / cm^3
# Si number density = 16.896117 Si / 1000 Ang^3
#
#
#
# Elastic Constant Matrix: (Units=GPa)
#
#
# Indices 1 2 3 4 5 6 
#
# 1 114.3981 44.0511 41.2972 0.0000 0.0000 0.0000
# 2 44.0511 96.7763 42.3557 0.0000 0.0000 0.0000
# 3 41.2972 42.3557 51.7575 0.0000 0.0000 0.0000
# 4 0.0000 0.0000 0.0000 23.7196 0.0000 0.0000
# 5 0.0000 0.0000 0.0000 0.0000 21.5261 0.0000
# 6 0.0000 0.0000 0.0000 0.0000 0.0000 34.3000
#
#
#
# Elastic Compliance Matrix: (Units=1/GPa)
#
#
# Indices 1 2 3 4 5 6 
#
# 1 0.012539 -0.002070 -0.008310 0.000000 0.000000 0.000000
# 2 -0.002070 0.016441 -0.011803 0.000000 0.000000 0.000000
# 3 -0.008310 -0.011803 0.035610 0.000000 0.000000 0.000000
# 4 0.000000 0.000000 0.000000 0.042159 0.000000 0.000000
# 5 0.000000 0.000000 0.000000 0.000000 0.046455 0.000000
# 6 0.000000 0.000000 0.000000 0.000000 0.000000 0.029155
#
#
# Mechanical properties :
#
#
# Convention : Reuss Voigt Hill
#
# Bulk Modulus (GPa) = 49.44738 57.59331 53.52035
# Shear Modulus (GPa) = 21.41633 24.92434 23.17034
#
# Velocity S-wave (km/s) = 3.56410 3.84494 3.70718
# Velocity P-wave (km/s) = 6.80192 7.33976 7.07595
#
# Compressibility (1/GPa) = 0.02022352
#
# Stress axis : x y z
#
# Youngs Moduli (GPa) = 79.75398 60.82323 28.08172
#
# Poissons Ratio (x) = 0.12592 0.23337
# Poissons Ratio (y) = 0.16511 0.33144
# Poissons Ratio (z) = 0.66278 0.71788
#
# Static dielectric constant tensor:
#      x y z
#    x 3.475290 0.000000 0.000000 
#    y 0.000000 3.243570 0.000000 
#    z 0.000000 0.000000 2.872150 
# 
# 
# High freq. dielectric constant tensor:
#      x y z
#    x 1.661060 0.000000 0.000000 
#    y 0.000000 1.666290 0.000000 
#    z 0.000000 0.000000 1.599740 
# 
# From -- ./inp_files/27557.got.cif
#   From: 2010.03.12/outbox.cif.g09.slc.cpg/sg62_14_cif.got.tgz:27557.got - 2010.04.10 19:12:36.
