data_PCOD8250437
_publ_section_title
;
Structure prediction by ZEFSAII (Michael W. Deem and Ramdas Pophale) SiO2 
 PCOD8250437
Probable space group: P N M A
;
_chemical_formula_sum "Si O2"
_cell_formula_units_Z 64
_cell_length_a 20.089232
_cell_length_b 9.047120
_cell_length_c 20.093374
_cell_angle_alpha 90.000000
_cell_angle_beta 90.000000
_cell_angle_gamma 90.000000
_cell_volume 3651.964548
_symmetry_space_group_name_H-M "P N M A"
_symmetry_group_IT_number 62
_symmetry_cell_setting 'orthorhombic'
loop_
_space_group_symop_operation_xyz
x,y,z
1/2-x,-y,1/2+z
1/2+x,1/2-y,1/2-z
-x,1/2+y,-z
-x,-y,-z
1/2+x,y,1/2-z
1/2-x,1/2+y,1/2+z
x,1/2-y,z
loop_
_atom_site_type_symbol
_atom_site_label
_atom_site_fract_x
_atom_site_fract_y
_atom_site_fract_z
Si Si1 0.087041 0.578713 0.559414
Si Si2 0.085274 0.419468 0.953229
Si Si3 0.277215 0.574487 0.070745
Si Si4 0.456262 0.420631 0.910861
Si Si5 0.267355 0.578001 0.436266
Si Si6 0.830379 0.074550 0.821567
Si Si7 0.667427 0.574967 0.173964
Si Si8 0.444793 0.423279 0.587143
O O1 0.096377 0.750000 0.576240
O O2 0.150070 0.489220 0.586457
O O3 0.080672 0.550593 0.480683
O O4 0.021559 0.520222 0.596968
O O5 0.076369 0.250000 0.975092
O O6 0.155245 0.443622 0.915752
O O7 0.023176 0.465464 0.905307
O O8 0.085284 0.514650 0.019445
O O9 0.280910 0.750000 0.064831
O O10 0.230019 0.523013 0.131420
O O11 0.248336 0.510665 0.002696
O O12 0.477629 0.250000 0.905033
O O13 0.405492 0.468850 0.853018
O O14 0.250179 0.750000 0.449636
O O15 0.224242 0.512729 0.375377
O O16 0.831291 0.250000 0.816124
O O17 0.822406 0.006356 0.747539
O O18 0.900925 0.015882 0.851391
O O19 0.674362 0.750000 0.176081
O O20 0.434068 0.250000 0.582867
#
# Coordination Sequence:
#
# PCOD8250437 Si02
#       8
#     8   8   8   8   8   8   8   8
#     4  10  19  32  51  76 103 130 163 209 256 294
#     4   9  17  27  46  72  97 123 159 202 245 295
#     4  11  20  31  50  77 104 133 171 211 254 301
#     4   9  17  31  51  75  99 129 167 208 252 300
#     4  10  18  31  50  74 100 130 168 209 255 301
#     4   9  18  31  49  73 103 135 167 210 255 297
#     4   9  17  32  51  72 102 134 168 208 253 302
#     4   9  16  29  46  70  98 125 160 201 249 295
#
# _framework density 17.524815
#
# number of rings (size 3 to 8) (size 9 to 14) (size 15 to 20)
#    0.000    2.500    2.500    0.750    0.000    0.500 
#    0.000    1.250    0.000   10.500    0.000    3.500 
#    0.000    0.000    0.000    0.000    0.000    0.000 
#
# Total GULP energy -793371.701285 kJ/mol
# GULP energy per Si atom -12396.432833 kJ/mol
# Density = 1.748493 g / cm^3
# Si number density = 17.524815 Si / 1000 Ang^3
#
#
#
# Elastic Constant Matrix: (Units=GPa)
#
#
# Indices 1 2 3 4 5 6 
#
# 1 143.2369 38.5338 79.8067 0.0000 0.0000 0.0000
# 2 38.5338 41.5859 28.6589 0.0000 0.0000 0.0000
# 3 79.8067 28.6589 128.6331 0.0000 0.0000 0.0000
# 4 0.0000 0.0000 0.0000 16.2070 0.0000 0.0000
# 5 0.0000 0.0000 0.0000 0.0000 26.8769 0.0000
# 6 0.0000 0.0000 0.0000 0.0000 0.0000 24.0955
#
#
#
# Elastic Compliance Matrix: (Units=1/GPa)
#
#
# Indices 1 2 3 4 5 6 
#
# 1 0.012272 -0.007235 -0.006002 0.000000 0.000000 0.000000
# 2 -0.007235 0.032674 -0.002791 0.000000 0.000000 0.000000
# 3 -0.006002 -0.002791 0.012119 0.000000 0.000000 0.000000
# 4 0.000000 0.000000 0.000000 0.061702 0.000000 0.000000
# 5 0.000000 0.000000 0.000000 0.000000 0.037207 0.000000
# 6 0.000000 0.000000 0.000000 0.000000 0.000000 0.041502
#
#
# Mechanical properties :
#
#
# Convention : Reuss Voigt Hill
#
# Bulk Modulus (GPa) = 39.98411 67.49496 53.73953
# Shear Modulus (GPa) = 21.02015 24.53297 22.77656
#
# Velocity S-wave (km/s) = 3.46707 3.74558 3.60901
# Velocity P-wave (km/s) = 6.23640 7.56990 6.93527
#
# Compressibility (1/GPa) = 0.02500993
#
# Stress axis : x y z
#
# Youngs Moduli (GPa) = 81.48776 30.60545 82.51197
#
# Poissons Ratio (x) = 0.22143 0.49522
# Poissons Ratio (y) = 0.58956 0.23028
# Poissons Ratio (z) = 0.48907 0.08542
#
# Static dielectric constant tensor:
#      x y z
#    x 3.593940 0.000000 0.000000 
#    y 0.000000 3.056320 0.000000 
#    z 0.000000 0.000000 3.290720 
# 
# 
# High freq. dielectric constant tensor:
#      x y z
#    x 1.696910 0.000000 0.000000 
#    y 0.000000 1.652760 0.000000 
#    z 0.000000 0.000000 1.648490 
# 
# From -- ./inp_files/27879.got.cif
#   From: 2010.03.12/outbox.cif.g09.slc.cpg/sg62_14_cif.got.tgz:27879.got - 2010.04.10 19:12:36.
