data_PCOD8250249
_publ_section_title
;
Structure prediction by ZEFSAII (Michael W. Deem and Ramdas Pophale) SiO2 
 PCOD8250249
Probable space group: P N M A
;
_chemical_formula_sum "Si O2"
_cell_formula_units_Z 56
_cell_length_a 29.448612
_cell_length_b 8.726756
_cell_length_c 13.803474
_cell_angle_alpha 90.000000
_cell_angle_beta 90.000000
_cell_angle_gamma 90.000000
_cell_volume 3547.366536
_symmetry_space_group_name_H-M "P N M A"
_symmetry_group_IT_number 62
_symmetry_cell_setting 'orthorhombic'
loop_
_space_group_symop_operation_xyz
x,y,z
1/2-x,-y,1/2+z
1/2+x,1/2-y,1/2-z
-x,1/2+y,-z
-x,-y,-z
1/2+x,y,1/2-z
1/2-x,1/2+y,1/2+z
x,1/2-y,z
loop_
_atom_site_type_symbol
_atom_site_label
_atom_site_fract_x
_atom_site_fract_y
_atom_site_fract_z
Si Si1 0.904997 0.570585 0.394267
Si Si2 0.682586 0.930478 0.205258
Si Si3 0.768638 0.070517 0.894561
Si Si4 0.995855 0.070084 0.605130
Si Si5 0.769991 0.431919 0.109476
Si Si6 0.905072 0.568543 0.614795
Si Si7 0.181323 0.067446 0.717351
O O1 0.896774 0.750000 0.403421
O O2 0.900611 0.506488 0.504180
O O3 0.866227 0.501609 0.324395
O O4 0.954636 0.536996 0.346556
O O5 0.685719 0.750000 0.186675
O O6 0.691519 0.970138 0.318482
O O7 0.720216 0.011478 0.139516
O O8 0.633298 0.993025 0.180188
O O9 0.762608 0.250000 0.905283
O O10 0.720857 0.006304 0.853894
O O11 0.779495 0.004215 0.000849
O O12 0.986039 0.250000 0.599569
O O13 0.953856 0.986465 0.658601
O O14 0.000000 0.000000 0.500000
O O15 0.771115 0.250000 0.115311
O O16 0.809943 0.499361 0.176234
O O17 0.901577 0.750000 0.621773
O O18 0.181505 0.250000 0.726328
#
# Coordination Sequence:
#
# PCOD8250249 Si02
#       7
#     8   8   8   8   8   8   8
#     4   8  15  27  44  62  87 119 145 166 205 258
#     4  10  19  31  45  63  84 113 147 176 207 254
#     4   8  16  29  44  59  84 117 143 167 209 259
#     4   9  16  27  42  63  88 117 147 176 210 255
#     4  10  18  30  45  63  86 113 142 177 214 251
#     4  10  18  29  44  64  88 116 144 177 216 255
#     4   9  16  29  45  62  83 113 146 173 202 248
#
# _framework density 15.786358999999999
#
# number of rings (size 3 to 8) (size 9 to 14) (size 15 to 20)
#    0.000    2.857    0.000    4.286    0.000    2.286 
#    0.000   14.286    0.000    0.000    0.000    1.000 
#    0.000    0.000    0.000    0.000    0.000    0.000 
#
# Total GULP energy -693949.220318 kJ/mol
# GULP energy per Si atom -12391.950363 kJ/mol
# Density = 1.575043 g / cm^3
# Si number density = 15.786359 Si / 1000 Ang^3
#
#
#
# Elastic Constant Matrix: (Units=GPa)
#
#
# Indices 1 2 3 4 5 6 
#
# 1 130.9986 21.8742 57.6065 0.0000 0.0000 0.0000
# 2 21.8742 37.7650 23.4269 0.0000 0.0000 0.0000
# 3 57.6065 23.4269 106.0424 0.0000 0.0000 0.0000
# 4 0.0000 0.0000 0.0000 19.2220 0.0000 0.0000
# 5 0.0000 0.0000 0.0000 0.0000 25.0053 0.0000
# 6 0.0000 0.0000 0.0000 0.0000 0.0000 24.1192
#
#
#
# Elastic Compliance Matrix: (Units=1/GPa)
#
#
# Indices 1 2 3 4 5 6 
#
# 1 0.010295 -0.002890 -0.004954 0.000000 0.000000 0.000000
# 2 -0.002890 0.031496 -0.005388 0.000000 0.000000 0.000000
# 3 -0.004954 -0.005388 0.013312 0.000000 0.000000 0.000000
# 4 0.000000 0.000000 0.000000 0.052024 0.000000 0.000000
# 5 0.000000 0.000000 0.000000 0.000000 0.039992 0.000000
# 6 0.000000 0.000000 0.000000 0.000000 0.000000 0.041461
#
#
# Mechanical properties :
#
#
# Convention : Reuss Voigt Hill
#
# Bulk Modulus (GPa) = 34.91836 53.40236 44.16036
# Shear Modulus (GPa) = 22.26290 25.12918 23.69604
#
# Velocity S-wave (km/s) = 3.75942 3.99410 3.87854
# Velocity P-wave (km/s) = 6.40403 7.42779 6.93483
#
# Compressibility (1/GPa) = 0.02863823
#
# Stress axis : x y z
#
# Youngs Moduli (GPa) = 97.13672 31.75028 75.12094
#
# Poissons Ratio (x) = 0.09175 0.37216
# Poissons Ratio (y) = 0.28069 0.40477
# Poissons Ratio (z) = 0.48123 0.17108
#
# Static dielectric constant tensor:
#      x y z
#    x 3.389050 0.000000 0.000000 
#    y 0.000000 2.918110 0.000000 
#    z 0.000000 0.000000 3.051470 
# 
# 
# High freq. dielectric constant tensor:
#      x y z
#    x 1.608140 0.000000 0.000000 
#    y 0.000000 1.597830 0.000000 
#    z 0.000000 0.000000 1.575030 
# 
# From -- ./inp_files/21173.got.cif
#   From: 2010.03.12/outbox.cif.g09.slc.cpg/sg62_11_cif.got.tgz:21173.got - 2010.04.10 19:12:36.
