data_PCOD8250930
_publ_section_title
;
Structure prediction by ZEFSAII (Michael W. Deem and Ramdas Pophale) SiO2 
 PCOD8250930
Probable space group: P N M A
;
_chemical_formula_sum "Si O2"
_cell_formula_units_Z 64
_cell_length_a 5.017099
_cell_length_b 24.334865
_cell_length_c 27.159452
_cell_angle_alpha 90.000000
_cell_angle_beta 90.000000
_cell_angle_gamma 90.000000
_cell_volume 3315.909088
_symmetry_space_group_name_H-M "P N M A"
_symmetry_group_IT_number 62
_symmetry_cell_setting 'orthorhombic'
loop_
_space_group_symop_operation_xyz
x,y,z
1/2-x,-y,1/2+z
1/2+x,1/2-y,1/2-z
-x,1/2+y,-z
-x,-y,-z
1/2+x,y,1/2-z
1/2-x,1/2+y,1/2+z
x,1/2-y,z
loop_
_atom_site_type_symbol
_atom_site_label
_atom_site_fract_x
_atom_site_fract_y
_atom_site_fract_z
Si Si1 0.479957 0.189472 0.931701
Si Si2 0.486477 0.568801 0.107469
Si Si3 0.038408 0.841796 0.013885
Si Si4 0.981399 0.404763 0.279497
Si Si5 0.992344 0.460293 0.952291
Si Si6 0.045264 0.972800 0.284397
Si Si7 0.152216 0.312012 0.086728
Si Si8 0.152027 0.312683 0.352957
O O1 0.503343 0.250000 0.904786
O O2 0.545238 0.135615 0.898384
O O3 0.182107 0.185756 0.951715
O O4 0.686070 0.191066 0.977941
O O5 0.726315 0.543757 0.075154
O O6 0.530504 0.562920 0.165993
O O7 0.236036 0.530734 0.089680
O O8 0.105150 0.903309 0.026797
O O9 0.938071 0.848474 0.958435
O O10 0.166675 0.400547 0.230845
O O11 0.040973 0.464012 0.303499
O O12 0.071105 0.353795 0.311123
O O13 0.000000 0.500000 0.000000
O O14 0.311488 0.959315 0.254117
O O15 0.112003 0.250000 0.068809
O O16 0.456727 0.324125 0.100866
O O17 0.957093 0.324162 0.132654
O O18 0.112087 0.250000 0.334348
#
# Coordination Sequence:
#
# PCOD8250930 Si02
#       8
#     8   8   8   8   8   8   8   8
#     4  10  19  33  53  77 105 137 175 211 250 308
#     4  10  21  36  56  81 109 143 179 221 272 317
#     4  10  20  32  50  75 103 141 177 208 247 293
#     4  10  21  36  53  72  92 120 162 206 253 309
#     4  10  21  35  52  80 114 145 180 216 259 320
#     4  10  21  38  59  80 102 132 174 221 265 315
#     4  10  19  31  46  67  97 129 164 202 241 288
#     4  10  21  33  47  70  96 125 163 207 254 300
#
# _framework density 19.300892000000001
#
# number of rings (size 3 to 8) (size 9 to 14) (size 15 to 20)
#    0.000    2.000    0.000    3.750    0.000    3.500 
#    0.000    0.000    0.000    0.750    0.000    0.000 
#    0.000    0.000    0.000    0.000    0.000    0.000 
#
# Total GULP energy -792935.970081 kJ/mol
# GULP energy per Si atom -12389.624533 kJ/mol
# Density = 1.925696 g / cm^3
# Si number density = 19.300892 Si / 1000 Ang^3
#
#
#
# Elastic Constant Matrix: (Units=GPa)
#
#
# Indices 1 2 3 4 5 6 
#
# 1 72.3173 19.8362 0.4211 0.0000 0.0000 0.0000
# 2 19.8362 86.1656 45.3280 0.0000 0.0000 0.0000
# 3 0.4211 45.3280 72.5770 0.0000 0.0000 0.0000
# 4 0.0000 0.0000 0.0000 10.5527 0.0000 0.0000
# 5 0.0000 0.0000 0.0000 0.0000 19.7188 0.0000
# 6 0.0000 0.0000 0.0000 0.0000 0.0000 17.6935
#
#
#
# Elastic Compliance Matrix: (Units=1/GPa)
#
#
# Indices 1 2 3 4 5 6 
#
# 1 0.015222 -0.005150 0.003128 0.000000 0.000000 0.000000
# 2 -0.005150 0.019027 -0.011853 0.000000 0.000000 0.000000
# 3 0.003128 -0.011853 0.021163 0.000000 0.000000 0.000000
# 4 0.000000 0.000000 0.000000 0.094763 0.000000 0.000000
# 5 0.000000 0.000000 0.000000 0.000000 0.050713 0.000000
# 6 0.000000 0.000000 0.000000 0.000000 0.000000 0.056518
#
#
# Mechanical properties :
#
#
# Convention : Reuss Voigt Hill
#
# Bulk Modulus (GPa) = 36.15057 40.24785 38.19921
# Shear Modulus (GPa) = 16.98506 20.62463 18.80484
#
# Velocity S-wave (km/s) = 2.96972 3.27247 3.12476
# Velocity P-wave (km/s) = 5.52537 5.93101 5.73178
#
# Compressibility (1/GPa) = 0.02766208
#
# Stress axis : x y z
#
# Youngs Moduli (GPa) = 65.69309 52.55815 47.25179
#
# Poissons Ratio (x) = 0.27067 -0.14780
# Poissons Ratio (y) = 0.33831 0.56008
# Poissons Ratio (z) = -0.20549 0.62298
#
# Static dielectric constant tensor:
#      x y z
#    x 3.971630 0.000000 0.000000 
#    y 0.000000 3.685260 0.000000 
#    z 0.000000 0.000000 3.283440 
# 
# 
# High freq. dielectric constant tensor:
#      x y z
#    x 1.777030 0.000000 0.000000 
#    y 0.000000 1.744960 0.000000 
#    z 0.000000 0.000000 1.721760 
# 
# From -- ./inp_files/28466.got.cif
#   From: 2010.03.12/outbox.cif.g09.slc.cpg/sg62_15_cif.got.tgz:28466.got - 2010.04.10 19:12:36.
