data_PCOD8250929
_publ_section_title
;
Structure prediction by ZEFSAII (Michael W. Deem and Ramdas Pophale) SiO2 
 PCOD8250929
Probable space group: P N M A
;
_chemical_formula_sum "Si O2"
_cell_formula_units_Z 56
_cell_length_a 21.123540
_cell_length_b 8.616179
_cell_length_c 18.546830
_cell_angle_alpha 90.000000
_cell_angle_beta 90.000000
_cell_angle_gamma 90.000000
_cell_volume 3375.600989
_symmetry_space_group_name_H-M "P N M A"
_symmetry_group_IT_number 62
_symmetry_cell_setting 'orthorhombic'
loop_
_space_group_symop_operation_xyz
x,y,z
1/2-x,-y,1/2+z
1/2+x,1/2-y,1/2-z
-x,1/2+y,-z
-x,-y,-z
1/2+x,y,1/2-z
1/2-x,1/2+y,1/2+z
x,1/2-y,z
loop_
_atom_site_type_symbol
_atom_site_label
_atom_site_fract_x
_atom_site_fract_y
_atom_site_fract_z
Si Si1 0.252270 0.065772 0.580762
Si Si2 0.620143 0.068286 0.153664
Si Si3 0.499037 0.567727 0.079346
Si Si4 0.305185 0.430989 0.280124
Si Si5 0.752116 0.569265 0.577267
Si Si6 0.818338 0.430081 0.782549
Si Si7 0.625635 0.433862 0.840250
O O1 0.250448 0.250000 0.578104
O O2 0.262583 0.992719 0.500775
O O3 0.310944 0.016720 0.633265
O O4 0.184492 0.008181 0.610911
O O5 0.608931 0.250000 0.143835
O O6 0.681863 0.006691 0.110537
O O7 0.560501 0.977387 0.123986
O O8 0.629532 0.029481 0.238834
O O9 0.494451 0.750000 0.071679
O O10 0.437875 0.504249 0.122042
O O11 0.500000 0.500000 0.000000
O O12 0.289484 0.250000 0.265518
O O13 0.306144 0.460723 0.366937
O O14 0.250851 0.542133 0.249921
O O15 0.369137 0.484207 0.239109
O O16 0.762202 0.750000 0.564623
O O17 0.836633 0.250000 0.775969
O O18 0.624366 0.250000 0.829552
#
# Coordination Sequence:
#
# PCOD8250929 Si02
#       7
#     8   8   8   8   8   8   8
#     4   8  13  24  43  64  86 113 144 177 216 264
#     4  10  19  31  46  64  91 124 154 186 223 266
#     4  11  22  34  48  67  91 121 156 189 223 265
#     4   9  16  26  43  65  88 115 148 187 227 267
#     4   8  14  25  42  65  90 115 143 178 224 270
#     4   9  16  27  44  64  87 117 151 185 223 269
#     4   9  18  31  45  61  87 123 154 180 216 267
#
# _framework density 16.589638000000001
#
# number of rings (size 3 to 8) (size 9 to 14) (size 15 to 20)
#    0.000    2.857    0.000    4.286    0.000    3.429 
#    0.000    0.000    0.000   16.286    0.000    1.000 
#    0.000    0.000    0.000    0.000    0.000    0.000 
#
# Total GULP energy -693797.177371 kJ/mol
# GULP energy per Si atom -12389.235310 kJ/mol
# Density = 1.655188 g / cm^3
# Si number density = 16.589638 Si / 1000 Ang^3
#
#
#
# Elastic Constant Matrix: (Units=GPa)
#
#
# Indices 1 2 3 4 5 6 
#
# 1 73.2766 11.3511 64.3994 0.0000 0.0000 0.0000
# 2 11.3511 24.3375 19.1306 0.0000 0.0000 0.0000
# 3 64.3994 19.1306 156.9316 0.0000 0.0000 0.0000
# 4 0.0000 0.0000 0.0000 22.7718 0.0000 0.0000
# 5 0.0000 0.0000 0.0000 0.0000 26.2347 0.0000
# 6 0.0000 0.0000 0.0000 0.0000 0.0000 19.9125
#
#
#
# Elastic Compliance Matrix: (Units=1/GPa)
#
#
# Indices 1 2 3 4 5 6 
#
# 1 0.021602 -0.003436 -0.008446 0.000000 0.000000 0.000000
# 2 -0.003436 0.045990 -0.004196 0.000000 0.000000 0.000000
# 3 -0.008446 -0.004196 0.010350 0.000000 0.000000 0.000000
# 4 0.000000 0.000000 0.000000 0.043914 0.000000 0.000000
# 5 0.000000 0.000000 0.000000 0.000000 0.038118 0.000000
# 6 0.000000 0.000000 0.000000 0.000000 0.000000 0.050220
#
#
# Mechanical properties :
#
#
# Convention : Reuss Voigt Hill
#
# Bulk Modulus (GPa) = 21.84128 49.36756 35.60442
# Shear Modulus (GPa) = 19.40910 24.42809 21.91860
#
# Velocity S-wave (km/s) = 3.42417 3.84147 3.63881
# Velocity P-wave (km/s) = 5.36912 7.03552 6.25803
#
# Compressibility (1/GPa) = 0.04578486
#
# Stress axis : x y z
#
# Youngs Moduli (GPa) = 46.29233 21.74380 96.62210
#
# Poissons Ratio (x) = 0.07472 0.81605
# Poissons Ratio (y) = 0.15908 0.40545
# Poissons Ratio (z) = 0.39097 0.09124
#
# Static dielectric constant tensor:
#      x y z
#    x 3.019920 0.000000 0.000000 
#    y 0.000000 2.945450 0.000000 
#    z 0.000000 0.000000 3.663520 
# 
# 
# High freq. dielectric constant tensor:
#      x y z
#    x 1.594670 0.000000 0.000000 
#    y 0.000000 1.625000 0.000000 
#    z 0.000000 0.000000 1.649400 
# 
# From -- ./inp_files/24589.got.cif
#   From: 2010.03.12/outbox.cif.g09.slc.cpg/sg62_13_cif.got.tgz:24589.got - 2010.04.10 19:12:36.
