data_PCOD8250181
_publ_section_title
;
Structure prediction by ZEFSAII (Michael W. Deem and Ramdas Pophale) SiO2 
 PCOD8250181
Probable space group: P N M A
;
_chemical_formula_sum "Si O2"
_cell_formula_units_Z 56
_cell_length_a 18.602996
_cell_length_b 8.632925
_cell_length_c 21.105113
_cell_angle_alpha 90.000000
_cell_angle_beta 90.000000
_cell_angle_gamma 90.000000
_cell_volume 3389.444620
_symmetry_space_group_name_H-M "P N M A"
_symmetry_group_IT_number 62
_symmetry_cell_setting 'orthorhombic'
loop_
_space_group_symop_operation_xyz
x,y,z
1/2-x,-y,1/2+z
1/2+x,1/2-y,1/2-z
-x,1/2+y,-z
-x,-y,-z
1/2+x,y,1/2-z
1/2-x,1/2+y,1/2+z
x,1/2-y,z
loop_
_atom_site_type_symbol
_atom_site_label
_atom_site_fract_x
_atom_site_fract_y
_atom_site_fract_z
Si Si1 0.079351 0.066295 0.999473
Si Si2 0.216061 0.570936 0.696630
Si Si3 0.426441 0.429871 0.250883
Si Si4 0.348168 0.929469 0.624790
Si Si5 0.215672 0.929510 0.316201
Si Si6 0.084850 0.434338 0.256395
Si Si7 0.153471 0.567214 0.877127
O O1 0.075356 0.250000 0.001692
O O2 0.121484 0.994595 0.060592
O O3 0.122055 0.015604 0.937979
O O4 0.000000 0.000000 0.000000
O O5 0.228207 0.750000 0.719410
O O6 0.130062 0.539169 0.692656
O O7 0.261176 0.542106 0.631838
O O8 0.248109 0.456320 0.748367
O O9 0.440466 0.250000 0.260818
O O10 0.504005 0.502974 0.234899
O O11 0.392271 0.492871 0.316377
O O12 0.365704 0.750000 0.619871
O O13 0.388223 0.993218 0.687411
O O14 0.213801 0.750000 0.333721
O O15 0.134170 0.994641 0.312315
O O16 0.263039 0.018168 0.369152
O O17 0.089206 0.250000 0.261976
O O18 0.147908 0.750000 0.885634
#
# Coordination Sequence:
#
# PCOD8250181 Si02
#       7
#     8   8   8   8   8   8   8
#     4  11  21  32  45  65  91 122 155 188 220 258
#     4   8  14  28  46  63  83 114 149 180 214 261
#     4   8  14  25  46  68  85 108 144 181 217 260
#     4   8  15  27  43  60  86 120 151 177 211 258
#     4  10  18  28  42  64  89 114 143 179 219 262
#     4   9  15  27  45  65  87 114 142 173 212 260
#     4  10  19  33  48  63  86 120 155 188 221 261
#
# _framework density 16.521881
#
# number of rings (size 3 to 8) (size 9 to 14) (size 15 to 20)
#    0.000    2.857    0.000    4.714    0.000    2.286 
#    0.000   12.143    0.000    0.000    0.000    1.000 
#    0.000    0.000    0.000    0.000    0.000    0.000 
#
# Total GULP energy -693744.099503 kJ/mol
# GULP energy per Si atom -12388.287491 kJ/mol
# Density = 1.648428 g / cm^3
# Si number density = 16.521881 Si / 1000 Ang^3
#
#
#
# Elastic Constant Matrix: (Units=GPa)
#
#
# Indices 1 2 3 4 5 6 
#
# 1 169.3842 23.5153 65.9366 0.0000 0.0000 0.0000
# 2 23.5153 42.9771 16.3263 0.0000 0.0000 0.0000
# 3 65.9366 16.3263 75.0780 0.0000 0.0000 0.0000
# 4 0.0000 0.0000 0.0000 17.8221 0.0000 0.0000
# 5 0.0000 0.0000 0.0000 0.0000 26.3211 0.0000
# 6 0.0000 0.0000 0.0000 0.0000 0.0000 17.3101
#
#
#
# Elastic Compliance Matrix: (Units=1/GPa)
#
#
# Indices 1 2 3 4 5 6 
#
# 1 0.009146 -0.002129 -0.007569 0.000000 0.000000 0.000000
# 2 -0.002129 0.025859 -0.003754 0.000000 0.000000 0.000000
# 3 -0.007569 -0.003754 0.020783 0.000000 0.000000 0.000000
# 4 0.000000 0.000000 0.000000 0.056110 0.000000 0.000000
# 5 0.000000 0.000000 0.000000 0.000000 0.037992 0.000000
# 6 0.000000 0.000000 0.000000 0.000000 0.000000 0.057770
#
#
# Mechanical properties :
#
#
# Convention : Reuss Voigt Hill
#
# Bulk Modulus (GPa) = 34.62038 55.44395 45.03216
# Shear Modulus (GPa) = 20.47570 24.40141 22.43855
#
# Velocity S-wave (km/s) = 3.52420 3.84723 3.68925
# Velocity P-wave (km/s) = 6.12860 7.30518 6.74260
#
# Compressibility (1/GPa) = 0.02888472
#
# Stress axis : x y z
#
# Youngs Moduli (GPa) = 109.33994 38.67132 48.11527
#
# Poissons Ratio (x) = 0.08232 0.36420
# Poissons Ratio (y) = 0.23276 0.18061
# Poissons Ratio (z) = 0.82763 0.14516
#
# Static dielectric constant tensor:
#      x y z
#    x 3.658300 0.000000 0.000000 
#    y 0.000000 2.859060 0.000000 
#    z 0.000000 0.000000 2.903870 
# 
# 
# High freq. dielectric constant tensor:
#      x y z
#    x 1.648980 0.000000 0.000000 
#    y 0.000000 1.614990 0.000000 
#    z 0.000000 0.000000 1.590970 
# 
# From -- ./inp_files/27534.got.cif
#   From: 2010.03.12/outbox.cif.g09.slc.cpg/sg62_14_cif.got.tgz:27534.got - 2010.04.10 19:12:36.
