data_PCOD8250243
_publ_section_title
;
Structure prediction by ZEFSAII (Michael W. Deem and Ramdas Pophale) SiO2 
 PCOD8250243
Probable space group: P N M A
;
_chemical_formula_sum "Si O2"
_cell_formula_units_Z 64
_cell_length_a 16.933584
_cell_length_b 9.561175
_cell_length_c 26.079687
_cell_angle_alpha 90.000000
_cell_angle_beta 90.000000
_cell_angle_gamma 90.000000
_cell_volume 4222.430681
_symmetry_space_group_name_H-M "P N M A"
_symmetry_group_IT_number 62
_symmetry_cell_setting 'orthorhombic'
loop_
_space_group_symop_operation_xyz
x,y,z
1/2-x,-y,1/2+z
1/2+x,1/2-y,1/2-z
-x,1/2+y,-z
-x,-y,-z
1/2+x,y,1/2-z
1/2-x,1/2+y,1/2+z
x,1/2-y,z
loop_
_atom_site_type_symbol
_atom_site_label
_atom_site_fract_x
_atom_site_fract_y
_atom_site_fract_z
Si Si1 0.377898 0.596087 0.366499
Si Si2 0.250292 0.904666 0.824399
Si Si3 0.362622 0.100568 0.776858
Si Si4 0.609231 0.089241 0.370640
Si Si5 0.995905 0.004964 0.215910
Si Si6 0.759034 0.406558 0.823278
Si Si7 0.647085 0.600900 0.776101
Si Si8 0.993240 0.084934 0.947929
O O1 0.339712 0.750000 0.364836
O O2 0.307442 0.484732 0.363597
O O3 0.440175 0.590929 0.319517
O O4 0.422764 0.571043 0.419763
O O5 0.266564 0.750000 0.846686
O O6 0.209285 0.896623 0.769811
O O7 0.334731 0.982637 0.817451
O O8 0.361426 0.250000 0.805627
O O9 0.449932 0.082711 0.754314
O O10 0.301127 0.107186 0.730768
O O11 0.623520 0.250000 0.388546
O O12 0.551839 0.097593 0.320980
O O13 0.691842 0.013082 0.358711
O O14 0.572971 0.993807 0.415079
O O15 0.940820 0.094702 0.253268
O O16 0.750216 0.250000 0.847542
O O17 0.671759 0.474803 0.814387
O O18 0.653254 0.750000 0.805361
O O19 0.971524 0.250000 0.955717
O O20 0.000000 0.000000 0.000000
#
# Coordination Sequence:
#
# PCOD8250243 Si02
#       8
#     8   8   8   8   8   8   8   8
#     4   9  17  29  43  57  76 102 133 165 198 237
#     4   9  17  26  37  53  73  99 131 165 199 234
#     4   9  16  25  37  52  73 101 134 168 200 233
#     4  10  18  29  44  59  78 105 135 167 203 241
#     4   9  17  25  39  58  78 104 138 172 202 233
#     4   9  17  27  38  53  73 100 133 167 199 234
#     4   9  16  25  36  52  74 100 132 167 200 233
#     4  10  20  32  46  64  83 103 129 163 201 241
#
# _framework density 15.157145999999999
#
# number of rings (size 3 to 8) (size 9 to 14) (size 15 to 20)
#    0.000    2.750    0.000    2.250    0.000   13.500 
#    0.000    0.000    0.000    0.000    0.000    0.000 
#    0.000    0.000    0.000    1.125    0.000   12.375 
#
# Total GULP energy -792873.154775 kJ/mol
# GULP energy per Si atom -12388.643043 kJ/mol
# Density = 1.512265 g / cm^3
# Si number density = 15.157146 Si / 1000 Ang^3
#
#
#
# Elastic Constant Matrix: (Units=GPa)
#
#
# Indices 1 2 3 4 5 6 
#
# 1 59.4516 38.5536 29.7369 0.0000 0.0000 0.0000
# 2 38.5536 149.8684 41.9443 0.0000 0.0000 0.0000
# 3 29.7369 41.9443 45.0927 0.0000 0.0000 0.0000
# 4 0.0000 0.0000 0.0000 19.1140 0.0000 0.0000
# 5 0.0000 0.0000 0.0000 0.0000 11.7030 0.0000
# 6 0.0000 0.0000 0.0000 0.0000 0.0000 14.3315
#
#
#
# Elastic Compliance Matrix: (Units=1/GPa)
#
#
# Indices 1 2 3 4 5 6 
#
# 1 0.025793 -0.002534 -0.014652 0.000000 0.000000 0.000000
# 2 -0.002534 0.009270 -0.006951 0.000000 0.000000 0.000000
# 3 -0.014652 -0.006951 0.038305 0.000000 0.000000 0.000000
# 4 0.000000 0.000000 0.000000 0.052318 0.000000 0.000000
# 5 0.000000 0.000000 0.000000 0.000000 0.085448 0.000000
# 6 0.000000 0.000000 0.000000 0.000000 0.000000 0.069776
#
#
# Mechanical properties :
#
#
# Convention : Reuss Voigt Hill
#
# Bulk Modulus (GPa) = 39.85289 52.76470 46.30880
# Shear Modulus (GPa) = 14.81268 18.64157 16.72712
#
# Velocity S-wave (km/s) = 3.12953 3.51078 3.32562
# Velocity P-wave (km/s) = 6.27764 7.16390 6.73536
#
# Compressibility (1/GPa) = 0.02509228
#
# Stress axis : x y z
#
# Youngs Moduli (GPa) = 38.77090 107.87444 26.10640
#
# Poissons Ratio (x) = 0.27341 0.38250
# Poissons Ratio (y) = 0.09826 0.18148
# Poissons Ratio (z) = 0.56806 0.74988
#
# Static dielectric constant tensor:
#      x y z
#    x 2.887960 0.000000 0.000000 
#    y 0.000000 3.292140 0.000000 
#    z 0.000000 0.000000 2.496070 
# 
# 
# High freq. dielectric constant tensor:
#      x y z
#    x 1.563110 0.000000 0.000000 
#    y 0.000000 1.603890 0.000000 
#    z 0.000000 0.000000 1.513080 
# 
# From -- ./inp_files/31337.got.cif
#   From: 2010.03.12/outbox.cif.g09.slc.cpg/sg62_16_cif.got.tgz:31337.got - 2010.04.10 19:12:36.
