data_PCOD8250755
_publ_section_title
;
Structure prediction by ZEFSAII (Michael W. Deem and Ramdas Pophale) SiO2 
 PCOD8250755
Probable space group: P N M A
;
_chemical_formula_sum "Si O2"
_cell_formula_units_Z 64
_cell_length_a 18.200284
_cell_length_b 9.207168
_cell_length_c 25.616237
_cell_angle_alpha 90.000000
_cell_angle_beta 90.000000
_cell_angle_gamma 90.000000
_cell_volume 4292.591538
_symmetry_space_group_name_H-M "P N M A"
_symmetry_group_IT_number 62
_symmetry_cell_setting 'orthorhombic'
loop_
_space_group_symop_operation_xyz
x,y,z
1/2-x,-y,1/2+z
1/2+x,1/2-y,1/2-z
-x,1/2+y,-z
-x,-y,-z
1/2+x,y,1/2-z
1/2-x,1/2+y,1/2+z
x,1/2-y,z
loop_
_atom_site_type_symbol
_atom_site_label
_atom_site_fract_x
_atom_site_fract_y
_atom_site_fract_z
Si Si1 0.714843 0.089347 0.304138
Si Si2 0.693420 0.910401 0.698815
Si Si3 0.333582 0.920657 0.860345
Si Si4 0.077108 0.419936 0.258344
Si Si5 0.423941 0.081997 0.940908
Si Si6 0.425262 0.918350 0.247870
Si Si7 0.572220 0.918285 0.937541
Si Si8 0.165351 0.418878 0.643846
O O1 0.715554 0.250000 0.330067
O O2 0.758629 0.097037 0.250564
O O3 0.631760 0.042246 0.289816
O O4 0.752394 0.973942 0.342934
O O5 0.661488 0.750000 0.686774
O O6 0.748705 0.960019 0.652706
O O7 0.625980 0.020728 0.705554
O O8 0.341542 0.750000 0.872011
O O9 0.386796 0.967594 0.813015
O O10 0.354799 0.013725 0.910998
O O11 0.058993 0.250000 0.259211
O O12 0.003552 0.507628 0.249298
O O13 0.434135 0.250000 0.925937
O O14 0.496635 0.997423 0.922884
O O15 0.408794 0.061682 0.001935
O O16 0.435491 0.750000 0.258197
O O17 0.388984 0.950471 0.191919
O O18 0.564689 0.750000 0.921918
O O19 0.637857 0.991772 0.905835
O O20 0.169181 0.250000 0.629780
#
# Coordination Sequence:
#
# PCOD8250755 Si02
#       8
#     8   8   8   8   8   8   8   8
#     4   8  15  28  43  58  78 106 138 169 201 240
#     4   8  15  28  43  58  78 106 139 169 198 240
#     4   9  17  29  45  62  80 108 142 171 204 245
#     4   9  17  28  42  60  82 110 142 170 199 242
#     4  10  20  31  43  61  83 107 138 176 212 241
#     4  10  19  27  38  60  86 110 137 170 208 243
#     4  10  20  32  44  58  80 111 143 173 205 242
#     4  10  19  29  42  61  83 108 139 173 209 244
#
# _framework density 14.909409
#
# number of rings (size 3 to 8) (size 9 to 14) (size 15 to 20)
#    0.000    2.750    0.000    3.750    0.000    6.500 
#    0.000    2.500    0.000    0.000    0.000    0.000 
#    0.000    1.000    0.000    3.250    0.000    4.000 
#
# Total GULP energy -793493.283260 kJ/mol
# GULP energy per Si atom -12398.332551 kJ/mol
# Density = 1.487547 g / cm^3
# Si number density = 14.909409 Si / 1000 Ang^3
#
#
#
# Elastic Constant Matrix: (Units=GPa)
#
#
# Indices 1 2 3 4 5 6 
#
# 1 92.4386 57.9550 33.1097 0.0000 0.0000 0.0000
# 2 57.9550 95.7629 42.0766 0.0000 0.0000 0.0000
# 3 33.1097 42.0766 48.8752 0.0000 0.0000 0.0000
# 4 0.0000 0.0000 0.0000 23.0986 0.0000 0.0000
# 5 0.0000 0.0000 0.0000 0.0000 25.1486 0.0000
# 6 0.0000 0.0000 0.0000 0.0000 0.0000 24.9346
#
#
#
# Elastic Compliance Matrix: (Units=1/GPa)
#
#
# Indices 1 2 3 4 5 6 
#
# 1 0.018037 -0.008922 -0.004538 0.000000 0.000000 0.000000
# 2 -0.008922 0.021209 -0.012215 0.000000 0.000000 0.000000
# 3 -0.004538 -0.012215 0.034050 0.000000 0.000000 0.000000
# 4 0.000000 0.000000 0.000000 0.043293 0.000000 0.000000
# 5 0.000000 0.000000 0.000000 0.000000 0.039764 0.000000
# 6 0.000000 0.000000 0.000000 0.000000 0.000000 0.040105
#
#
# Mechanical properties :
#
#
# Convention : Reuss Voigt Hill
#
# Bulk Modulus (GPa) = 45.56484 55.92879 50.74682
# Shear Modulus (GPa) = 19.59845 21.56538 20.58191
#
# Velocity S-wave (km/s) = 3.62954 3.80732 3.71949
# Velocity P-wave (km/s) = 6.94206 7.54463 7.24961
#
# Compressibility (1/GPa) = 0.02194675
#
# Stress axis : x y z
#
# Youngs Moduli (GPa) = 55.44115 47.15006 29.36856
#
# Poissons Ratio (x) = 0.42067 0.13328
# Poissons Ratio (y) = 0.49465 0.35873
# Poissons Ratio (z) = 0.25159 0.57592
#
# Static dielectric constant tensor:
#      x y z
#    x 2.889600 0.000000 0.000000 
#    y 0.000000 3.008440 0.000000 
#    z 0.000000 0.000000 2.677310 
# 
# 
# High freq. dielectric constant tensor:
#      x y z
#    x 1.559150 0.000000 0.000000 
#    y 0.000000 1.581010 0.000000 
#    z 0.000000 0.000000 1.534710 
# 
# From -- ./inp_files/30037.got.cif
#   From: 2010.03.12/outbox.cif.g09.slc.cpg/sg62_16_cif.got.tgz:30037.got - 2010.04.10 19:12:36.
