data_PCOD8250379
_publ_section_title
;
Structure prediction by ZEFSAII (Michael W. Deem and Ramdas Pophale) SiO2 
 PCOD8250379
Probable space group: P N M A
;
_chemical_formula_sum "Si O2"
_cell_formula_units_Z 56
_cell_length_a 18.889635
_cell_length_b 8.901029
_cell_length_c 18.114133
_cell_angle_alpha 90.000000
_cell_angle_beta 90.000000
_cell_angle_gamma 90.000000
_cell_volume 3045.659403
_symmetry_space_group_name_H-M "P N M A"
_symmetry_group_IT_number 62
_symmetry_cell_setting 'orthorhombic'
loop_
_space_group_symop_operation_xyz
x,y,z
1/2-x,-y,1/2+z
1/2+x,1/2-y,1/2-z
-x,1/2+y,-z
-x,-y,-z
1/2+x,y,1/2-z
1/2-x,1/2+y,1/2+z
x,1/2-y,z
loop_
_atom_site_type_symbol
_atom_site_label
_atom_site_fract_x
_atom_site_fract_y
_atom_site_fract_z
Si Si1 0.349896 0.580826 0.651723
Si Si2 0.784736 0.426876 0.064864
Si Si3 0.425000 0.427449 0.519362
Si Si4 0.815947 0.574685 0.689230
Si Si5 0.073271 0.920399 0.408951
Si Si6 0.707933 0.582910 0.935638
Si Si7 0.421273 0.920876 0.062203
O O1 0.381991 0.750000 0.657726
O O2 0.401947 0.481812 0.600959
O O3 0.334303 0.501433 0.731098
O O4 0.273717 0.588031 0.616861
O O5 0.775559 0.250000 0.051225
O O6 0.759352 0.470255 0.148953
O O7 0.865508 0.473879 0.042743
O O8 0.728348 0.512099 0.014325
O O9 0.500000 0.500000 0.500000
O O10 0.434606 0.250000 0.521485
O O11 0.813555 0.750000 0.704045
O O12 0.881596 0.535827 0.637757
O O13 0.100106 0.750000 0.396693
O O14 0.990296 0.935638 0.385863
O O15 0.076170 0.962645 0.494511
O O16 0.678589 0.750000 0.949616
O O17 0.648817 0.478400 0.895064
O O18 0.412874 0.750000 0.034288
#
# Coordination Sequence:
#
# PCOD8250379 Si02
#       7
#     8   8   8   8   8   8   8
#     4   9  20  36  54  78 107 138 174 218 270 323
#     4   9  18  32  53  78 102 134 175 218 269 319
#     4  10  20  36  58  82 108 141 184 231 275 323
#     4  10  19  34  54  76 105 139 173 216 270 325
#     4  10  20  31  47  73 103 136 173 211 253 304
#     4  10  18  30  50  75 102 132 173 216 253 304
#     4  10  19  31  47  70 102 135 170 210 254 304
#
# _framework density 18.386823
#
# number of rings (size 3 to 8) (size 9 to 14) (size 15 to 20)
#    0.000    2.286    1.429    1.714    0.000    3.429 
#    0.000    1.429    0.000    3.429    0.000    0.000 
#    0.000    0.000    0.000    0.000    0.000    0.000 
#
# Total GULP energy -693734.062864 kJ/mol
# GULP energy per Si atom -12388.108265 kJ/mol
# Density = 1.834497 g / cm^3
# Si number density = 18.386823 Si / 1000 Ang^3
#
#
#
# Elastic Constant Matrix: (Units=GPa)
#
#
# Indices 1 2 3 4 5 6 
#
# 1 112.8956 39.5893 43.8154 0.0000 0.0000 0.0000
# 2 39.5893 49.3599 17.4683 0.0000 0.0000 0.0000
# 3 43.8154 17.4683 103.7092 0.0000 0.0000 0.0000
# 4 0.0000 0.0000 0.0000 18.9632 0.0000 0.0000
# 5 0.0000 0.0000 0.0000 0.0000 15.7120 0.0000
# 6 0.0000 0.0000 0.0000 0.0000 0.0000 31.8628
#
#
#
# Elastic Compliance Matrix: (Units=1/GPa)
#
#
# Indices 1 2 3 4 5 6 
#
# 1 0.013882 -0.009633 -0.004242 0.000000 0.000000 0.000000
# 2 -0.009633 0.028228 -0.000685 0.000000 0.000000 0.000000
# 3 -0.004242 -0.000685 0.011550 0.000000 0.000000 0.000000
# 4 0.000000 0.000000 0.000000 0.052734 0.000000 0.000000
# 5 0.000000 0.000000 0.000000 0.000000 0.063646 0.000000
# 6 0.000000 0.000000 0.000000 0.000000 0.000000 0.031385
#
#
# Mechanical properties :
#
#
# Convention : Reuss Voigt Hill
#
# Bulk Modulus (GPa) = 40.75028 51.96785 46.35906
# Shear Modulus (GPa) = 20.94466 24.31371 22.62919
#
# Velocity S-wave (km/s) = 3.37874 3.64035 3.51198
# Velocity P-wave (km/s) = 6.11817 6.78193 6.45858
#
# Compressibility (1/GPa) = 0.02453971
#
# Stress axis : x y z
#
# Youngs Moduli (GPa) = 72.03429 35.42598 86.57946
#
# Poissons Ratio (x) = 0.34126 0.36731
# Poissons Ratio (y) = 0.69390 0.05929
# Poissons Ratio (z) = 0.30561 0.02426
#
# Static dielectric constant tensor:
#      x y z
#    x 3.772120 0.000000 0.000000 
#    y 0.000000 3.558720 0.000000 
#    z 0.000000 0.000000 3.362530 
# 
# 
# High freq. dielectric constant tensor:
#      x y z
#    x 1.721220 0.000000 0.000000 
#    y 0.000000 1.716500 0.000000 
#    z 0.000000 0.000000 1.678360 
# 
# From -- ./inp_files/24556.got.cif
#   From: 2010.03.12/outbox.cif.g09.slc.cpg/sg62_13_cif.got.tgz:24556.got - 2010.04.10 19:12:36.
