data_PCOD8250217
_publ_section_title
;
Structure prediction by ZEFSAII (Michael W. Deem and Ramdas Pophale) SiO2 
 PCOD8250217
Probable space group: P N M A
;
_chemical_formula_sum "Si O2"
_cell_formula_units_Z 64
_cell_length_a 27.967576
_cell_length_b 9.028269
_cell_length_c 14.683319
_cell_angle_alpha 90.000000
_cell_angle_beta 90.000000
_cell_angle_gamma 90.000000
_cell_volume 3707.520419
_symmetry_space_group_name_H-M "P N M A"
_symmetry_group_IT_number 62
_symmetry_cell_setting 'orthorhombic'
loop_
_space_group_symop_operation_xyz
x,y,z
1/2-x,-y,1/2+z
1/2+x,1/2-y,1/2-z
-x,1/2+y,-z
-x,-y,-z
1/2+x,y,1/2-z
1/2-x,1/2+y,1/2+z
x,1/2-y,z
loop_
_atom_site_type_symbol
_atom_site_label
_atom_site_fract_x
_atom_site_fract_y
_atom_site_fract_z
Si Si1 0.635759 0.925047 0.778137
Si Si2 0.675770 0.925900 0.594150
Si Si3 0.216039 0.418350 0.398079
Si Si4 0.946632 0.076734 0.407595
Si Si5 0.865447 0.075321 0.709691
Si Si6 0.322644 0.425490 0.604445
Si Si7 0.443891 0.576454 0.905532
Si Si8 0.784171 0.918203 0.390555
O O1 0.638108 0.750000 0.777379
O O2 0.640438 0.985123 0.673879
O O3 0.585780 0.977604 0.822783
O O4 0.680058 0.978945 0.836486
O O5 0.674855 0.750000 0.589846
O O6 0.729900 0.975320 0.617399
O O7 0.659980 0.988362 0.494418
O O8 0.209365 0.250000 0.362499
O O9 0.181496 0.528151 0.344711
O O10 0.202388 0.426123 0.503673
O O11 0.940106 0.250000 0.427963
O O12 0.001151 0.038543 0.382811
O O13 0.929353 0.990316 0.497079
O O14 0.872301 0.250000 0.699194
O O15 0.858989 0.027750 0.815683
O O16 0.912601 0.994337 0.674130
O O17 0.318559 0.250000 0.597188
O O18 0.269121 0.482754 0.626123
O O19 0.433822 0.750000 0.908951
O O20 0.788759 0.750000 0.354919
#
# Coordination Sequence:
#
# PCOD8250217 Si02
#       8
#     8   8   8   8   8   8   8   8
#     4  10  18  28  47  71  90 112 147 190 228 262
#     4   8  15  29  47  66  90 120 153 186 221 265
#     4   9  17  29  45  66  93 124 153 180 218 270
#     4   9  19  34  50  71  95 116 145 185 227 272
#     4  11  20  29  46  69  91 118 154 192 223 257
#     4   8  16  30  45  63  90 123 155 184 215 257
#     4  10  20  34  50  67  92 123 148 178 226 278
#     4   9  17  29  44  64  93 125 151 176 214 266
#
# _framework density 17.262211000000001
#
# number of rings (size 3 to 8) (size 9 to 14) (size 15 to 20)
#    0.000    2.750    0.000    3.750    0.000    3.500 
#    0.000    0.625    0.000    4.500    0.000    0.000 
#    0.000    0.000    0.000    0.000    0.000    0.500 
#
# Total GULP energy -793320.445393 kJ/mol
# GULP energy per Si atom -12395.631959 kJ/mol
# Density = 1.722292 g / cm^3
# Si number density = 17.262211 Si / 1000 Ang^3
#
#
#
# Elastic Constant Matrix: (Units=GPa)
#
#
# Indices 1 2 3 4 5 6 
#
# 1 96.0002 28.4494 85.0255 0.0000 0.0000 0.0000
# 2 28.4494 28.8059 32.8056 0.0000 0.0000 0.0000
# 3 85.0255 32.8056 130.4173 0.0000 0.0000 0.0000
# 4 0.0000 0.0000 0.0000 17.4774 0.0000 0.0000
# 5 0.0000 0.0000 0.0000 0.0000 30.6871 0.0000
# 6 0.0000 0.0000 0.0000 0.0000 0.0000 22.9859
#
#
#
# Elastic Compliance Matrix: (Units=1/GPa)
#
#
# Indices 1 2 3 4 5 6 
#
# 1 0.026218 -0.009008 -0.014827 0.000000 0.000000 0.000000
# 2 -0.009008 0.051747 -0.007144 0.000000 0.000000 0.000000
# 3 -0.014827 -0.007144 0.019131 0.000000 0.000000 0.000000
# 4 0.000000 0.000000 0.000000 0.057217 0.000000 0.000000
# 5 0.000000 0.000000 0.000000 0.000000 0.032587 0.000000
# 6 0.000000 0.000000 0.000000 0.000000 0.000000 0.043505
#
#
# Mechanical properties :
#
#
# Convention : Reuss Voigt Hill
#
# Bulk Modulus (GPa) = 28.45852 60.86494 44.66173
# Shear Modulus (GPa) = 16.44324 21.49293 18.96809
#
# Velocity S-wave (km/s) = 3.08970 3.53241 3.31844
# Velocity P-wave (km/s) = 5.40834 7.20922 6.37271
#
# Compressibility (1/GPa) = 0.03513886
#
# Stress axis : x y z
#
# Youngs Moduli (GPa) = 38.14150 19.32464 52.27065
#
# Poissons Ratio (x) = 0.17408 0.77502
# Poissons Ratio (y) = 0.34358 0.37342
# Poissons Ratio (z) = 0.56553 0.13805
#
# Static dielectric constant tensor:
#      x y z
#    x 3.201090 0.000000 0.000000 
#    y 0.000000 3.000250 0.000000 
#    z 0.000000 0.000000 3.636210 
# 
# 
# High freq. dielectric constant tensor:
#      x y z
#    x 1.649590 0.000000 0.000000 
#    y 0.000000 1.644760 0.000000 
#    z 0.000000 0.000000 1.670230 
# 
# From -- ./inp_files/21241.got.cif
#   From: 2010.03.12/outbox.cif.g09.slc.cpg/sg62_11_cif.got.tgz:21241.got - 2010.04.10 19:12:36.
