data_PCOD8250742
_publ_section_title
;
Structure prediction by ZEFSAII (Michael W. Deem and Ramdas Pophale) SiO2 
 PCOD8250742
Probable space group: P N M A
;
_chemical_formula_sum "Si O2"
_cell_formula_units_Z 48
_cell_length_a 14.199632
_cell_length_b 16.916713
_cell_length_c 9.615423
_cell_angle_alpha 90.000000
_cell_angle_beta 90.000000
_cell_angle_gamma 90.000000
_cell_volume 2309.731329
_symmetry_space_group_name_H-M "P N M A"
_symmetry_group_IT_number 62
_symmetry_cell_setting 'orthorhombic'
loop_
_space_group_symop_operation_xyz
x,y,z
1/2-x,-y,1/2+z
1/2+x,1/2-y,1/2-z
-x,1/2+y,-z
-x,-y,-z
1/2+x,y,1/2-z
1/2-x,1/2+y,1/2+z
x,1/2-y,z
loop_
_atom_site_type_symbol
_atom_site_label
_atom_site_fract_x
_atom_site_fract_y
_atom_site_fract_z
Si Si1 0.407842 0.056212 0.501999
Si Si2 0.450298 0.841215 0.833046
Si Si3 0.842730 0.901314 0.919270
Si Si4 0.147781 0.591997 0.693929
Si Si5 0.076042 0.056099 0.570934
Si Si6 0.962849 0.842583 0.162740
O O1 0.362334 0.085991 0.359250
O O2 0.438266 0.133806 0.588173
O O3 0.500000 0.000000 0.500000
O O4 0.332826 0.997249 0.574941
O O5 0.425122 0.750000 0.838358
O O6 0.428150 0.876381 0.681967
O O7 0.560844 0.856325 0.864968
O O8 0.386312 0.885425 0.949668
O O9 0.744856 0.866606 0.857049
O O10 0.870500 0.864781 0.069674
O O11 0.153390 0.503059 0.632439
O O12 0.035972 0.110216 0.693634
O O13 0.000000 0.000000 0.500000
O O14 0.962944 0.750000 0.194151
#
# Coordination Sequence:
#
# PCOD8250742 Si02
#       6
#     8   8   8   8   8   8
#     4  10  18  40  64  93 118 166 225 271 318 384
#     4  11  23  40  61  94 133 166 207 269 336 389
#     4  11  23  38  67  96 126 172 228 267 318 397
#     4  11  22  39  66  92 126 169 220 269 320 385
#     4  10  21  39  64  92 120 167 215 264 317 386
#     4  11  21  40  67  94 129 170 214 272 334 392
#
# _framework density 20.781638000000001
#
# number of rings (size 3 to 8) (size 9 to 14) (size 15 to 20)
#    0.000    1.333    6.667    2.000    2.333    1.333 
#    0.000    0.000    0.000    2.000    0.000    0.000 
#    0.000    0.000    0.000    0.000    0.000    0.000 
#
# Total GULP energy -594728.725232 kJ/mol
# GULP energy per Si atom -12390.181776 kJ/mol
# Density = 2.073434 g / cm^3
# Si number density = 20.781638 Si / 1000 Ang^3
#
#
#
# Elastic Constant Matrix: (Units=GPa)
#
#
# Indices 1 2 3 4 5 6 
#
# 1 63.6379 11.2602 19.7627 0.0000 0.0000 0.0000
# 2 11.2602 121.5872 55.2497 0.0000 0.0000 0.0000
# 3 19.7627 55.2497 121.8915 0.0000 0.0000 0.0000
# 4 0.0000 0.0000 0.0000 23.0949 0.0000 0.0000
# 5 0.0000 0.0000 0.0000 0.0000 19.1020 0.0000
# 6 0.0000 0.0000 0.0000 0.0000 0.0000 15.0088
#
#
#
# Elastic Compliance Matrix: (Units=1/GPa)
#
#
# Indices 1 2 3 4 5 6 
#
# 1 0.016562 -0.000395 -0.002506 0.000000 0.000000 0.000000
# 2 -0.000395 0.010367 -0.004635 0.000000 0.000000 0.000000
# 3 -0.002506 -0.004635 0.010711 0.000000 0.000000 0.000000
# 4 0.000000 0.000000 0.000000 0.043300 0.000000 0.000000
# 5 0.000000 0.000000 0.000000 0.000000 0.052351 0.000000
# 6 0.000000 0.000000 0.000000 0.000000 0.000000 0.066627
#
#
# Mechanical properties :
#
#
# Convention : Reuss Voigt Hill
#
# Bulk Modulus (GPa) = 44.31046 53.29576 48.80311
# Shear Modulus (GPa) = 22.47051 26.16408 24.31730
#
# Velocity S-wave (km/s) = 3.29183 3.55209 3.42443
# Velocity P-wave (km/s) = 5.98468 6.52107 6.25863
#
# Compressibility (1/GPa) = 0.02256803
#
# Stress axis : x y z
#
# Youngs Moduli (GPa) = 60.37882 96.45652 93.35897
#
# Poissons Ratio (x) = 0.03810 0.23398
# Poissons Ratio (y) = 0.02385 0.43273
# Poissons Ratio (z) = 0.15132 0.44709
#
# Static dielectric constant tensor:
#      x y z
#    x 3.606170 0.000000 0.000000 
#    y 0.000000 3.962090 0.000000 
#    z 0.000000 0.000000 3.996500 
# 
# 
# High freq. dielectric constant tensor:
#      x y z
#    x 1.782200 0.000000 0.000000 
#    y 0.000000 1.809180 0.000000 
#    z 0.000000 0.000000 1.822930 
# 
# From -- ./inp_files/6489.got.cif
#   From: 2010.03.12/outbox.cif.g09.slc.cpg/sg62_4_cif.got.tgz:6489.got - 2010.04.10 19:12:36.
