data_PCOD8250921
_publ_section_title
;
Structure prediction by ZEFSAII (Michael W. Deem and Ramdas Pophale) SiO2 
 PCOD8250921
Probable space group: P N M A
;
_chemical_formula_sum "Si O2"
_cell_formula_units_Z 40
_cell_length_a 18.880063
_cell_length_b 12.152887
_cell_length_c 7.828031
_cell_angle_alpha 90.000000
_cell_angle_beta 90.000000
_cell_angle_gamma 90.000000
_cell_volume 1796.120360
_symmetry_space_group_name_H-M "P N M A"
_symmetry_group_IT_number 62
_symmetry_cell_setting 'orthorhombic'
loop_
_space_group_symop_operation_xyz
x,y,z
1/2-x,-y,1/2+z
1/2+x,1/2-y,1/2-z
-x,1/2+y,-z
-x,-y,-z
1/2+x,y,1/2-z
1/2-x,1/2+y,1/2+z
x,1/2-y,z
loop_
_atom_site_type_symbol
_atom_site_label
_atom_site_fract_x
_atom_site_fract_y
_atom_site_fract_z
Si Si1 0.192755 0.619704 0.961026
Si Si2 0.549712 0.374979 0.325064
Si Si3 0.926935 0.517274 0.164028
Si Si4 0.292140 0.880841 0.264961
Si Si5 0.791640 0.620975 0.842780
O O1 0.196682 0.750000 0.964351
O O2 0.229892 0.575165 0.137869
O O3 0.112352 0.579026 0.947796
O O4 0.233742 0.574073 0.790544
O O5 0.529614 0.250000 0.278696
O O6 0.543723 0.392172 0.530563
O O7 0.492295 0.457882 0.236749
O O8 0.629885 0.401960 0.266797
O O9 0.870876 0.576178 0.292966
O O10 0.291998 0.750000 0.257981
O O11 0.283477 0.925921 0.461941
O O12 0.779253 0.750000 0.860558
#
# Coordination Sequence:
#
# PCOD8250921 Si02
#       5
#     8   8   8   8   8
#     4  10  20  33  53  81 108 137 179 226 267 315
#     4   9  18  34  52  75 109 144 177 217 268 318
#     4  10  19  30  54  81 102 142 185 218 262 320
#     4   9  19  34  51  76 109 140 174 222 271 314
#     4   8  16  33  54  72 102 143 173 212 269 316
#
# _framework density 22.270220999999999
#
# number of rings (size 3 to 8) (size 9 to 14) (size 15 to 20)
#    0.000    2.800    0.000    2.400    5.600    0.000 
#    0.000    1.000    0.000    4.800    0.000   28.000 
#    0.000    0.000    0.000    0.000    0.000    0.000 
#
# Total GULP energy -495773.866259 kJ/mol
# GULP energy per Si atom -12394.346656 kJ/mol
# Density = 2.221953 g / cm^3
# Si number density = 22.270221 Si / 1000 Ang^3
#
#
#
# Elastic Constant Matrix: (Units=GPa)
#
#
# Indices 1 2 3 4 5 6 
#
# 1 98.3796 25.6115 25.7110 0.0000 0.0000 0.0000
# 2 25.6115 65.9105 34.0287 0.0000 0.0000 0.0000
# 3 25.7110 34.0287 64.9612 0.0000 0.0000 0.0000
# 4 0.0000 0.0000 0.0000 35.1391 0.0000 0.0000
# 5 0.0000 0.0000 0.0000 0.0000 27.3036 0.0000
# 6 0.0000 0.0000 0.0000 0.0000 0.0000 44.8229
#
#
#
# Elastic Compliance Matrix: (Units=1/GPa)
#
#
# Indices 1 2 3 4 5 6 
#
# 1 0.011746 -0.002966 -0.003095 0.000000 0.000000 0.000000
# 2 -0.002966 0.021546 -0.010112 0.000000 0.000000 0.000000
# 3 -0.003095 -0.010112 0.021916 0.000000 0.000000 0.000000
# 4 0.000000 0.000000 0.000000 0.028458 0.000000 0.000000
# 5 0.000000 0.000000 0.000000 0.000000 0.036625 0.000000
# 6 0.000000 0.000000 0.000000 0.000000 0.000000 0.022310
#
#
# Mechanical properties :
#
#
# Convention : Reuss Voigt Hill
#
# Bulk Modulus (GPa) = 43.74418 44.43929 44.09174
# Shear Modulus (GPa) = 27.38708 31.04647 29.21677
#
# Velocity S-wave (km/s) = 3.51060 3.73779 3.62597
# Velocity P-wave (km/s) = 6.00979 6.21498 6.11324
#
# Compressibility (1/GPa) = 0.02286019
#
# Stress axis : x y z
#
# Youngs Moduli (GPa) = 85.13683 46.41336 45.62895
#
# Poissons Ratio (x) = 0.13767 0.14122
# Poissons Ratio (y) = 0.25254 0.46141
# Poissons Ratio (z) = 0.26350 0.46934
#
# Static dielectric constant tensor:
#      x y z
#    x 4.065460 0.000000 0.000000 
#    y 0.000000 4.433220 0.000000 
#    z 0.000000 0.000000 3.816800 
# 
# 
# High freq. dielectric constant tensor:
#      x y z
#    x 1.871790 0.000000 0.000000 
#    y 0.000000 1.940660 0.000000 
#    z 0.000000 0.000000 1.825020 
# 
# From -- ./inp_files/8541.got.cif
#   From: 2010.03.12/outbox.cif.g09.slc.cpg/sg62_5_cif.got.tgz:8541.got - 2010.04.10 19:12:36.
