data_PCOD8250810
_publ_section_title
;
Structure prediction by ZEFSAII (Michael W. Deem and Ramdas Pophale) SiO2 
 PCOD8250810
Probable space group: P N M A
;
_chemical_formula_sum "Si O2"
_cell_formula_units_Z 64
_cell_length_a 12.256605
_cell_length_b 22.897645
_cell_length_c 11.233853
_cell_angle_alpha 90.000000
_cell_angle_beta 90.000000
_cell_angle_gamma 90.000000
_cell_volume 3152.751526
_symmetry_space_group_name_H-M "P N M A"
_symmetry_group_IT_number 62
_symmetry_cell_setting 'orthorhombic'
loop_
_space_group_symop_operation_xyz
x,y,z
1/2-x,-y,1/2+z
1/2+x,1/2-y,1/2-z
-x,1/2+y,-z
-x,-y,-z
1/2+x,y,1/2-z
1/2-x,1/2+y,1/2+z
x,1/2-y,z
loop_
_atom_site_type_symbol
_atom_site_label
_atom_site_fract_x
_atom_site_fract_y
_atom_site_fract_z
Si Si1 0.504208 0.184948 0.908474
Si Si2 0.889298 0.631566 0.844379
Si Si3 0.840695 0.513239 0.485979
Si Si4 0.109608 0.682442 0.857757
Si Si5 0.679232 0.815381 0.900069
Si Si6 0.170594 0.138305 0.417261
Si Si7 0.525845 0.941727 0.166417
Si Si8 0.406705 0.502123 0.599502
O O1 0.506915 0.250000 0.845993
O O2 0.497391 0.128271 0.823644
O O3 0.397684 0.180286 0.988254
O O4 0.611799 0.180350 0.989018
O O5 0.783043 0.643240 0.925355
O O6 0.865780 0.658274 0.714073
O O7 0.912655 0.563605 0.834800
O O8 0.991306 0.663924 0.905103
O O9 0.859527 0.570926 0.564644
O O10 0.883967 0.458359 0.564651
O O11 0.713852 0.506618 0.454358
O O12 0.914568 0.522404 0.366609
O O13 0.129909 0.750000 0.879925
O O14 0.115246 0.664311 0.718490
O O15 0.199769 0.647036 0.932510
O O16 0.723421 0.750000 0.880864
O O17 0.567981 0.955275 0.298359
O O18 0.500000 0.500000 0.500000
#
# Coordination Sequence:
#
# PCOD8250810 Si02
#       8
#     8   8   8   8   8   8   8   8
#     4  10  19  36  61  87 115 157 210 253 299 375
#     4  11  20  33  53  81 122 157 195 246 309 367
#     4  10  22  42  63  89 127 162 206 266 314 382
#     4  10  19  29  49  81 123 158 192 246 300 359
#     4   9  18  30  50  81 113 152 197 241 296 357
#     4  10  19  34  56  84 117 160 203 249 308 364
#     4  10  23  41  65  92 125 166 206 257 327 369
#     4  12  26  39  63  93 124 163 210 258 313 373
#
# _framework density 20.299728999999999
#
# number of rings (size 3 to 8) (size 9 to 14) (size 15 to 20)
#    0.000    1.750    2.500    2.250    1.750    3.000 
#    0.000    0.000    0.000    6.750    0.000    0.000 
#    0.000    0.000    0.000    0.000    0.000    0.000 
#
# Total GULP energy -793393.696998 kJ/mol
# GULP energy per Si atom -12396.776516 kJ/mol
# Density = 2.025353 g / cm^3
# Si number density = 20.299729 Si / 1000 Ang^3
#
#
#
# Elastic Constant Matrix: (Units=GPa)
#
#
# Indices 1 2 3 4 5 6 
#
# 1 140.8336 13.0282 31.9790 0.0000 0.0000 0.0000
# 2 13.0282 87.0562 18.3514 0.0000 0.0000 0.0000
# 3 31.9790 18.3514 61.4521 0.0000 0.0000 0.0000
# 4 0.0000 0.0000 0.0000 16.8814 0.0000 0.0000
# 5 0.0000 0.0000 0.0000 0.0000 16.5891 0.0000
# 6 0.0000 0.0000 0.0000 0.0000 0.0000 32.8661
#
#
#
# Elastic Compliance Matrix: (Units=1/GPa)
#
#
# Indices 1 2 3 4 5 6 
#
# 1 0.008062 -0.000344 -0.004093 0.000000 0.000000 0.000000
# 2 -0.000344 0.012273 -0.003486 0.000000 0.000000 0.000000
# 3 -0.004093 -0.003486 0.019444 0.000000 0.000000 0.000000
# 4 0.000000 0.000000 0.000000 0.059237 0.000000 0.000000
# 5 0.000000 0.000000 0.000000 0.000000 0.060281 0.000000
# 6 0.000000 0.000000 0.000000 0.000000 0.000000 0.030426
#
#
# Mechanical properties :
#
#
# Convention : Reuss Voigt Hill
#
# Bulk Modulus (GPa) = 41.78259 46.22878 44.00568
# Shear Modulus (GPa) = 23.41423 28.33287 25.87355
#
# Velocity S-wave (km/s) = 3.39990 3.74000 3.57399
# Velocity P-wave (km/s) = 6.00333 6.43992 6.22545
#
# Compressibility (1/GPa) = 0.02393341
#
# Stress axis : x y z
#
# Youngs Moduli (GPa) = 124.04379 81.47855 51.43074
#
# Poissons Ratio (x) = 0.02801 0.21048
# Poissons Ratio (y) = 0.04264 0.17930
# Poissons Ratio (z) = 0.50765 0.28405
#
# Static dielectric constant tensor:
#      x y z
#    x 3.910860 0.000000 0.000000 
#    y 0.000000 3.888700 0.000000 
#    z 0.000000 0.000000 3.174600 
# 
# 
# High freq. dielectric constant tensor:
#      x y z
#    x 1.808080 0.000000 0.000000 
#    y 0.000000 1.801940 0.000000 
#    z 0.000000 0.000000 1.742180 
# 
# From -- ./inp_files/12563.got.cif
#   From: 2010.03.12/outbox.cif.g09.slc.cpg/sg62_7_cif.got.tgz:12563.got - 2010.04.10 19:12:36.
