data_PCOD8250680
_publ_section_title
;
Structure prediction by ZEFSAII (Michael W. Deem and Ramdas Pophale) SiO2 
 PCOD8250680
Probable space group: P N M A
;
_chemical_formula_sum "Si O2"
_cell_formula_units_Z 64
_cell_length_a 17.026611
_cell_length_b 8.692699
_cell_length_c 21.852020
_cell_angle_alpha 90.000000
_cell_angle_beta 90.000000
_cell_angle_gamma 90.000000
_cell_volume 3234.256391
_symmetry_space_group_name_H-M "P N M A"
_symmetry_group_IT_number 62
_symmetry_cell_setting 'orthorhombic'
loop_
_space_group_symop_operation_xyz
x,y,z
1/2-x,-y,1/2+z
1/2+x,1/2-y,1/2-z
-x,1/2+y,-z
-x,-y,-z
1/2+x,y,1/2-z
1/2-x,1/2+y,1/2+z
x,1/2-y,z
loop_
_atom_site_type_symbol
_atom_site_label
_atom_site_fract_x
_atom_site_fract_y
_atom_site_fract_z
Si Si1 0.085617 0.430688 0.315963
Si Si2 0.042982 0.934918 0.184502
Si Si3 0.216942 0.932767 0.395363
Si Si4 0.872928 0.926630 0.157782
Si Si5 0.806357 0.425018 0.879434
Si Si6 0.830244 0.577342 0.293085
Si Si7 0.433976 0.425890 0.112834
Si Si8 0.317489 0.931801 0.024116
O O1 0.092453 0.250000 0.303969
O O2 0.058411 0.508591 0.253055
O O3 0.168224 0.496365 0.339175
O O4 0.023776 0.466608 0.370791
O O5 0.043451 0.750000 0.187209
O O6 0.108605 0.998611 0.136273
O O7 0.959693 0.003125 0.159295
O O8 0.212938 0.750000 0.389411
O O9 0.308644 0.990687 0.390764
O O10 0.181986 0.986204 0.459386
O O11 0.888237 0.750000 0.143285
O O12 0.829359 0.952758 0.221718
O O13 0.819720 0.250000 0.898388
O O14 0.758504 0.440767 0.816346
O O15 0.755883 0.498790 0.935243
O O16 0.861331 0.750000 0.308734
O O17 0.885551 0.453246 0.325077
O O18 0.425114 0.250000 0.092323
O O19 0.399630 0.531168 0.058237
O O20 0.311750 0.750000 0.015172
#
# Coordination Sequence:
#
# PCOD8250680 Si02
#       8
#     8   8   8   8   8   8   8   8
#     4  11  23  37  54  84 120 147 179 223 280 337
#     4  10  18  34  60  86 112 144 183 225 271 327
#     4  11  23  39  57  79 108 147 192 232 272 324
#     4   9  18  32  55  83 110 142 183 227 272 326
#     4   8  16  30  54  81 106 139 181 225 268 321
#     4   9  15  29  51  78 108 140 177 215 265 322
#     4  10  20  34  54  81 111 143 178 220 270 328
#     4  10  21  39  58  78 108 145 189 231 272 324
#
# _framework density 19.788164999999999
#
# number of rings (size 3 to 8) (size 9 to 14) (size 15 to 20)
#    0.000    2.250    1.250    3.000    0.000    4.000 
#    0.000    8.750    0.000    0.000    0.000    0.000 
#    0.000    0.000    0.000    0.000    0.000    0.000 
#
# Total GULP energy -793045.230489 kJ/mol
# GULP energy per Si atom -12391.331726 kJ/mol
# Density = 1.974313 g / cm^3
# Si number density = 19.788165 Si / 1000 Ang^3
#
#
#
# Elastic Constant Matrix: (Units=GPa)
#
#
# Indices 1 2 3 4 5 6 
#
# 1 106.3729 25.3834 25.1655 0.0000 0.0000 0.0000
# 2 25.3834 39.0816 13.1606 0.0000 0.0000 0.0000
# 3 25.1655 13.1606 37.4016 0.0000 0.0000 0.0000
# 4 0.0000 0.0000 0.0000 23.7025 0.0000 0.0000
# 5 0.0000 0.0000 0.0000 0.0000 23.2025 0.0000
# 6 0.0000 0.0000 0.0000 0.0000 0.0000 16.6188
#
#
#
# Elastic Compliance Matrix: (Units=1/GPa)
#
#
# Indices 1 2 3 4 5 6 
#
# 1 0.012268 -0.005886 -0.006184 0.000000 0.000000 0.000000
# 2 -0.005886 0.031851 -0.007247 0.000000 0.000000 0.000000
# 3 -0.006184 -0.007247 0.033448 0.000000 0.000000 0.000000
# 4 0.000000 0.000000 0.000000 0.042190 0.000000 0.000000
# 5 0.000000 0.000000 0.000000 0.000000 0.043099 0.000000
# 6 0.000000 0.000000 0.000000 0.000000 0.000000 0.060173
#
#
# Mechanical properties :
#
#
# Convention : Reuss Voigt Hill
#
# Bulk Modulus (GPa) = 25.68489 34.47502 30.07995
# Shear Modulus (GPa) = 18.20571 20.64786 19.42679
#
# Velocity S-wave (km/s) = 3.03649 3.23374 3.13667
# Velocity P-wave (km/s) = 5.03009 5.60381 5.32468
#
# Compressibility (1/GPa) = 0.03893340
#
# Stress axis : x y z
#
# Youngs Moduli (GPa) = 81.51055 31.39635 29.89757
#
# Poissons Ratio (x) = 0.18480 0.18488
# Poissons Ratio (y) = 0.47977 0.21667
# Poissons Ratio (z) = 0.50403 0.22753
#
# Static dielectric constant tensor:
#      x y z
#    x 4.056730 0.000000 0.000000 
#    y 0.000000 3.350670 0.000000 
#    z 0.000000 0.000000 3.479640 
# 
# 
# High freq. dielectric constant tensor:
#      x y z
#    x 1.783440 0.000000 0.000000 
#    y 0.000000 1.742100 0.000000 
#    z 0.000000 0.000000 1.754570 
# 
# From -- ./inp_files/27729.got.cif
#   From: 2010.03.12/outbox.cif.g09.slc.cpg/sg62_14_cif.got.tgz:27729.got - 2010.04.10 19:12:36.
