data_PCOD8250168
_publ_section_title
;
Structure prediction by ZEFSAII (Michael W. Deem and Ramdas Pophale) SiO2 
 PCOD8250168
Probable space group: P N M A
;
_chemical_formula_sum "Si O2"
_cell_formula_units_Z 64
_cell_length_a 18.550013
_cell_length_b 8.602470
_cell_length_c 26.384856
_cell_angle_alpha 90.000000
_cell_angle_beta 90.000000
_cell_angle_gamma 90.000000
_cell_volume 4210.387943
_symmetry_space_group_name_H-M "P N M A"
_symmetry_group_IT_number 62
_symmetry_cell_setting 'orthorhombic'
loop_
_space_group_symop_operation_xyz
x,y,z
1/2-x,-y,1/2+z
1/2+x,1/2-y,1/2-z
-x,1/2+y,-z
-x,-y,-z
1/2+x,y,1/2-z
1/2-x,1/2+y,1/2+z
x,1/2-y,z
loop_
_atom_site_type_symbol
_atom_site_label
_atom_site_fract_x
_atom_site_fract_y
_atom_site_fract_z
Si Si1 0.931049 0.069359 0.558262
Si Si2 0.082905 0.571975 0.739305
Si Si3 0.082688 0.930556 0.556499
Si Si4 0.303538 0.426181 0.694981
Si Si5 0.228447 0.573910 0.784108
Si Si6 0.146011 0.428148 0.352248
Si Si7 0.333931 0.565824 0.145134
Si Si8 0.931638 0.434016 0.744122
O O1 0.950642 0.250000 0.560596
O O2 0.905140 0.022635 0.502033
O O3 0.867809 0.028475 0.597430
O O4 0.002243 0.974772 0.573877
O O5 0.059092 0.750000 0.733305
O O6 0.141816 0.552150 0.784750
O O7 0.113877 0.516332 0.685465
O O8 0.014247 0.471559 0.755684
O O9 0.095309 0.750000 0.566233
O O10 0.141226 0.025300 0.588711
O O11 0.316032 0.250000 0.679911
O O12 0.259465 0.442871 0.747200
O O13 0.249516 0.497278 0.652154
O O14 0.382982 0.497019 0.707650
O O15 0.245805 0.750000 0.764183
O O16 0.268991 0.550583 0.837929
O O17 0.128000 0.250000 0.364279
O O18 0.093683 0.482838 0.307157
O O19 0.337277 0.750000 0.154526
O O20 0.920816 0.250000 0.737314
#
# Coordination Sequence:
#
# PCOD8250168 Si02
#       8
#     8   8   8   8   8   8   8   8
#     4  10  20  32  44  59  80 106 136 169 202 235
#     4  10  18  28  41  59  83 109 137 166 197 234
#     4  10  20  32  44  59  80 106 136 169 202 235
#     4   8  16  28  41  57  78 104 133 165 197 233
#     4   8  16  28  41  57  78 104 133 165 197 233
#     4  10  18  29  44  60  79 106 138 168 201 237
#     4  10  18  29  44  60  79 106 138 168 201 237
#     4  10  18  28  41  59  83 109 137 166 197 234
#
# _framework density 15.2005
#
# number of rings (size 3 to 8) (size 9 to 14) (size 15 to 20)
#    0.000    2.500    0.000    3.000    0.000    3.500 
#    0.000    0.000    0.000    0.000    0.000    0.000 
#    0.000    1.000    0.000    2.250    0.000    4.000 
#
# Total GULP energy -792907.787713 kJ/mol
# GULP energy per Si atom -12389.184183 kJ/mol
# Density = 1.516590 g / cm^3
# Si number density = 15.200500 Si / 1000 Ang^3
#
#
#
# Elastic Constant Matrix: (Units=GPa)
#
#
# Indices 1 2 3 4 5 6 
#
# 1 97.6088 13.6287 45.5491 0.0000 0.0000 0.0000
# 2 13.6287 31.2791 13.8174 0.0000 0.0000 0.0000
# 3 45.5491 13.8174 70.9310 0.0000 0.0000 0.0000
# 4 0.0000 0.0000 0.0000 18.8583 0.0000 0.0000
# 5 0.0000 0.0000 0.0000 0.0000 26.2908 0.0000
# 6 0.0000 0.0000 0.0000 0.0000 0.0000 17.4054
#
#
#
# Elastic Compliance Matrix: (Units=1/GPa)
#
#
# Indices 1 2 3 4 5 6 
#
# 1 0.014800 -0.002462 -0.009024 0.000000 0.000000 0.000000
# 2 -0.002462 0.035390 -0.005313 0.000000 0.000000 0.000000
# 3 -0.009024 -0.005313 0.020928 0.000000 0.000000 0.000000
# 4 0.000000 0.000000 0.000000 0.053027 0.000000 0.000000
# 5 0.000000 0.000000 0.000000 0.000000 0.038036 0.000000
# 6 0.000000 0.000000 0.000000 0.000000 0.000000 0.057453
#
#
# Mechanical properties :
#
#
# Convention : Reuss Voigt Hill
#
# Bulk Modulus (GPa) = 26.65281 38.42326 32.53803
# Shear Modulus (GPa) = 18.81539 20.96581 19.89060
#
# Velocity S-wave (km/s) = 3.52207 3.71790 3.62131
# Velocity P-wave (km/s) = 5.84057 6.61535 6.24000
#
# Compressibility (1/GPa) = 0.03751950
#
# Stress axis : x y z
#
# Youngs Moduli (GPa) = 67.56782 28.25656 47.78233
#
# Poissons Ratio (x) = 0.06957 0.43120
# Poissons Ratio (y) = 0.16636 0.25386
# Poissons Ratio (z) = 0.60975 0.15013
#
# Static dielectric constant tensor:
#      x y z
#    x 3.110860 0.000000 0.000000 
#    y 0.000000 2.989000 0.000000 
#    z 0.000000 0.000000 2.755030 
# 
# 
# High freq. dielectric constant tensor:
#      x y z
#    x 1.575210 0.000000 0.000000 
#    y 0.000000 1.594520 0.000000 
#    z 0.000000 0.000000 1.542890 
# 
# From -- ./inp_files/22660.got.cif
#   From: 2010.03.12/outbox.cif.g09.slc.cpg/sg62_12_cif.got.tgz:22660.got - 2010.04.10 19:12:36.
