data_PCOD8250024
_publ_section_title
;
Structure prediction by ZEFSAII (Michael W. Deem and Ramdas Pophale) SiO2 
 PCOD8250024
Probable space group: P N M A
;
_chemical_formula_sum "Si O2"
_cell_formula_units_Z 32
_cell_length_a 19.735071
_cell_length_b 5.302445
_cell_length_c 15.248872
_cell_angle_alpha 90.000000
_cell_angle_beta 90.000000
_cell_angle_gamma 90.000000
_cell_volume 1595.704922
_symmetry_space_group_name_H-M "P N M A"
_symmetry_group_IT_number 62
_symmetry_cell_setting 'orthorhombic'
loop_
_space_group_symop_operation_xyz
x,y,z
1/2-x,-y,1/2+z
1/2+x,1/2-y,1/2-z
-x,1/2+y,-z
-x,-y,-z
1/2+x,y,1/2-z
1/2-x,1/2+y,1/2+z
x,1/2-y,z
loop_
_atom_site_type_symbol
_atom_site_label
_atom_site_fract_x
_atom_site_fract_y
_atom_site_fract_z
Si Si1 0.346851 0.750000 0.054880
Si Si2 0.435627 0.250000 0.799907
Si Si3 0.198693 0.750000 0.379700
Si Si4 0.266709 0.250000 0.426875
Si Si5 0.538835 0.250000 0.094322
Si Si6 0.074204 0.750000 0.936099
Si Si7 0.995223 0.750000 0.115436
Si Si8 0.110965 0.750000 0.557584
O O1 0.269573 0.750000 0.022493
O O2 0.396199 0.750000 0.968667
O O3 0.364993 0.499731 0.110991
O O4 0.353352 0.250000 0.798413
O O5 0.463035 0.502072 0.846047
O O6 0.458553 0.250000 0.700361
O O7 0.245267 0.501462 0.374228
O O8 0.151322 0.750000 0.466041
O O9 0.345548 0.250000 0.443794
O O10 0.469046 0.250000 0.037605
O O11 0.051092 0.499913 0.884563
O O12 0.045518 0.750000 0.033669
#
# Coordination Sequence:
#
# PCOD8250024 Si02
#       8
#     4   4   4   4   4   4   4   4
#     4  10  17  29  45  80 109 143 193 218 249 320
#     4  12  21  34  53  82 117 144 184 229 278 334
#     4  10  19  32  51  89 112 151 187 212 262 345
#     4  10  18  33  58  79 107 137 184 230 270 331
#     4  12  19  30  50  81 114 160 184 222 261 316
#     4  10  21  42  65  84 101 139 190 250 288 321
#     4  10  23  40  62  86 106 133 193 249 291 324
#     4  10  18  28  46  75 114 151 189 222 247 297
#
# _framework density 20.053833000000001
#
# number of rings (size 3 to 8) (size 9 to 14) (size 15 to 20)
#    0.000    1.500    5.000    3.000    0.000    0.000 
#    0.000    0.000    0.000   18.000    0.000    0.000 
#    0.000    0.000    0.000    0.000    0.000    0.000 
#
# Total GULP energy -396589.341277 kJ/mol
# GULP energy per Si atom -12393.416915 kJ/mol
# Density = 2.000819 g / cm^3
# Si number density = 20.053833 Si / 1000 Ang^3
#
#
#
# Elastic Constant Matrix: (Units=GPa)
#
#
# Indices 1 2 3 4 5 6 
#
# 1 148.1865 54.6296 11.2762 0.0000 0.0000 0.0000
# 2 54.6296 221.0076 16.9790 0.0000 0.0000 0.0000
# 3 11.2762 16.9790 26.4901 0.0000 0.0000 0.0000
# 4 0.0000 0.0000 0.0000 7.3652 0.0000 0.0000
# 5 0.0000 0.0000 0.0000 0.0000 16.3967 0.0000
# 6 0.0000 0.0000 0.0000 0.0000 0.0000 23.7415
#
#
#
# Elastic Compliance Matrix: (Units=1/GPa)
#
#
# Indices 1 2 3 4 5 6 
#
# 1 0.007536 -0.001700 -0.002118 0.000000 0.000000 0.000000
# 2 -0.001700 0.005143 -0.002573 0.000000 0.000000 0.000000
# 3 -0.002118 -0.002573 0.040301 0.000000 0.000000 0.000000
# 4 0.000000 0.000000 0.000000 0.135774 0.000000 0.000000
# 5 0.000000 0.000000 0.000000 0.000000 0.060988 0.000000
# 6 0.000000 0.000000 0.000000 0.000000 0.000000 0.042120
#
#
# Mechanical properties :
#
#
# Convention : Reuss Voigt Hill
#
# Bulk Modulus (GPa) = 24.87714 62.38377 43.63045
# Shear Modulus (GPa) = 15.72119 30.35397 23.03758
#
# Velocity S-wave (km/s) = 2.80295 3.89475 3.39305
# Velocity P-wave (km/s) = 4.78617 7.16946 6.09543
#
# Compressibility (1/GPa) = 0.04019755
#
# Stress axis : x y z
#
# Youngs Moduli (GPa) = 132.69308 194.45412 24.81358
#
# Poissons Ratio (x) = 0.33059 0.05256
# Poissons Ratio (y) = 0.22559 0.06383
# Poissons Ratio (z) = 0.28108 0.50023
#
# Static dielectric constant tensor:
#      x y z
#    x 3.572320 0.000000 0.000000 
#    y 0.000000 5.666700 0.000000 
#    z 0.000000 0.000000 3.009210 
# 
# 
# High freq. dielectric constant tensor:
#      x y z
#    x 1.782740 0.000000 0.000000 
#    y 0.000000 1.830950 0.000000 
#    z 0.000000 0.000000 1.711720 
# 
# From -- ./inp_files/19275.got.cif
#   From: 2010.03.12/outbox.cif.g09.slc.cpg/sg62_10_cif.got.tgz:19275.got - 2010.04.10 19:12:36.
