data_PCOD8250635
_publ_section_title
;
Structure prediction by ZEFSAII (Michael W. Deem and Ramdas Pophale) SiO2 
 PCOD8250635
Probable space group: P N M A
;
_chemical_formula_sum "Si O2"
_cell_formula_units_Z 64
_cell_length_a 23.982091
_cell_length_b 8.825483
_cell_length_c 15.505214
_cell_angle_alpha 90.000000
_cell_angle_beta 90.000000
_cell_angle_gamma 90.000000
_cell_volume 3281.733376
_symmetry_space_group_name_H-M "P N M A"
_symmetry_group_IT_number 62
_symmetry_cell_setting 'orthorhombic'
loop_
_space_group_symop_operation_xyz
x,y,z
1/2-x,-y,1/2+z
1/2+x,1/2-y,1/2-z
-x,1/2+y,-z
-x,-y,-z
1/2+x,y,1/2-z
1/2-x,1/2+y,1/2+z
x,1/2-y,z
loop_
_atom_site_type_symbol
_atom_site_label
_atom_site_fract_x
_atom_site_fract_y
_atom_site_fract_z
Si Si1 0.251835 0.070068 0.401001
Si Si2 0.060165 0.071077 0.496102
Si Si3 0.865836 0.928360 0.659137
Si Si4 0.363087 0.572646 0.650036
Si Si5 0.628795 0.929368 0.661250
Si Si6 0.367871 0.571659 0.161069
Si Si7 0.439390 0.569774 0.493117
Si Si8 0.248327 0.929054 0.094936
O O1 0.250615 0.250000 0.402544
O O2 0.196746 0.004973 0.353782
O O3 0.307636 0.014395 0.352859
O O4 0.252560 0.005737 0.498038
O O5 0.054347 0.250000 0.489289
O O6 0.092021 0.003983 0.412021
O O7 0.094002 0.023615 0.580909
O O8 0.000000 0.000000 0.500000
O O9 0.862268 0.750000 0.643674
O O10 0.888013 0.966703 0.755246
O O11 0.353562 0.750000 0.639129
O O12 0.404507 0.511868 0.576335
O O13 0.303175 0.495413 0.646835
O O14 0.622074 0.750000 0.650566
O O15 0.609837 0.981013 0.756049
O O16 0.589275 0.010566 0.592979
O O17 0.371449 0.750000 0.179058
O O18 0.304939 0.519365 0.141300
O O19 0.500000 0.500000 0.500000
O O20 0.443514 0.750000 0.491136
O O21 0.243490 0.750000 0.092828
#
# Coordination Sequence:
#
# PCOD8250635 Si02
#       8
#     8   8   8   8   8   8   8   8
#     4   9  16  30  56  85 111 145 184 222 276 345
#     4  10  21  38  59  81 110 150 193 237 280 333
#     4   9  17  34  58  82 110 147 186 224 275 341
#     4  10  21  36  58  87 116 146 187 236 284 336
#     4  11  22  37  61  88 115 149 193 242 292 348
#     4  10  21  37  58  85 118 154 191 233 289 349
#     4  11  24  41  59  83 116 155 197 243 292 344
#     4  10  18  33  58  85 116 152 186 225 282 349
#
# _framework density 19.501888000000001
#
# number of rings (size 3 to 8) (size 9 to 14) (size 15 to 20)
#    0.000    2.000    2.500    1.500    0.000    3.500 
#    0.000    1.875    0.000    1.500    0.000    0.000 
#    0.000    0.000    0.000    0.000    0.000    0.000 
#
# Total GULP energy -793628.201903 kJ/mol
# GULP energy per Si atom -12400.440655 kJ/mol
# Density = 1.945750 g / cm^3
# Si number density = 19.501888 Si / 1000 Ang^3
#
#
#
# Elastic Constant Matrix: (Units=GPa)
#
#
# Indices 1 2 3 4 5 6 
#
# 1 158.9707 35.1064 76.7577 0.0000 0.0000 0.0000
# 2 35.1064 34.7118 35.8576 0.0000 0.0000 0.0000
# 3 76.7577 35.8576 164.8408 0.0000 0.0000 0.0000
# 4 0.0000 0.0000 0.0000 21.1990 0.0000 0.0000
# 5 0.0000 0.0000 0.0000 0.0000 14.2817 0.0000
# 6 0.0000 0.0000 0.0000 0.0000 0.0000 31.0025
#
#
#
# Elastic Compliance Matrix: (Units=1/GPa)
#
#
# Indices 1 2 3 4 5 6 
#
# 1 0.009039 -0.006183 -0.002864 0.000000 0.000000 0.000000
# 2 -0.006183 0.041388 -0.006124 0.000000 0.000000 0.000000
# 3 -0.002864 -0.006124 0.008732 0.000000 0.000000 0.000000
# 4 0.000000 0.000000 0.000000 0.047172 0.000000 0.000000
# 5 0.000000 0.000000 0.000000 0.000000 0.070020 0.000000
# 6 0.000000 0.000000 0.000000 0.000000 0.000000 0.032255
#
#
# Mechanical properties :
#
#
# Convention : Reuss Voigt Hill
#
# Bulk Modulus (GPa) = 34.70154 72.66299 53.68226
# Shear Modulus (GPa) = 20.11637 27.35007 23.73322
#
# Velocity S-wave (km/s) = 3.21520 3.74897 3.49230
# Velocity P-wave (km/s) = 5.62280 7.48866 6.62178
#
# Compressibility (1/GPa) = 0.02881716
#
# Stress axis : x y z
#
# Youngs Moduli (GPa) = 110.63542 24.16152 114.51938
#
# Poissons Ratio (x) = 0.14939 0.32797
# Poissons Ratio (y) = 0.68407 0.70131
# Poissons Ratio (z) = 0.31684 0.14796
#
# Static dielectric constant tensor:
#      x y z
#    x 3.458380 0.000000 0.000000 
#    y 0.000000 3.151120 0.000000 
#    z 0.000000 0.000000 3.856070 
# 
# 
# High freq. dielectric constant tensor:
#      x y z
#    x 1.760210 0.000000 0.000000 
#    y 0.000000 1.727010 0.000000 
#    z 0.000000 0.000000 1.777980 
# 
# From -- ./inp_files/20869.got.cif
#   From: 2010.03.12/outbox.cif.g09.slc.cpg/sg62_11_cif.got.tgz:20869.got - 2010.04.10 19:12:36.
