data_PCOD8250070
_publ_section_title
;
Structure prediction by ZEFSAII (Michael W. Deem and Ramdas Pophale) SiO2 
 PCOD8250070
Probable space group: P N M A
;
_chemical_formula_sum "Si O2"
_cell_formula_units_Z 48
_cell_length_a 14.664974
_cell_length_b 8.854856
_cell_length_c 20.537552
_cell_angle_alpha 90.000000
_cell_angle_beta 90.000000
_cell_angle_gamma 90.000000
_cell_volume 2666.929138
_symmetry_space_group_name_H-M "P N M A"
_symmetry_group_IT_number 62
_symmetry_cell_setting 'orthorhombic'
loop_
_space_group_symop_operation_xyz
x,y,z
1/2-x,-y,1/2+z
1/2+x,1/2-y,1/2-z
-x,1/2+y,-z
-x,-y,-z
1/2+x,y,1/2-z
1/2-x,1/2+y,1/2+z
x,1/2-y,z
loop_
_atom_site_type_symbol
_atom_site_label
_atom_site_fract_x
_atom_site_fract_y
_atom_site_fract_z
Si Si1 0.196952 0.929838 0.309203
Si Si2 0.807693 0.571791 0.927110
Si Si3 0.490832 0.429342 0.622921
Si Si4 0.001880 0.570881 0.270875
Si Si5 0.191999 0.429363 0.683160
Si Si6 0.315805 0.571776 0.426699
O O1 0.199379 0.750000 0.310469
O O2 0.248862 0.986290 0.244543
O O3 0.245947 0.997578 0.373386
O O4 0.092556 0.988807 0.307517
O O5 0.809446 0.750000 0.918034
O O6 0.906429 0.507919 0.911206
O O7 0.729411 0.502041 0.882514
O O8 0.783722 0.525269 0.001310
O O9 0.476999 0.250000 0.619396
O O10 0.497409 0.487230 0.696941
O O11 0.581676 0.485977 0.586333
O O12 0.999987 0.750000 0.269472
O O13 0.911734 0.512512 0.307811
O O14 0.197787 0.250000 0.676689
O O15 0.316639 0.750000 0.417486
#
# Coordination Sequence:
#
# PCOD8250070 Si02
#       6
#     8   8   8   8   8   8
#     4   9  15  28  52  77  98 124 167 215 249 283
#     4  11  22  33  46  73 110 142 164 194 255 317
#     4  10  17  31  55  79 100 127 168 216 254 291
#     4   9  16  27  52  84  98 114 164 223 255 275
#     4  10  18  32  55  77  97 126 170 216 247 284
#     4   9  18  31  49  74 106 137 166 205 253 303
#
# _framework density 17.998228000000001
#
# number of rings (size 3 to 8) (size 9 to 14) (size 15 to 20)
#    0.000    2.333    3.333    1.000    0.000    0.000 
#    0.000    2.500    0.000    2.000    0.000    0.000 
#    0.000    0.000    0.000    0.000    0.000    0.000 
#
# Total GULP energy -595081.675691 kJ/mol
# GULP energy per Si atom -12397.534910 kJ/mol
# Density = 1.795726 g / cm^3
# Si number density = 17.998228 Si / 1000 Ang^3
#
#
#
# Elastic Constant Matrix: (Units=GPa)
#
#
# Indices 1 2 3 4 5 6 
#
# 1 157.9021 21.8229 79.3391 0.0000 0.0000 0.0000
# 2 21.8229 24.5994 28.2945 0.0000 0.0000 0.0000
# 3 79.3391 28.2945 144.6135 0.0000 0.0000 0.0000
# 4 0.0000 0.0000 0.0000 20.8883 0.0000 0.0000
# 5 0.0000 0.0000 0.0000 0.0000 32.6078 0.0000
# 6 0.0000 0.0000 0.0000 0.0000 0.0000 14.6107
#
#
#
# Elastic Compliance Matrix: (Units=1/GPa)
#
#
# Indices 1 2 3 4 5 6 
#
# 1 0.008905 -0.002943 -0.004310 0.000000 0.000000 0.000000
# 2 -0.002943 0.053429 -0.008839 0.000000 0.000000 0.000000
# 3 -0.004310 -0.008839 0.011009 0.000000 0.000000 0.000000
# 4 0.000000 0.000000 0.000000 0.047874 0.000000 0.000000
# 5 0.000000 0.000000 0.000000 0.000000 0.030667 0.000000
# 6 0.000000 0.000000 0.000000 0.000000 0.000000 0.068443
#
#
# Mechanical properties :
#
#
# Convention : Reuss Voigt Hill
#
# Bulk Modulus (GPa) = 24.29583 65.11423 44.70503
# Shear Modulus (GPa) = 18.78069 26.79860 22.78965
#
# Velocity S-wave (km/s) = 3.23379 3.86289 3.56225
# Velocity P-wave (km/s) = 5.24133 7.49350 6.46622
#
# Compressibility (1/GPa) = 0.04115933
#
# Stress axis : x y z
#
# Youngs Moduli (GPa) = 112.29264 18.71647 90.83506
#
# Poissons Ratio (x) = 0.05508 0.39149
# Poissons Ratio (y) = 0.33046 0.80291
# Poissons Ratio (z) = 0.48397 0.16544
#
# Static dielectric constant tensor:
#      x y z
#    x 3.635000 0.000000 0.000000 
#    y 0.000000 2.822420 0.000000 
#    z 0.000000 0.000000 3.528620 
# 
# 
# High freq. dielectric constant tensor:
#      x y z
#    x 1.706630 0.000000 0.000000 
#    y 0.000000 1.643270 0.000000 
#    z 0.000000 0.000000 1.699890 
# 
# From -- ./inp_files/23682.got.cif
#   From: 2010.03.12/outbox.cif.g09.slc.cpg/sg62_12_cif.got.tgz:23682.got - 2010.04.10 19:12:36.
