data_PCOD8250950
_publ_section_title
;
Structure prediction by ZEFSAII (Michael W. Deem and Ramdas Pophale) SiO2 
 PCOD8250950
Probable space group: P N M A
;
_chemical_formula_sum "Si O2"
_cell_formula_units_Z 56
_cell_length_a 17.131726
_cell_length_b 9.105990
_cell_length_c 20.434566
_cell_angle_alpha 90.000000
_cell_angle_beta 90.000000
_cell_angle_gamma 90.000000
_cell_volume 3187.819385
_symmetry_space_group_name_H-M "P N M A"
_symmetry_group_IT_number 62
_symmetry_cell_setting 'orthorhombic'
loop_
_space_group_symop_operation_xyz
x,y,z
1/2-x,-y,1/2+z
1/2+x,1/2-y,1/2-z
-x,1/2+y,-z
-x,-y,-z
1/2+x,y,1/2-z
1/2-x,1/2+y,1/2+z
x,1/2-y,z
loop_
_atom_site_type_symbol
_atom_site_label
_atom_site_fract_x
_atom_site_fract_y
_atom_site_fract_z
Si Si1 0.859959 0.422697 0.109157
Si Si2 0.705476 0.577174 0.117953
Si Si3 0.964682 0.085351 0.404316
Si Si4 0.881702 0.584775 0.508693
Si Si5 0.444015 0.079210 0.799621
Si Si6 0.424889 0.417687 0.521991
Si Si7 0.483959 0.420892 0.654703
O O1 0.853564 0.250000 0.123919
O O2 0.786608 0.505474 0.141429
O O3 0.939282 0.482880 0.141321
O O4 0.856477 0.457463 0.029913
O O5 0.715588 0.750000 0.108900
O O6 0.681697 0.507961 0.048474
O O7 0.641260 0.538027 0.172870
O O8 0.934707 0.250000 0.390088
O O9 0.038157 0.089640 0.451988
O O10 0.895569 0.993058 0.438696
O O11 0.987956 0.009471 0.336296
O O12 0.850053 0.750000 0.497095
O O13 0.461226 0.250000 0.811452
O O14 0.446217 0.034567 0.723693
O O15 0.500000 0.500000 0.500000
O O16 0.445418 0.250000 0.511276
O O17 0.415286 0.450780 0.599895
O O18 0.508794 0.250000 0.654304
#
# Coordination Sequence:
#
# PCOD8250950 Si02
#       7
#     8   8   8   8   8   8   8
#     4  10  19  31  49  74 100 127 161 204 254 303
#     4  10  19  31  48  71  98 131 167 207 251 298
#     4   9  16  26  43  67  94 123 156 196 238 283
#     4   9  16  27  44  66  92 122 159 201 241 281
#     4   9  18  31  49  72  97 128 169 205 242 294
#     4   8  15  28  48  72  94 116 150 195 241 287
#     4   9  17  32  53  74  96 125 162 205 247 294
#
# _framework density 17.566867999999999
#
# number of rings (size 3 to 8) (size 9 to 14) (size 15 to 20)
#    0.000    2.857    0.000    1.714    0.000    5.143 
#    0.000    0.000    3.143    0.000    0.000    0.000 
#    0.000    0.000    0.000    0.000    0.000    0.000 
#
# Total GULP energy -693876.092645 kJ/mol
# GULP energy per Si atom -12390.644512 kJ/mol
# Density = 1.752689 g / cm^3
# Si number density = 17.566868 Si / 1000 Ang^3
#
#
#
# Elastic Constant Matrix: (Units=GPa)
#
#
# Indices 1 2 3 4 5 6 
#
# 1 65.7369 36.5361 35.4505 0.0000 0.0000 0.0000
# 2 36.5361 91.2169 45.0819 0.0000 0.0000 0.0000
# 3 35.4505 45.0819 119.8172 0.0000 0.0000 0.0000
# 4 0.0000 0.0000 0.0000 23.8109 0.0000 0.0000
# 5 0.0000 0.0000 0.0000 0.0000 16.5665 0.0000
# 6 0.0000 0.0000 0.0000 0.0000 0.0000 23.8017
#
#
#
# Elastic Compliance Matrix: (Units=1/GPa)
#
#
# Indices 1 2 3 4 5 6 
#
# 1 0.020833 -0.006508 -0.003715 0.000000 0.000000 0.000000
# 2 -0.006508 0.015500 -0.003906 0.000000 0.000000 0.000000
# 3 -0.003715 -0.003906 0.010915 0.000000 0.000000 0.000000
# 4 0.000000 0.000000 0.000000 0.041998 0.000000 0.000000
# 5 0.000000 0.000000 0.000000 0.000000 0.060363 0.000000
# 6 0.000000 0.000000 0.000000 0.000000 0.000000 0.042014
#
#
# Mechanical properties :
#
#
# Convention : Reuss Voigt Hill
#
# Bulk Modulus (GPa) = 52.66316 56.76755 54.71535
# Shear Modulus (GPa) = 22.10317 23.48265 22.79291
#
# Velocity S-wave (km/s) = 3.55100 3.66014 3.60598
# Velocity P-wave (km/s) = 6.84519 7.08854 6.96793
#
# Compressibility (1/GPa) = 0.01898861
#
# Stress axis : x y z
#
# Youngs Moduli (GPa) = 48.00094 64.51434 91.61645
#
# Poissons Ratio (x) = 0.41988 0.34036
# Poissons Ratio (y) = 0.31241 0.35790
# Poissons Ratio (z) = 0.17833 0.25202
#
# Static dielectric constant tensor:
#      x y z
#    x 2.988280 0.000000 0.000000 
#    y 0.000000 3.379700 0.000000 
#    z 0.000000 0.000000 3.630340 
# 
# 
# High freq. dielectric constant tensor:
#      x y z
#    x 1.642320 0.000000 0.000000 
#    y 0.000000 1.691190 0.000000 
#    z 0.000000 0.000000 1.670210 
# 
# From -- ./inp_files/29992.got.cif
#   From: 2010.03.12/outbox.cif.g09.slc.cpg/sg62_15_cif.got.tgz:29992.got - 2010.04.10 19:12:36.
