data_PCOD8250881
_publ_section_title
;
Structure prediction by ZEFSAII (Michael W. Deem and Ramdas Pophale) SiO2 
 PCOD8250881
Probable space group: P N M A
;
_chemical_formula_sum "Si O2"
_cell_formula_units_Z 56
_cell_length_a 19.049813
_cell_length_b 9.235919
_cell_length_c 17.274785
_cell_angle_alpha 90.000000
_cell_angle_beta 90.000000
_cell_angle_gamma 90.000000
_cell_volume 3039.369375
_symmetry_space_group_name_H-M "P N M A"
_symmetry_group_IT_number 62
_symmetry_cell_setting 'orthorhombic'
loop_
_space_group_symop_operation_xyz
x,y,z
1/2-x,-y,1/2+z
1/2+x,1/2-y,1/2-z
-x,1/2+y,-z
-x,-y,-z
1/2+x,y,1/2-z
1/2-x,1/2+y,1/2+z
x,1/2-y,z
loop_
_atom_site_type_symbol
_atom_site_label
_atom_site_fract_x
_atom_site_fract_y
_atom_site_fract_z
Si Si1 0.343252 0.589434 0.664220
Si Si2 0.790398 0.919587 0.069708
Si Si3 0.426678 0.579394 0.511141
Si Si4 0.824839 0.419894 0.682012
Si Si5 0.059730 0.088013 0.404602
Si Si6 0.704401 0.588014 0.927352
Si Si7 0.429405 0.911571 0.087166
O O1 0.365445 0.750000 0.692972
O O2 0.395190 0.539383 0.595414
O O3 0.345740 0.476774 0.734049
O O4 0.263590 0.594668 0.637297
O O5 0.793918 0.750000 0.051375
O O6 0.756662 0.951948 0.154692
O O7 0.870339 0.975836 0.054952
O O8 0.737072 0.982935 0.005187
O O9 0.500000 0.500000 0.500000
O O10 0.439996 0.750000 0.503876
O O11 0.839524 0.250000 0.679964
O O12 0.872696 0.497024 0.618839
O O13 0.061964 0.250000 0.369203
O O14 0.057581 0.096007 0.496330
O O15 0.990733 0.005617 0.372844
O O16 0.674134 0.750000 0.943042
O O17 0.644266 0.485795 0.893709
O O18 0.429627 0.750000 0.122898
#
# Coordination Sequence:
#
# PCOD8250881 Si02
#       7
#     8   8   8   8   8   8   8
#     4   9  20  36  54  76 107 143 176 214 271 331
#     4   8  16  31  53  77 101 133 172 214 266 318
#     4   9  18  36  59  81 105 139 183 229 271 320
#     4  11  20  33  54  78 105 138 177 224 272 321
#     4  10  20  32  48  72 105 141 172 209 257 314
#     4   9  16  32  54  72  97 136 175 212 255 313
#     4  10  19  30  48  76 104 131 170 216 256 303
#
# _framework density 18.424875
#
# number of rings (size 3 to 8) (size 9 to 14) (size 15 to 20)
#    0.000    2.571    1.429    3.000    0.000    2.286 
#    0.000    5.000    0.000    6.857    0.000    0.000 
#    0.000    0.000    0.000    0.000    0.000    0.000 
#
# Total GULP energy -693955.757266 kJ/mol
# GULP energy per Si atom -12392.067094 kJ/mol
# Density = 1.838294 g / cm^3
# Si number density = 18.424875 Si / 1000 Ang^3
#
#
#
# Elastic Constant Matrix: (Units=GPa)
#
#
# Indices 1 2 3 4 5 6 
#
# 1 140.2350 60.4655 32.9972 0.0000 0.0000 0.0000
# 2 60.4655 109.2031 33.0534 0.0000 0.0000 0.0000
# 3 32.9972 33.0534 54.3333 0.0000 0.0000 0.0000
# 4 0.0000 0.0000 0.0000 25.4197 0.0000 0.0000
# 5 0.0000 0.0000 0.0000 0.0000 14.8861 0.0000
# 6 0.0000 0.0000 0.0000 0.0000 0.0000 33.6744
#
#
#
# Elastic Compliance Matrix: (Units=1/GPa)
#
#
# Indices 1 2 3 4 5 6 
#
# 1 0.009815 -0.004450 -0.003254 0.000000 0.000000 0.000000
# 2 -0.004450 0.013241 -0.005353 0.000000 0.000000 0.000000
# 3 -0.003254 -0.005353 0.023637 0.000000 0.000000 0.000000
# 4 0.000000 0.000000 0.000000 0.039340 0.000000 0.000000
# 5 0.000000 0.000000 0.000000 0.000000 0.067177 0.000000
# 6 0.000000 0.000000 0.000000 0.000000 0.000000 0.029696
#
#
# Mechanical properties :
#
#
# Convention : Reuss Voigt Hill
#
# Bulk Modulus (GPa) = 48.58885 61.86705 55.22795
# Shear Modulus (GPa) = 23.16107 26.61307 24.88707
#
# Velocity S-wave (km/s) = 3.54934 3.80466 3.67922
# Velocity P-wave (km/s) = 6.57463 7.27678 6.93459
#
# Compressibility (1/GPa) = 0.02058085
#
# Stress axis : x y z
#
# Youngs Moduli (GPa) = 101.88361 75.52151 42.30585
#
# Poissons Ratio (x) = 0.33605 0.13766
# Poissons Ratio (y) = 0.45336 0.22646
# Poissons Ratio (z) = 0.33151 0.40426
#
# Static dielectric constant tensor:
#      x y z
#    x 3.468410 0.000000 0.000000 
#    y 0.000000 3.418540 0.000000 
#    z 0.000000 0.000000 3.086140 
# 
# 
# High freq. dielectric constant tensor:
#      x y z
#    x 1.718100 0.000000 0.000000 
#    y 0.000000 1.706760 0.000000 
#    z 0.000000 0.000000 1.679990 
# 
# From -- ./inp_files/24555.got.cif
#   From: 2010.03.12/outbox.cif.g09.slc.cpg/sg62_13_cif.got.tgz:24555.got - 2010.04.10 19:12:36.
