data_PCOD8250415
_publ_section_title
;
Structure prediction by ZEFSAII (Michael W. Deem and Ramdas Pophale) SiO2 
 PCOD8250415
Probable space group: P N M A
;
_chemical_formula_sum "Si O2"
_cell_formula_units_Z 52
_cell_length_a 14.655622
_cell_length_b 7.919054
_cell_length_c 23.009454
_cell_angle_alpha 90.000000
_cell_angle_beta 90.000000
_cell_angle_gamma 90.000000
_cell_volume 2670.446445
_symmetry_space_group_name_H-M "P N M A"
_symmetry_group_IT_number 62
_symmetry_cell_setting 'orthorhombic'
loop_
_space_group_symop_operation_xyz
x,y,z
1/2-x,-y,1/2+z
1/2+x,1/2-y,1/2-z
-x,1/2+y,-z
-x,-y,-z
1/2+x,y,1/2-z
1/2-x,1/2+y,1/2+z
x,1/2-y,z
loop_
_atom_site_type_symbol
_atom_site_label
_atom_site_fract_x
_atom_site_fract_y
_atom_site_fract_z
Si Si1 0.622543 0.250000 0.765879
Si Si2 0.440182 0.551638 0.945159
Si Si3 0.435686 0.443807 0.156245
Si Si4 0.434936 0.934428 0.449329
Si Si5 0.687299 0.750000 0.321709
Si Si6 0.754006 0.442119 0.018709
Si Si7 0.489947 0.750000 0.343624
Si Si8 0.741881 0.434795 0.394206
O O1 0.579629 0.421710 0.792317
O O2 0.733775 0.250000 0.772410
O O3 0.598495 0.250000 0.697955
O O4 0.441076 0.750000 0.941531
O O5 0.481083 0.487884 0.883670
O O6 0.336451 0.482349 0.950391
O O7 0.500000 0.500000 0.000000
O O8 0.450430 0.250000 0.180059
O O9 0.350037 0.448264 0.113340
O O10 0.400730 0.750000 0.469115
O O11 0.486180 0.915731 0.386488
O O12 0.500000 0.000000 0.500000
O O13 0.344023 0.048178 0.440700
O O14 0.580666 0.750000 0.302350
O O15 0.693019 0.581379 0.359210
O O16 0.733878 0.250000 0.000708
O O17 0.779218 0.547346 0.961816
O O18 0.706941 0.250000 0.373021
#
# Coordination Sequence:
#
# PCOD8250415 Si02
#       8
#     4   8   8   8   4   8   4   8
#     4  10  22  42  66  88 116 162 211 258 305 349
#     4  10  20  30  49  83 128 162 202 252 306 376
#     4   9  19  36  55  86 121 161 209 256 294 358
#     4  10  22  39  61  84 121 149 197 257 313 375
#     4  10  20  40  66  82 122 154 203 265 290 352
#     4  11  20  32  52  84 127 164 192 240 320 366
#     4  10  24  44  62  94 120 158 214 253 309 385
#     4  10  18  30  57  88 117 160 205 242 294 365
#
# _framework density 19.4724
#
# number of rings (size 3 to 8) (size 9 to 14) (size 15 to 20)
#    0.462    1.538    2.308    1.846    1.077    0.615 
#    2.769    3.077    0.000    0.000    0.000    0.000 
#    0.000    0.000    0.000    0.000    0.000    0.000 
#
# Total GULP energy -644203.116115 kJ/mol
# GULP energy per Si atom -12388.521464 kJ/mol
# Density = 1.942808 g / cm^3
# Si number density = 19.472400 Si / 1000 Ang^3
#
#
#
# Elastic Constant Matrix: (Units=GPa)
#
#
# Indices 1 2 3 4 5 6 
#
# 1 131.7181 14.8915 40.3001 0.0000 0.0000 0.0000
# 2 14.8915 85.2726 21.1228 0.0000 0.0000 0.0000
# 3 40.3001 21.1228 86.7955 0.0000 0.0000 0.0000
# 4 0.0000 0.0000 0.0000 20.9781 0.0000 0.0000
# 5 0.0000 0.0000 0.0000 0.0000 25.7387 0.0000
# 6 0.0000 0.0000 0.0000 0.0000 0.0000 14.4640
#
#
#
# Elastic Compliance Matrix: (Units=1/GPa)
#
#
# Indices 1 2 3 4 5 6 
#
# 1 0.008874 -0.000563 -0.003983 0.000000 0.000000 0.000000
# 2 -0.000563 0.012515 -0.002784 0.000000 0.000000 0.000000
# 3 -0.003983 -0.002784 0.014048 0.000000 0.000000 0.000000
# 4 0.000000 0.000000 0.000000 0.047669 0.000000 0.000000
# 5 0.000000 0.000000 0.000000 0.000000 0.038852 0.000000
# 6 0.000000 0.000000 0.000000 0.000000 0.000000 0.069137
#
#
# Mechanical properties :
#
#
# Convention : Reuss Voigt Hill
#
# Bulk Modulus (GPa) = 48.13146 50.71278 49.42212
# Shear Modulus (GPa) = 23.50916 27.40094 25.45505
#
# Velocity S-wave (km/s) = 3.47840 3.75529 3.61950
# Velocity P-wave (km/s) = 6.39561 6.70096 6.55007
#
# Compressibility (1/GPa) = 0.02077643
#
# Stress axis : x y z
#
# Youngs Moduli (GPa) = 112.68377 79.90338 71.18203
#
# Poissons Ratio (x) = 0.04499 0.28355
# Poissons Ratio (y) = 0.06344 0.19819
# Poissons Ratio (z) = 0.44887 0.22247
#
# Static dielectric constant tensor:
#      x y z
#    x 3.770600 0.000000 0.000000 
#    y 0.000000 3.679110 0.000000 
#    z 0.000000 0.000000 3.113670 
# 
# 
# High freq. dielectric constant tensor:
#      x y z
#    x 1.764500 0.000000 0.000000 
#    y 0.000000 1.761850 0.000000 
#    z 0.000000 0.000000 1.712210 
# 
# From -- ./inp_files/27040.got.cif
#   From: 2010.03.12/outbox.cif.g09.slc.cpg/sg62_14_cif.got.tgz:27040.got - 2010.04.10 19:12:36.
