data_PCOD8250776
_publ_section_title
;
Structure prediction by ZEFSAII (Michael W. Deem and Ramdas Pophale) SiO2 
 PCOD8250776
Probable space group: P N M A
;
_chemical_formula_sum "Si O2"
_cell_formula_units_Z 64
_cell_length_a 21.765912
_cell_length_b 9.222912
_cell_length_c 21.031600
_cell_angle_alpha 90.000000
_cell_angle_beta 90.000000
_cell_angle_gamma 90.000000
_cell_volume 4221.990455
_symmetry_space_group_name_H-M "P N M A"
_symmetry_group_IT_number 62
_symmetry_cell_setting 'orthorhombic'
loop_
_space_group_symop_operation_xyz
x,y,z
1/2-x,-y,1/2+z
1/2+x,1/2-y,1/2-z
-x,1/2+y,-z
-x,-y,-z
1/2+x,y,1/2-z
1/2-x,1/2+y,1/2+z
x,1/2-y,z
loop_
_atom_site_type_symbol
_atom_site_label
_atom_site_fract_x
_atom_site_fract_y
_atom_site_fract_z
Si Si1 0.932133 0.920532 0.836265
Si Si2 0.658532 0.085851 0.762598
Si Si3 0.927096 0.418940 0.175739
Si Si4 0.255608 0.086648 0.155406
Si Si5 0.658355 0.409814 0.231989
Si Si6 0.258302 0.411932 0.848324
Si Si7 0.339183 0.420281 0.576151
Si Si8 0.669993 0.583457 0.570419
O O1 0.921269 0.750000 0.850086
O O2 0.904292 0.961138 0.766803
O O3 0.003075 0.963936 0.837127
O O4 0.899082 0.012715 0.890795
O O5 0.642853 0.250000 0.783049
O O6 0.710171 0.084207 0.708753
O O7 0.597471 0.009206 0.735869
O O8 0.682383 0.997185 0.823993
O O9 0.921070 0.250000 0.192733
O O10 0.889100 0.459188 0.112500
O O11 0.271834 0.250000 0.132599
O O12 0.210555 0.093914 0.214832
O O13 0.223228 0.997738 0.098937
O O14 0.649895 0.250000 0.202419
O O15 0.677797 0.515904 0.174839
O O16 0.273955 0.250000 0.869863
O O17 0.230079 0.494229 0.908776
O O18 0.334969 0.250000 0.592086
O O19 0.346991 0.450786 0.501745
O O20 0.687432 0.750000 0.580862
#
# Coordination Sequence:
#
# PCOD8250776 Si02
#       8
#     8   8   8   8   8   8   8   8
#     4   9  18  30  43  59  81 113 148 177 206 243
#     4   9  16  26  41  62  83 102 130 171 216 253
#     4   9  17  30  44  58  81 114 149 177 203 244
#     4   9  16  27  43  60  78 104 135 168 210 254
#     4   8  14  25  40  57  77 101 130 166 209 250
#     4   9  16  25  40  60  78  99 130 169 210 250
#     4  10  19  29  41  59  83 111 143 177 211 244
#     4   9  18  30  42  57  81 113 143 173 209 245
#
# _framework density 15.158727000000001
#
# number of rings (size 3 to 8) (size 9 to 14) (size 15 to 20)
#    0.000    3.000    0.000    2.250    0.000    8.000 
#    0.000    0.000    0.000    0.000    0.000    0.000 
#    0.000    1.000    0.000    3.000    0.000    4.250 
#
# Total GULP energy -793425.919305 kJ/mol
# GULP energy per Si atom -12397.279989 kJ/mol
# Density = 1.512422 g / cm^3
# Si number density = 15.158727 Si / 1000 Ang^3
#
#
#
# Elastic Constant Matrix: (Units=GPa)
#
#
# Indices 1 2 3 4 5 6 
#
# 1 74.9589 56.5591 62.0232 0.0000 0.0000 0.0000
# 2 56.5591 104.0504 48.4975 0.0000 0.0000 0.0000
# 3 62.0232 48.4975 53.8576 0.0000 0.0000 0.0000
# 4 0.0000 0.0000 0.0000 22.2726 0.0000 0.0000
# 5 0.0000 0.0000 0.0000 0.0000 15.6359 0.0000
# 6 0.0000 0.0000 0.0000 0.0000 0.0000 19.8775
#
#
#
# Elastic Compliance Matrix: (Units=1/GPa)
#
#
# Indices 1 2 3 4 5 6 
#
# 1 0.283780 -0.003331 -0.323806 0.000000 0.000000 0.000000
# 2 -0.003331 0.016601 -0.011113 0.000000 0.000000 0.000000
# 3 -0.323806 -0.011113 0.401473 0.000000 0.000000 0.000000
# 4 0.000000 0.000000 0.000000 0.044898 0.000000 0.000000
# 5 0.000000 0.000000 0.000000 0.000000 0.063956 0.000000
# 6 0.000000 0.000000 0.000000 0.000000 0.000000 0.050308
#
#
# Mechanical properties :
#
#
# Convention : Reuss Voigt Hill
#
# Bulk Modulus (GPa) = 39.43903 63.00293 51.22098
# Shear Modulus (GPa) = 3.23422 15.94299 9.58861
#
# Velocity S-wave (km/s) = 1.46226 3.24657 2.51778
# Velocity P-wave (km/s) = 5.37818 7.46364 6.50503
#
# Compressibility (1/GPa) = 0.02535560
#
# Stress axis : x y z
#
# Youngs Moduli (GPa) = 3.52386 60.23732 2.49082
#
# Poissons Ratio (x) = 0.20064 0.80654
# Poissons Ratio (y) = 0.01174 0.02768
# Poissons Ratio (z) = 1.14104 0.66942
#
# Static dielectric constant tensor:
#      x y z
#    x 2.832670 0.000000 0.000000 
#    y 0.000000 3.108510 0.000000 
#    z 0.000000 0.000000 2.708680 
# 
# 
# High freq. dielectric constant tensor:
#      x y z
#    x 1.554550 0.000000 0.000000 
#    y 0.000000 1.593740 0.000000 
#    z 0.000000 0.000000 1.547170 
# 
# From -- ./inp_files/24963.got.cif
#   From: 2010.03.12/outbox.cif.g09.slc.cpg/sg62_13_cif.got.tgz:24963.got - 2010.04.10 19:12:36.
