data_PCOD8250273
_publ_section_title
;
Structure prediction by ZEFSAII (Michael W. Deem and Ramdas Pophale) SiO2 
 PCOD8250273
Probable space group: P N M A
;
_chemical_formula_sum "Si O2"
_cell_formula_units_Z 56
_cell_length_a 21.170189
_cell_length_b 9.589331
_cell_length_c 14.889639
_cell_angle_alpha 90.000000
_cell_angle_beta 90.000000
_cell_angle_gamma 90.000000
_cell_volume 3022.715084
_symmetry_space_group_name_H-M "P N M A"
_symmetry_group_IT_number 62
_symmetry_cell_setting 'orthorhombic'
loop_
_space_group_symop_operation_xyz
x,y,z
1/2-x,-y,1/2+z
1/2+x,1/2-y,1/2-z
-x,1/2+y,-z
-x,-y,-z
1/2+x,y,1/2-z
1/2-x,1/2+y,1/2+z
x,1/2-y,z
loop_
_atom_site_type_symbol
_atom_site_label
_atom_site_fract_x
_atom_site_fract_y
_atom_site_fract_z
Si Si1 0.633241 0.903390 0.584525
Si Si2 0.267372 0.912328 0.982461
Si Si3 0.037059 0.586259 0.261126
Si Si4 0.041212 0.906534 0.063274
Si Si5 0.899270 0.913845 0.242064
Si Si6 0.333296 0.416459 0.839071
Si Si7 0.734169 0.414915 0.814012
O O1 0.621462 0.750000 0.627010
O O2 0.706944 0.936327 0.580293
O O3 0.610441 0.904123 0.481246
O O4 0.596385 0.016595 0.643904
O O5 0.288638 0.750000 0.983889
O O6 0.319059 0.008316 0.933560
O O7 0.253606 0.965729 0.083995
O O8 0.046879 0.750000 0.255081
O O9 0.046022 0.524631 0.161182
O O10 0.094625 0.530480 0.321525
O O11 0.965254 0.549988 0.295084
O O12 0.012664 0.750000 0.069010
O O13 0.000000 0.000000 0.000000
O O14 0.894362 0.750000 0.226528
O O15 0.836545 0.971597 0.290747
O O16 0.327845 0.250000 0.851539
O O17 0.287332 0.467798 0.756933
O O18 0.734420 0.250000 0.810231
#
# Coordination Sequence:
#
# PCOD8250273 Si02
#       7
#     8   8   8   8   8   8   8
#     4  10  19  30  48  73 103 133 163 209 266 309
#     4  10  20  35  53  76 104 136 174 220 266 308
#     4   9  18  31  50  74 104 134 167 212 258 302
#     4  10  18  29  46  72 103 135 166 203 254 314
#     4  10  18  32  53  76  99 132 174 211 246 302
#     4  10  19  35  56  78 102 136 177 216 256 309
#     4   9  18  33  55  76 100 137 179 211 252 312
#
# _framework density 18.526389999999999
#
# number of rings (size 3 to 8) (size 9 to 14) (size 15 to 20)
#    0.000    2.286    2.857    0.857    0.000    3.429 
#    0.000    3.571    0.000    1.714    0.000    0.000 
#    0.000    0.000    0.000    0.000    0.000    0.000 
#
# Total GULP energy -693786.648529 kJ/mol
# GULP energy per Si atom -12389.047295 kJ/mol
# Density = 1.848422 g / cm^3
# Si number density = 18.526390 Si / 1000 Ang^3
#
#
#
# Elastic Constant Matrix: (Units=GPa)
#
#
# Indices 1 2 3 4 5 6 
#
# 1 107.3862 17.7781 14.7000 0.0000 0.0000 0.0000
# 2 17.7781 33.4717 14.8487 0.0000 0.0000 0.0000
# 3 14.7000 14.8487 59.0583 0.0000 0.0000 0.0000
# 4 0.0000 0.0000 0.0000 24.5967 0.0000 0.0000
# 5 0.0000 0.0000 0.0000 0.0000 27.9741 0.0000
# 6 0.0000 0.0000 0.0000 0.0000 0.0000 17.6912
#
#
#
# Elastic Compliance Matrix: (Units=1/GPa)
#
#
# Indices 1 2 3 4 5 6 
#
# 1 0.010303 -0.004879 -0.001338 0.000000 0.000000 0.000000
# 2 -0.004879 0.035937 -0.007821 0.000000 0.000000 0.000000
# 3 -0.001338 -0.007821 0.019232 0.000000 0.000000 0.000000
# 4 0.000000 0.000000 0.000000 0.040656 0.000000 0.000000
# 5 0.000000 0.000000 0.000000 0.000000 0.035747 0.000000
# 6 0.000000 0.000000 0.000000 0.000000 0.000000 0.056525
#
#
# Mechanical properties :
#
#
# Convention : Reuss Voigt Hill
#
# Bulk Modulus (GPa) = 26.74063 32.72998 29.73531
# Shear Modulus (GPa) = 20.92565 24.22501 22.57533
#
# Velocity S-wave (km/s) = 3.36446 3.61999 3.49456
# Velocity P-wave (km/s) = 5.43672 5.93106 5.68926
#
# Compressibility (1/GPa) = 0.03739628
#
# Stress axis : x y z
#
# Youngs Moduli (GPa) = 97.05889 27.82658 51.99714
#
# Poissons Ratio (x) = 0.13576 0.06956
# Poissons Ratio (y) = 0.47354 0.40667
# Poissons Ratio (z) = 0.12985 0.21763
#
# Static dielectric constant tensor:
#      x y z
#    x 3.802570 0.000000 0.000000 
#    y 0.000000 3.066690 0.000000 
#    z 0.000000 0.000000 3.409450 
# 
# 
# High freq. dielectric constant tensor:
#      x y z
#    x 1.731620 0.000000 0.000000 
#    y 0.000000 1.681070 0.000000 
#    z 0.000000 0.000000 1.699990 
# 
# From -- ./inp_files/20228.got.cif
#   From: 2010.03.12/outbox.cif.g09.slc.cpg/sg62_11_cif.got.tgz:20228.got - 2010.04.10 19:12:36.
