data_PCOD8250247
_publ_section_title
;
Structure prediction by ZEFSAII (Michael W. Deem and Ramdas Pophale) SiO2 
 PCOD8250247
Probable space group: P N M A
;
_chemical_formula_sum "Si O2"
_cell_formula_units_Z 56
_cell_length_a 13.720192
_cell_length_b 8.774693
_cell_length_c 29.420424
_cell_angle_alpha 90.000000
_cell_angle_beta 90.000000
_cell_angle_gamma 90.000000
_cell_volume 3541.938752
_symmetry_space_group_name_H-M "P N M A"
_symmetry_group_IT_number 62
_symmetry_cell_setting 'orthorhombic'
loop_
_space_group_symop_operation_xyz
x,y,z
1/2-x,-y,1/2+z
1/2+x,1/2-y,1/2-z
-x,1/2+y,-z
-x,-y,-z
1/2+x,y,1/2-z
1/2-x,1/2+y,1/2+z
x,1/2-y,z
loop_
_atom_site_type_symbol
_atom_site_label
_atom_site_fract_x
_atom_site_fract_y
_atom_site_fract_z
Si Si1 0.114571 0.574034 0.774174
Si Si2 0.118149 0.069406 0.406158
Si Si3 0.204878 0.929301 0.318163
Si Si4 0.103699 0.928803 0.595703
Si Si5 0.395754 0.930716 0.733850
Si Si6 0.713219 0.926248 0.818976
Si Si7 0.105474 0.571279 0.496451
O O1 0.132642 0.750000 0.787033
O O2 0.184529 0.471567 0.804900
O O3 0.135411 0.547136 0.720996
O O4 0.003198 0.524482 0.783116
O O5 0.124776 0.250000 0.404729
O O6 0.006954 0.007929 0.401108
O O7 0.184660 0.999794 0.367163
O O8 0.161333 0.010518 0.454778
O O9 0.193556 0.750000 0.320425
O O10 0.127203 0.994541 0.282313
O O11 0.095499 0.750000 0.604866
O O12 0.171207 0.004937 0.635082
O O13 0.153305 0.960282 0.546296
O O14 0.385156 0.750000 0.740977
O O15 0.318341 0.993252 0.696448
O O16 0.729383 0.750000 0.829161
O O17 0.098546 0.750000 0.486653
O O18 0.000000 0.500000 0.500000
#
# Coordination Sequence:
#
# PCOD8250247 Si02
#       7
#     8   8   8   8   8   8   8
#     4   9  17  30  46  63  86 117 151 182 211 251
#     4  10  18  29  44  61  85 118 152 184 218 260
#     4  11  21  30  43  65  91 117 146 181 223 267
#     4   8  14  24  41  64  89 114 139 172 214 260
#     4   9  17  30  48  66  86 115 150 184 214 253
#     4   8  13  23  41  64  85 108 141 174 206 249
#     4   9  16  26  40  61  88 117 146 177 218 264
#
# _framework density 15.810549999999999
#
# number of rings (size 3 to 8) (size 9 to 14) (size 15 to 20)
#    0.000    2.857    0.000    4.714    0.000    2.857 
#    0.000    0.000    0.000   11.143    0.000    1.000 
#    0.000    0.000    0.000    0.000    0.000    0.000 
#
# Total GULP energy -693963.457471 kJ/mol
# GULP energy per Si atom -12392.204598 kJ/mol
# Density = 1.577456 g / cm^3
# Si number density = 15.810550 Si / 1000 Ang^3
#
#
#
# Elastic Constant Matrix: (Units=GPa)
#
#
# Indices 1 2 3 4 5 6 
#
# 1 73.9902 24.4571 39.8268 0.0000 0.0000 0.0000
# 2 24.4571 59.4174 34.6232 0.0000 0.0000 0.0000
# 3 39.8268 34.6232 123.0417 0.0000 0.0000 0.0000
# 4 0.0000 0.0000 0.0000 23.6044 0.0000 0.0000
# 5 0.0000 0.0000 0.0000 0.0000 21.9261 0.0000
# 6 0.0000 0.0000 0.0000 0.0000 0.0000 13.1158
#
#
#
# Elastic Compliance Matrix: (Units=1/GPa)
#
#
# Indices 1 2 3 4 5 6 
#
# 1 0.017372 -0.004634 -0.004319 0.000000 0.000000 0.000000
# 2 -0.004634 0.021367 -0.004513 0.000000 0.000000 0.000000
# 3 -0.004319 -0.004513 0.010795 0.000000 0.000000 0.000000
# 4 0.000000 0.000000 0.000000 0.042365 0.000000 0.000000
# 5 0.000000 0.000000 0.000000 0.000000 0.045608 0.000000
# 6 0.000000 0.000000 0.000000 0.000000 0.000000 0.076244
#
#
# Mechanical properties :
#
#
# Convention : Reuss Voigt Hill
#
# Bulk Modulus (GPa) = 44.24193 50.47374 47.35783
# Shear Modulus (GPa) = 20.14376 22.23207 21.18791
#
# Velocity S-wave (km/s) = 3.57329 3.75394 3.66473
# Velocity P-wave (km/s) = 6.71325 7.12621 6.92281
#
# Compressibility (1/GPa) = 0.02260299
#
# Stress axis : x y z
#
# Youngs Moduli (GPa) = 57.56454 46.80121 92.63370
#
# Poissons Ratio (x) = 0.21686 0.40010
# Poissons Ratio (y) = 0.26674 0.41803
# Poissons Ratio (z) = 0.24863 0.21120
#
# Static dielectric constant tensor:
#      x y z
#    x 2.959190 0.000000 0.000000 
#    y 0.000000 2.867770 0.000000 
#    z 0.000000 0.000000 3.440630 
# 
# 
# High freq. dielectric constant tensor:
#      x y z
#    x 1.575450 0.000000 0.000000 
#    y 0.000000 1.588870 0.000000 
#    z 0.000000 0.000000 1.610330 
# 
# From -- ./inp_files/32660.got.cif
#   From: 2010.03.12/outbox.cif.g09.slc.cpg/sg62_17_cif.got.tgz:32660.got - 2010.04.10 19:12:36.
