data_PCOD8250699
_publ_section_title
;
Structure prediction by ZEFSAII (Michael W. Deem and Ramdas Pophale) SiO2 
 PCOD8250699
Probable space group: P N M A
;
_chemical_formula_sum "Si O2"
_cell_formula_units_Z 64
_cell_length_a 5.241443
_cell_length_b 31.394913
_cell_length_c 18.649063
_cell_angle_alpha 90.000000
_cell_angle_beta 90.000000
_cell_angle_gamma 90.000000
_cell_volume 3068.789978
_symmetry_space_group_name_H-M "P N M A"
_symmetry_group_IT_number 62
_symmetry_cell_setting 'orthorhombic'
loop_
_space_group_symop_operation_xyz
x,y,z
1/2-x,-y,1/2+z
1/2+x,1/2-y,1/2-z
-x,1/2+y,-z
-x,-y,-z
1/2+x,y,1/2-z
1/2-x,1/2+y,1/2+z
x,1/2-y,z
loop_
_atom_site_type_symbol
_atom_site_label
_atom_site_fract_x
_atom_site_fract_y
_atom_site_fract_z
Si Si1 0.243804 0.974685 0.677449
Si Si2 0.241338 0.297993 0.079273
Si Si3 0.254142 0.926260 0.206303
Si Si4 0.756223 0.438403 0.166637
Si Si5 0.778519 0.180305 0.578009
Si Si6 0.612567 0.296818 0.723884
Si Si7 0.235274 0.352543 0.409384
Si Si8 0.224950 0.629972 0.070857
O O1 0.243093 0.945066 0.748104
O O2 0.495175 0.961754 0.632210
O O3 0.992104 0.961868 0.632302
O O4 0.244290 0.023096 0.701596
O O5 0.242141 0.250000 0.111985
O O6 0.481316 0.325219 0.107450
O O7 0.976870 0.321292 0.097608
O O8 0.268098 0.292602 0.993969
O O9 0.500024 0.910632 0.251837
O O10 0.263969 0.909964 0.123903
O O11 0.757601 0.388264 0.151164
O O12 0.690189 0.210297 0.642260
O O13 0.572054 0.142220 0.576524
O O14 0.066980 0.165260 0.594642
O O15 0.842827 0.321759 0.765852
O O16 0.562007 0.250000 0.758655
O O17 0.217691 0.377376 0.486066
#
# Coordination Sequence:
#
# PCOD8250699 Si02
#       8
#     8   8   8   8   8   8   8   8
#     4  10  19  35  58  85 103 142 192 221 264 331
#     4  10  20  36  58  81 109 147 185 221 271 332
#     4  12  21  37  56  78 111 145 192 239 268 325
#     4  10  18  35  59  83 113 140 181 236 263 324
#     4  10  20  36  50  70 102 139 184 219 269 330
#     4  10  20  31  46  66  92 123 169 226 270 313
#     4  10  21  37  56  86 117 143 181 233 279 326
#     4  10  23  35  51  77 109 143 178 229 280 321
#
# _framework density 20.855125000000001
#
# number of rings (size 3 to 8) (size 9 to 14) (size 15 to 20)
#    0.000    1.750    2.500    3.000    0.000    3.000 
#    0.000    5.000    0.000    0.000    0.000   35.000 
#    0.000    0.000    0.000    0.000    0.000    0.000 
#
# Total GULP energy -792962.014409 kJ/mol
# GULP energy per Si atom -12390.031475 kJ/mol
# Density = 2.080766 g / cm^3
# Si number density = 20.855125 Si / 1000 Ang^3
#
#
#
# Elastic Constant Matrix: (Units=GPa)
#
#
# Indices 1 2 3 4 5 6 
#
# 1 176.4472 25.5979 9.0520 0.0000 0.0000 0.0000
# 2 25.5979 76.8503 35.0677 0.0000 0.0000 0.0000
# 3 9.0520 35.0677 39.2077 0.0000 0.0000 0.0000
# 4 0.0000 0.0000 0.0000 10.4798 0.0000 0.0000
# 5 0.0000 0.0000 0.0000 0.0000 17.1483 0.0000
# 6 0.0000 0.0000 0.0000 0.0000 0.0000 20.4341
#
#
#
# Elastic Compliance Matrix: (Units=1/GPa)
#
#
# Indices 1 2 3 4 5 6 
#
# 1 0.005966 -0.002295 0.000676 0.000000 0.000000 0.000000
# 2 -0.002295 0.022868 -0.019924 0.000000 0.000000 0.000000
# 3 0.000676 -0.019924 0.043169 0.000000 0.000000 0.000000
# 4 0.000000 0.000000 0.000000 0.095422 0.000000 0.000000
# 5 0.000000 0.000000 0.000000 0.000000 0.058315 0.000000
# 6 0.000000 0.000000 0.000000 0.000000 0.000000 0.048938
#
#
# Mechanical properties :
#
#
# Convention : Reuss Voigt Hill
#
# Bulk Modulus (GPa) = 34.58243 47.99338 41.28790
# Shear Modulus (GPa) = 15.27169 24.46494 19.86832
#
# Velocity S-wave (km/s) = 2.70899 3.42876 3.08990
# Velocity P-wave (km/s) = 5.13839 6.22398 5.70705
#
# Compressibility (1/GPa) = 0.02891642
#
# Stress axis : x y z
#
# Youngs Moduli (GPa) = 167.62310 43.72856 23.16470
#
# Poissons Ratio (x) = 0.10038 -0.01565
# Poissons Ratio (y) = 0.38478 0.46153
# Poissons Ratio (z) = -0.11328 0.87123
#
# Static dielectric constant tensor:
#      x y z
#    x 6.537330 0.000000 0.000000 
#    y 0.000000 3.422550 0.000000 
#    z 0.000000 0.000000 3.437260 
# 
# 
# High freq. dielectric constant tensor:
#      x y z
#    x 1.857000 0.000000 0.000000 
#    y 0.000000 1.799050 0.000000 
#    z 0.000000 0.000000 1.771680 
# 
# From -- ./inp_files/25459.got.cif
#   From: 2010.03.12/outbox.cif.g09.slc.cpg/sg62_13_cif.got.tgz:25459.got - 2010.04.10 19:12:36.
