data_PCOD8250820
_publ_section_title
;
Structure prediction by ZEFSAII (Michael W. Deem and Ramdas Pophale) SiO2 
 PCOD8250820
Probable space group: P N M A
;
_chemical_formula_sum "Si O2"
_cell_formula_units_Z 56
_cell_length_a 12.092249
_cell_length_b 8.546215
_cell_length_c 28.960278
_cell_angle_alpha 90.000000
_cell_angle_beta 90.000000
_cell_angle_gamma 90.000000
_cell_volume 2992.840845
_symmetry_space_group_name_H-M "P N M A"
_symmetry_group_IT_number 62
_symmetry_cell_setting 'orthorhombic'
loop_
_space_group_symop_operation_xyz
x,y,z
1/2-x,-y,1/2+z
1/2+x,1/2-y,1/2-z
-x,1/2+y,-z
-x,-y,-z
1/2+x,y,1/2-z
1/2-x,1/2+y,1/2+z
x,1/2-y,z
loop_
_atom_site_type_symbol
_atom_site_label
_atom_site_fract_x
_atom_site_fract_y
_atom_site_fract_z
Si Si1 0.380051 0.937371 0.161184
Si Si2 0.969220 0.072936 0.846712
Si Si3 0.773841 0.072851 0.916965
Si Si4 0.307630 0.062964 0.728408
Si Si5 0.377823 0.435769 0.492228
Si Si6 0.182937 0.436200 0.894648
Si Si7 0.373336 0.064389 0.827832
O O1 0.379617 0.750000 0.159137
O O2 0.323125 0.006185 0.114172
O O3 0.308438 0.992607 0.205755
O O4 0.503739 0.005403 0.165281
O O5 0.996694 0.250000 0.832950
O O6 0.889356 0.063831 0.890370
O O7 0.910213 0.994485 0.802155
O O8 0.085078 0.994611 0.861917
O O9 0.736771 0.250000 0.924834
O O10 0.796502 0.996684 0.967252
O O11 0.311959 0.250000 0.726499
O O12 0.319701 0.998686 0.780384
O O13 0.500000 0.500000 0.500000
O O14 0.385203 0.250000 0.495311
O O15 0.322940 0.486969 0.444576
O O16 0.171409 0.250000 0.900079
O O17 0.298337 0.486161 0.871100
O O18 0.379908 0.250000 0.824164
#
# Coordination Sequence:
#
# PCOD8250820 Si02
#       7
#     8   8   8   8   8   8   8
#     4   8  14  25  38  58  91 126 160 191 232 288
#     4   8  13  23  39  60  90 122 149 182 231 283
#     4   8  14  26  43  61  84 119 154 190 234 283
#     4   8  14  22  37  61  91 127 159 190 234 283
#     4  11  20  32  51  73  95 123 160 200 246 293
#     4  10  19  30  44  69 104 129 152 194 244 284
#     4   9  17  25  38  62  96 132 158 193 236 277
#
# _framework density 18.711319
#
# number of rings (size 3 to 8) (size 9 to 14) (size 15 to 20)
#    0.000    3.143    1.429    2.143    2.000    0.000 
#    0.000    0.714    0.000    0.000    0.000    2.000 
#    0.000    0.000    0.000    0.000    0.000    0.000 
#
# Total GULP energy -693739.561787 kJ/mol
# GULP energy per Si atom -12388.206460 kJ/mol
# Density = 1.866873 g / cm^3
# Si number density = 18.711319 Si / 1000 Ang^3
#
#
#
# Elastic Constant Matrix: (Units=GPa)
#
#
# Indices 1 2 3 4 5 6 
#
# 1 145.7699 8.5939 83.9152 0.0000 0.0000 0.0000
# 2 8.5939 14.7090 14.9202 0.0000 0.0000 0.0000
# 3 83.9152 14.9202 166.2350 0.0000 0.0000 0.0000
# 4 0.0000 0.0000 0.0000 18.4830 0.0000 0.0000
# 5 0.0000 0.0000 0.0000 0.0000 26.7830 0.0000
# 6 0.0000 0.0000 0.0000 0.0000 0.0000 7.9221
#
#
#
# Elastic Compliance Matrix: (Units=1/GPa)
#
#
# Indices 1 2 3 4 5 6 
#
# 1 0.009678 -0.000769 -0.004817 0.000000 0.000000 0.000000
# 2 -0.000769 0.074856 -0.006330 0.000000 0.000000 0.000000
# 3 -0.004817 -0.006330 0.009015 0.000000 0.000000 0.000000
# 4 0.000000 0.000000 0.000000 0.054104 0.000000 0.000000
# 5 0.000000 0.000000 0.000000 0.000000 0.037337 0.000000
# 6 0.000000 0.000000 0.000000 0.000000 0.000000 0.126229
#
#
# Mechanical properties :
#
#
# Convention : Reuss Voigt Hill
#
# Bulk Modulus (GPa) = 14.34359 60.17472 37.25915
# Shear Modulus (GPa) = 13.95516 25.25660 19.60588
#
# Velocity S-wave (km/s) = 2.73392 3.67795 3.24050
# Velocity P-wave (km/s) = 4.20097 7.08984 5.82726
#
# Compressibility (1/GPa) = 0.06971757
#
# Stress axis : x y z
#
# Youngs Moduli (GPa) = 103.32525 13.35897 110.92454
#
# Poissons Ratio (x) = 0.01027 0.53427
# Poissons Ratio (y) = 0.07945 0.70221
# Poissons Ratio (z) = 0.49767 0.08457
#
# Static dielectric constant tensor:
#      x y z
#    x 3.614480 0.000000 0.000000 
#    y 0.000000 2.713670 0.000000 
#    z 0.000000 0.000000 3.734870 
# 
# 
# High freq. dielectric constant tensor:
#      x y z
#    x 1.723660 0.000000 0.000000 
#    y 0.000000 1.645310 0.000000 
#    z 0.000000 0.000000 1.737180 
# 
# From -- ./inp_files/31183.got.cif
#   From: 2010.03.12/outbox.cif.g09.slc.cpg/sg62_16_cif.got.tgz:31183.got - 2010.04.10 19:12:36.
