data_PCOD8250587
_publ_section_title
;
Structure prediction by ZEFSAII (Michael W. Deem and Ramdas Pophale) SiO2 
 PCOD8250587
Probable space group: P N M A
;
_chemical_formula_sum "Si O2"
_cell_formula_units_Z 48
_cell_length_a 5.276151
_cell_length_b 20.861886
_cell_length_c 21.459131
_cell_angle_alpha 90.000000
_cell_angle_beta 90.000000
_cell_angle_gamma 90.000000
_cell_volume 2362.016435
_symmetry_space_group_name_H-M "P N M A"
_symmetry_group_IT_number 62
_symmetry_cell_setting 'orthorhombic'
loop_
_space_group_symop_operation_xyz
x,y,z
1/2-x,-y,1/2+z
1/2+x,1/2-y,1/2-z
-x,1/2+y,-z
-x,-y,-z
1/2+x,y,1/2-z
1/2-x,1/2+y,1/2+z
x,1/2-y,z
loop_
_atom_site_type_symbol
_atom_site_label
_atom_site_fract_x
_atom_site_fract_y
_atom_site_fract_z
Si Si1 0.000008 0.597361 0.212881
Si Si2 0.999972 0.677069 0.088403
Si Si3 0.999973 0.908193 0.612630
Si Si4 0.500022 0.323611 0.991346
Si Si5 0.000020 0.162499 0.266377
Si Si6 0.000020 0.454907 0.168766
O O1 0.750002 0.619398 0.249998
O O2 0.000007 0.521363 0.204710
O O3 0.000028 0.630311 0.146332
O O4 0.999970 0.750000 0.112583
O O5 0.249588 0.663061 0.048373
O O6 0.750303 0.663052 0.048396
O O7 0.999956 0.849746 0.660700
O O8 0.252832 0.950230 0.624242
O O9 0.000004 0.876131 0.545451
O O10 0.747098 0.950228 0.624231
O O11 0.499982 0.250000 0.016432
O O12 0.750013 0.203355 0.250005
O O13 0.999993 0.097932 0.223688
#
# Coordination Sequence:
#
# PCOD8250587 Si02
#       6
#     8   8   8   8   8   8
#     4  12  23  38  62  89 115 147 189 231 286 358
#     4  10  23  42  60  82 115 149 189 244 291 329
#     4  10  18  32  56  81 110 152 192 224 275 341
#     4  10  21  40  61  80 110 156 200 235 280 336
#     4   8  14  25  44  69 100 134 170 210 260 313
#     4  10  19  33  53  83 117 148 182 228 285 337
#
# _framework density 20.321621
#
# number of rings (size 3 to 8) (size 9 to 14) (size 15 to 20)
#    0.000    2.000    0.000    6.000    0.000    0.667 
#    0.000    5.000    0.000    9.000    0.000    0.000 
#    0.000    0.000    0.000    0.000    0.000    0.000 
#
# Total GULP energy -594863.287429 kJ/mol
# GULP energy per Si atom -12392.985155 kJ/mol
# Density = 2.027537 g / cm^3
# Si number density = 20.321621 Si / 1000 Ang^3
#
#
#
# Elastic Constant Matrix: (Units=GPa)
#
#
# Indices 1 2 3 4 5 6 
#
# 1 212.8728 8.7701 47.5436 0.0000 0.0000 0.0000
# 2 8.7701 51.2549 30.7303 0.0000 0.0000 0.0000
# 3 47.5436 30.7303 100.0064 0.0000 0.0000 0.0000
# 4 0.0000 0.0000 0.0000 49.4866 0.0000 0.0000
# 5 0.0000 0.0000 0.0000 0.0000 29.4200 0.0000
# 6 0.0000 0.0000 0.0000 0.0000 0.0000 24.8289
#
#
#
# Elastic Compliance Matrix: (Units=1/GPa)
#
#
# Indices 1 2 3 4 5 6 
#
# 1 0.005278 0.000737 -0.002736 0.000000 0.000000 0.000000
# 2 0.000737 0.024020 -0.007731 0.000000 0.000000 0.000000
# 3 -0.002736 -0.007731 0.013676 0.000000 0.000000 0.000000
# 4 0.000000 0.000000 0.000000 0.020208 0.000000 0.000000
# 5 0.000000 0.000000 0.000000 0.000000 0.033991 0.000000
# 6 0.000000 0.000000 0.000000 0.000000 0.000000 0.040276
#
#
# Mechanical properties :
#
#
# Convention : Reuss Voigt Hill
#
# Bulk Modulus (GPa) = 42.52858 59.80248 51.16553
# Shear Modulus (GPa) = 30.34995 39.21976 34.78486
#
# Velocity S-wave (km/s) = 3.86875 4.39789 4.14178
# Velocity P-wave (km/s) = 6.39762 7.43508 6.93577
#
# Compressibility (1/GPa) = 0.02351360
#
# Stress axis : x y z
#
# Youngs Moduli (GPa) = 189.45484 41.63280 73.12252
#
# Poissons Ratio (x) = -0.03069 0.20005
# Poissons Ratio (y) = -0.13965 0.56533
# Poissons Ratio (z) = 0.51832 0.32187
#
# Static dielectric constant tensor:
#      x y z
#    x 4.878490 0.000000 0.000000 
#    y 0.000000 3.387650 0.000000 
#    z 0.000000 0.000000 3.439410 
# 
# 
# High freq. dielectric constant tensor:
#      x y z
#    x 1.833240 0.000000 0.000000 
#    y 0.000000 1.776700 0.000000 
#    z 0.000000 0.000000 1.782990 
# 
# From -- ./inp_files/25309.got.cif
#   From: 2010.03.12/outbox.cif.g09.slc.cpg/sg62_13_cif.got.tgz:25309.got - 2010.04.10 19:12:36.
