data_PCOD8250076
_publ_section_title
;
Structure prediction by ZEFSAII (Michael W. Deem and Ramdas Pophale) SiO2 
 PCOD8250076
Probable space group: P N M A
;
_chemical_formula_sum "Si O2"
_cell_formula_units_Z 40
_cell_length_a 5.060586
_cell_length_b 24.717498
_cell_length_c 17.976760
_cell_angle_alpha 90.000000
_cell_angle_beta 90.000000
_cell_angle_gamma 90.000000
_cell_volume 2248.623462
_symmetry_space_group_name_H-M "P N M A"
_symmetry_group_IT_number 62
_symmetry_cell_setting 'orthorhombic'
loop_
_space_group_symop_operation_xyz
x,y,z
1/2-x,-y,1/2+z
1/2+x,1/2-y,1/2-z
-x,1/2+y,-z
-x,-y,-z
1/2+x,y,1/2-z
1/2-x,1/2+y,1/2+z
x,1/2-y,z
loop_
_atom_site_type_symbol
_atom_site_label
_atom_site_fract_x
_atom_site_fract_y
_atom_site_fract_z
Si Si1 0.250023 0.524186 0.040706
Si Si2 0.751951 0.024020 0.297505
Si Si3 0.188361 0.250000 0.468700
Si Si4 0.188549 0.250000 0.126130
Si Si5 0.205046 0.865107 0.972513
Si Si6 0.204753 0.634764 0.628540
O O1 0.252025 0.509069 0.126514
O O2 0.500000 0.500000 0.000000
O O3 0.249604 0.589244 0.034492
O O4 0.000000 0.500000 0.000000
O O5 0.502010 0.006401 0.250014
O O6 0.748171 0.088502 0.310946
O O7 0.380128 0.250000 0.395836
O O8 0.254291 0.193942 0.512044
O O9 0.879957 0.250000 0.446773
O O10 0.256889 0.306261 0.168999
O O11 0.411518 0.871782 0.904581
O O12 0.912002 0.870797 0.939163
#
# Coordination Sequence:
#
# PCOD8250076 Si02
#       6
#     8   8   4   4   8   8
#     4  12  21  36  57  79 102 137 183 216 256 313
#     4  12  24  36  50  76 109 142 172 216 267 307
#     4   8  16  26  48  77 102 119 162 220 266 286
#     4   8  16  28  48  71  96 133 170 214 242 290
#     4  10  17  32  53  78  99 131 171 219 255 302
#     4  10  18  33  51  72 103 135 175 210 254 300
#
# _framework density 17.788661999999999
#
# number of rings (size 3 to 8) (size 9 to 14) (size 15 to 20)
#    0.000    1.600    4.000    2.400    0.000    0.000 
#    0.000    1.000    0.000    0.000    0.000    1.400 
#    0.000    0.000    0.000    0.000    0.000    0.000 
#
# Total GULP energy -495777.072572 kJ/mol
# GULP energy per Si atom -12394.426814 kJ/mol
# Density = 1.774817 g / cm^3
# Si number density = 17.788662 Si / 1000 Ang^3
#
#
#
# Elastic Constant Matrix: (Units=GPa)
#
#
# Indices 1 2 3 4 5 6 
#
# 1 115.9308 27.5223 38.5781 0.0000 0.0000 0.0000
# 2 27.5223 114.9791 42.6383 0.0000 0.0000 0.0000
# 3 38.5781 42.6383 92.0095 0.0000 0.0000 0.0000
# 4 0.0000 0.0000 0.0000 23.8870 0.0000 0.0000
# 5 0.0000 0.0000 0.0000 0.0000 24.6388 0.0000
# 6 0.0000 0.0000 0.0000 0.0000 0.0000 23.7939
#
#
#
# Elastic Compliance Matrix: (Units=1/GPa)
#
#
# Indices 1 2 3 4 5 6 
#
# 1 0.010124 -0.001025 -0.003769 0.000000 0.000000 0.000000
# 2 -0.001025 0.010606 -0.004485 0.000000 0.000000 0.000000
# 3 -0.003769 -0.004485 0.014527 0.000000 0.000000 0.000000
# 4 0.000000 0.000000 0.000000 0.041864 0.000000 0.000000
# 5 0.000000 0.000000 0.000000 0.000000 0.040586 0.000000
# 6 0.000000 0.000000 0.000000 0.000000 0.000000 0.042028
#
#
# Mechanical properties :
#
#
# Convention : Reuss Voigt Hill
#
# Bulk Modulus (GPa) = 59.89060 60.04409 59.96734
# Shear Modulus (GPa) = 27.19462 28.74265 27.96864
#
# Velocity S-wave (km/s) = 3.91418 4.02404 3.96949
# Velocity P-wave (km/s) = 7.35994 7.44433 7.40225
#
# Compressibility (1/GPa) = 0.01669711
#
# Stress axis : x y z
#
# Youngs Moduli (GPa) = 98.77868 94.28749 68.83593
#
# Poissons Ratio (x) = 0.09668 0.25948
# Poissons Ratio (y) = 0.10129 0.30872
# Poissons Ratio (z) = 0.37235 0.42287
#
# Static dielectric constant tensor:
#      x y z
#    x 3.568190 0.000000 0.000000 
#    y 0.000000 3.915630 0.000000 
#    z 0.000000 0.000000 2.815470 
# 
# 
# High freq. dielectric constant tensor:
#      x y z
#    x 1.720820 0.000000 0.000000 
#    y 0.000000 1.705170 0.000000 
#    z 0.000000 0.000000 1.615640 
# 
# From -- ./inp_files/16170.got.cif
#   From: 2010.03.12/outbox.cif.g09.slc.cpg/sg62_9_cif.got.tgz:16170.got - 2010.04.10 19:12:36.
