data_PCOD8250085
_publ_section_title
;
Structure prediction by ZEFSAII (Michael W. Deem and Ramdas Pophale) SiO2 
 PCOD8250085
Probable space group: P N M A
;
_chemical_formula_sum "Si O2"
_cell_formula_units_Z 56
_cell_length_a 14.656788
_cell_length_b 20.006243
_cell_length_c 9.681741
_cell_angle_alpha 90.000000
_cell_angle_beta 90.000000
_cell_angle_gamma 90.000000
_cell_volume 2838.950408
_symmetry_space_group_name_H-M "P N M A"
_symmetry_group_IT_number 62
_symmetry_cell_setting 'orthorhombic'
loop_
_space_group_symop_operation_xyz
x,y,z
1/2-x,-y,1/2+z
1/2+x,1/2-y,1/2-z
-x,1/2+y,-z
-x,-y,-z
1/2+x,y,1/2-z
1/2-x,1/2+y,1/2+z
x,1/2-y,z
loop_
_atom_site_type_symbol
_atom_site_label
_atom_site_fract_x
_atom_site_fract_y
_atom_site_fract_z
Si Si1 0.057395 0.109222 0.518477
Si Si2 0.405101 0.563631 0.710742
Si Si3 0.803820 0.824418 0.292596
Si Si4 0.274451 0.046383 0.782141
Si Si5 0.357819 0.110558 0.032189
Si Si6 0.912813 0.494632 0.266406
Si Si7 0.829448 0.675945 0.979427
O O1 0.093188 0.093126 0.365210
O O2 0.121663 0.164449 0.588320
O O3 0.955434 0.140690 0.515017
O O4 0.055425 0.040999 0.606526
O O5 0.321636 0.511344 0.691664
O O6 0.498937 0.524098 0.674296
O O7 0.390865 0.623321 0.603023
O O8 0.761305 0.750000 0.311945
O O9 0.725745 0.882290 0.301232
O O10 0.851457 0.830346 0.142057
O O11 0.168300 0.029647 0.818812
O O12 0.327272 0.053108 0.924854
O O13 0.371750 0.074881 0.178221
O O14 0.279566 0.166341 0.044112
O O15 0.854197 0.750000 0.925667
#
# Coordination Sequence:
#
# PCOD8250085 Si02
#       7
#     8   8   8   8   8   8   8
#     4  10  19  33  60  87 112 141 192 242 281 328
#     4  11  19  34  61  86 113 143 186 242 282 331
#     4   9  21  37  53  78 115 151 186 228 278 338
#     4  10  18  32  58  83 114 142 184 232 282 323
#     4  10  17  33  56  83 111 147 187 231 278 338
#     4  10  18  32  54  91 115 140 182 235 290 331
#     4  10  22  38  55  78 115 156 186 227 288 345
#
# _framework density 19.725598999999999
#
# number of rings (size 3 to 8) (size 9 to 14) (size 15 to 20)
#    0.000    2.000    4.286    0.857    0.000    1.143 
#    0.000   10.000    0.000    0.000    0.000    0.000 
#    0.000    0.000    0.000    0.000    0.000    0.000 
#
# Total GULP energy -694027.078241 kJ/mol
# GULP energy per Si atom -12393.340683 kJ/mol
# Density = 1.968070 g / cm^3
# Si number density = 19.725599 Si / 1000 Ang^3
#
#
#
# Elastic Constant Matrix: (Units=GPa)
#
#
# Indices 1 2 3 4 5 6 
#
# 1 93.7069 27.6146 12.0561 0.0000 0.0000 0.0000
# 2 27.6146 110.8666 16.9494 0.0000 0.0000 0.0000
# 3 12.0561 16.9494 42.7987 0.0000 0.0000 0.0000
# 4 0.0000 0.0000 0.0000 22.3172 0.0000 0.0000
# 5 0.0000 0.0000 0.0000 0.0000 27.4037 0.0000
# 6 0.0000 0.0000 0.0000 0.0000 0.0000 16.0315
#
#
#
# Elastic Compliance Matrix: (Units=1/GPa)
#
#
# Indices 1 2 3 4 5 6 
#
# 1 0.011723 -0.002571 -0.002284 0.000000 0.000000 0.000000
# 2 -0.002571 0.010165 -0.003301 0.000000 0.000000 0.000000
# 3 -0.002284 -0.003301 0.025316 0.000000 0.000000 0.000000
# 4 0.000000 0.000000 0.000000 0.044808 0.000000 0.000000
# 5 0.000000 0.000000 0.000000 0.000000 0.036491 0.000000
# 6 0.000000 0.000000 0.000000 0.000000 0.000000 0.062377
#
#
# Mechanical properties :
#
#
# Convention : Reuss Voigt Hill
#
# Bulk Modulus (GPa) = 32.37157 40.06804 36.21981
# Shear Modulus (GPa) = 22.98946 25.86729 24.42838
#
# Velocity S-wave (km/s) = 3.41759 3.62519 3.52292
# Velocity P-wave (km/s) = 5.65861 6.15463 5.91182
#
# Compressibility (1/GPa) = 0.03089130
#
# Stress axis : x y z
#
# Youngs Moduli (GPa) = 85.30212 98.37786 39.50059
#
# Poissons Ratio (x) = 0.25291 0.09023
# Poissons Ratio (y) = 0.21929 0.13041
# Poissons Ratio (z) = 0.19485 0.32478
#
# Static dielectric constant tensor:
#      x y z
#    x 3.674230 0.000000 0.000000 
#    y 0.000000 3.590580 0.000000 
#    z 0.000000 0.000000 3.299020 
# 
# 
# High freq. dielectric constant tensor:
#      x y z
#    x 1.763830 0.000000 0.000000 
#    y 0.000000 1.762260 0.000000 
#    z 0.000000 0.000000 1.744120 
# 
# From -- ./inp_files/6796.got.cif
#   From: 2010.03.12/outbox.cif.g09.slc.cpg/sg62_4_cif.got.tgz:6796.got - 2010.04.10 19:12:36.
