data_PCOD8250175
_publ_section_title
;
Structure prediction by ZEFSAII (Michael W. Deem and Ramdas Pophale) SiO2 
 PCOD8250175
Probable space group: P N M A
;
_chemical_formula_sum "Si O2"
_cell_formula_units_Z 64
_cell_length_a 18.252369
_cell_length_b 9.046158
_cell_length_c 26.234672
_cell_angle_alpha 90.000000
_cell_angle_beta 90.000000
_cell_angle_gamma 90.000000
_cell_volume 4331.706749
_symmetry_space_group_name_H-M "P N M A"
_symmetry_group_IT_number 62
_symmetry_cell_setting 'orthorhombic'
loop_
_space_group_symop_operation_xyz
x,y,z
1/2-x,-y,1/2+z
1/2+x,1/2-y,1/2-z
-x,1/2+y,-z
-x,-y,-z
1/2+x,y,1/2-z
1/2-x,1/2+y,1/2+z
x,1/2-y,z
loop_
_atom_site_type_symbol
_atom_site_label
_atom_site_fract_x
_atom_site_fract_y
_atom_site_fract_z
Si Si1 0.582590 0.420469 0.549818
Si Si2 0.586482 0.578911 0.446418
Si Si3 0.205951 0.416232 0.300760
Si Si4 0.084830 0.574024 0.243327
Si Si5 0.918614 0.923120 0.249108
Si Si6 0.200785 0.913259 0.698324
Si Si7 0.843801 0.574402 0.852802
Si Si8 0.831295 0.923727 0.150424
O O1 0.594464 0.250000 0.534162
O O2 0.604926 0.524815 0.503206
O O3 0.498733 0.446640 0.566137
O O4 0.633129 0.467595 0.596854
O O5 0.608357 0.750000 0.441044
O O6 0.634091 0.480829 0.408309
O O7 0.185097 0.250000 0.317619
O O8 0.132523 0.509472 0.289880
O O9 0.253309 0.414880 0.249994
O O10 0.253229 0.493858 0.345230
O O11 0.093757 0.750000 0.240824
O O12 0.107019 0.507820 0.188941
O O13 0.001828 0.523461 0.254178
O O14 0.913749 0.750000 0.252880
O O15 0.886221 0.977650 0.195010
O O16 0.870606 0.984581 0.296326
O O17 0.171601 0.750000 0.685987
O O18 0.257567 0.966467 0.654631
O O19 0.855632 0.750000 0.847004
O O20 0.817054 0.750000 0.154688
#
# Coordination Sequence:
#
# PCOD8250175 Si02
#       8
#     8   8   8   8   8   8   8   8
#     4   9  18  31  44  60  84 111 141 176 210 244
#     4  10  19  30  44  62  83 109 141 175 210 245
#     4   9  17  28  40  58  82 107 137 171 205 242
#     4  10  18  28  42  61  84 110 140 171 204 245
#     4   9  17  27  41  61  83 107 137 170 202 241
#     4   8  16  28  40  56  79 106 136 168 202 241
#     4  10  19  30  43  60  82 110 142 173 207 245
#     4   9  16  28  44  59  79 110 142 171 206 243
#
# _framework density 14.774777
#
# number of rings (size 3 to 8) (size 9 to 14) (size 15 to 20)
#    0.000    2.750    0.000    3.000    0.000    7.500 
#    0.000    2.500    0.000    0.000    0.000    0.000 
#    0.000    1.000    0.000    3.250    0.000    4.000 
#
# Total GULP energy -793457.829329 kJ/mol
# GULP energy per Si atom -12397.778583 kJ/mol
# Density = 1.474115 g / cm^3
# Si number density = 14.774777 Si / 1000 Ang^3
#
#
#
# Elastic Constant Matrix: (Units=GPa)
#
#
# Indices 1 2 3 4 5 6 
#
# 1 105.7319 48.4873 48.6307 0.0000 0.0000 0.0000
# 2 48.4873 63.5537 32.1294 0.0000 0.0000 0.0000
# 3 48.6307 32.1294 66.1465 0.0000 0.0000 0.0000
# 4 0.0000 0.0000 0.0000 23.0822 0.0000 0.0000
# 5 0.0000 0.0000 0.0000 0.0000 25.4779 0.0000
# 6 0.0000 0.0000 0.0000 0.0000 0.0000 22.9145
#
#
#
# Elastic Compliance Matrix: (Units=1/GPa)
#
#
# Indices 1 2 3 4 5 6 
#
# 1 0.017518 -0.009085 -0.008466 0.000000 0.000000 0.000000
# 2 -0.009085 0.025568 -0.005740 0.000000 0.000000 0.000000
# 3 -0.008466 -0.005740 0.024130 0.000000 0.000000 0.000000
# 4 0.000000 0.000000 0.000000 0.043323 0.000000 0.000000
# 5 0.000000 0.000000 0.000000 0.000000 0.039250 0.000000
# 6 0.000000 0.000000 0.000000 0.000000 0.000000 0.043640
#
#
# Mechanical properties :
#
#
# Convention : Reuss Voigt Hill
#
# Bulk Modulus (GPa) = 48.46391 54.88077 51.67234
# Shear Modulus (GPa) = 20.25187 21.37390 20.81289
#
# Velocity S-wave (km/s) = 3.70632 3.80761 3.75731
# Velocity P-wave (km/s) = 7.15463 7.52038 7.33978
#
# Compressibility (1/GPa) = 0.02063391
#
# Stress axis : x y z
#
# Youngs Moduli (GPa) = 57.08308 39.11171 41.44142
#
# Poissons Ratio (x) = 0.35534 0.35086
# Poissons Ratio (y) = 0.51861 0.23786
# Poissons Ratio (z) = 0.48329 0.22449
#
# Static dielectric constant tensor:
#      x y z
#    x 2.958340 0.000000 0.000000 
#    y 0.000000 2.961340 0.000000 
#    z 0.000000 0.000000 2.662960 
# 
# 
# High freq. dielectric constant tensor:
#      x y z
#    x 1.553960 0.000000 0.000000 
#    y 0.000000 1.576220 0.000000 
#    z 0.000000 0.000000 1.531030 
# 
# From -- ./inp_files/30049.got.cif
#   From: 2010.03.12/outbox.cif.g09.slc.cpg/sg62_16_cif.got.tgz:30049.got - 2010.04.10 19:12:36.
