data_PCOD8250358
_publ_section_title
;
Structure prediction by ZEFSAII (Michael W. Deem and Ramdas Pophale) SiO2 
 PCOD8250358
Probable space group: P N M A
;
_chemical_formula_sum "Si O2"
_cell_formula_units_Z 40
_cell_length_a 18.270243
_cell_length_b 9.043916
_cell_length_c 13.591598
_cell_angle_alpha 90.000000
_cell_angle_beta 90.000000
_cell_angle_gamma 90.000000
_cell_volume 2245.801484
_symmetry_space_group_name_H-M "P N M A"
_symmetry_group_IT_number 62
_symmetry_cell_setting 'orthorhombic'
loop_
_space_group_symop_operation_xyz
x,y,z
1/2-x,-y,1/2+z
1/2+x,1/2-y,1/2-z
-x,1/2+y,-z
-x,-y,-z
1/2+x,y,1/2-z
1/2-x,1/2+y,1/2+z
x,1/2-y,z
loop_
_atom_site_type_symbol
_atom_site_label
_atom_site_fract_x
_atom_site_fract_y
_atom_site_fract_z
Si Si1 0.666354 0.426465 0.584879
Si Si2 0.975386 0.574948 0.196804
Si Si3 0.871378 0.075554 0.885511
Si Si4 0.031372 0.574574 0.403869
Si Si5 0.315804 0.424724 0.823594
O O1 0.665496 0.250000 0.582319
O O2 0.598587 0.489540 0.649088
O O3 0.662407 0.486382 0.475119
O O4 0.740595 0.490202 0.633263
O O5 0.973624 0.750000 0.197577
O O6 0.983778 0.521081 0.309580
O O7 0.044739 0.524408 0.131488
O O8 0.866395 0.250000 0.905963
O O9 0.824274 0.028754 0.790090
O O10 0.027513 0.750000 0.415835
O O11 0.000000 0.500000 0.500000
O O12 0.114925 0.519917 0.387602
O O13 0.314370 0.250000 0.829464
#
# Coordination Sequence:
#
# PCOD8250358 Si02
#       5
#     8   8   8   8   8
#     4  10  18  30  49  71  91 119 155 190 226 270
#     4   8  16  30  48  67  91 122 155 184 224 279
#     4   9  17  32  49  66  91 123 152 186 228 271
#     4   9  17  32  50  68  91 123 156 187 222 268
#     4   8  17  32  47  64  94 127 150 177 228 282
#
# _framework density 17.811014
#
# number of rings (size 3 to 8) (size 9 to 14) (size 15 to 20)
#    0.000    3.200    0.000    3.000    0.000    1.600 
#    0.000    9.000    0.000    0.000    0.000    0.000 
#    0.000    0.000    0.000    0.000    0.000    0.000 
#
# Total GULP energy -495805.355947 kJ/mol
# GULP energy per Si atom -12395.133899 kJ/mol
# Density = 1.777048 g / cm^3
# Si number density = 17.811014 Si / 1000 Ang^3
#
#
#
# Elastic Constant Matrix: (Units=GPa)
#
#
# Indices 1 2 3 4 5 6 
#
# 1 160.3131 22.3344 104.6589 0.0000 0.0000 0.0000
# 2 22.3344 18.5055 25.5121 0.0000 0.0000 0.0000
# 3 104.6589 25.5121 156.5332 0.0000 0.0000 0.0000
# 4 0.0000 0.0000 0.0000 33.6531 0.0000 0.0000
# 5 0.0000 0.0000 0.0000 0.0000 31.6879 0.0000
# 6 0.0000 0.0000 0.0000 0.0000 0.0000 16.0583
#
#
#
# Elastic Compliance Matrix: (Units=1/GPa)
#
#
# Indices 1 2 3 4 5 6 
#
# 1 0.011313 -0.004161 -0.006886 0.000000 0.000000 0.000000
# 2 -0.004161 0.071229 -0.008827 0.000000 0.000000 0.000000
# 3 -0.006886 -0.008827 0.012431 0.000000 0.000000 0.000000
# 4 0.000000 0.000000 0.000000 0.029715 0.000000 0.000000
# 5 0.000000 0.000000 0.000000 0.000000 0.031558 0.000000
# 6 0.000000 0.000000 0.000000 0.000000 0.000000 0.062273
#
#
# Mechanical properties :
#
#
# Convention : Reuss Voigt Hill
#
# Bulk Modulus (GPa) = 18.10760 71.15140 44.62950
# Shear Modulus (GPa) = 18.07186 28.46963 23.27075
#
# Velocity S-wave (km/s) = 3.18881 4.00237 3.61853
# Velocity P-wave (km/s) = 4.87304 7.83539 6.52457
#
# Compressibility (1/GPa) = 0.05522543
#
# Stress axis : x y z
#
# Youngs Moduli (GPa) = 88.39681 14.03927 80.44525
#
# Poissons Ratio (x) = 0.05841 0.55391
# Poissons Ratio (y) = 0.36779 0.71010
# Poissons Ratio (z) = 0.60866 0.12393
#
# Static dielectric constant tensor:
#      x y z
#    x 3.913820 0.000000 0.000000 
#    y 0.000000 2.798110 0.000000 
#    z 0.000000 0.000000 3.393700 
# 
# 
# High freq. dielectric constant tensor:
#      x y z
#    x 1.696570 0.000000 0.000000 
#    y 0.000000 1.641820 0.000000 
#    z 0.000000 0.000000 1.697800 
# 
# From -- ./inp_files/14609.got.cif
#   From: 2010.03.12/outbox.cif.g09.slc.cpg/sg62_8_cif.got.tgz:14609.got - 2010.04.10 19:12:36.
