data_PCOD8250220
_publ_section_title
;
Structure prediction by ZEFSAII (Michael W. Deem and Ramdas Pophale) SiO2 
 PCOD8250220
Probable space group: P N M A
;
_chemical_formula_sum "Si O2"
_cell_formula_units_Z 56
_cell_length_a 15.322423
_cell_length_b 9.087692
_cell_length_c 21.710867
_cell_angle_alpha 90.000000
_cell_angle_beta 90.000000
_cell_angle_gamma 90.000000
_cell_volume 3023.139682
_symmetry_space_group_name_H-M "P N M A"
_symmetry_group_IT_number 62
_symmetry_cell_setting 'orthorhombic'
loop_
_space_group_symop_operation_xyz
x,y,z
1/2-x,-y,1/2+z
1/2+x,1/2-y,1/2-z
-x,1/2+y,-z
-x,-y,-z
1/2+x,y,1/2-z
1/2-x,1/2+y,1/2+z
x,1/2-y,z
loop_
_atom_site_type_symbol
_atom_site_label
_atom_site_fract_x
_atom_site_fract_y
_atom_site_fract_z
Si Si1 0.941844 0.923583 0.682558
Si Si2 0.262022 0.074141 0.809331
Si Si3 0.372923 0.084882 0.520598
Si Si4 0.001592 0.583770 0.904315
Si Si5 0.957744 0.085081 0.555766
Si Si6 0.756824 0.088887 0.551529
Si Si7 0.591325 0.577694 0.719153
O O1 0.924092 0.750000 0.675326
O O2 0.023026 0.955605 0.727090
O O3 0.854305 0.000305 0.709797
O O4 0.970232 0.992753 0.617873
O O5 0.270545 0.250000 0.801999
O O6 0.241488 0.026841 0.879721
O O7 0.181878 0.010572 0.768678
O O8 0.354702 0.250000 0.540763
O O9 0.433939 0.071716 0.461418
O O10 0.414370 0.006664 0.580099
O O11 0.281647 0.013669 0.501617
O O12 0.972249 0.750000 0.891234
O O13 0.048110 0.518421 0.844079
O O14 0.997320 0.250000 0.563882
O O15 0.857821 0.100122 0.537902
O O16 0.000000 0.000000 0.500000
O O17 0.712567 0.250000 0.546385
O O18 0.614062 0.750000 0.714341
#
# Coordination Sequence:
#
# PCOD8250220 Si02
#       7
#     8   8   8   8   8   8   8
#     4  10  21  37  59  84 112 145 185 230 276 333
#     4  10  20  34  55  81 109 143 184 231 279 328
#     4  10  18  28  47  75 104 137 175 215 257 306
#     4   9  18  31  47  71 107 141 172 213 257 309
#     4  10  21  38  59  83 108 138 178 225 278 327
#     4   9  18  32  51  76 105 137 175 218 266 320
#     4  10  20  36  57  81 108 146 188 225 273 329
#
# _framework density 18.523788
#
# number of rings (size 3 to 8) (size 9 to 14) (size 15 to 20)
#    0.000    2.286    1.429    2.571    0.000    5.143 
#    0.000    1.429    0.000    3.429    0.000    0.000 
#    0.000    0.000    0.000    0.000    0.000    0.000 
#
# Total GULP energy -694295.420845 kJ/mol
# GULP energy per Si atom -12398.132515 kJ/mol
# Density = 1.848163 g / cm^3
# Si number density = 18.523788 Si / 1000 Ang^3
#
#
#
# Elastic Constant Matrix: (Units=GPa)
#
#
# Indices 1 2 3 4 5 6 
#
# 1 97.2578 57.7104 49.6702 0.0000 0.0000 0.0000
# 2 57.7104 113.2027 44.7368 0.0000 0.0000 0.0000
# 3 49.6702 44.7368 60.7359 0.0000 0.0000 0.0000
# 4 0.0000 0.0000 0.0000 25.2362 0.0000 0.0000
# 5 0.0000 0.0000 0.0000 0.0000 32.9229 0.0000
# 6 0.0000 0.0000 0.0000 0.0000 0.0000 33.6541
#
#
#
# Elastic Compliance Matrix: (Units=1/GPa)
#
#
# Indices 1 2 3 4 5 6 
#
# 1 0.019578 -0.005154 -0.012215 0.000000 0.000000 0.000000
# 2 -0.005154 0.013818 -0.005963 0.000000 0.000000 0.000000
# 3 -0.012215 -0.005963 0.030847 0.000000 0.000000 0.000000
# 4 0.000000 0.000000 0.000000 0.039626 0.000000 0.000000
# 5 0.000000 0.000000 0.000000 0.000000 0.030374 0.000000
# 6 0.000000 0.000000 0.000000 0.000000 0.000000 0.029714
#
#
# Mechanical properties :
#
#
# Convention : Reuss Voigt Hill
#
# Bulk Modulus (GPa) = 56.88688 63.93680 60.41184
# Shear Modulus (GPa) = 23.09682 26.30124 24.69903
#
# Velocity S-wave (km/s) = 3.53494 3.77219 3.65549
# Velocity P-wave (km/s) = 6.88752 7.31871 7.10639
#
# Compressibility (1/GPa) = 0.01757875
#
# Stress axis : x y z
#
# Youngs Moduli (GPa) = 51.07662 72.37162 32.41833
#
# Poissons Ratio (x) = 0.37298 0.39600
# Poissons Ratio (y) = 0.26323 0.19331
# Poissons Ratio (z) = 0.62392 0.43156
#
# Static dielectric constant tensor:
#      x y z
#    x 3.422350 0.000000 0.000000 
#    y 0.000000 3.777540 0.000000 
#    z 0.000000 0.000000 3.208080 
# 
# 
# High freq. dielectric constant tensor:
#      x y z
#    x 1.713710 0.000000 0.000000 
#    y 0.000000 1.728890 0.000000 
#    z 0.000000 0.000000 1.693490 
# 
# From -- ./inp_files/27266.got.cif
#   From: 2010.03.12/outbox.cif.g09.slc.cpg/sg62_14_cif.got.tgz:27266.got - 2010.04.10 19:12:36.
