data_PCOD8250474
_publ_section_title
;
Structure prediction by ZEFSAII (Michael W. Deem and Ramdas Pophale) SiO2 
 PCOD8250474
Probable space group: P N M A
;
_chemical_formula_sum "Si O2"
_cell_formula_units_Z 64
_cell_length_a 29.692648
_cell_length_b 9.339194
_cell_length_c 12.626666
_cell_angle_alpha 90.000000
_cell_angle_beta 90.000000
_cell_angle_gamma 90.000000
_cell_volume 3501.442666
_symmetry_space_group_name_H-M "P N M A"
_symmetry_group_IT_number 62
_symmetry_cell_setting 'orthorhombic'
loop_
_space_group_symop_operation_xyz
x,y,z
1/2-x,-y,1/2+z
1/2+x,1/2-y,1/2-z
-x,1/2+y,-z
-x,-y,-z
1/2+x,y,1/2-z
1/2-x,1/2+y,1/2+z
x,1/2-y,z
loop_
_atom_site_type_symbol
_atom_site_label
_atom_site_fract_x
_atom_site_fract_y
_atom_site_fract_z
Si Si1 0.902924 0.420159 0.554117
Si Si2 0.118070 0.415448 0.865514
Si Si3 0.806501 0.409900 0.617099
Si Si4 0.674727 0.589606 0.356504
Si Si5 0.430477 0.081930 0.183099
Si Si6 0.787058 0.919364 0.038268
Si Si7 0.091282 0.413159 0.095379
Si Si8 0.467928 0.915149 0.787135
O O1 0.904844 0.250000 0.574703
O O2 0.852482 0.483065 0.574438
O O3 0.916429 0.461578 0.435215
O O4 0.936845 0.492736 0.635908
O O5 0.113814 0.250000 0.834252
O O6 0.102126 0.507071 0.766520
O O7 0.170014 0.458554 0.888379
O O8 0.087336 0.449748 0.970066
O O9 0.806694 0.250000 0.570329
O O10 0.803672 0.407416 0.742273
O O11 0.759875 0.484683 0.581812
O O12 0.670371 0.750000 0.403049
O O13 0.707674 0.493673 0.425721
O O14 0.625710 0.519906 0.348604
O O15 0.426077 0.250000 0.201740
O O16 0.481308 0.028513 0.202064
O O17 0.785136 0.750000 0.023092
O O18 0.109519 0.250000 0.104719
O O19 0.045375 0.431999 0.162484
O O20 0.464075 0.750000 0.822888
#
# Coordination Sequence:
#
# PCOD8250474 Si02
#       8
#     8   8   8   8   8   8   8   8
#     4  10  20  36  55  78 108 142 179 219 270 321
#     4   9  19  35  53  73 101 140 180 217 265 324
#     4   9  18  33  54  77 103 137 174 213 264 320
#     4  10  18  31  52  78 103 131 173 221 261 307
#     4  10  22  36  52  77 112 145 175 220 271 320
#     4   9  19  36  54  74 105 143 175 214 273 325
#     4   9  18  34  55  76 103 138 175 217 267 318
#     4  10  20  35  55  80 107 139 179 223 269 317
#
# _framework density 18.278179999999999
#
# number of rings (size 3 to 8) (size 9 to 14) (size 15 to 20)
#    0.000    2.500    1.250    1.500    0.000    4.500 
#    0.000    1.875    0.000    0.000    0.000    0.000 
#    0.000    0.000    0.000    0.000    0.000    0.000 
#
# Total GULP energy -793299.029236 kJ/mol
# GULP energy per Si atom -12395.297332 kJ/mol
# Density = 1.823658 g / cm^3
# Si number density = 18.278180 Si / 1000 Ang^3
#
#
#
# Elastic Constant Matrix: (Units=GPa)
#
#
# Indices 1 2 3 4 5 6 
#
# 1 122.0434 29.0732 41.8812 0.0000 0.0000 0.0000
# 2 29.0732 38.6803 23.3735 0.0000 0.0000 0.0000
# 3 41.8812 23.3735 69.3548 0.0000 0.0000 0.0000
# 4 0.0000 0.0000 0.0000 28.4477 0.0000 0.0000
# 5 0.0000 0.0000 0.0000 0.0000 25.4206 0.0000
# 6 0.0000 0.0000 0.0000 0.0000 0.0000 18.6477
#
#
#
# Elastic Compliance Matrix: (Units=1/GPa)
#
#
# Indices 1 2 3 4 5 6 
#
# 1 0.011175 -0.005427 -0.004919 0.000000 0.000000 0.000000
# 2 -0.005427 0.035100 -0.008552 0.000000 0.000000 0.000000
# 3 -0.004919 -0.008552 0.020271 0.000000 0.000000 0.000000
# 4 0.000000 0.000000 0.000000 0.035152 0.000000 0.000000
# 5 0.000000 0.000000 0.000000 0.000000 0.039338 0.000000
# 6 0.000000 0.000000 0.000000 0.000000 0.000000 0.053626
#
#
# Mechanical properties :
#
#
# Convention : Reuss Voigt Hill
#
# Bulk Modulus (GPa) = 34.78286 46.52604 40.65445
# Shear Modulus (GPa) = 20.65767 23.55322 22.10545
#
# Velocity S-wave (km/s) = 3.36547 3.59360 3.48140
# Velocity P-wave (km/s) = 5.84575 6.53669 6.20085
#
# Compressibility (1/GPa) = 0.02874979
#
# Stress axis : x y z
#
# Youngs Moduli (GPa) = 89.48830 28.49041 49.33085
#
# Poissons Ratio (x) = 0.15461 0.24267
# Poissons Ratio (y) = 0.48562 0.42188
# Poissons Ratio (z) = 0.44021 0.24365
#
# Static dielectric constant tensor:
#      x y z
#    x 3.577680 0.000000 0.000000 
#    y 0.000000 3.285970 0.000000 
#    z 0.000000 0.000000 3.330380 
# 
# 
# High freq. dielectric constant tensor:
#      x y z
#    x 1.709980 0.000000 0.000000 
#    y 0.000000 1.693040 0.000000 
#    z 0.000000 0.000000 1.709780 
# 
# From -- ./inp_files/15845.got.cif
#   From: 2010.03.12/outbox.cif.g09.slc.cpg/sg62_8_cif.got.tgz:15845.got - 2010.04.10 19:12:36.
