data_PCOD8250555
_publ_section_title
;
Structure prediction by ZEFSAII (Michael W. Deem and Ramdas Pophale) SiO2 
 PCOD8250555
Probable space group: P N M A
;
_chemical_formula_sum "Si O2"
_cell_formula_units_Z 56
_cell_length_a 17.300654
_cell_length_b 9.707489
_cell_length_c 18.821212
_cell_angle_alpha 90.000000
_cell_angle_beta 90.000000
_cell_angle_gamma 90.000000
_cell_volume 3160.945546
_symmetry_space_group_name_H-M "P N M A"
_symmetry_group_IT_number 62
_symmetry_cell_setting 'orthorhombic'
loop_
_space_group_symop_operation_xyz
x,y,z
1/2-x,-y,1/2+z
1/2+x,1/2-y,1/2-z
-x,1/2+y,-z
-x,-y,-z
1/2+x,y,1/2-z
1/2-x,1/2+y,1/2+z
x,1/2-y,z
loop_
_atom_site_type_symbol
_atom_site_label
_atom_site_fract_x
_atom_site_fract_y
_atom_site_fract_z
Si Si1 0.977539 0.589138 0.068386
Si Si2 0.737535 0.093824 0.452341
Si Si3 0.133755 0.908575 0.141336
Si Si4 0.824412 0.085524 0.702809
Si Si5 0.589188 0.593360 0.938593
Si Si6 0.810816 0.592030 0.108849
Si Si7 0.042829 0.908844 0.400666
O O1 0.968404 0.750000 0.045232
O O2 0.041848 0.574083 0.129936
O O3 0.897029 0.528557 0.100679
O O4 0.000000 0.500000 0.000000
O O5 0.713537 0.250000 0.433602
O O6 0.821850 0.059839 0.421244
O O7 0.737999 0.073456 0.536908
O O8 0.675546 0.991793 0.420041
O O9 0.158327 0.750000 0.134174
O O10 0.160394 0.967756 0.217535
O O11 0.823708 0.250000 0.698806
O O12 0.742471 0.026658 0.671933
O O13 0.895155 0.031919 0.654882
O O14 0.568541 0.750000 0.918992
O O15 0.536368 0.493960 0.890993
O O16 0.576795 0.566735 0.021607
O O17 0.823365 0.750000 0.128236
O O18 0.023182 0.750000 0.385918
#
# Coordination Sequence:
#
# PCOD8250555 Si02
#       7
#     8   8   8   8   8   8   8
#     4  10  19  32  53  78 101 129 170 213 255 302
#     4  10  18  32  54  74  96 134 175 205 243 308
#     4  10  21  34  50  78 108 128 161 222 270 293
#     4   9  17  33  52  73 104 137 170 210 256 309
#     4   9  17  29  48  74  99 124 164 209 243 288
#     4   9  16  30  54  75  95 135 178 203 241 310
#     4   9  16  29  50  72  96 129 166 202 246 296
#
# _framework density 17.716218999999999
#
# number of rings (size 3 to 8) (size 9 to 14) (size 15 to 20)
#    0.000    2.571    2.857    0.000    0.000    0.571 
#    2.571    0.714    0.000    2.571    0.000    0.000 
#    0.000    0.000    0.000    0.000    0.000    0.000 
#
# Total GULP energy -694147.014619 kJ/mol
# GULP energy per Si atom -12395.482404 kJ/mol
# Density = 1.767590 g / cm^3
# Si number density = 17.716219 Si / 1000 Ang^3
#
#
#
# Elastic Constant Matrix: (Units=GPa)
#
#
# Indices 1 2 3 4 5 6 
#
# 1 124.7083 34.7299 43.0494 0.0000 0.0000 0.0000
# 2 34.7299 40.5703 19.4926 0.0000 0.0000 0.0000
# 3 43.0494 19.4926 65.5452 0.0000 0.0000 0.0000
# 4 0.0000 0.0000 0.0000 15.8759 0.0000 0.0000
# 5 0.0000 0.0000 0.0000 0.0000 28.8121 0.0000
# 6 0.0000 0.0000 0.0000 0.0000 0.0000 25.6311
#
#
#
# Elastic Compliance Matrix: (Units=1/GPa)
#
#
# Indices 1 2 3 4 5 6 
#
# 1 0.012106 -0.007633 -0.005681 0.000000 0.000000 0.000000
# 2 -0.007633 0.033571 -0.004970 0.000000 0.000000 0.000000
# 3 -0.005681 -0.004970 0.020466 0.000000 0.000000 0.000000
# 4 0.000000 0.000000 0.000000 0.062988 0.000000 0.000000
# 5 0.000000 0.000000 0.000000 0.000000 0.034708 0.000000
# 6 0.000000 0.000000 0.000000 0.000000 0.000000 0.039015
#
#
# Mechanical properties :
#
#
# Convention : Reuss Voigt Hill
#
# Bulk Modulus (GPa) = 33.81375 47.26306 40.53841
# Shear Modulus (GPa) = 20.05775 22.96729 21.51252
#
# Velocity S-wave (km/s) = 3.36842 3.60446 3.48844
# Velocity P-wave (km/s) = 5.85287 6.63767 6.25758
#
# Compressibility (1/GPa) = 0.02957377
#
# Stress axis : x y z
#
# Youngs Moduli (GPa) = 82.60696 29.78741 48.86213
#
# Poissons Ratio (x) = 0.22738 0.27757
# Poissons Ratio (y) = 0.63058 0.24286
# Poissons Ratio (z) = 0.46926 0.14805
#
# Static dielectric constant tensor:
#      x y z
#    x 3.627230 0.000000 0.000000 
#    y 0.000000 3.034480 0.000000 
#    z 0.000000 0.000000 3.152290 
# 
# 
# High freq. dielectric constant tensor:
#      x y z
#    x 1.702610 0.000000 0.000000 
#    y 0.000000 1.648570 0.000000 
#    z 0.000000 0.000000 1.664250 
# 
# From -- ./inp_files/24443.got.cif
#   From: 2010.03.12/outbox.cif.g09.slc.cpg/sg62_13_cif.got.tgz:24443.got - 2010.04.10 19:12:36.
