data_PCOD8250272
_publ_section_title
;
Structure prediction by ZEFSAII (Michael W. Deem and Ramdas Pophale) SiO2 
 PCOD8250272
Probable space group: P N M A
;
_chemical_formula_sum "Si O2"
_cell_formula_units_Z 48
_cell_length_a 17.248677
_cell_length_b 8.651616
_cell_length_c 19.583847
_cell_angle_alpha 90.000000
_cell_angle_beta 90.000000
_cell_angle_gamma 90.000000
_cell_volume 2922.476531
_symmetry_space_group_name_H-M "P N M A"
_symmetry_group_IT_number 62
_symmetry_cell_setting 'orthorhombic'
loop_
_space_group_symop_operation_xyz
x,y,z
1/2-x,-y,1/2+z
1/2+x,1/2-y,1/2-z
-x,1/2+y,-z
-x,-y,-z
1/2+x,y,1/2-z
1/2-x,1/2+y,1/2+z
x,1/2-y,z
loop_
_atom_site_type_symbol
_atom_site_label
_atom_site_fract_x
_atom_site_fract_y
_atom_site_fract_z
Si Si1 0.454262 0.425349 0.202986
Si Si2 0.505881 0.430768 0.656413
Si Si3 0.922925 0.066827 0.033354
Si Si4 0.040953 0.430812 0.565272
Si Si5 0.145688 0.432325 0.090551
Si Si6 0.816791 0.074752 0.384106
O O1 0.481728 0.250000 0.217147
O O2 0.478220 0.533506 0.265052
O O3 0.495170 0.489823 0.133759
O O4 0.360554 0.432630 0.189834
O O5 0.509547 0.250000 0.642997
O O6 0.574616 0.511806 0.612081
O O7 0.420761 0.489853 0.635966
O O8 0.919432 0.250000 0.029561
O O9 0.853816 0.994065 0.988026
O O10 0.000000 0.000000 0.000000
O O11 0.026595 0.250000 0.568160
O O12 0.133558 0.469740 0.562742
O O13 0.000000 0.500000 0.500000
O O14 0.131679 0.250000 0.091485
O O15 0.228335 0.481842 0.122760
O O16 0.817584 0.250000 0.412410
#
# Coordination Sequence:
#
# PCOD8250272 Si02
#       6
#     8   8   8   8   8   8
#     4   9  18  34  52  74  99 132 169 207 251 298
#     4  11  20  31  49  75 102 134 169 207 249 301
#     4  10  18  29  46  71  99 131 166 206 244 292
#     4  10  18  31  53  76  99 128 165 205 244 290
#     4  10  18  32  52  75 101 133 166 207 253 299
#     4   8  18  33  52  73  98 128 164 205 251 298
#
# _framework density 16.424427000000001
#
# number of rings (size 3 to 8) (size 9 to 14) (size 15 to 20)
#    1.000    1.333    0.000    7.000    0.000    1.333 
#    0.000    0.000    3.667    0.000    0.000    0.000 
#    0.000    0.000    0.000    0.000    0.000    0.000 
#
# Total GULP energy -594663.535181 kJ/mol
# GULP energy per Si atom -12388.823650 kJ/mol
# Density = 1.638704 g / cm^3
# Si number density = 16.424427 Si / 1000 Ang^3
#
#
#
# Elastic Constant Matrix: (Units=GPa)
#
#
# Indices 1 2 3 4 5 6 
#
# 1 73.1400 29.7762 36.9740 0.0000 0.0000 0.0000
# 2 29.7762 109.8000 29.9889 0.0000 0.0000 0.0000
# 3 36.9740 29.9889 106.9201 0.0000 0.0000 0.0000
# 4 0.0000 0.0000 0.0000 30.9474 0.0000 0.0000
# 5 0.0000 0.0000 0.0000 0.0000 20.3161 0.0000
# 6 0.0000 0.0000 0.0000 0.0000 0.0000 22.2135
#
#
#
# Elastic Compliance Matrix: (Units=1/GPa)
#
#
# Indices 1 2 3 4 5 6 
#
# 1 0.017655 -0.003379 -0.005158 0.000000 0.000000 0.000000
# 2 -0.003379 0.010510 -0.001779 0.000000 0.000000 0.000000
# 3 -0.005158 -0.001779 0.011635 0.000000 0.000000 0.000000
# 4 0.000000 0.000000 0.000000 0.032313 0.000000 0.000000
# 5 0.000000 0.000000 0.000000 0.000000 0.049222 0.000000
# 6 0.000000 0.000000 0.000000 0.000000 0.000000 0.045018
#
#
# Mechanical properties :
#
#
# Convention : Reuss Voigt Hill
#
# Bulk Modulus (GPa) = 52.16897 53.70425 52.93661
# Shear Modulus (GPa) = 25.85651 27.57012 26.71331
#
# Velocity S-wave (km/s) = 3.97201 4.10152 4.03729
# Velocity P-wave (km/s) = 7.27103 7.42959 7.35073
#
# Compressibility (1/GPa) = 0.01916848
#
# Stress axis : x y z
#
# Youngs Moduli (GPa) = 56.63982 95.14910 85.94493
#
# Poissons Ratio (x) = 0.32153 0.44327
# Poissons Ratio (y) = 0.19140 0.15291
# Poissons Ratio (z) = 0.29213 0.16929
#
# Static dielectric constant tensor:
#      x y z
#    x 2.995840 0.000000 0.000000 
#    y 0.000000 3.186160 0.000000 
#    z 0.000000 0.000000 3.236750 
# 
# 
# High freq. dielectric constant tensor:
#      x y z
#    x 1.600290 0.000000 0.000000 
#    y 0.000000 1.651120 0.000000 
#    z 0.000000 0.000000 1.621110 
# 
# From -- ./inp_files/27482.got.cif
#   From: 2010.03.12/outbox.cif.g09.slc.cpg/sg62_14_cif.got.tgz:27482.got - 2010.04.10 19:12:36.
