data_PCOD8250895
_publ_section_title
;
Structure prediction by ZEFSAII (Michael W. Deem and Ramdas Pophale) SiO2 
 PCOD8250895
Probable space group: P N M A
;
_chemical_formula_sum "Si O2"
_cell_formula_units_Z 64
_cell_length_a 11.935218
_cell_length_b 9.076043
_cell_length_c 33.090475
_cell_angle_alpha 90.000000
_cell_angle_beta 90.000000
_cell_angle_gamma 90.000000
_cell_volume 3584.510873
_symmetry_space_group_name_H-M "P N M A"
_symmetry_group_IT_number 62
_symmetry_cell_setting 'orthorhombic'
loop_
_space_group_symop_operation_xyz
x,y,z
1/2-x,-y,1/2+z
1/2+x,1/2-y,1/2-z
-x,1/2+y,-z
-x,-y,-z
1/2+x,y,1/2-z
1/2-x,1/2+y,1/2+z
x,1/2-y,z
loop_
_atom_site_type_symbol
_atom_site_label
_atom_site_fract_x
_atom_site_fract_y
_atom_site_fract_z
Si Si1 0.951466 0.918267 0.670514
Si Si2 0.672917 0.919327 0.872967
Si Si3 0.798008 0.424294 0.730483
Si Si4 0.384939 0.422256 0.321582
Si Si5 0.855720 0.078023 0.533128
Si Si6 0.736565 0.082746 0.105451
Si Si7 0.111825 0.077476 0.547277
Si Si8 0.640827 0.419570 0.310100
O O1 0.947228 0.750000 0.686027
O O2 0.076725 0.966849 0.658865
O O3 0.875865 0.939530 0.631115
O O4 0.908171 0.020279 0.706762
O O5 0.653061 0.750000 0.885930
O O6 0.792199 0.942405 0.851713
O O7 0.670690 0.019678 0.912426
O O8 0.793396 0.250000 0.728583
O O9 0.684347 0.487898 0.711533
O O10 0.805331 0.476758 0.776450
O O11 0.363622 0.250000 0.313101
O O12 0.342496 0.461434 0.366744
O O13 0.513714 0.467553 0.318496
O O14 0.839471 0.250000 0.526621
O O15 0.980463 0.037258 0.548083
O O16 0.767550 0.022357 0.566563
O O17 0.829179 0.998738 0.490946
O O18 0.746563 0.250000 0.090032
O O19 0.131770 0.250000 0.543783
O O20 0.648090 0.250000 0.295771
#
# Coordination Sequence:
#
# PCOD8250895 Si02
#       8
#     8   8   8   8   8   8   8   8
#     4   9  18  33  53  77 106 140 177 214 264 325
#     4  10  20  35  56  80 106 141 179 221 268 321
#     4  11  23  36  54  80 109 138 176 227 275 316
#     4   9  20  39  58  77 104 141 184 223 264 321
#     4  10  19  30  49  78 109 142 177 214 259 315
#     4   9  16  30  53  77 103 135 170 215 266 313
#     4  10  20  32  49  76 113 146 173 213 266 322
#     4  10  22  39  59  79 103 142 186 223 267 323
#
# _framework density 17.854596000000001
#
# number of rings (size 3 to 8) (size 9 to 14) (size 15 to 20)
#    0.000    2.250    1.250    2.625    1.750    4.500 
#    0.000    0.000    0.000    0.750    0.000    0.000 
#    0.000    0.000    0.000    0.000    0.000    0.000 
#
# Total GULP energy -793799.920010 kJ/mol
# GULP energy per Si atom -12403.123750 kJ/mol
# Density = 1.781396 g / cm^3
# Si number density = 17.854596 Si / 1000 Ang^3
#
#
#
# Elastic Constant Matrix: (Units=GPa)
#
#
# Indices 1 2 3 4 5 6 
#
# 1 95.0983 39.4086 46.7254 0.0000 0.0000 0.0000
# 2 39.4086 92.8825 62.6950 0.0000 0.0000 0.0000
# 3 46.7254 62.6950 113.4928 0.0000 0.0000 0.0000
# 4 0.0000 0.0000 0.0000 35.5959 0.0000 0.0000
# 5 0.0000 0.0000 0.0000 0.0000 18.3881 0.0000
# 6 0.0000 0.0000 0.0000 0.0000 0.0000 13.1935
#
#
#
# Elastic Compliance Matrix: (Units=1/GPa)
#
#
# Indices 1 2 3 4 5 6 
#
# 1 0.013758 -0.003211 -0.003890 0.000000 0.000000 0.000000
# 2 -0.003211 0.017917 -0.008576 0.000000 0.000000 0.000000
# 3 -0.003890 -0.008576 0.015150 0.000000 0.000000 0.000000
# 4 0.000000 0.000000 0.000000 0.028093 0.000000 0.000000
# 5 0.000000 0.000000 0.000000 0.000000 0.054383 0.000000
# 6 0.000000 0.000000 0.000000 0.000000 0.000000 0.075795
#
#
# Mechanical properties :
#
#
# Convention : Reuss Voigt Hill
#
# Bulk Modulus (GPa) = 64.63806 66.57016 65.60411
# Shear Modulus (GPa) = 20.69479 23.61182 22.15330
#
# Velocity S-wave (km/s) = 3.40821 3.64050 3.52627
# Velocity P-wave (km/s) = 7.19506 7.41866 7.30772
#
# Compressibility (1/GPa) = 0.01547076
#
# Stress axis : x y z
#
# Youngs Moduli (GPa) = 72.68743 55.81193 66.00676
#
# Poissons Ratio (x) = 0.17923 0.25677
# Poissons Ratio (y) = 0.23343 0.56605
# Poissons Ratio (z) = 0.28276 0.47862
#
# Static dielectric constant tensor:
#      x y z
#    x 3.214300 0.000000 0.000000 
#    y 0.000000 3.209510 0.000000 
#    z 0.000000 0.000000 3.224850 
# 
# 
# High freq. dielectric constant tensor:
#      x y z
#    x 1.667990 0.000000 0.000000 
#    y 0.000000 1.686820 0.000000 
#    z 0.000000 0.000000 1.690270 
# 
# From -- ./inp_files/32515.got.cif
#   From: 2010.03.12/outbox.cif.g09.slc.cpg/sg62_17_cif.got.tgz:32515.got - 2010.04.10 19:12:36.
