data_PCOD8250811
_publ_section_title
;
Structure prediction by ZEFSAII (Michael W. Deem and Ramdas Pophale) SiO2 
 PCOD8250811
Probable space group: P N M A
;
_chemical_formula_sum "Si O2"
_cell_formula_units_Z 48
_cell_length_a 18.892140
_cell_length_b 9.366553
_cell_length_c 13.940320
_cell_angle_alpha 90.000000
_cell_angle_beta 90.000000
_cell_angle_gamma 90.000000
_cell_volume 2466.798600
_symmetry_space_group_name_H-M "P N M A"
_symmetry_group_IT_number 62
_symmetry_cell_setting 'orthorhombic'
loop_
_space_group_symop_operation_xyz
x,y,z
1/2-x,-y,1/2+z
1/2+x,1/2-y,1/2-z
-x,1/2+y,-z
-x,-y,-z
1/2+x,y,1/2-z
1/2-x,1/2+y,1/2+z
x,1/2-y,z
loop_
_atom_site_type_symbol
_atom_site_label
_atom_site_fract_x
_atom_site_fract_y
_atom_site_fract_z
Si Si1 0.223106 0.585004 0.322495
Si Si2 0.470438 0.414100 0.143715
Si Si3 0.149960 0.083614 0.945728
Si Si4 0.093674 0.912226 0.448494
Si Si5 0.481696 0.914548 0.324731
Si Si6 0.142628 0.919920 0.136710
O O1 0.228208 0.750000 0.298459
O O2 0.299948 0.529158 0.357302
O O3 0.172321 0.554995 0.413103
O O4 0.191250 0.518189 0.224032
O O5 0.483546 0.250000 0.169267
O O6 0.543154 0.478115 0.104699
O O7 0.446795 0.496121 0.238702
O O8 0.409466 0.433296 0.063304
O O9 0.165573 0.250000 0.966876
O O10 0.068053 0.059301 0.917119
O O11 0.168920 0.993743 0.039740
O O12 0.070887 0.750000 0.420926
O O13 0.480861 0.750000 0.293912
O O14 0.561332 0.966320 0.345002
O O15 0.147844 0.750000 0.124940
#
# Coordination Sequence:
#
# PCOD8250811 Si02
#       6
#     8   8   8   8   8   8
#     4   9  18  36  58  77 106 147 180 211 271 337
#     4  10  19  29  51  84 109 136 182 229 264 308
#     4  10  22  37  56  83 109 138 182 229 268 317
#     4   9  17  33  53  75 109 148 177 212 272 329
#     4  10  20  36  56  78 109 148 181 218 274 326
#     4  10  20  37  59  77 103 147 183 215 270 330
#
# _framework density 19.458418000000002
#
# number of rings (size 3 to 8) (size 9 to 14) (size 15 to 20)
#    0.000    2.333    1.667    1.000    0.000    3.333 
#    0.000    1.667    0.000    0.000    0.000    0.000 
#    0.000    0.000    0.000    0.000    0.000    0.000 
#
# Total GULP energy -595014.620056 kJ/mol
# GULP energy per Si atom -12396.137918 kJ/mol
# Density = 1.941413 g / cm^3
# Si number density = 19.458418 Si / 1000 Ang^3
#
#
#
# Elastic Constant Matrix: (Units=GPa)
#
#
# Indices 1 2 3 4 5 6 
#
# 1 92.8980 18.5326 51.4832 0.0000 0.0000 0.0000
# 2 18.5326 51.6168 42.2269 0.0000 0.0000 0.0000
# 3 51.4832 42.2269 130.7193 0.0000 0.0000 0.0000
# 4 0.0000 0.0000 0.0000 38.0932 0.0000 0.0000
# 5 0.0000 0.0000 0.0000 0.0000 25.4213 0.0000
# 6 0.0000 0.0000 0.0000 0.0000 0.0000 15.2774
#
#
#
# Elastic Compliance Matrix: (Units=1/GPa)
#
#
# Indices 1 2 3 4 5 6 
#
# 1 0.013788 -0.000690 -0.005207 0.000000 0.000000 0.000000
# 2 -0.000690 0.026367 -0.008246 0.000000 0.000000 0.000000
# 3 -0.005207 -0.008246 0.012364 0.000000 0.000000 0.000000
# 4 0.000000 0.000000 0.000000 0.026251 0.000000 0.000000
# 5 0.000000 0.000000 0.000000 0.000000 0.039337 0.000000
# 6 0.000000 0.000000 0.000000 0.000000 0.000000 0.065456
#
#
# Mechanical properties :
#
#
# Convention : Reuss Voigt Hill
#
# Bulk Modulus (GPa) = 41.26625 55.52441 48.39533
# Shear Modulus (GPa) = 22.73465 26.62445 24.67955
#
# Velocity S-wave (km/s) = 3.42185 3.70303 3.56522
# Velocity P-wave (km/s) = 6.07170 6.84691 6.47092
#
# Compressibility (1/GPa) = 0.02423288
#
# Stress axis : x y z
#
# Youngs Moduli (GPa) = 72.52634 37.92622 80.87695
#
# Poissons Ratio (x) = 0.02619 0.42115
# Poissons Ratio (y) = 0.05008 0.66687
# Poissons Ratio (z) = 0.37767 0.31272
#
# Static dielectric constant tensor:
#      x y z
#    x 3.554080 0.000000 0.000000 
#    y 0.000000 3.350010 0.000000 
#    z 0.000000 0.000000 3.669450 
# 
# 
# High freq. dielectric constant tensor:
#      x y z
#    x 1.747830 0.000000 0.000000 
#    y 0.000000 1.733120 0.000000 
#    z 0.000000 0.000000 1.763720 
# 
# From -- ./inp_files/19644.got.cif
#   From: 2010.03.12/outbox.cif.g09.slc.cpg/sg62_10_cif.got.tgz:19644.got - 2010.04.10 19:12:36.
