data_PCOD8250579
_publ_section_title
;
Structure prediction by ZEFSAII (Michael W. Deem and Ramdas Pophale) SiO2 
 PCOD8250579
Probable space group: P N M A
;
_chemical_formula_sum "Si O2"
_cell_formula_units_Z 64
_cell_length_a 29.900198
_cell_length_b 20.241240
_cell_length_c 5.070574
_cell_angle_alpha 90.000000
_cell_angle_beta 90.000000
_cell_angle_gamma 90.000000
_cell_volume 3068.798009
_symmetry_space_group_name_H-M "P N M A"
_symmetry_group_IT_number 62
_symmetry_cell_setting 'orthorhombic'
loop_
_space_group_symop_operation_xyz
x,y,z
1/2-x,-y,1/2+z
1/2+x,1/2-y,1/2-z
-x,1/2+y,-z
-x,-y,-z
1/2+x,y,1/2-z
1/2-x,1/2+y,1/2+z
x,1/2-y,z
loop_
_atom_site_type_symbol
_atom_site_label
_atom_site_fract_x
_atom_site_fract_y
_atom_site_fract_z
Si Si1 0.689871 0.323015 0.458914
Si Si2 0.608903 0.093123 0.524603
Si Si3 0.866978 0.373772 0.519565
Si Si4 0.273880 0.882598 0.037581
Si Si5 0.147467 0.025251 0.468238
Si Si6 0.962646 0.174823 0.533372
Si Si7 0.319049 0.174404 0.478324
Si Si8 0.020967 0.173961 0.033832
O O1 0.696382 0.250000 0.564980
O O2 0.638066 0.341642 0.473727
O O3 0.718468 0.369263 0.653317
O O4 0.706000 0.327215 0.157412
O O5 0.619016 0.062587 0.809140
O O6 0.558478 0.118644 0.512113
O O7 0.621690 0.038595 0.305668
O O8 0.850292 0.448050 0.480766
O O9 0.920395 0.372329 0.484601
O O10 0.855575 0.344243 0.804167
O O11 0.842392 0.329042 0.304137
O O12 0.300379 0.950142 0.961288
O O13 0.220594 0.880462 0.994571
O O14 0.945781 0.250000 0.506541
O O15 0.982405 0.161161 0.821169
O O16 0.001021 0.159905 0.321192
O O17 0.301831 0.250000 0.519495
O O18 0.038650 0.250000 0.011317
#
# Coordination Sequence:
#
# PCOD8250579 Si02
#       8
#     8   8   8   8   8   8   8   8
#     4  10  18  32  55  82 118 153 184 231 293 346
#     4  10  20  37  58  85 117 153 196 235 279 350
#     4  12  25  42  62  84 117 160 199 239 290 343
#     4  10  22  37  57  86 119 151 188 239 289 343
#     4  10  23  41  59  84 122 161 194 229 281 353
#     4  10  21  38  58  83 115 148 190 246 301 342
#     4  12  24  39  63  90 114 145 197 252 295 343
#     4  10  20  36  61  90 118 149 192 245 298 346
#
# _framework density 20.855072
#
# number of rings (size 3 to 8) (size 9 to 14) (size 15 to 20)
#    0.000    1.500    0.000    5.625    0.000    2.000 
#    0.000    7.500    0.000    0.000    0.000    0.000 
#    0.000    0.000    0.000    0.000    0.000    0.000 
#
# Total GULP energy -793637.520148 kJ/mol
# GULP energy per Si atom -12400.586252 kJ/mol
# Density = 2.080760 g / cm^3
# Si number density = 20.855072 Si / 1000 Ang^3
#
#
#
# Elastic Constant Matrix: (Units=GPa)
#
#
# Indices 1 2 3 4 5 6 
#
# 1 94.2654 22.6559 14.3520 0.0000 0.0000 0.0000
# 2 22.6559 67.0731 9.1037 0.0000 0.0000 0.0000
# 3 14.3520 9.1037 85.0429 0.0000 0.0000 0.0000
# 4 0.0000 0.0000 0.0000 20.0768 0.0000 0.0000
# 5 0.0000 0.0000 0.0000 0.0000 25.5055 0.0000
# 6 0.0000 0.0000 0.0000 0.0000 0.0000 21.9894
#
#
#
# Elastic Compliance Matrix: (Units=1/GPa)
#
#
# Indices 1 2 3 4 5 6 
#
# 1 0.011752 -0.003755 -0.001581 0.000000 0.000000 0.000000
# 2 -0.003755 0.016329 -0.001114 0.000000 0.000000 0.000000
# 3 -0.001581 -0.001114 0.012145 0.000000 0.000000 0.000000
# 4 0.000000 0.000000 0.000000 0.049809 0.000000 0.000000
# 5 0.000000 0.000000 0.000000 0.000000 0.039207 0.000000
# 6 0.000000 0.000000 0.000000 0.000000 0.000000 0.045476
#
#
# Mechanical properties :
#
#
# Convention : Reuss Voigt Hill
#
# Bulk Modulus (GPa) = 36.59736 37.62273 37.11004
# Shear Modulus (GPa) = 25.41602 26.86566 26.14084
#
# Velocity S-wave (km/s) = 3.49477 3.59305 3.54425
# Velocity P-wave (km/s) = 5.81989 5.94076 5.88063
#
# Compressibility (1/GPa) = 0.02732438
#
# Stress axis : x y z
#
# Youngs Moduli (GPa) = 85.09524 61.24210 82.33899
#
# Poissons Ratio (x) = 0.22995 0.13020
# Poissons Ratio (y) = 0.31952 0.09175
# Poissons Ratio (z) = 0.13456 0.06824
#
# Static dielectric constant tensor:
#      x y z
#    x 3.622110 0.000000 0.000000 
#    y 0.000000 3.582960 0.000000 
#    z 0.000000 0.000000 3.932950 
# 
# 
# High freq. dielectric constant tensor:
#      x y z
#    x 1.811410 0.000000 0.000000 
#    y 0.000000 1.798350 0.000000 
#    z 0.000000 0.000000 1.837390 
# 
# From -- ./inp_files/3328.got.cif
#   From: 2010.03.12/outbox.cif.g09.slc.cpg/sg62_2_cif.got.tgz:3328.got - 2010.04.10 19:12:36.
