data_PCOD8250714
_publ_section_title
;
Structure prediction by ZEFSAII (Michael W. Deem and Ramdas Pophale) SiO2 
 PCOD8250714
Probable space group: P N M A
;
_chemical_formula_sum "Si O2"
_cell_formula_units_Z 56
_cell_length_a 9.129077
_cell_length_b 16.958286
_cell_length_c 20.017403
_cell_angle_alpha 90.000000
_cell_angle_beta 90.000000
_cell_angle_gamma 90.000000
_cell_volume 3098.964193
_symmetry_space_group_name_H-M "P N M A"
_symmetry_group_IT_number 62
_symmetry_cell_setting 'orthorhombic'
loop_
_space_group_symop_operation_xyz
x,y,z
1/2-x,-y,1/2+z
1/2+x,1/2-y,1/2-z
-x,1/2+y,-z
-x,-y,-z
1/2+x,y,1/2-z
1/2-x,1/2+y,1/2+z
x,1/2-y,z
loop_
_atom_site_type_symbol
_atom_site_label
_atom_site_fract_x
_atom_site_fract_y
_atom_site_fract_z
Si Si1 0.322495 0.443171 0.468137
Si Si2 0.089061 0.502121 0.105460
Si Si3 0.444176 0.657292 0.935600
Si Si4 0.551568 0.428843 0.734950
Si Si5 0.906552 0.032981 0.358684
Si Si6 0.174297 0.661031 0.310467
Si Si7 0.898364 0.081832 0.558880
O O1 0.376544 0.437331 0.544758
O O2 0.462627 0.441575 0.418479
O O3 0.222983 0.368248 0.449859
O O4 0.236340 0.525395 0.459378
O O5 0.234129 0.454841 0.127953
O O6 0.035643 0.552865 0.167872
O O7 0.449699 0.750000 0.925095
O O8 0.506584 0.615205 0.868730
O O9 0.549226 0.629774 0.995071
O O10 0.560131 0.504744 0.783443
O O11 0.477286 0.355050 0.772269
O O12 0.714825 0.403100 0.718298
O O13 0.966865 0.969591 0.412633
O O14 0.226743 0.750000 0.298130
O O15 0.154956 0.647306 0.389047
#
# Coordination Sequence:
#
# PCOD8250714 Si02
#       7
#     8   8   8   8   8   8   8
#     4  10  20  35  61  85 110 145 195 237 278 336
#     4  11  19  36  61  84 108 144 197 239 271 324
#     4  11  21  37  59  87 117 148 186 243 294 334
#     4  11  22  36  57  82 111 159 193 230 277 336
#     4  10  20  36  59  81 111 151 204 226 272 348
#     4  11  22  35  52  84 120 151 187 230 281 338
#     4  10  18  36  56  83 111 154 189 225 275 350
#
# _framework density 18.070554999999999
#
# number of rings (size 3 to 8) (size 9 to 14) (size 15 to 20)
#    0.000    1.429    5.714    1.714    0.000    0.000 
#    0.000    3.571    0.000    3.429    0.000    0.000 
#    0.000    0.000    0.000    0.000    0.000    0.000 
#
# Total GULP energy -694460.467065 kJ/mol
# GULP energy per Si atom -12401.079769 kJ/mol
# Density = 1.802943 g / cm^3
# Si number density = 18.070555 Si / 1000 Ang^3
#
#
#
# Elastic Constant Matrix: (Units=GPa)
#
#
# Indices 1 2 3 4 5 6 
#
# 1 105.5823 37.2881 35.3860 0.0000 0.0000 0.0000
# 2 37.2881 115.9196 43.1679 0.0000 0.0000 0.0000
# 3 35.3860 43.1679 102.4888 0.0000 0.0000 0.0000
# 4 0.0000 0.0000 0.0000 17.5925 0.0000 0.0000
# 5 0.0000 0.0000 0.0000 0.0000 25.6130 0.0000
# 6 0.0000 0.0000 0.0000 0.0000 0.0000 21.8743
#
#
#
# Elastic Compliance Matrix: (Units=1/GPa)
#
#
# Indices 1 2 3 4 5 6 
#
# 1 0.011333 -0.002595 -0.002820 0.000000 0.000000 0.000000
# 2 -0.002595 0.010826 -0.003664 0.000000 0.000000 0.000000
# 3 -0.002820 -0.003664 0.012274 0.000000 0.000000 0.000000
# 4 0.000000 0.000000 0.000000 0.056842 0.000000 0.000000
# 5 0.000000 0.000000 0.000000 0.000000 0.039043 0.000000
# 6 0.000000 0.000000 0.000000 0.000000 0.000000 0.045716
#
#
# Mechanical properties :
#
#
# Convention : Reuss Voigt Hill
#
# Bulk Modulus (GPa) = 61.44400 61.74165 61.59282
# Shear Modulus (GPa) = 25.04807 26.89254 25.97031
#
# Velocity S-wave (km/s) = 3.72711 3.86190 3.79510
# Velocity P-wave (km/s) = 7.25244 7.35710 7.30496
#
# Compressibility (1/GPa) = 0.01627498
#
# Stress axis : x y z
#
# Youngs Moduli (GPa) = 88.23843 92.37099 81.47398
#
# Poissons Ratio (x) = 0.23974 0.22973
# Poissons Ratio (y) = 0.22902 0.29850
# Poissons Ratio (z) = 0.24881 0.33842
#
# Static dielectric constant tensor:
#      x y z
#    x 3.561230 0.000000 0.000000 
#    y 0.000000 2.959020 0.000000 
#    z 0.000000 0.000000 3.502570 
# 
# 
# High freq. dielectric constant tensor:
#      x y z
#    x 1.718100 0.000000 0.000000 
#    y 0.000000 1.654530 0.000000 
#    z 0.000000 0.000000 1.708030 
# 
# From -- ./inp_files/26129.got.cif
#   From: 2010.03.12/outbox.cif.g09.slc.cpg/sg62_14_cif.got.tgz:26129.got - 2010.04.10 19:12:36.
