data_PCOD8250876
_publ_section_title
;
Structure prediction by ZEFSAII (Michael W. Deem and Ramdas Pophale) SiO2 
 PCOD8250876
Probable space group: P N M A
;
_chemical_formula_sum "Si O2"
_cell_formula_units_Z 64
_cell_length_a 17.902321
_cell_length_b 9.123050
_cell_length_c 20.104354
_cell_angle_alpha 90.000000
_cell_angle_beta 90.000000
_cell_angle_gamma 90.000000
_cell_volume 3283.518881
_symmetry_space_group_name_H-M "P N M A"
_symmetry_group_IT_number 62
_symmetry_cell_setting 'orthorhombic'
loop_
_space_group_symop_operation_xyz
x,y,z
1/2-x,-y,1/2+z
1/2+x,1/2-y,1/2-z
-x,1/2+y,-z
-x,-y,-z
1/2+x,y,1/2-z
1/2-x,1/2+y,1/2+z
x,1/2-y,z
loop_
_atom_site_type_symbol
_atom_site_label
_atom_site_fract_x
_atom_site_fract_y
_atom_site_fract_z
Si Si1 0.003894 0.084027 0.602158
Si Si2 0.000112 0.088992 0.151361
Si Si3 0.637550 0.423319 0.608107
Si Si4 0.277849 0.577343 0.520705
Si Si5 0.609782 0.582406 0.994736
Si Si6 0.926250 0.410587 0.291653
Si Si7 0.169062 0.424728 0.164653
Si Si8 0.211309 0.076043 0.752394
O O1 0.021713 0.250000 0.622489
O O2 0.922175 0.070592 0.569544
O O3 0.066895 0.029770 0.551690
O O4 0.006490 0.982430 0.666738
O O5 0.007590 0.250000 0.117144
O O6 0.082481 0.024500 0.164743
O O7 0.956513 0.108089 0.219026
O O8 0.947427 0.983616 0.108010
O O9 0.631248 0.250000 0.608127
O O10 0.672301 0.486521 0.539664
O O11 0.689881 0.469507 0.671446
O O12 0.287543 0.750000 0.520755
O O13 0.194300 0.529745 0.503724
O O14 0.299669 0.518019 0.593597
O O15 0.601175 0.750000 0.968717
O O16 0.904401 0.250000 0.320356
O O17 0.853758 0.514576 0.295734
O O18 0.177360 0.250000 0.173789
O O19 0.211586 0.502930 0.226406
O O20 0.217571 0.250000 0.744889
#
# Coordination Sequence:
#
# PCOD8250876 Si02
#       8
#     8   8   8   8   8   8   8   8
#     4  10  19  30  48  75 104 132 170 218 260 308
#     4   9  20  36  52  75 104 134 172 214 257 310
#     4   9  19  36  56  77 103 137 175 216 262 309
#     4   9  18  34  55  76 100 136 178 214 257 315
#     4   9  18  32  49  71 102 139 173 207 258 320
#     4  10  19  33  52  71  99 138 173 207 256 314
#     4  10  20  35  56  80 107 139 174 212 256 311
#     4  10  20  34  54  80 107 134 171 218 262 307
#
# _framework density 19.491284
#
# number of rings (size 3 to 8) (size 9 to 14) (size 15 to 20)
#    0.000    2.500    0.000    1.875    0.000    4.500 
#    0.000    2.500    0.000    0.000    0.000    0.000 
#    0.000    0.000    0.000    0.000    0.000    0.000 
#
# Total GULP energy -793219.046240 kJ/mol
# GULP energy per Si atom -12394.047598 kJ/mol
# Density = 1.944692 g / cm^3
# Si number density = 19.491284 Si / 1000 Ang^3
#
#
#
# Elastic Constant Matrix: (Units=GPa)
#
#
# Indices 1 2 3 4 5 6 
#
# 1 123.0504 25.8108 16.8097 0.0000 0.0000 0.0000
# 2 25.8108 62.8745 19.5807 0.0000 0.0000 0.0000
# 3 16.8097 19.5807 45.3084 0.0000 0.0000 0.0000
# 4 0.0000 0.0000 0.0000 20.2450 0.0000 0.0000
# 5 0.0000 0.0000 0.0000 0.0000 24.5286 0.0000
# 6 0.0000 0.0000 0.0000 0.0000 0.0000 29.4895
#
#
#
# Elastic Compliance Matrix: (Units=1/GPa)
#
#
# Indices 1 2 3 4 5 6 
#
# 1 0.009050 -0.003085 -0.002025 0.000000 0.000000 0.000000
# 2 -0.003085 0.019430 -0.007252 0.000000 0.000000 0.000000
# 3 -0.002025 -0.007252 0.025956 0.000000 0.000000 0.000000
# 4 0.000000 0.000000 0.000000 0.049395 0.000000 0.000000
# 5 0.000000 0.000000 0.000000 0.000000 0.040769 0.000000
# 6 0.000000 0.000000 0.000000 0.000000 0.000000 0.033910
#
#
# Mechanical properties :
#
#
# Convention : Reuss Voigt Hill
#
# Bulk Modulus (GPa) = 33.65549 39.51509 36.58529
# Shear Modulus (GPa) = 23.45897 26.12142 24.79020
#
# Velocity S-wave (km/s) = 3.47300 3.66479 3.57018
# Velocity P-wave (km/s) = 5.77813 6.18262 5.98379
#
# Compressibility (1/GPa) = 0.02971284
#
# Stress axis : x y z
#
# Youngs Moduli (GPa) = 110.49249 51.46784 38.52627
#
# Poissons Ratio (x) = 0.15877 0.07800
# Poissons Ratio (y) = 0.34084 0.27941
# Poissons Ratio (z) = 0.22371 0.37326
#
# Static dielectric constant tensor:
#      x y z
#    x 3.649660 0.000000 0.000000 
#    y 0.000000 3.594800 0.000000 
#    z 0.000000 0.000000 3.658620 
# 
# 
# High freq. dielectric constant tensor:
#      x y z
#    x 1.758470 0.000000 0.000000 
#    y 0.000000 1.743720 0.000000 
#    z 0.000000 0.000000 1.754130 
# 
# From -- ./inp_files/27738.got.cif
#   From: 2010.03.12/outbox.cif.g09.slc.cpg/sg62_14_cif.got.tgz:27738.got - 2010.04.10 19:12:36.
