data_PCOD8250378
_publ_section_title
;
Structure prediction by ZEFSAII (Michael W. Deem and Ramdas Pophale) SiO2 
 PCOD8250378
Probable space group: P N M A
;
_chemical_formula_sum "Si O2"
_cell_formula_units_Z 64
_cell_length_a 29.359346
_cell_length_b 9.616768
_cell_length_c 12.113582
_cell_angle_alpha 90.000000
_cell_angle_beta 90.000000
_cell_angle_gamma 90.000000
_cell_volume 3420.173201
_symmetry_space_group_name_H-M "P N M A"
_symmetry_group_IT_number 62
_symmetry_cell_setting 'orthorhombic'
loop_
_space_group_symop_operation_xyz
x,y,z
1/2-x,-y,1/2+z
1/2+x,1/2-y,1/2-z
-x,1/2+y,-z
-x,-y,-z
1/2+x,y,1/2-z
1/2-x,1/2+y,1/2+z
x,1/2-y,z
loop_
_atom_site_type_symbol
_atom_site_label
_atom_site_fract_x
_atom_site_fract_y
_atom_site_fract_z
Si Si1 0.029361 0.412727 0.246155
Si Si2 0.683324 0.090465 0.965286
Si Si3 0.618764 0.084524 0.152452
Si Si4 0.832547 0.413745 0.256316
Si Si5 0.716919 0.592118 0.532957
Si Si6 0.566904 0.406728 0.482051
Si Si7 0.837272 0.593652 0.877102
Si Si8 0.432894 0.088127 0.306590
O O1 0.039584 0.250000 0.239093
O O2 0.066128 0.471408 0.335823
O O3 0.040513 0.470065 0.123800
O O4 0.976220 0.442846 0.275516
O O5 0.674590 0.250000 0.929126
O O6 0.728573 0.080667 0.040334
O O7 0.688941 0.996670 0.857571
O O8 0.641665 0.030021 0.039608
O O9 0.620510 0.250000 0.150964
O O10 0.647707 0.033149 0.258184
O O11 0.826991 0.250000 0.277533
O O12 0.885720 0.458340 0.248827
O O13 0.805495 0.461281 0.146878
O O14 0.700931 0.750000 0.512414
O O15 0.701599 0.502852 0.427904
O O16 0.550652 0.250000 0.510372
O O17 0.620608 0.407366 0.460521
O O18 0.556236 0.506536 0.582761
O O19 0.817738 0.750000 0.864940
O O20 0.430608 0.250000 0.337687
#
# Coordination Sequence:
#
# PCOD8250378 Si02
#       8
#     8   8   8   8   8   8   8   8
#     4   8  15  28  49  76 103 134 175 213 254 309
#     4  10  22  38  57  76  99 136 180 220 256 303
#     4   8  16  33  54  76 102 133 174 219 256 298
#     4  10  22  38  54  76 109 141 169 210 264 315
#     4  10  21  36  53  77 106 134 169 212 262 315
#     4   9  16  27  45  75 109 136 168 211 252 300
#     4   9  17  30  53  79 103 136 171 207 255 308
#     4  10  18  30  50  74 103 141 174 207 259 314
#
# _framework density 18.712503000000002
#
# number of rings (size 3 to 8) (size 9 to 14) (size 15 to 20)
#    0.000    2.750    1.250    1.875    1.750    1.500 
#    0.000    1.250    0.000    1.500    0.000    0.000 
#    0.000    0.000    0.000    0.000    0.000    0.000 
#
# Total GULP energy -793180.281360 kJ/mol
# GULP energy per Si atom -12393.441896 kJ/mol
# Density = 1.866991 g / cm^3
# Si number density = 18.712503 Si / 1000 Ang^3
#
#
#
# Elastic Constant Matrix: (Units=GPa)
#
#
# Indices 1 2 3 4 5 6 
#
# 1 97.0243 21.6244 32.2720 0.0000 0.0000 0.0000
# 2 21.6244 36.7173 24.1084 0.0000 0.0000 0.0000
# 3 32.2720 24.1084 70.7526 0.0000 0.0000 0.0000
# 4 0.0000 0.0000 0.0000 22.1030 0.0000 0.0000
# 5 0.0000 0.0000 0.0000 0.0000 21.1314 0.0000
# 6 0.0000 0.0000 0.0000 0.0000 0.0000 17.9029
#
#
#
# Elastic Compliance Matrix: (Units=1/GPa)
#
#
# Indices 1 2 3 4 5 6 
#
# 1 0.012765 -0.004760 -0.004200 0.000000 0.000000 0.000000
# 2 -0.004760 0.036859 -0.010389 0.000000 0.000000 0.000000
# 3 -0.004200 -0.010389 0.019590 0.000000 0.000000 0.000000
# 4 0.000000 0.000000 0.000000 0.045243 0.000000 0.000000
# 5 0.000000 0.000000 0.000000 0.000000 0.047323 0.000000
# 6 0.000000 0.000000 0.000000 0.000000 0.000000 0.055857
#
#
# Mechanical properties :
#
#
# Convention : Reuss Voigt Hill
#
# Bulk Modulus (GPa) = 32.76945 40.05597 36.41271
# Shear Modulus (GPa) = 18.76133 20.66007 19.71070
#
# Velocity S-wave (km/s) = 3.16984 3.32637 3.24905
# Velocity P-wave (km/s) = 5.56302 6.01710 5.79451
#
# Compressibility (1/GPa) = 0.03051623
#
# Stress axis : x y z
#
# Youngs Moduli (GPa) = 78.34136 27.13012 51.04773
#
# Poissons Ratio (x) = 0.12913 0.21442
# Poissons Ratio (y) = 0.37288 0.53031
# Poissons Ratio (z) = 0.32907 0.28184
#
# Static dielectric constant tensor:
#      x y z
#    x 3.694710 0.000000 0.000000 
#    y 0.000000 3.140580 0.000000 
#    z 0.000000 0.000000 3.228730 
# 
# 
# High freq. dielectric constant tensor:
#      x y z
#    x 1.740440 0.000000 0.000000 
#    y 0.000000 1.692320 0.000000 
#    z 0.000000 0.000000 1.702300 
# 
# From -- ./inp_files/15777.got.cif
#   From: 2010.03.12/outbox.cif.g09.slc.cpg/sg62_8_cif.got.tgz:15777.got - 2010.04.10 19:12:36.
