data_PCOD8250595
_publ_section_title
;
Structure prediction by ZEFSAII (Michael W. Deem and Ramdas Pophale) SiO2 
 PCOD8250595
Probable space group: P N M A
;
_chemical_formula_sum "Si O2"
_cell_formula_units_Z 64
_cell_length_a 11.736364
_cell_length_b 8.934676
_cell_length_c 33.267621
_cell_angle_alpha 90.000000
_cell_angle_beta 90.000000
_cell_angle_gamma 90.000000
_cell_volume 3488.463023
_symmetry_space_group_name_H-M "P N M A"
_symmetry_group_IT_number 62
_symmetry_cell_setting 'orthorhombic'
loop_
_space_group_symop_operation_xyz
x,y,z
1/2-x,-y,1/2+z
1/2+x,1/2-y,1/2-z
-x,1/2+y,-z
-x,-y,-z
1/2+x,y,1/2-z
1/2-x,1/2+y,1/2+z
x,1/2-y,z
loop_
_atom_site_type_symbol
_atom_site_label
_atom_site_fract_x
_atom_site_fract_y
_atom_site_fract_z
Si Si1 0.248898 0.576577 0.891790
Si Si2 0.552596 0.422557 0.170223
Si Si3 0.387179 0.925219 0.046395
Si Si4 0.647689 0.925761 0.034724
Si Si5 0.866742 0.577119 0.811534
Si Si6 0.326778 0.078148 0.126279
Si Si7 0.397172 0.574901 0.328054
Si Si8 0.301885 0.424557 0.767015
O O1 0.224826 0.750000 0.898891
O O2 0.363115 0.546848 0.866720
O O3 0.262232 0.497528 0.934714
O O4 0.140853 0.507550 0.868769
O O5 0.557219 0.250000 0.183877
O O6 0.427158 0.471971 0.156466
O O7 0.586765 0.524823 0.207971
O O8 0.370505 0.750000 0.040146
O O9 0.520150 0.969282 0.048551
O O10 0.325177 0.975898 0.086956
O O11 0.327451 0.008990 0.009330
O O12 0.666820 0.750000 0.033842
O O13 0.897852 0.750000 0.804609
O O14 0.793116 0.556161 0.851724
O O15 0.793807 0.516987 0.774053
O O16 0.979848 0.480400 0.815042
O O17 0.347303 0.250000 0.113389
O O18 0.399539 0.750000 0.336880
O O19 0.311076 0.535818 0.291999
O O20 0.312721 0.250000 0.757371
#
# Coordination Sequence:
#
# PCOD8250595 Si02
#       8
#     8   8   8   8   8   8   8   8
#     4  10  18  32  57  83 110 144 183 227 274 328
#     4   9  18  33  54  80 109 142 179 222 274 329
#     4  10  20  32  51  80 115 151 186 227 274 330
#     4  10  19  31  51  81 116 151 184 225 275 328
#     4  11  24  39  58  81 108 146 188 228 276 331
#     4  10  21  37  55  80 112 148 184 227 278 331
#     4  10  22  40  58  80 111 145 185 231 277 328
#     4  10  22  38  57  81 108 140 181 232 280 323
#
# _framework density 18.346188999999999
#
# number of rings (size 3 to 8) (size 9 to 14) (size 15 to 20)
#    0.000    2.000    1.250    2.250    1.750    4.500 
#    0.000    0.000    0.000    0.750    0.000    0.000 
#    0.000    0.000    0.000    0.000    0.000    0.000 
#
# Total GULP energy -793944.560172 kJ/mol
# GULP energy per Si atom -12405.383753 kJ/mol
# Density = 1.830443 g / cm^3
# Si number density = 18.346189 Si / 1000 Ang^3
#
#
#
# Elastic Constant Matrix: (Units=GPa)
#
#
# Indices 1 2 3 4 5 6 
#
# 1 69.1175 26.3115 29.4274 0.0000 0.0000 0.0000
# 2 26.3115 80.6108 48.7359 0.0000 0.0000 0.0000
# 3 29.4274 48.7359 107.1416 0.0000 0.0000 0.0000
# 4 0.0000 0.0000 0.0000 38.7980 0.0000 0.0000
# 5 0.0000 0.0000 0.0000 0.0000 20.6447 0.0000
# 6 0.0000 0.0000 0.0000 0.0000 0.0000 26.1798
#
#
#
# Elastic Compliance Matrix: (Units=1/GPa)
#
#
# Indices 1 2 3 4 5 6 
#
# 1 0.017189 -0.003802 -0.002992 0.000000 0.000000 0.000000
# 2 -0.003802 0.017952 -0.007122 0.000000 0.000000 0.000000
# 3 -0.002992 -0.007122 0.013395 0.000000 0.000000 0.000000
# 4 0.000000 0.000000 0.000000 0.025775 0.000000 0.000000
# 5 0.000000 0.000000 0.000000 0.000000 0.048439 0.000000
# 6 0.000000 0.000000 0.000000 0.000000 0.000000 0.038197
#
#
# Mechanical properties :
#
#
# Convention : Reuss Voigt Hill
#
# Bulk Modulus (GPa) = 48.29717 51.75773 50.02745
# Shear Modulus (GPa) = 25.55216 27.28418 26.41817
#
# Velocity S-wave (km/s) = 3.73604 3.86059 3.79883
# Velocity P-wave (km/s) = 6.70770 6.93867 6.82416
#
# Compressibility (1/GPa) = 0.02070515
#
# Stress axis : x y z
#
# Youngs Moduli (GPa) = 58.17611 55.70476 74.65687
#
# Poissons Ratio (x) = 0.21178 0.22336
# Poissons Ratio (y) = 0.22117 0.53168
# Poissons Ratio (z) = 0.17405 0.39671
#
# Static dielectric constant tensor:
#      x y z
#    x 3.132510 0.000000 0.000000 
#    y 0.000000 3.409520 0.000000 
#    z 0.000000 0.000000 3.339870 
# 
# 
# High freq. dielectric constant tensor:
#      x y z
#    x 1.684170 0.000000 0.000000 
#    y 0.000000 1.722950 0.000000 
#    z 0.000000 0.000000 1.712450 
# 
# From -- ./inp_files/32468.got.cif
#   From: 2010.03.12/outbox.cif.g09.slc.cpg/sg62_17_cif.got.tgz:32468.got - 2010.04.10 19:12:36.
