data_PCOD8250880
_publ_section_title
;
Structure prediction by ZEFSAII (Michael W. Deem and Ramdas Pophale) SiO2 
 PCOD8250880
Probable space group: P N M A
;
_chemical_formula_sum "Si O2"
_cell_formula_units_Z 64
_cell_length_a 22.096637
_cell_length_b 9.106312
_cell_length_c 17.105668
_cell_angle_alpha 90.000000
_cell_angle_beta 90.000000
_cell_angle_gamma 90.000000
_cell_volume 3441.983197
_symmetry_space_group_name_H-M "P N M A"
_symmetry_group_IT_number 62
_symmetry_cell_setting 'orthorhombic'
loop_
_space_group_symop_operation_xyz
x,y,z
1/2-x,-y,1/2+z
1/2+x,1/2-y,1/2-z
-x,1/2+y,-z
-x,-y,-z
1/2+x,y,1/2-z
1/2-x,1/2+y,1/2+z
x,1/2-y,z
loop_
_atom_site_type_symbol
_atom_site_label
_atom_site_fract_x
_atom_site_fract_y
_atom_site_fract_z
Si Si1 0.884353 0.076254 0.278065
Si Si2 0.365516 0.076027 0.472328
Si Si3 0.351860 0.578150 0.796309
Si Si4 0.895052 0.578860 0.874526
Si Si5 0.280464 0.423688 0.336368
Si Si6 0.574420 0.420666 0.927635
Si Si7 0.566633 0.920805 0.083791
Si Si8 0.030371 0.923960 0.858679
O O1 0.886485 0.250000 0.293971
O O2 0.822568 0.026609 0.235609
O O3 0.940498 0.025217 0.223517
O O4 0.885871 0.990483 0.359194
O O5 0.364832 0.250000 0.482941
O O6 0.309005 0.023211 0.418724
O O7 0.427868 0.023282 0.430879
O O8 0.359238 0.000961 0.556233
O O9 0.359831 0.750000 0.815441
O O10 0.357841 0.549276 0.704156
O O11 0.287126 0.514967 0.824783
O O12 0.404068 0.488659 0.839141
O O13 0.898604 0.750000 0.894290
O O14 0.962879 0.511463 0.866993
O O15 0.278788 0.250000 0.336018
O O16 0.589694 0.250000 0.935324
O O17 0.504463 0.450167 0.909294
O O18 0.593689 0.498351 0.008034
O O19 0.582038 0.750000 0.077306
O O20 0.028613 0.750000 0.857845
#
# Coordination Sequence:
#
# PCOD8250880 Si02
#       8
#     8   8   8   8   8   8   8   8
#     4   9  16  31  55  77 101 138 180 215 250 305
#     4   9  17  32  52  71  97 134 171 205 245 301
#     4  10  20  36  55  74 103 140 174 214 263 309
#     4  10  19  30  48  76 104 129 163 209 259 307
#     4   8  17  35  55  73 100 140 178 210 253 307
#     4  10  20  34  53  80 110 135 168 215 269 320
#     4  10  21  36  54  77 105 137 173 216 264 317
#     4   8  15  28  48  74 102 134 168 203 252 307
#
# _framework density 18.593933
#
# number of rings (size 3 to 8) (size 9 to 14) (size 15 to 20)
#    0.000    2.750    0.000    3.375    0.000    3.000 
#    2.250    4.375    0.000    0.000    0.000    0.000 
#    0.000    0.000    0.000    0.000    0.000    0.000 
#
# Total GULP energy -793560.821769 kJ/mol
# GULP energy per Si atom -12399.387840 kJ/mol
# Density = 1.855161 g / cm^3
# Si number density = 18.593933 Si / 1000 Ang^3
#
#
#
# Elastic Constant Matrix: (Units=GPa)
#
#
# Indices 1 2 3 4 5 6 
#
# 1 77.2752 23.8832 30.0120 0.0000 0.0000 0.0000
# 2 23.8832 57.7797 43.4099 0.0000 0.0000 0.0000
# 3 30.0120 43.4099 108.4649 0.0000 0.0000 0.0000
# 4 0.0000 0.0000 0.0000 32.9287 0.0000 0.0000
# 5 0.0000 0.0000 0.0000 0.0000 19.4026 0.0000
# 6 0.0000 0.0000 0.0000 0.0000 0.0000 17.3070
#
#
#
# Elastic Compliance Matrix: (Units=1/GPa)
#
#
# Indices 1 2 3 4 5 6 
#
# 1 0.015271 -0.004487 -0.002430 0.000000 0.000000 0.000000
# 2 -0.004487 0.026067 -0.009191 0.000000 0.000000 0.000000
# 3 -0.002430 -0.009191 0.013570 0.000000 0.000000 0.000000
# 4 0.000000 0.000000 0.000000 0.030369 0.000000 0.000000
# 5 0.000000 0.000000 0.000000 0.000000 0.051539 0.000000
# 6 0.000000 0.000000 0.000000 0.000000 0.000000 0.057780
#
#
# Mechanical properties :
#
#
# Convention : Reuss Voigt Hill
#
# Bulk Modulus (GPa) = 44.06613 48.68110 46.37361
# Shear Modulus (GPa) = 21.33320 23.67530 22.50425
#
# Velocity S-wave (km/s) = 3.39089 3.57218 3.48271
# Velocity P-wave (km/s) = 6.25152 6.57662 6.41613
#
# Compressibility (1/GPa) = 0.02269317
#
# Stress axis : x y z
#
# Youngs Moduli (GPa) = 65.48283 38.36271 73.69018
#
# Poissons Ratio (x) = 0.17213 0.17905
# Poissons Ratio (y) = 0.29381 0.67729
# Poissons Ratio (z) = 0.15911 0.35259
#
# Static dielectric constant tensor:
#      x y z
#    x 3.645610 0.000000 0.000000 
#    y 0.000000 3.075350 0.000000 
#    z 0.000000 0.000000 3.418030 
# 
# 
# High freq. dielectric constant tensor:
#      x y z
#    x 1.711430 0.000000 0.000000 
#    y 0.000000 1.691550 0.000000 
#    z 0.000000 0.000000 1.729890 
# 
# From -- ./inp_files/24838.got.cif
#   From: 2010.03.12/outbox.cif.g09.slc.cpg/sg62_13_cif.got.tgz:24838.got - 2010.04.10 19:12:36.
