data_PCOD8250746
_publ_section_title
;
Structure prediction by ZEFSAII (Michael W. Deem and Ramdas Pophale) SiO2 
 PCOD8250746
Probable space group: P N M A
;
_chemical_formula_sum "Si O2"
_cell_formula_units_Z 48
_cell_length_a 14.316018
_cell_length_b 17.701374
_cell_length_c 9.030854
_cell_angle_alpha 90.000000
_cell_angle_beta 90.000000
_cell_angle_gamma 90.000000
_cell_volume 2288.537510
_symmetry_space_group_name_H-M "P N M A"
_symmetry_group_IT_number 62
_symmetry_cell_setting 'orthorhombic'
loop_
_space_group_symop_operation_xyz
x,y,z
1/2-x,-y,1/2+z
1/2+x,1/2-y,1/2-z
-x,1/2+y,-z
-x,-y,-z
1/2+x,y,1/2-z
1/2-x,1/2+y,1/2+z
x,1/2-y,z
loop_
_atom_site_type_symbol
_atom_site_label
_atom_site_fract_x
_atom_site_fract_y
_atom_site_fract_z
Si Si1 0.439890 0.415924 0.332687
Si Si2 0.683739 0.250000 0.846767
Si Si3 0.757322 0.750000 0.662186
Si Si4 0.821490 0.359267 0.691543
Si Si5 0.452547 0.250000 0.398814
Si Si6 0.479507 0.250000 0.726493
Si Si7 0.272146 0.112537 0.131817
Si Si8 0.119584 0.508938 0.132033
O O1 0.477147 0.328837 0.315799
O O2 0.358627 0.429812 0.212050
O O3 0.399799 0.433384 0.496805
O O4 0.524766 0.472849 0.303036
O O5 0.736184 0.323584 0.783737
O O6 0.576888 0.250000 0.805995
O O7 0.672823 0.250000 0.024639
O O8 0.658344 0.750000 0.578797
O O9 0.771425 0.675886 0.761366
O O10 0.920982 0.323624 0.731766
O O11 0.806792 0.347506 0.517464
O O12 0.830102 0.446961 0.734341
O O13 0.505025 0.250000 0.553869
O O14 0.190881 0.055797 0.081940
#
# Coordination Sequence:
#
# PCOD8250746 Si02
#       8
#     8   4   4   8   4   4   8   8
#     4  10  23  41  64  92 122 180 212 258 322 389
#     4  11  24  39  71  90 120 169 213 253 326 382
#     4  10  20  43  61  89 123 166 204 263 317 384
#     4  11  23  42  60  97 129 158 214 273 309 376
#     4  10  18  41  65  82 123 160 219 255 304 381
#     4  11  22  39  67  93 122 167 210 271 309 367
#     4  11  24  39  65  90 131 164 210 268 320 374
#     4  11  23  41  64  91 129 170 216 254 323 391
#
# _framework density 20.974095999999999
#
# number of rings (size 3 to 8) (size 9 to 14) (size 15 to 20)
#    0.000    1.333    3.333    3.000    2.333    4.000 
#    0.000    0.000    0.000    0.000    0.000    0.000 
#    0.000    0.000    0.000    0.000    0.000    0.000 
#
# Total GULP energy -595227.982295 kJ/mol
# GULP energy per Si atom -12400.582964 kJ/mol
# Density = 2.092636 g / cm^3
# Si number density = 20.974096 Si / 1000 Ang^3
#
#
#
# Elastic Constant Matrix: (Units=GPa)
#
#
# Indices 1 2 3 4 5 6 
#
# 1 83.7992 22.1119 22.5108 0.0000 0.0000 0.0000
# 2 22.1119 94.9592 23.1704 0.0000 0.0000 0.0000
# 3 22.5108 23.1704 104.8321 0.0000 0.0000 0.0000
# 4 0.0000 0.0000 0.0000 19.9365 0.0000 0.0000
# 5 0.0000 0.0000 0.0000 0.0000 25.2015 0.0000
# 6 0.0000 0.0000 0.0000 0.0000 0.0000 6.0919
#
#
#
# Elastic Compliance Matrix: (Units=1/GPa)
#
#
# Indices 1 2 3 4 5 6 
#
# 1 0.013211 -0.002520 -0.002280 0.000000 0.000000 0.000000
# 2 -0.002520 0.011612 -0.002025 0.000000 0.000000 0.000000
# 3 -0.002280 -0.002025 0.010476 0.000000 0.000000 0.000000
# 4 0.000000 0.000000 0.000000 0.050159 0.000000 0.000000
# 5 0.000000 0.000000 0.000000 0.000000 0.039680 0.000000
# 6 0.000000 0.000000 0.000000 0.000000 0.000000 0.164153
#
#
# Mechanical properties :
#
#
# Convention : Reuss Voigt Hill
#
# Bulk Modulus (GPa) = 46.19246 46.57519 46.38382
# Shear Modulus (GPa) = 16.12087 24.63248 20.37667
#
# Velocity S-wave (km/s) = 2.77539 3.43070 3.12030
# Velocity P-wave (km/s) = 5.68698 6.16013 5.92828
#
# Compressibility (1/GPa) = 0.02164855
#
# Stress axis : x y z
#
# Youngs Moduli (GPa) = 75.69666 86.11917 95.45390
#
# Poissons Ratio (x) = 0.21701 0.21761
# Poissons Ratio (y) = 0.19075 0.19333
# Poissons Ratio (z) = 0.17257 0.17442
#
# Static dielectric constant tensor:
#      x y z
#    x 3.635760 0.000000 0.000000 
#    y 0.000000 3.901770 0.000000 
#    z 0.000000 0.000000 3.649860 
# 
# 
# High freq. dielectric constant tensor:
#      x y z
#    x 1.815550 0.000000 0.000000 
#    y 0.000000 1.829070 0.000000 
#    z 0.000000 0.000000 1.817340 
# 
# From -- ./inp_files/6558.got.cif
#   From: 2010.03.12/outbox.cif.g09.slc.cpg/sg62_4_cif.got.tgz:6558.got - 2010.04.10 19:12:36.
