data_PCOD8250577
_publ_section_title
;
Structure prediction by ZEFSAII (Michael W. Deem and Ramdas Pophale) SiO2 
 PCOD8250577
Probable space group: P N M A
;
_chemical_formula_sum "Si O2"
_cell_formula_units_Z 56
_cell_length_a 15.030805
_cell_length_b 9.147434
_cell_length_c 21.291639
_cell_angle_alpha 90.000000
_cell_angle_beta 90.000000
_cell_angle_gamma 90.000000
_cell_volume 2927.457638
_symmetry_space_group_name_H-M "P N M A"
_symmetry_group_IT_number 62
_symmetry_cell_setting 'orthorhombic'
loop_
_space_group_symop_operation_xyz
x,y,z
1/2-x,-y,1/2+z
1/2+x,1/2-y,1/2-z
-x,1/2+y,-z
-x,-y,-z
1/2+x,y,1/2-z
1/2-x,1/2+y,1/2+z
x,1/2-y,z
loop_
_atom_site_type_symbol
_atom_site_label
_atom_site_fract_x
_atom_site_fract_y
_atom_site_fract_z
Si Si1 0.638056 0.080161 0.516035
Si Si2 0.419768 0.582285 0.709839
Si Si3 0.457782 0.080902 0.588265
Si Si4 0.435034 0.418994 0.189125
Si Si5 0.732672 0.577253 0.737101
Si Si6 0.978493 0.922200 0.564816
Si Si7 0.222857 0.077773 0.401305
O O1 0.657798 0.250000 0.505901
O O2 0.555130 0.050700 0.561297
O O3 0.617494 0.009132 0.448663
O O4 0.724426 0.004256 0.544167
O O5 0.427844 0.750000 0.686876
O O6 0.461243 0.474920 0.658997
O O7 0.473502 0.558634 0.773738
O O8 0.318445 0.536586 0.721968
O O9 0.432083 0.250000 0.585151
O O10 0.410892 0.250000 0.183003
O O11 0.352407 0.493576 0.226623
O O12 0.452195 0.479616 0.118559
O O13 0.722626 0.750000 0.730622
O O14 0.743529 0.516132 0.666227
O O15 0.988760 0.750000 0.554743
O O16 0.880117 0.960516 0.588916
O O17 0.000000 0.000000 0.500000
O O18 0.240402 0.250000 0.406995
#
# Coordination Sequence:
#
# PCOD8250577 Si02
#       7
#     8   8   8   8   8   8   8
#     4  10  21  36  55  79 108 145 189 228 272 340
#     4  10  18  32  55  81 107 140 183 227 274 332
#     4  10  21  36  53  79 114 146 177 225 286 334
#     4   9  17  32  54  80 110 142 184 236 280 328
#     4   9  17  30  54  83 107 141 186 230 279 334
#     4  10  21  37  56  80 113 152 192 237 287 341
#     4  10  19  35  57  82 112 146 188 237 291 343
#
# _framework density 19.129228000000001
#
# number of rings (size 3 to 8) (size 9 to 14) (size 15 to 20)
#    0.000    2.286    1.429    1.714    0.000    4.571 
#    0.000    2.857    0.000    1.714    0.000    0.000 
#    0.000    0.000    0.000    0.000    0.000    0.000 
#
# Total GULP energy -694340.808573 kJ/mol
# GULP energy per Si atom -12398.943010 kJ/mol
# Density = 1.908569 g / cm^3
# Si number density = 19.129228 Si / 1000 Ang^3
#
#
#
# Elastic Constant Matrix: (Units=GPa)
#
#
# Indices 1 2 3 4 5 6 
#
# 1 102.1726 31.4253 45.6939 0.0000 0.0000 0.0000
# 2 31.4253 44.3161 30.0220 0.0000 0.0000 0.0000
# 3 45.6939 30.0220 120.4841 0.0000 0.0000 0.0000
# 4 0.0000 0.0000 0.0000 27.1588 0.0000 0.0000
# 5 0.0000 0.0000 0.0000 0.0000 29.6538 0.0000
# 6 0.0000 0.0000 0.0000 0.0000 0.0000 22.1639
#
#
#
# Elastic Compliance Matrix: (Units=1/GPa)
#
#
# Indices 1 2 3 4 5 6 
#
# 1 0.013524 -0.007358 -0.003296 0.000000 0.000000 0.000000
# 2 -0.007358 0.031151 -0.004972 0.000000 0.000000 0.000000
# 3 -0.003296 -0.004972 0.010789 0.000000 0.000000 0.000000
# 4 0.000000 0.000000 0.000000 0.036820 0.000000 0.000000
# 5 0.000000 0.000000 0.000000 0.000000 0.033723 0.000000
# 6 0.000000 0.000000 0.000000 0.000000 0.000000 0.045118
#
#
# Mechanical properties :
#
#
# Convention : Reuss Voigt Hill
#
# Bulk Modulus (GPa) = 41.29930 53.47279 47.38605
# Shear Modulus (GPa) = 23.75904 26.45073 25.10489
#
# Velocity S-wave (km/s) = 3.52807 3.72255 3.62661
# Velocity P-wave (km/s) = 6.18327 6.81841 6.50859
#
# Compressibility (1/GPa) = 0.02421349
#
# Stress axis : x y z
#
# Youngs Moduli (GPa) = 73.94107 32.10208 92.69037
#
# Poissons Ratio (x) = 0.23619 0.30549
# Poissons Ratio (y) = 0.54403 0.46083
# Poissons Ratio (z) = 0.24369 0.15960
#
# Static dielectric constant tensor:
#      x y z
#    x 3.633800 0.000000 0.000000 
#    y 0.000000 3.144580 0.000000 
#    z 0.000000 0.000000 3.593250 
# 
# 
# High freq. dielectric constant tensor:
#      x y z
#    x 1.748520 0.000000 0.000000 
#    y 0.000000 1.704370 0.000000 
#    z 0.000000 0.000000 1.753870 
# 
# From -- ./inp_files/27167.got.cif
#   From: 2010.03.12/outbox.cif.g09.slc.cpg/sg62_14_cif.got.tgz:27167.got - 2010.04.10 19:12:36.
