data_PCOD8250291
_publ_section_title
;
Structure prediction by ZEFSAII (Michael W. Deem and Ramdas Pophale) SiO2 
 PCOD8250291
Probable space group: P N M A
;
_chemical_formula_sum "Si O2"
_cell_formula_units_Z 56
_cell_length_a 5.241361
_cell_length_b 32.676524
_cell_length_c 16.247791
_cell_angle_alpha 90.000000
_cell_angle_beta 90.000000
_cell_angle_gamma 90.000000
_cell_volume 2782.750367
_symmetry_space_group_name_H-M "P N M A"
_symmetry_group_IT_number 62
_symmetry_cell_setting 'orthorhombic'
loop_
_space_group_symop_operation_xyz
x,y,z
1/2-x,-y,1/2+z
1/2+x,1/2-y,1/2-z
-x,1/2+y,-z
-x,-y,-z
1/2+x,y,1/2-z
1/2-x,1/2+y,1/2+z
x,1/2-y,z
loop_
_atom_site_type_symbol
_atom_site_label
_atom_site_fract_x
_atom_site_fract_y
_atom_site_fract_z
Si Si1 0.984335 0.123460 0.705151
Si Si2 0.518606 0.750000 0.691989
Si Si3 0.480938 0.321471 0.939900
Si Si4 0.932559 0.466666 0.666704
Si Si5 0.980053 0.250000 0.693014
Si Si6 0.981048 0.204736 0.029545
Si Si7 0.939497 0.950853 0.775964
Si Si8 0.066411 0.508594 0.090668
O O1 0.734933 0.141935 0.750480
O O2 0.981809 0.135072 0.607910
O O3 0.988599 0.074506 0.716408
O O4 0.268558 0.750000 0.749976
O O5 0.518646 0.789809 0.630119
O O6 0.480899 0.289116 0.866091
O O7 0.727688 0.318497 0.999035
O O8 0.233659 0.318666 0.998849
O O9 0.938366 0.505035 0.728708
O O10 0.655732 0.462353 0.625823
O O11 0.155623 0.471402 0.598935
O O12 0.729234 0.250000 0.749626
O O13 0.981617 0.250000 0.988472
O O14 0.689610 0.925090 0.749811
O O15 0.939015 0.962565 0.870946
O O16 0.000000 0.500000 0.000000
#
# Coordination Sequence:
#
# PCOD8250291 Si02
#       8
#     8   4   8   8   4   8   8   8
#     4  12  23  36  52  74 102 145 200 234 253 303
#     4  10  18  32  56  84 104 122 156 204 270 352
#     4  12  21  36  48  72 102 145 188 220 271 327
#     4  10  19  33  49  68 102 137 163 208 266 300
#     4  12  20  30  44  62  90 130 182 238 264 280
#     4  10  20  35  53  71 106 141 156 213 292 333
#     4   8  14  25  41  60  87 123 148 177 235 295
#     4  10  18  29  48  73  97 123 156 202 255 314
#
# _framework density 20.123974
#
# number of rings (size 3 to 8) (size 9 to 14) (size 15 to 20)
#    0.429    1.143    1.429    7.286    0.000    0.000 
#    0.000    0.000    0.000    0.000    0.000    0.000 
#    0.000   68.571    0.000    0.000    0.000    0.000 
#
# Total GULP energy -693793.347632 kJ/mol
# GULP energy per Si atom -12389.166922 kJ/mol
# Density = 2.007817 g / cm^3
# Si number density = 20.123974 Si / 1000 Ang^3
#
#
#
# Elastic Constant Matrix: (Units=GPa)
#
#
# Indices 1 2 3 4 5 6 
#
# 1 175.1876 -2.9014 41.4419 0.0000 0.0000 0.0000
# 2 -2.9014 8.1453 2.0683 0.0000 0.0000 0.0000
# 3 41.4419 2.0683 109.2942 0.0000 0.0000 0.0000
# 4 0.0000 0.0000 0.0000 19.9075 0.0000 0.0000
# 5 0.0000 0.0000 0.0000 0.0000 42.7145 0.0000
# 6 0.0000 0.0000 0.0000 0.0000 0.0000 9.7078
#
#
#
# Elastic Compliance Matrix: (Units=1/GPa)
#
#
# Indices 1 2 3 4 5 6 
#
# 1 0.006337 0.002881 -0.002457 0.000000 0.000000 0.000000
# 2 0.002881 0.124673 -0.003452 0.000000 0.000000 0.000000
# 3 -0.002457 -0.003452 0.010147 0.000000 0.000000 0.000000
# 4 0.000000 0.000000 0.000000 0.050232 0.000000 0.000000
# 5 0.000000 0.000000 0.000000 0.000000 0.023411 0.000000
# 6 0.000000 0.000000 0.000000 0.000000 0.000000 0.103010
#
#
# Mechanical properties :
#
#
# Convention : Reuss Voigt Hill
#
# Bulk Modulus (GPa) = 7.40187 41.53830 24.47008
# Shear Modulus (GPa) = 13.55380 31.26718 22.41049
#
# Velocity S-wave (km/s) = 2.59803 3.94601 3.34072
# Velocity P-wave (km/s) = 3.56172 6.43796 5.20256
#
# Compressibility (1/GPa) = 0.13510108
#
# Stress axis : x y z
#
# Youngs Moduli (GPa) = 157.79801 8.02098 98.55374
#
# Poissons Ratio (x) = -0.02311 0.24219
# Poissons Ratio (y) = -0.45467 0.34020
# Poissons Ratio (z) = 0.38778 0.02769
#
# Static dielectric constant tensor:
#      x y z
#    x 14.073090 0.000000 0.000000 
#    y 0.000000 4.399110 0.000000 
#    z 0.000000 0.000000 3.797610 
# 
# 
# High freq. dielectric constant tensor:
#      x y z
#    x 1.824180 0.000000 0.000000 
#    y 0.000000 1.719030 0.000000 
#    z 0.000000 0.000000 1.779220 
# 
# From -- ./inp_files/16295.got.cif
#   From: 2010.03.12/outbox.cif.g09.slc.cpg/sg62_9_cif.got.tgz:16295.got - 2010.04.10 19:12:36.
