data_PCOD8250297
_publ_section_title
;
Structure prediction by ZEFSAII (Michael W. Deem and Ramdas Pophale) SiO2 
 PCOD8250297
Probable space group: P N M A
;
_chemical_formula_sum "Si O2"
_cell_formula_units_Z 48
_cell_length_a 16.511817
_cell_length_b 9.120859
_cell_length_c 18.209058
_cell_angle_alpha 90.000000
_cell_angle_beta 90.000000
_cell_angle_gamma 90.000000
_cell_volume 2742.319728
_symmetry_space_group_name_H-M "P N M A"
_symmetry_group_IT_number 62
_symmetry_cell_setting 'orthorhombic'
loop_
_space_group_symop_operation_xyz
x,y,z
1/2-x,-y,1/2+z
1/2+x,1/2-y,1/2-z
-x,1/2+y,-z
-x,-y,-z
1/2+x,y,1/2-z
1/2-x,1/2+y,1/2+z
x,1/2-y,z
loop_
_atom_site_type_symbol
_atom_site_label
_atom_site_fract_x
_atom_site_fract_y
_atom_site_fract_z
Si Si1 0.340330 0.922170 0.338258
Si Si2 0.243588 0.578183 0.048286
Si Si3 0.501794 0.580389 0.076921
Si Si4 0.418946 0.424557 0.472929
Si Si5 0.180745 0.583869 0.418820
Si Si6 0.355512 0.923723 0.174332
O O1 0.362135 0.750000 0.344908
O O2 0.246081 0.952380 0.356053
O O3 0.353566 0.986877 0.256676
O O4 0.397537 0.013438 0.392716
O O5 0.250242 0.750000 0.039467
O O6 0.151683 0.528485 0.030748
O O7 0.274186 0.529153 0.129315
O O8 0.306775 0.515007 0.990018
O O9 0.482652 0.750000 0.061997
O O10 0.590668 0.558183 0.113267
O O11 0.435281 0.515051 0.132946
O O12 0.500000 0.500000 0.000000
O O13 0.500000 0.500000 0.500000
O O14 0.429970 0.250000 0.468814
O O15 0.191690 0.750000 0.445963
O O16 0.359394 0.750000 0.180482
#
# Coordination Sequence:
#
# PCOD8250297 Si02
#       6
#     8   8   8   8   8   8
#     4   9  18  34  52  72 101 134 165 207 257 300
#     4   9  17  31  52  74  95 128 167 203 245 301
#     4  10  18  29  48  75 101 130 165 203 245 298
#     4  10  20  35  55  77 100 132 175 215 251 298
#     4   9  17  29  47  72  97 127 163 200 245 295
#     4   9  17  31  50  74 102 130 165 207 251 299
#
# _framework density 17.503430000000002
#
# number of rings (size 3 to 8) (size 9 to 14) (size 15 to 20)
#    0.000    2.667    1.667    0.500    0.000    0.667 
#    3.000    1.667    0.000    0.000    0.000    0.000 
#    0.000    0.000    0.000    0.000    0.000    0.000 
#
# Total GULP energy -594950.443342 kJ/mol
# GULP energy per Si atom -12394.800903 kJ/mol
# Density = 1.746359 g / cm^3
# Si number density = 17.503430 Si / 1000 Ang^3
#
#
#
# Elastic Constant Matrix: (Units=GPa)
#
#
# Indices 1 2 3 4 5 6 
#
# 1 136.1043 35.1539 83.6539 0.0000 0.0000 0.0000
# 2 35.1539 34.3273 34.7697 0.0000 0.0000 0.0000
# 3 83.6539 34.7697 150.2426 0.0000 0.0000 0.0000
# 4 0.0000 0.0000 0.0000 23.0724 0.0000 0.0000
# 5 0.0000 0.0000 0.0000 0.0000 24.8359 0.0000
# 6 0.0000 0.0000 0.0000 0.0000 0.0000 20.6442
#
#
#
# Elastic Compliance Matrix: (Units=1/GPa)
#
#
# Indices 1 2 3 4 5 6 
#
# 1 0.012495 -0.007509 -0.005219 0.000000 0.000000 0.000000
# 2 -0.007509 0.042564 -0.005669 0.000000 0.000000 0.000000
# 3 -0.005219 -0.005669 0.010874 0.000000 0.000000 0.000000
# 4 0.000000 0.000000 0.000000 0.043342 0.000000 0.000000
# 5 0.000000 0.000000 0.000000 0.000000 0.040264 0.000000
# 6 0.000000 0.000000 0.000000 0.000000 0.000000 0.048440
#
#
# Mechanical properties :
#
#
# Convention : Reuss Voigt Hill
#
# Bulk Modulus (GPa) = 34.32041 69.75879 52.03960
# Shear Modulus (GPa) = 20.45113 24.85028 22.65071
#
# Velocity S-wave (km/s) = 3.42191 3.77203 3.60122
# Velocity P-wave (km/s) = 5.93826 7.67540 6.86202
#
# Compressibility (1/GPa) = 0.02913718
#
# Stress axis : x y z
#
# Youngs Moduli (GPa) = 80.03422 23.49425 91.96371
#
# Poissons Ratio (x) = 0.17642 0.47997
# Poissons Ratio (y) = 0.60099 0.52136
# Poissons Ratio (z) = 0.41771 0.13319
#
# Static dielectric constant tensor:
#      x y z
#    x 3.586620 0.000000 0.000000 
#    y 0.000000 3.119220 0.000000 
#    z 0.000000 0.000000 3.388160 
# 
# 
# High freq. dielectric constant tensor:
#      x y z
#    x 1.687330 0.000000 0.000000 
#    y 0.000000 1.657420 0.000000 
#    z 0.000000 0.000000 1.661930 
# 
# From -- ./inp_files/19661.got.cif
#   From: 2010.03.12/outbox.cif.g09.slc.cpg/sg62_10_cif.got.tgz:19661.got - 2010.04.10 19:12:36.
