data_PCOD8250818
_publ_section_title
;
Structure prediction by ZEFSAII (Michael W. Deem and Ramdas Pophale) SiO2 
 PCOD8250818
Probable space group: P N M A
;
_chemical_formula_sum "Si O2"
_cell_formula_units_Z 48
_cell_length_a 23.630383
_cell_length_b 9.159333
_cell_length_c 13.737709
_cell_angle_alpha 90.000000
_cell_angle_beta 90.000000
_cell_angle_gamma 90.000000
_cell_volume 2973.369773
_symmetry_space_group_name_H-M "P N M A"
_symmetry_group_IT_number 62
_symmetry_cell_setting 'orthorhombic'
loop_
_space_group_symop_operation_xyz
x,y,z
1/2-x,-y,1/2+z
1/2+x,1/2-y,1/2-z
-x,1/2+y,-z
-x,-y,-z
1/2+x,y,1/2-z
1/2-x,1/2+y,1/2+z
x,1/2-y,z
loop_
_atom_site_type_symbol
_atom_site_label
_atom_site_fract_x
_atom_site_fract_y
_atom_site_fract_z
Si Si1 0.330043 0.918488 0.707547
Si Si2 0.438007 0.581685 0.594821
Si Si3 0.268591 0.918813 0.112472
Si Si4 0.233875 0.419839 0.395058
Si Si5 0.164734 0.422434 0.799230
Si Si6 0.433675 0.079613 0.396946
O O1 0.317141 0.750000 0.691042
O O2 0.395410 0.954849 0.683613
O O3 0.315807 0.962953 0.819023
O O4 0.290143 0.000847 0.631923
O O5 0.432814 0.750000 0.561185
O O6 0.501233 0.548569 0.632020
O O7 0.421165 0.480963 0.504327
O O8 0.254975 0.750000 0.125844
O O9 0.317005 0.965571 0.189218
O O10 0.289233 0.955321 0.003099
O O11 0.250690 0.250000 0.385309
O O12 0.289501 0.515195 0.375026
O O13 0.159675 0.250000 0.814376
O O14 0.104301 0.496474 0.817887
O O15 0.418902 0.250000 0.395558
#
# Coordination Sequence:
#
# PCOD8250818 Si02
#       6
#     8   8   8   8   8   8
#     4   9  17  29  46  66  87 112 142 177 216 257
#     4   9  18  31  46  66  90 115 144 179 219 259
#     4   9  18  30  44  64  89 115 142 174 213 257
#     4   9  17  30  47  66  87 113 145 178 215 259
#     4  10  19  30  44  64  90 117 144 176 215 256
#     4  10  19  30  45  65  89 117 147 178 214 258
#
# _framework density 16.1433
#
# number of rings (size 3 to 8) (size 9 to 14) (size 15 to 20)
#    0.000    2.667    0.000    2.000    0.000    5.333 
#    0.000    0.000    0.000    1.000    0.000    0.000 
#    0.000    0.000    0.000    0.000    0.000    1.000 
#
# Total GULP energy -595134.174138 kJ/mol
# GULP energy per Si atom -12398.628628 kJ/mol
# Density = 1.610656 g / cm^3
# Si number density = 16.143300 Si / 1000 Ang^3
#
#
#
# Elastic Constant Matrix: (Units=GPa)
#
#
# Indices 1 2 3 4 5 6 
#
# 1 115.4486 45.4715 67.7343 0.0000 0.0000 0.0000
# 2 45.4715 60.4297 41.4261 0.0000 0.0000 0.0000
# 3 67.7343 41.4261 114.8792 0.0000 0.0000 0.0000
# 4 0.0000 0.0000 0.0000 21.2606 0.0000 0.0000
# 5 0.0000 0.0000 0.0000 0.0000 24.1880 0.0000
# 6 0.0000 0.0000 0.0000 0.0000 0.0000 24.1232
#
#
#
# Elastic Compliance Matrix: (Units=1/GPa)
#
#
# Indices 1 2 3 4 5 6 
#
# 1 0.015203 -0.007034 -0.006428 0.000000 0.000000 0.000000
# 2 -0.007034 0.025236 -0.004953 0.000000 0.000000 0.000000
# 3 -0.006428 -0.004953 0.014281 0.000000 0.000000 0.000000
# 4 0.000000 0.000000 0.000000 0.047035 0.000000 0.000000
# 5 0.000000 0.000000 0.000000 0.000000 0.041343 0.000000
# 6 0.000000 0.000000 0.000000 0.000000 0.000000 0.041454
#
#
# Mechanical properties :
#
#
# Convention : Reuss Voigt Hill
#
# Bulk Modulus (GPa) = 55.89315 66.66903 61.28109
# Shear Modulus (GPa) = 21.99295 22.98940 22.49118
#
# Velocity S-wave (km/s) = 3.69502 3.77780 3.73664
# Velocity P-wave (km/s) = 7.27341 7.77283 7.52726
#
# Compressibility (1/GPa) = 0.01789128
#
# Stress axis : x y z
#
# Youngs Moduli (GPa) = 65.77488 39.62540 70.02400
#
# Poissons Ratio (x) = 0.27871 0.45009
# Poissons Ratio (y) = 0.46264 0.34684
# Poissons Ratio (z) = 0.42278 0.19627
#
# Static dielectric constant tensor:
#      x y z
#    x 3.088940 0.000000 0.000000 
#    y 0.000000 3.132470 0.000000 
#    z 0.000000 0.000000 3.153420 
# 
# 
# High freq. dielectric constant tensor:
#      x y z
#    x 1.608680 0.000000 0.000000 
#    y 0.000000 1.628060 0.000000 
#    z 0.000000 0.000000 1.610010 
# 
# From -- ./inp_files/14723.got.cif
#   From: 2010.03.12/outbox.cif.g09.slc.cpg/sg62_8_cif.got.tgz:14723.got - 2010.04.10 19:12:36.
