data_PCOD8250386
_publ_section_title
;
Structure prediction by ZEFSAII (Michael W. Deem and Ramdas Pophale) SiO2 
 PCOD8250386
Probable space group: P N M A
;
_chemical_formula_sum "Si O2"
_cell_formula_units_Z 56
_cell_length_a 14.572311
_cell_length_b 9.502043
_cell_length_c 22.021068
_cell_angle_alpha 90.000000
_cell_angle_beta 90.000000
_cell_angle_gamma 90.000000
_cell_volume 3049.185183
_symmetry_space_group_name_H-M "P N M A"
_symmetry_group_IT_number 62
_symmetry_cell_setting 'orthorhombic'
loop_
_space_group_symop_operation_xyz
x,y,z
1/2-x,-y,1/2+z
1/2+x,1/2-y,1/2-z
-x,1/2+y,-z
-x,-y,-z
1/2+x,y,1/2-z
1/2-x,1/2+y,1/2+z
x,1/2-y,z
loop_
_atom_site_type_symbol
_atom_site_label
_atom_site_fract_x
_atom_site_fract_y
_atom_site_fract_z
Si Si1 0.610294 0.916568 0.341415
Si Si2 0.693415 0.082763 0.809553
Si Si3 0.071914 0.414506 0.578878
Si Si4 0.916738 0.089431 0.976334
Si Si5 0.302469 0.090431 0.407948
Si Si6 0.409687 0.917496 0.309528
Si Si7 0.398802 0.587228 0.941211
O O1 0.615693 0.750000 0.340232
O O2 0.701699 0.976227 0.308055
O O3 0.613252 0.969740 0.410879
O O4 0.516390 0.966885 0.308777
O O5 0.693653 0.250000 0.807519
O O6 0.644480 0.031308 0.871234
O O7 0.638199 0.024613 0.751412
O O8 0.052085 0.250000 0.586929
O O9 0.111373 0.450932 0.512469
O O10 0.976464 0.494150 0.590477
O O11 0.950461 0.250000 0.970261
O O12 0.831777 0.075977 0.021948
O O13 0.000000 0.000000 0.000000
O O14 0.319758 0.250000 0.385113
O O15 0.195132 0.052394 0.406110
O O16 0.359140 0.983299 0.367146
O O17 0.402316 0.750000 0.315798
O O18 0.425661 0.750000 0.934287
#
# Coordination Sequence:
#
# PCOD8250386 Si02
#       7
#     8   8   8   8   8   8   8
#     4   9  17  31  50  74 103 132 163 206 258 302
#     4   9  18  32  52  75 101 134 171 209 253 305
#     4   9  17  32  53  76  99 129 171 211 248 295
#     4  10  18  30  51  75 101 132 165 206 255 304
#     4  10  20  33  50  73 103 138 169 200 254 317
#     4  10  20  33  51  75 100 129 170 215 249 288
#     4   9  18  32  51  75 104 134 164 203 254 306
#
# _framework density 18.365562000000001
#
# number of rings (size 3 to 8) (size 9 to 14) (size 15 to 20)
#    0.000    2.571    1.429    0.857    0.000    5.143 
#    0.000    3.571    0.000    5.143    0.000    0.000 
#    0.000    0.000    0.000    0.000    0.000    0.000 
#
# Total GULP energy -694268.688784 kJ/mol
# GULP energy per Si atom -12397.655157 kJ/mol
# Density = 1.832376 g / cm^3
# Si number density = 18.365562 Si / 1000 Ang^3
#
#
#
# Elastic Constant Matrix: (Units=GPa)
#
#
# Indices 1 2 3 4 5 6 
#
# 1 163.4831 34.2819 66.8030 0.0000 0.0000 0.0000
# 2 34.2819 30.2955 16.7759 0.0000 0.0000 0.0000
# 3 66.8030 16.7759 97.6063 0.0000 0.0000 0.0000
# 4 0.0000 0.0000 0.0000 20.1504 0.0000 0.0000
# 5 0.0000 0.0000 0.0000 0.0000 31.4228 0.0000
# 6 0.0000 0.0000 0.0000 0.0000 0.0000 23.4591
#
#
#
# Elastic Compliance Matrix: (Units=1/GPa)
#
#
# Indices 1 2 3 4 5 6 
#
# 1 0.010122 -0.008419 -0.005480 0.000000 0.000000 0.000000
# 2 -0.008419 0.043483 -0.001712 0.000000 0.000000 0.000000
# 3 -0.005480 -0.001712 0.014290 0.000000 0.000000 0.000000
# 4 0.000000 0.000000 0.000000 0.049627 0.000000 0.000000
# 5 0.000000 0.000000 0.000000 0.000000 0.031824 0.000000
# 6 0.000000 0.000000 0.000000 0.000000 0.000000 0.042627
#
#
# Mechanical properties :
#
#
# Convention : Reuss Voigt Hill
#
# Bulk Modulus (GPa) = 27.26807 58.56739 42.91773
# Shear Modulus (GPa) = 21.23877 26.57473 23.90675
#
# Velocity S-wave (km/s) = 3.40434 3.80806 3.61184
# Velocity P-wave (km/s) = 5.50748 7.16199 6.38852
#
# Compressibility (1/GPa) = 0.03667293
#
# Stress axis : x y z
#
# Youngs Moduli (GPa) = 98.79811 22.99774 69.97758
#
# Poissons Ratio (x) = 0.19361 0.38351
# Poissons Ratio (y) = 0.83176 0.11977
# Poissons Ratio (z) = 0.54146 0.03936
#
# Static dielectric constant tensor:
#      x y z
#    x 3.716360 0.000000 0.000000 
#    y 0.000000 3.049150 0.000000 
#    z 0.000000 0.000000 3.589270 
# 
# 
# High freq. dielectric constant tensor:
#      x y z
#    x 1.725460 0.000000 0.000000 
#    y 0.000000 1.671870 0.000000 
#    z 0.000000 0.000000 1.707360 
# 
# From -- ./inp_files/27279.got.cif
#   From: 2010.03.12/outbox.cif.g09.slc.cpg/sg62_14_cif.got.tgz:27279.got - 2010.04.10 19:12:36.
