data_PCOD8250236
_publ_section_title
;
Structure prediction by ZEFSAII (Michael W. Deem and Ramdas Pophale) SiO2 
 PCOD8250236
Probable space group: P N M A
;
_chemical_formula_sum "Si O2"
_cell_formula_units_Z 56
_cell_length_a 22.431835
_cell_length_b 9.476355
_cell_length_c 13.713506
_cell_angle_alpha 90.000000
_cell_angle_beta 90.000000
_cell_angle_gamma 90.000000
_cell_volume 2915.107833
_symmetry_space_group_name_H-M "P N M A"
_symmetry_group_IT_number 62
_symmetry_cell_setting 'orthorhombic'
loop_
_space_group_symop_operation_xyz
x,y,z
1/2-x,-y,1/2+z
1/2+x,1/2-y,1/2-z
-x,1/2+y,-z
-x,-y,-z
1/2+x,y,1/2-z
1/2-x,1/2+y,1/2+z
x,1/2-y,z
loop_
_atom_site_type_symbol
_atom_site_label
_atom_site_fract_x
_atom_site_fract_y
_atom_site_fract_z
Si Si1 0.828808 0.409060 0.688363
Si Si2 0.472243 0.913134 0.205477
Si Si3 0.835982 0.409501 0.904759
Si Si4 0.363666 0.908189 0.086738
Si Si5 0.068386 0.411103 0.390084
Si Si6 0.974302 0.414384 0.910618
Si Si7 0.239324 0.913768 0.503004
O O1 0.853884 0.250000 0.671860
O O2 0.804566 0.423938 0.798436
O O3 0.881611 0.519511 0.677787
O O4 0.776510 0.439718 0.610506
O O5 0.489970 0.750000 0.188849
O O6 0.401162 0.935383 0.186265
O O7 0.488884 0.960635 0.314707
O O8 0.506959 0.007110 0.126538
O O9 0.829542 0.250000 0.943935
O O10 0.905025 0.452142 0.896010
O O11 0.802942 0.513416 0.979397
O O12 0.336066 0.750000 0.085835
O O13 0.310534 0.018988 0.073975
O O14 0.412546 0.924097 0.001887
O O15 0.060425 0.250000 0.357337
O O16 0.983327 0.250000 0.931974
O O17 0.000000 0.500000 0.000000
O O18 0.243987 0.750000 0.529240
#
# Coordination Sequence:
#
# PCOD8250236 Si02
#       7
#     8   8   8   8   8   8   8
#     4   9  18  36  58  78 106 147 189 224 271 340
#     4  10  19  35  56  78 109 151 189 220 268 338
#     4  10  20  39  63  81 108 150 189 228 278 336
#     4   9  19  34  53  80 116 150 179 219 274 336
#     4  10  18  28  50  85 114 139 175 224 276 322
#     4  10  22  40  61  83 108 145 191 236 280 329
#     4  10  21  36  57  86 115 144 186 238 282 329
#
# _framework density 19.210266000000001
#
# number of rings (size 3 to 8) (size 9 to 14) (size 15 to 20)
#    0.000    2.286    1.429    1.286    0.000    3.429 
#    2.571    0.000    0.000    0.000    0.000    0.000 
#    0.000    0.000    0.000    0.000    0.000    0.000 
#
# Total GULP energy -694362.261778 kJ/mol
# GULP energy per Si atom -12399.326103 kJ/mol
# Density = 1.916654 g / cm^3
# Si number density = 19.210266 Si / 1000 Ang^3
#
#
#
# Elastic Constant Matrix: (Units=GPa)
#
#
# Indices 1 2 3 4 5 6 
#
# 1 62.2343 39.7701 42.6690 0.0000 0.0000 0.0000
# 2 39.7701 91.0324 36.3962 0.0000 0.0000 0.0000
# 3 42.6690 36.3962 75.4665 0.0000 0.0000 0.0000
# 4 0.0000 0.0000 0.0000 27.5491 0.0000 0.0000
# 5 0.0000 0.0000 0.0000 0.0000 27.7034 0.0000
# 6 0.0000 0.0000 0.0000 0.0000 0.0000 36.0829
#
#
#
# Elastic Compliance Matrix: (Units=1/GPa)
#
#
# Indices 1 2 3 4 5 6 
#
# 1 0.030215 -0.007892 -0.013278 0.000000 0.000000 0.000000
# 2 -0.007892 0.015670 -0.003096 0.000000 0.000000 0.000000
# 3 -0.013278 -0.003096 0.022251 0.000000 0.000000 0.000000
# 4 0.000000 0.000000 0.000000 0.036299 0.000000 0.000000
# 5 0.000000 0.000000 0.000000 0.000000 0.036097 0.000000
# 6 0.000000 0.000000 0.000000 0.000000 0.000000 0.027714
#
#
# Mechanical properties :
#
#
# Convention : Reuss Voigt Hill
#
# Bulk Modulus (GPa) = 51.00306 51.82265 51.41286
# Shear Modulus (GPa) = 22.39034 25.59361 23.99197
#
# Velocity S-wave (km/s) = 3.41770 3.65401 3.53783
# Velocity P-wave (km/s) = 6.49475 6.69608 6.59619
#
# Compressibility (1/GPa) = 0.01960667
#
# Stress axis : x y z
#
# Youngs Moduli (GPa) = 33.09652 63.81438 44.94169
#
# Poissons Ratio (x) = 0.50360 0.59671
# Poissons Ratio (y) = 0.26118 0.13912
# Poissons Ratio (z) = 0.43944 0.19755
#
# Static dielectric constant tensor:
#      x y z
#    x 3.329950 0.000000 0.000000 
#    y 0.000000 3.559270 0.000000 
#    z 0.000000 0.000000 3.475150 
# 
# 
# High freq. dielectric constant tensor:
#      x y z
#    x 1.733950 0.000000 0.000000 
#    y 0.000000 1.747980 0.000000 
#    z 0.000000 0.000000 1.737610 
# 
# From -- ./inp_files/20319.got.cif
#   From: 2010.03.12/outbox.cif.g09.slc.cpg/sg62_11_cif.got.tgz:20319.got - 2010.04.10 19:12:36.
