data_PCOD8250532
_publ_section_title
;
Structure prediction by ZEFSAII (Michael W. Deem and Ramdas Pophale) SiO2 
 PCOD8250532
Probable space group: P N M A
;
_chemical_formula_sum "Si O2"
_cell_formula_units_Z 56
_cell_length_a 19.022563
_cell_length_b 8.653928
_cell_length_c 18.507983
_cell_angle_alpha 90.000000
_cell_angle_beta 90.000000
_cell_angle_gamma 90.000000
_cell_volume 3046.782136
_symmetry_space_group_name_H-M "P N M A"
_symmetry_group_IT_number 62
_symmetry_cell_setting 'orthorhombic'
loop_
_space_group_symop_operation_xyz
x,y,z
1/2-x,-y,1/2+z
1/2+x,1/2-y,1/2-z
-x,1/2+y,-z
-x,-y,-z
1/2+x,y,1/2-z
1/2-x,1/2+y,1/2+z
x,1/2-y,z
loop_
_atom_site_type_symbol
_atom_site_label
_atom_site_fract_x
_atom_site_fract_y
_atom_site_fract_z
Si Si1 0.641960 0.067013 0.539056
Si Si2 0.744152 0.571050 0.358923
Si Si3 0.394445 0.566698 0.621292
Si Si4 0.041900 0.064997 0.835009
Si Si5 0.390910 0.571792 0.189794
Si Si6 0.429561 0.568123 0.031979
Si Si7 0.291085 0.071182 0.995634
O O1 0.637660 0.250000 0.538043
O O2 0.613212 0.007264 0.461556
O O3 0.593131 0.999428 0.602324
O O4 0.723908 0.018629 0.553444
O O5 0.740349 0.750000 0.384185
O O6 0.668543 0.510626 0.331025
O O7 0.806353 0.551781 0.299900
O O8 0.764852 0.458045 0.423632
O O9 0.391332 0.750000 0.628079
O O10 0.465600 0.503900 0.654434
O O11 0.039735 0.250000 0.836544
O O12 0.070476 0.997650 0.758793
O O13 0.411334 0.750000 0.187919
O O14 0.417295 0.500620 0.113199
O O15 0.435412 0.750000 0.033019
O O16 0.363028 0.522609 0.980996
O O17 0.500000 0.500000 0.000000
O O18 0.308630 0.250000 0.983895
#
# Coordination Sequence:
#
# PCOD8250532 Si02
#       7
#     8   8   8   8   8   8   8
#     4   8  16  29  48  71  97 127 162 197 237 284
#     4   9  16  30  50  70  90 122 164 203 239 287
#     4  10  19  31  46  72 102 128 161 203 242 287
#     4  10  18  32  51  71  96 130 163 198 242 291
#     4   8  17  32  51  72  94 119 160 205 241 284
#     4  10  19  33  52  75  97 125 164 208 250 294
#     4   9  16  29  48  73  99 123 153 198 246 291
#
# _framework density 18.380047999999999
#
# number of rings (size 3 to 8) (size 9 to 14) (size 15 to 20)
#    0.000    2.857    0.000    3.857    0.000    0.000 
#    0.000    9.286    0.000    5.143    0.000    0.000 
#    0.000    0.000    0.000    0.000    0.000    0.000 
#
# Total GULP energy -693834.143926 kJ/mol
# GULP energy per Si atom -12389.895427 kJ/mol
# Density = 1.833821 g / cm^3
# Si number density = 18.380048 Si / 1000 Ang^3
#
#
#
# Elastic Constant Matrix: (Units=GPa)
#
#
# Indices 1 2 3 4 5 6 
#
# 1 197.9523 38.4654 70.6625 0.0000 0.0000 0.0000
# 2 38.4654 44.2230 22.8886 0.0000 0.0000 0.0000
# 3 70.6625 22.8886 77.5675 0.0000 0.0000 0.0000
# 4 0.0000 0.0000 0.0000 14.3416 0.0000 0.0000
# 5 0.0000 0.0000 0.0000 0.0000 22.9121 0.0000
# 6 0.0000 0.0000 0.0000 0.0000 0.0000 33.7007
#
#
#
# Elastic Compliance Matrix: (Units=1/GPa)
#
#
# Indices 1 2 3 4 5 6 
#
# 1 0.007981 -0.003752 -0.006163 0.000000 0.000000 0.000000
# 2 -0.003752 0.028452 -0.004978 0.000000 0.000000 0.000000
# 3 -0.006163 -0.004978 0.019976 0.000000 0.000000 0.000000
# 4 0.000000 0.000000 0.000000 0.069727 0.000000 0.000000
# 5 0.000000 0.000000 0.000000 0.000000 0.043645 0.000000
# 6 0.000000 0.000000 0.000000 0.000000 0.000000 0.029673
#
#
# Mechanical properties :
#
#
# Convention : Reuss Voigt Hill
#
# Bulk Modulus (GPa) = 37.56184 64.86398 51.21291
# Shear Modulus (GPa) = 20.99831 26.70597 23.85214
#
# Velocity S-wave (km/s) = 3.38368 3.81594 3.60629
# Velocity P-wave (km/s) = 5.97882 7.40150 6.72787
#
# Compressibility (1/GPa) = 0.02662277
#
# Stress axis : x y z
#
# Youngs Moduli (GPa) = 125.29942 35.14636 50.06116
#
# Poissons Ratio (x) = 0.13186 0.30854
# Poissons Ratio (y) = 0.47010 0.24920
# Poissons Ratio (z) = 0.77226 0.17495
#
# Static dielectric constant tensor:
#      x y z
#    x 3.824920 0.000000 0.000000 
#    y 0.000000 3.197580 0.000000 
#    z 0.000000 0.000000 3.515050 
# 
# 
# High freq. dielectric constant tensor:
#      x y z
#    x 1.734600 0.000000 0.000000 
#    y 0.000000 1.693620 0.000000 
#    z 0.000000 0.000000 1.669770 
# 
# From -- ./inp_files/27564.got.cif
#   From: 2010.03.12/outbox.cif.g09.slc.cpg/sg62_14_cif.got.tgz:27564.got - 2010.04.10 19:12:36.
