data_PCOD8250138
_publ_section_title
;
Structure prediction by ZEFSAII (Michael W. Deem and Ramdas Pophale) SiO2 
 PCOD8250138
Probable space group: P N M A
;
_chemical_formula_sum "Si O2"
_cell_formula_units_Z 64
_cell_length_a 18.543212
_cell_length_b 9.083794
_cell_length_c 25.745979
_cell_angle_alpha 90.000000
_cell_angle_beta 90.000000
_cell_angle_gamma 90.000000
_cell_volume 4336.722678
_symmetry_space_group_name_H-M "P N M A"
_symmetry_group_IT_number 62
_symmetry_cell_setting 'orthorhombic'
loop_
_space_group_symop_operation_xyz
x,y,z
1/2-x,-y,1/2+z
1/2+x,1/2-y,1/2-z
-x,1/2+y,-z
-x,-y,-z
1/2+x,y,1/2-z
1/2-x,1/2+y,1/2+z
x,1/2-y,z
loop_
_atom_site_type_symbol
_atom_site_label
_atom_site_fract_x
_atom_site_fract_y
_atom_site_fract_z
Si Si1 0.216101 0.412911 0.194881
Si Si2 0.931253 0.081912 0.557631
Si Si3 0.334323 0.080234 0.847376
Si Si4 0.423481 0.078979 0.061070
Si Si5 0.415046 0.577435 0.756380
Si Si6 0.842233 0.575519 0.351068
Si Si7 0.921252 0.423552 0.257332
Si Si8 0.708682 0.587910 0.694050
O O1 0.218580 0.250000 0.169238
O O2 0.133418 0.464508 0.205619
O O3 0.259304 0.526655 0.158767
O O4 0.251462 0.406654 0.251203
O O5 0.958848 0.250000 0.562862
O O6 0.863075 0.052409 0.594584
O O7 0.905613 0.049495 0.499177
O O8 0.996059 0.975431 0.574372
O O9 0.330934 0.250000 0.832652
O O10 0.389341 0.005213 0.807748
O O11 0.252583 0.018201 0.844507
O O12 0.418054 0.250000 0.076086
O O13 0.365277 0.986487 0.093182
O O14 0.407137 0.750000 0.768058
O O15 0.497036 0.533018 0.743947
O O16 0.846695 0.750000 0.350564
O O17 0.896250 0.511452 0.308027
O O18 0.911989 0.250000 0.269260
O O19 0.872735 0.467465 0.206901
O O20 0.706866 0.750000 0.668535
#
# Coordination Sequence:
#
# PCOD8250138 Si02
#       8
#     8   8   8   8   8   8   8   8
#     4   8  15  28  42  56  76 103 134 164 194 231
#     4   9  19  32  43  59  81 104 134 171 204 234
#     4  10  18  27  40  58  81 106 132 163 198 234
#     4  10  19  31  45  58  77 106 137 169 203 236
#     4   9  17  28  42  59  79 105 136 165 193 230
#     4  11  20  28  40  59  82 107 136 167 199 236
#     4   9  17  29  43  59  80 107 137 166 196 232
#     4   8  15  27  41  57  78 104 134 163 191 231
#
# _framework density 14.757688999999999
#
# number of rings (size 3 to 8) (size 9 to 14) (size 15 to 20)
#    0.000    2.750    0.000    4.125    0.000    8.500 
#    0.000    0.000    0.000    0.000    0.000    0.000 
#    0.000    1.000    0.000    2.000    0.000    2.750 
#
# Total GULP energy -793324.376685 kJ/mol
# GULP energy per Si atom -12395.693386 kJ/mol
# Density = 1.472410 g / cm^3
# Si number density = 14.757689 Si / 1000 Ang^3
#
#
#
# Elastic Constant Matrix: (Units=GPa)
#
#
# Indices 1 2 3 4 5 6 
#
# 1 120.4181 47.4842 49.1164 0.0000 0.0000 0.0000
# 2 47.4842 80.7240 40.7216 0.0000 0.0000 0.0000
# 3 49.1164 40.7216 62.2409 0.0000 0.0000 0.0000
# 4 0.0000 0.0000 0.0000 19.0762 0.0000 0.0000
# 5 0.0000 0.0000 0.0000 0.0000 22.6344 0.0000
# 6 0.0000 0.0000 0.0000 0.0000 0.0000 19.6977
#
#
#
# Elastic Compliance Matrix: (Units=1/GPa)
#
#
# Indices 1 2 3 4 5 6 
#
# 1 0.012936 -0.003672 -0.007806 0.000000 0.000000 0.000000
# 2 -0.003672 0.019533 -0.009882 0.000000 0.000000 0.000000
# 3 -0.007806 -0.009882 0.028692 0.000000 0.000000 0.000000
# 4 0.000000 0.000000 0.000000 0.052421 0.000000 0.000000
# 5 0.000000 0.000000 0.000000 0.000000 0.044180 0.000000
# 6 0.000000 0.000000 0.000000 0.000000 0.000000 0.050767
#
#
# Mechanical properties :
#
#
# Convention : Reuss Voigt Hill
#
# Bulk Modulus (GPa) = 54.22598 59.78082 57.00340
# Shear Modulus (GPa) = 19.42524 20.68572 20.05548
#
# Velocity S-wave (km/s) = 3.63199 3.74798 3.69044
# Velocity P-wave (km/s) = 7.37648 7.70234 7.54117
#
# Compressibility (1/GPa) = 0.01844134
#
# Stress axis : x y z
#
# Youngs Moduli (GPa) = 77.30226 51.19632 34.85268
#
# Poissons Ratio (x) = 0.18797 0.27207
# Poissons Ratio (y) = 0.28382 0.34442
# Poissons Ratio (z) = 0.60344 0.50592
#
# Static dielectric constant tensor:
#      x y z
#    x 3.261670 0.000000 0.000000 
#    y 0.000000 2.919730 0.000000 
#    z 0.000000 0.000000 2.664890 
# 
# 
# High freq. dielectric constant tensor:
#      x y z
#    x 1.559160 0.000000 0.000000 
#    y 0.000000 1.570550 0.000000 
#    z 0.000000 0.000000 1.525310 
# 
# From -- ./inp_files/30109.got.cif
#   From: 2010.03.12/outbox.cif.g09.slc.cpg/sg62_16_cif.got.tgz:30109.got - 2010.04.10 19:12:36.
