data_PCOD8250578
_publ_section_title
;
Structure prediction by ZEFSAII (Michael W. Deem and Ramdas Pophale) SiO2 
 PCOD8250578
Probable space group: P N M A
;
_chemical_formula_sum "Si O2"
_cell_formula_units_Z 64
_cell_length_a 30.720934
_cell_length_b 9.368427
_cell_length_c 11.962662
_cell_angle_alpha 90.000000
_cell_angle_beta 90.000000
_cell_angle_gamma 90.000000
_cell_volume 3442.935799
_symmetry_space_group_name_H-M "P N M A"
_symmetry_group_IT_number 62
_symmetry_cell_setting 'orthorhombic'
loop_
_space_group_symop_operation_xyz
x,y,z
1/2-x,-y,1/2+z
1/2+x,1/2-y,1/2-z
-x,1/2+y,-z
-x,-y,-z
1/2+x,y,1/2-z
1/2-x,1/2+y,1/2+z
x,1/2-y,z
loop_
_atom_site_type_symbol
_atom_site_label
_atom_site_fract_x
_atom_site_fract_y
_atom_site_fract_z
Si Si1 0.454533 0.914927 0.213923
Si Si2 0.948741 0.415178 0.739587
Si Si3 0.698570 0.918736 0.234215
Si Si4 0.570005 0.585966 0.994844
Si Si5 0.794511 0.582226 0.291635
Si Si6 0.874706 0.080018 0.902710
Si Si7 0.125575 0.418088 0.865347
Si Si8 0.329168 0.086191 0.005591
O O1 0.446922 0.750000 0.184220
O O2 0.501026 0.939152 0.274906
O O3 0.416479 0.969585 0.295193
O O4 0.456425 0.998668 0.097475
O O5 0.936299 0.250000 0.728237
O O6 0.939529 0.481655 0.616991
O O7 0.917028 0.477779 0.834765
O O8 0.696181 0.750000 0.231163
O O9 0.747922 0.972160 0.247701
O O10 0.668192 0.971467 0.335784
O O11 0.680014 0.977525 0.117338
O O12 0.554509 0.750000 0.989420
O O13 0.620465 0.570715 0.965615
O O14 0.795036 0.750000 0.314251
O O15 0.831069 0.539480 0.201921
O O16 0.801687 0.505812 0.408567
O O17 0.875935 0.250000 0.920968
O O18 0.874189 0.004174 0.020927
O O19 0.123576 0.250000 0.890500
O O20 0.313822 0.250000 0.014257
#
# Coordination Sequence:
#
# PCOD8250578 Si02
#       8
#     8   8   8   8   8   8   8   8
#     4  10  20  35  54  76 107 143 173 206 260 320
#     4   9  18  34  56  79 103 136 175 216 262 308
#     4   9  19  36  57  79 105 139 175 216 264 308
#     4  10  18  32  55  82 108 131 168 219 262 304
#     4  10  21  37  55  77 109 144 173 208 262 318
#     4  10  20  37  58  77 100 136 182 222 256 302
#     4  10  22  37  51  74 109 142 171 210 262 314
#     4  10  19  34  58  82 105 134 173 219 262 304
#
# _framework density 18.588787
#
# number of rings (size 3 to 8) (size 9 to 14) (size 15 to 20)
#    0.000    2.250    2.500    0.375    1.750    1.500 
#    0.000    2.500    0.000    0.000    0.000    0.000 
#    0.000    0.000    0.000    0.000    0.000    0.000 
#
# Total GULP energy -793610.158058 kJ/mol
# GULP energy per Si atom -12400.158720 kJ/mol
# Density = 1.854648 g / cm^3
# Si number density = 18.588787 Si / 1000 Ang^3
#
#
#
# Elastic Constant Matrix: (Units=GPa)
#
#
# Indices 1 2 3 4 5 6 
#
# 1 125.1571 23.8453 55.7659 0.0000 0.0000 0.0000
# 2 23.8453 32.2632 38.4781 0.0000 0.0000 0.0000
# 3 55.7659 38.4781 140.2620 0.0000 0.0000 0.0000
# 4 0.0000 0.0000 0.0000 31.4039 0.0000 0.0000
# 5 0.0000 0.0000 0.0000 0.0000 28.7121 0.0000
# 6 0.0000 0.0000 0.0000 0.0000 0.0000 10.3803
#
#
#
# Elastic Compliance Matrix: (Units=1/GPa)
#
#
# Indices 1 2 3 4 5 6 
#
# 1 0.010038 -0.003952 -0.002907 0.000000 0.000000 0.000000
# 2 -0.003952 0.047623 -0.011493 0.000000 0.000000 0.000000
# 3 -0.002907 -0.011493 0.011438 0.000000 0.000000 0.000000
# 4 0.000000 0.000000 0.000000 0.031843 0.000000 0.000000
# 5 0.000000 0.000000 0.000000 0.000000 0.034828 0.000000
# 6 0.000000 0.000000 0.000000 0.000000 0.000000 0.096337
#
#
# Mechanical properties :
#
#
# Convention : Reuss Voigt Hill
#
# Bulk Modulus (GPa) = 30.86889 59.31786 45.09338
# Shear Modulus (GPa) = 17.88200 26.07211 21.97705
#
# Velocity S-wave (km/s) = 3.10494 3.74916 3.44215
# Velocity P-wave (km/s) = 5.43106 7.12190 6.33316
#
# Compressibility (1/GPa) = 0.03239507
#
# Stress axis : x y z
#
# Youngs Moduli (GPa) = 99.62022 20.99812 87.42704
#
# Poissons Ratio (x) = 0.08299 0.25413
# Poissons Ratio (y) = 0.39373 1.00481
# Poissons Ratio (z) = 0.28957 0.24133
#
# Static dielectric constant tensor:
#      x y z
#    x 3.692520 0.000000 0.000000 
#    y 0.000000 3.077780 0.000000 
#    z 0.000000 0.000000 3.403160 
# 
# 
# High freq. dielectric constant tensor:
#      x y z
#    x 1.737740 0.000000 0.000000 
#    y 0.000000 1.684590 0.000000 
#    z 0.000000 0.000000 1.724480 
# 
# From -- ./inp_files/15829.got.cif
#   From: 2010.03.12/outbox.cif.g09.slc.cpg/sg62_8_cif.got.tgz:15829.got - 2010.04.10 19:12:36.
