data_PCOD8250584
_publ_section_title
;
Structure prediction by ZEFSAII (Michael W. Deem and Ramdas Pophale) SiO2 
 PCOD8250584
Probable space group: P N M A
;
_chemical_formula_sum "Si O2"
_cell_formula_units_Z 56
_cell_length_a 19.182548
_cell_length_b 15.971545
_cell_length_c 9.341161
_cell_angle_alpha 90.000000
_cell_angle_beta 90.000000
_cell_angle_gamma 90.000000
_cell_volume 2861.897534
_symmetry_space_group_name_H-M "P N M A"
_symmetry_group_IT_number 62
_symmetry_cell_setting 'orthorhombic'
loop_
_space_group_symop_operation_xyz
x,y,z
1/2-x,-y,1/2+z
1/2+x,1/2-y,1/2-z
-x,1/2+y,-z
-x,-y,-z
1/2+x,y,1/2-z
1/2-x,1/2+y,1/2+z
x,1/2-y,z
loop_
_atom_site_type_symbol
_atom_site_label
_atom_site_fract_x
_atom_site_fract_y
_atom_site_fract_z
Si Si1 0.286202 0.848991 0.912876
Si Si2 0.348033 0.453561 0.415520
Si Si3 0.639736 0.449718 0.851906
Si Si4 0.882886 0.567787 0.821891
Si Si5 0.481931 0.155047 0.437325
Si Si6 0.511464 0.342068 0.764817
Si Si7 0.565319 0.541214 0.073226
O O1 0.287261 0.750000 0.904852
O O2 0.207038 0.879148 0.927704
O O3 0.324950 0.882949 0.770758
O O4 0.321625 0.876924 0.061991
O O5 0.320782 0.510636 0.282876
O O6 0.346379 0.514515 0.552502
O O7 0.423447 0.410983 0.383453
O O8 0.570341 0.411158 0.783518
O O9 0.628550 0.527717 0.962897
O O10 0.923207 0.503688 0.723245
O O11 0.940689 0.631217 0.884380
O O12 0.465967 0.250000 0.383920
O O13 0.479192 0.152147 0.608172
O O14 0.540941 0.250000 0.797125
O O15 0.450800 0.362525 0.883135
O O16 0.500000 0.500000 0.000000
#
# Coordination Sequence:
#
# PCOD8250584 Si02
#       7
#     8   8   8   8   8   8   8
#     4  11  25  43  60  86 122 162 204 258 313 365
#     4  12  22  40  63  91 121 161 207 254 310 366
#     4  10  21  38  60  82 116 159 203 242 294 368
#     4  11  21  39  64  87 119 162 212 246 293 373
#     4  11  21  34  60  95 125 156 199 258 307 351
#     4  10  18  32  55  88 121 150 189 245 300 352
#     4   9  18  33  54  85 116 152 191 240 294 354
#
# _framework density 19.567436000000001
#
# number of rings (size 3 to 8) (size 9 to 14) (size 15 to 20)
#    0.000    1.429    2.857    4.286    0.000    0.000 
#    0.000    6.429    0.000    0.000    0.000    0.000 
#    0.000    0.000    0.000    0.000    0.000    0.000 
#
# Total GULP energy -693938.862763 kJ/mol
# GULP energy per Si atom -12391.765406 kJ/mol
# Density = 1.952290 g / cm^3
# Si number density = 19.567436 Si / 1000 Ang^3
#
#
#
# Elastic Constant Matrix: (Units=GPa)
#
#
# Indices 1 2 3 4 5 6 
#
# 1 78.5846 40.5601 31.4784 0.0000 0.0000 0.0000
# 2 40.5601 96.1993 51.6353 0.0000 0.0000 0.0000
# 3 31.4784 51.6353 118.8291 0.0000 0.0000 0.0000
# 4 0.0000 0.0000 0.0000 23.8026 0.0000 0.0000
# 5 0.0000 0.0000 0.0000 0.0000 20.4913 0.0000
# 6 0.0000 0.0000 0.0000 0.0000 0.0000 34.4842
#
#
#
# Elastic Compliance Matrix: (Units=1/GPa)
#
#
# Indices 1 2 3 4 5 6 
#
# 1 0.016543 -0.006029 -0.001763 0.000000 0.000000 0.000000
# 2 -0.006029 0.015754 -0.005249 0.000000 0.000000 0.000000
# 3 -0.001763 -0.005249 0.011163 0.000000 0.000000 0.000000
# 4 0.000000 0.000000 0.000000 0.042012 0.000000 0.000000
# 5 0.000000 0.000000 0.000000 0.000000 0.048801 0.000000
# 6 0.000000 0.000000 0.000000 0.000000 0.000000 0.028999
#
#
# Mechanical properties :
#
#
# Convention : Reuss Voigt Hill
#
# Bulk Modulus (GPa) = 57.53726 60.10672 58.82199
# Shear Modulus (GPa) = 25.62184 27.08488 26.35336
#
# Velocity S-wave (km/s) = 3.62251 3.72450 3.67385
# Velocity P-wave (km/s) = 6.85311 7.01999 6.93705
#
# Compressibility (1/GPa) = 0.01738004
#
# Stress axis : x y z
#
# Youngs Moduli (GPa) = 60.44910 63.47487 89.58090
#
# Poissons Ratio (x) = 0.38268 0.15789
# Poissons Ratio (y) = 0.36444 0.47018
# Poissons Ratio (z) = 0.10654 0.33316
#
# Static dielectric constant tensor:
#      x y z
#    x 3.483910 0.000000 0.000000 
#    y 0.000000 3.677850 0.000000 
#    z 0.000000 0.000000 3.864590 
# 
# 
# High freq. dielectric constant tensor:
#      x y z
#    x 1.745810 0.000000 0.000000 
#    y 0.000000 1.760230 0.000000 
#    z 0.000000 0.000000 1.777180 
# 
# From -- ./inp_files/8707.got.cif
#   From: 2010.03.12/outbox.cif.g09.slc.cpg/sg62_5_cif.got.tgz:8707.got - 2010.04.10 19:12:36.
