data_PCOD8250384
_publ_section_title
;
Structure prediction by ZEFSAII (Michael W. Deem and Ramdas Pophale) SiO2 
 PCOD8250384
Probable space group: P N M A
;
_chemical_formula_sum "Si O2"
_cell_formula_units_Z 64
_cell_length_a 25.178316
_cell_length_b 9.140821
_cell_length_c 15.233069
_cell_angle_alpha 90.000000
_cell_angle_beta 90.000000
_cell_angle_gamma 90.000000
_cell_volume 3505.898137
_symmetry_space_group_name_H-M "P N M A"
_symmetry_group_IT_number 62
_symmetry_cell_setting 'orthorhombic'
loop_
_space_group_symop_operation_xyz
x,y,z
1/2-x,-y,1/2+z
1/2+x,1/2-y,1/2-z
-x,1/2+y,-z
-x,-y,-z
1/2+x,y,1/2-z
1/2-x,1/2+y,1/2+z
x,1/2-y,z
loop_
_atom_site_type_symbol
_atom_site_label
_atom_site_fract_x
_atom_site_fract_y
_atom_site_fract_z
Si Si1 0.146590 0.576450 0.201211
Si Si2 0.942236 0.423488 0.667592
Si Si3 0.262252 0.923777 0.229848
Si Si4 0.219892 0.077106 0.537741
Si Si5 0.062184 0.077456 0.684235
Si Si6 0.638787 0.423582 0.663653
Si Si7 0.394836 0.923633 0.997367
Si Si8 0.663580 0.922864 0.495591
O O1 0.145688 0.750000 0.202003
O O2 0.097494 0.514763 0.257607
O O3 0.201794 0.520625 0.245647
O O4 0.142870 0.524401 0.099978
O O5 0.937238 0.250000 0.656290
O O6 0.929609 0.496553 0.575091
O O7 0.001206 0.470508 0.696100
O O8 0.262928 0.750000 0.226118
O O9 0.302728 0.976834 0.304694
O O10 0.282526 0.986449 0.136556
O O11 0.220249 0.250000 0.545821
O O12 0.167015 0.027493 0.485679
O O13 0.274719 0.026950 0.491900
O O14 0.068659 0.250000 0.683810
O O15 0.095499 0.015998 0.766850
O O16 0.085001 0.019224 0.591940
O O17 0.634935 0.250000 0.653321
O O18 0.628351 0.497179 0.569313
O O19 0.402131 0.750000 0.987527
O O20 0.657121 0.750000 0.506304
#
# Coordination Sequence:
#
# PCOD8250384 Si02
#       8
#     8   8   8   8   8   8   8   8
#     4   8  16  31  49  68  94 128 162 196 237 287
#     4  10  20  33  50  72  97 127 165 205 241 280
#     4   8  13  25  46  68  89 121 161 192 224 281
#     4   8  14  27  47  68  93 125 157 187 229 293
#     4   9  18  33  51  71  98 131 165 197 235 290
#     4  10  18  30  51  74  95 125 165 203 237 279
#     4  10  18  31  50  72  97 128 160 192 238 296
#     4   9  18  32  49  70  97 127 159 198 245 291
#
# _framework density 18.254950999999998
#
# number of rings (size 3 to 8) (size 9 to 14) (size 15 to 20)
#    0.000    3.000    1.250    1.875    1.750    0.000 
#    0.000    2.500    0.000    3.000    0.000    0.000 
#    0.000    0.000    0.000    0.000    0.000    0.000 
#
# Total GULP energy -793109.635480 kJ/mol
# GULP energy per Si atom -12392.338054 kJ/mol
# Density = 1.821340 g / cm^3
# Si number density = 18.254951 Si / 1000 Ang^3
#
#
#
# Elastic Constant Matrix: (Units=GPa)
#
#
# Indices 1 2 3 4 5 6 
#
# 1 129.2588 20.3473 70.5112 0.0000 0.0000 0.0000
# 2 20.3473 17.6601 20.6354 0.0000 0.0000 0.0000
# 3 70.5112 20.6354 111.0118 0.0000 0.0000 0.0000
# 4 0.0000 0.0000 0.0000 24.3971 0.0000 0.0000
# 5 0.0000 0.0000 0.0000 0.0000 29.6674 0.0000
# 6 0.0000 0.0000 0.0000 0.0000 0.0000 11.7728
#
#
#
# Elastic Compliance Matrix: (Units=1/GPa)
#
#
# Indices 1 2 3 4 5 6 
#
# 1 0.012395 -0.006492 -0.006666 0.000000 0.000000 0.000000
# 2 -0.006492 0.075736 -0.009955 0.000000 0.000000 0.000000
# 3 -0.006666 -0.009955 0.015093 0.000000 0.000000 0.000000
# 4 0.000000 0.000000 0.000000 0.040989 0.000000 0.000000
# 5 0.000000 0.000000 0.000000 0.000000 0.033707 0.000000
# 6 0.000000 0.000000 0.000000 0.000000 0.000000 0.084941
#
#
# Mechanical properties :
#
#
# Convention : Reuss Voigt Hill
#
# Bulk Modulus (GPa) = 17.54432 53.43538 35.48985
# Shear Modulus (GPa) = 15.23995 22.92992 19.08493
#
# Velocity S-wave (km/s) = 2.89249 3.54799 3.23687
# Velocity P-wave (km/s) = 4.55927 6.79114 5.78388
#
# Compressibility (1/GPa) = 0.05699851
#
# Stress axis : x y z
#
# Youngs Moduli (GPa) = 80.68023 13.20369 66.25779
#
# Poissons Ratio (x) = 0.08571 0.44167
# Poissons Ratio (y) = 0.52374 0.65960
# Poissons Ratio (z) = 0.53781 0.13144
#
# Static dielectric constant tensor:
#      x y z
#    x 3.729780 0.000000 0.000000 
#    y 0.000000 2.757330 0.000000 
#    z 0.000000 0.000000 3.416770 
# 
# 
# High freq. dielectric constant tensor:
#      x y z
#    x 1.710440 0.000000 0.000000 
#    y 0.000000 1.646980 0.000000 
#    z 0.000000 0.000000 1.709460 
# 
# From -- ./inp_files/15323.got.cif
#   From: 2010.03.12/outbox.cif.g09.slc.cpg/sg62_8_cif.got.tgz:15323.got - 2010.04.10 19:12:36.
