data_PCOD8250935
_publ_section_title
;
Structure prediction by ZEFSAII (Michael W. Deem and Ramdas Pophale) SiO2 
 PCOD8250935
Probable space group: P N M A
;
_chemical_formula_sum "Si O2"
_cell_formula_units_Z 60
_cell_length_a 5.097065
_cell_length_b 17.787027
_cell_length_c 36.977876
_cell_angle_alpha 90.000000
_cell_angle_beta 90.000000
_cell_angle_gamma 90.000000
_cell_volume 3352.474615
_symmetry_space_group_name_H-M "P N M A"
_symmetry_group_IT_number 62
_symmetry_cell_setting 'orthorhombic'
loop_
_space_group_symop_operation_xyz
x,y,z
1/2-x,-y,1/2+z
1/2+x,1/2-y,1/2-z
-x,1/2+y,-z
-x,-y,-z
1/2+x,y,1/2-z
1/2-x,1/2+y,1/2+z
x,1/2-y,z
loop_
_atom_site_type_symbol
_atom_site_label
_atom_site_fract_x
_atom_site_fract_y
_atom_site_fract_z
Si Si1 0.754915 0.468772 0.111560
Si Si2 0.741748 0.024783 0.850171
Si Si3 0.746219 0.412548 0.774499
Si Si4 0.308880 0.663159 0.513856
Si Si5 0.724994 0.610549 0.063595
Si Si6 0.728410 0.665618 0.398384
Si Si7 0.161550 0.750000 0.227949
Si Si8 0.689719 0.336520 0.060449
O O1 0.530703 0.484495 0.140865
O O2 0.734553 0.524958 0.077463
O O3 0.731108 0.384677 0.096587
O O4 0.029727 0.476095 0.131967
O O5 0.739437 0.109804 0.864852
O O6 0.776287 0.028028 0.806937
O O7 0.966150 0.425086 0.744166
O O8 0.769083 0.328268 0.792157
O O9 0.284281 0.750000 0.501687
O O10 0.273508 0.610103 0.479194
O O11 0.590137 0.645190 0.530774
O O12 0.090523 0.642977 0.543475
O O13 0.442430 0.647144 0.070958
O O14 0.942946 0.659531 0.083942
O O15 0.765571 0.750000 0.383640
O O16 0.850999 0.750000 0.236518
O O17 0.704901 0.250000 0.072602
#
# Coordination Sequence:
#
# PCOD8250935 Si02
#       8
#     8   8   8   8   8   8   4   8
#     4  10  21  37  50  72 103 129 166 206 251 303
#     4  10  21  34  52  73 100 135 164 206 246 286
#     4  10  19  33  51  74 103 133 169 204 238 280
#     4  10  19  31  49  73  97 127 169 209 250 294
#     4  10  20  32  48  70  98 132 167 212 254 286
#     4  10  19  31  47  67  96 136 175 207 241 284
#     4   8  16  28  44  68  98 132 162 200 232 258
#     4  10  21  35  53  74  97 127 162 209 257 305
#
# _framework density 17.897227000000001
#
# number of rings (size 3 to 8) (size 9 to 14) (size 15 to 20)
#    0.000    2.133    0.000    3.600    0.933    2.133 
#    0.000    0.000    0.000    0.000    0.000    0.000 
#    0.000   10.667    0.000    0.000    0.000    0.000 
#
# Total GULP energy -744089.805402 kJ/mol
# GULP energy per Si atom -12401.496757 kJ/mol
# Density = 1.785649 g / cm^3
# Si number density = 17.897227 Si / 1000 Ang^3
#
#
#
# Elastic Constant Matrix: (Units=GPa)
#
#
# Indices 1 2 3 4 5 6 
#
# 1 67.7607 15.3016 3.7769 0.0000 0.0000 0.0000
# 2 15.3016 60.2295 34.4721 0.0000 0.0000 0.0000
# 3 3.7769 34.4721 71.6894 0.0000 0.0000 0.0000
# 4 0.0000 0.0000 0.0000 14.8693 0.0000 0.0000
# 5 0.0000 0.0000 0.0000 0.0000 13.7466 0.0000
# 6 0.0000 0.0000 0.0000 0.0000 0.0000 12.6838
#
#
#
# Elastic Compliance Matrix: (Units=1/GPa)
#
#
# Indices 1 2 3 4 5 6 
#
# 1 0.015774 -0.004873 0.001512 0.000000 0.000000 0.000000
# 2 -0.004873 0.024413 -0.011482 0.000000 0.000000 0.000000
# 3 0.001512 -0.011482 0.019391 0.000000 0.000000 0.000000
# 4 0.000000 0.000000 0.000000 0.067253 0.000000 0.000000
# 5 0.000000 0.000000 0.000000 0.000000 0.072745 0.000000
# 6 0.000000 0.000000 0.000000 0.000000 0.000000 0.078841
#
#
# Mechanical properties :
#
#
# Convention : Reuss Voigt Hill
#
# Bulk Modulus (GPa) = 33.45447 34.08677 33.77062
# Shear Modulus (GPa) = 15.71999 18.00187 16.86093
#
# Velocity S-wave (km/s) = 2.96691 3.17495 3.07269
# Velocity P-wave (km/s) = 5.51995 5.70330 5.61237
#
# Compressibility (1/GPa) = 0.02989137
#
# Stress axis : x y z
#
# Youngs Moduli (GPa) = 63.39582 40.96179 51.57111
#
# Poissons Ratio (x) = 0.19960 -0.07798
# Poissons Ratio (y) = 0.30892 0.59216
# Poissons Ratio (z) = -0.09586 0.47034
#
# Static dielectric constant tensor:
#      x y z
#    x 3.526920 0.000000 0.000000 
#    y 0.000000 3.166180 0.000000 
#    z 0.000000 0.000000 2.947630 
# 
# 
# High freq. dielectric constant tensor:
#      x y z
#    x 1.717580 0.000000 0.000000 
#    y 0.000000 1.663760 0.000000 
#    z 0.000000 0.000000 1.664370 
# 
# From -- ./inp_files/30519.got.cif
#   From: 2010.03.12/outbox.cif.g09.slc.cpg/sg62_16_cif.got.tgz:30519.got - 2010.04.10 19:12:36.
