data_PCOD8250869
_publ_section_title
;
Structure prediction by ZEFSAII (Michael W. Deem and Ramdas Pophale) SiO2 
 PCOD8250869
Probable space group: P N M A
;
_chemical_formula_sum "Si O2"
_cell_formula_units_Z 64
_cell_length_a 14.293136
_cell_length_b 9.102100
_cell_length_c 29.922265
_cell_angle_alpha 90.000000
_cell_angle_beta 90.000000
_cell_angle_gamma 90.000000
_cell_volume 3892.813462
_symmetry_space_group_name_H-M "P N M A"
_symmetry_group_IT_number 62
_symmetry_cell_setting 'orthorhombic'
loop_
_space_group_symop_operation_xyz
x,y,z
1/2-x,-y,1/2+z
1/2+x,1/2-y,1/2-z
-x,1/2+y,-z
-x,-y,-z
1/2+x,y,1/2-z
1/2-x,1/2+y,1/2+z
x,1/2-y,z
loop_
_atom_site_type_symbol
_atom_site_label
_atom_site_fract_x
_atom_site_fract_y
_atom_site_fract_z
Si Si1 0.355696 0.083068 0.362735
Si Si2 0.272588 0.579412 0.780971
Si Si3 0.308781 0.083079 0.628708
Si Si4 0.162541 0.423446 0.701106
Si Si5 0.895663 0.417235 0.040978
Si Si6 0.514666 0.077098 0.226574
Si Si7 0.008355 0.582370 0.183535
Si Si8 0.110396 0.421297 0.046363
O O1 0.392948 0.250000 0.355416
O O2 0.268129 0.051418 0.330540
O O3 0.329910 0.062939 0.415203
O O4 0.436486 0.964396 0.354667
O O5 0.267224 0.750000 0.767141
O O6 0.216425 0.488968 0.743967
O O7 0.379944 0.526372 0.784316
O O8 0.306541 0.250000 0.611588
O O9 0.214033 0.039143 0.654498
O O10 0.387722 0.061368 0.665976
O O11 0.324951 0.982650 0.585868
O O12 0.155936 0.250000 0.708829
O O13 0.059494 0.493368 0.695077
O O14 0.896168 0.250000 0.024003
O O15 0.001956 0.464636 0.053791
O O16 0.854688 0.515401 0.001128
O O17 0.500728 0.250000 0.220917
O O18 0.489295 0.030124 0.276620
O O19 0.990135 0.750000 0.198749
O O20 0.126818 0.250000 0.045693
#
# Coordination Sequence:
#
# PCOD8250869 Si02
#       8
#     8   8   8   8   8   8   8   8
#     4  10  19  33  50  72  98 132 171 204 246 295
#     4  10  21  34  51  73  99 132 169 209 248 293
#     4  10  21  34  48  70 101 133 168 206 248 296
#     4  11  22  35  51  73  99 132 172 209 250 295
#     4   9  18  31  47  69 100 132 161 199 246 297
#     4  11  22  35  49  70 101 135 170 208 250 293
#     4  11  20  30  47  71  99 133 169 206 245 287
#     4  10  19  30  48  73  98 129 166 200 244 299
#
# _framework density 16.440552
#
# number of rings (size 3 to 8) (size 9 to 14) (size 15 to 20)
#    0.000    1.750    3.750    1.500    0.000    3.000 
#    0.000    0.000    0.000    0.000    0.000    0.875 
#    0.000    0.000    0.000    0.000    0.000    0.000 
#
# Total GULP energy -793546.526785 kJ/mol
# GULP energy per Si atom -12399.164481 kJ/mol
# Density = 1.640313 g / cm^3
# Si number density = 16.440552 Si / 1000 Ang^3
#
#
#
# Elastic Constant Matrix: (Units=GPa)
#
#
# Indices 1 2 3 4 5 6 
#
# 1 71.3472 36.2391 26.6402 0.0000 0.0000 0.0000
# 2 36.2391 69.6287 40.6595 0.0000 0.0000 0.0000
# 3 26.6402 40.6595 94.8493 0.0000 0.0000 0.0000
# 4 0.0000 0.0000 0.0000 25.1356 0.0000 0.0000
# 5 0.0000 0.0000 0.0000 0.0000 20.8350 0.0000
# 6 0.0000 0.0000 0.0000 0.0000 0.0000 21.0089
#
#
#
# Elastic Compliance Matrix: (Units=1/GPa)
#
#
# Indices 1 2 3 4 5 6 
#
# 1 0.019207 -0.009132 -0.001480 0.000000 0.000000 0.000000
# 2 -0.009132 0.023500 -0.007509 0.000000 0.000000 0.000000
# 3 -0.001480 -0.007509 0.014177 0.000000 0.000000 0.000000
# 4 0.000000 0.000000 0.000000 0.039784 0.000000 0.000000
# 5 0.000000 0.000000 0.000000 0.000000 0.047996 0.000000
# 6 0.000000 0.000000 0.000000 0.000000 0.000000 0.047599
#
#
# Mechanical properties :
#
#
# Convention : Reuss Voigt Hill
#
# Bulk Modulus (GPa) = 48.44416 49.21142 48.82779
# Shear Modulus (GPa) = 21.24170 22.21501 21.72835
#
# Velocity S-wave (km/s) = 3.59838 3.67990 3.63937
# Velocity P-wave (km/s) = 6.84067 6.93206 6.88652
#
# Compressibility (1/GPa) = 0.02064232
#
# Stress axis : x y z
#
# Youngs Moduli (GPa) = 52.06408 42.55383 70.53451
#
# Poissons Ratio (x) = 0.38862 0.10438
# Poissons Ratio (y) = 0.47547 0.52962
# Poissons Ratio (z) = 0.07705 0.31952
#
# Static dielectric constant tensor:
#      x y z
#    x 3.089660 0.000000 0.000000 
#    y 0.000000 3.156660 0.000000 
#    z 0.000000 0.000000 3.051880 
# 
# 
# High freq. dielectric constant tensor:
#      x y z
#    x 1.604390 0.000000 0.000000 
#    y 0.000000 1.642610 0.000000 
#    z 0.000000 0.000000 1.623010 
# 
# From -- ./inp_files/32687.got.cif
#   From: 2010.03.12/outbox.cif.g09.slc.cpg/sg62_17_cif.got.tgz:32687.got - 2010.04.10 19:12:36.
