data_PCOD8250732
_publ_section_title
;
Structure prediction by ZEFSAII (Michael W. Deem and Ramdas Pophale) SiO2 
 PCOD8250732
Probable space group: P N M A
;
_chemical_formula_sum "Si O2"
_cell_formula_units_Z 52
_cell_length_a 15.509899
_cell_length_b 20.067867
_cell_length_c 8.398737
_cell_angle_alpha 90.000000
_cell_angle_beta 90.000000
_cell_angle_gamma 90.000000
_cell_volume 2614.111849
_symmetry_space_group_name_H-M "P N M A"
_symmetry_group_IT_number 62
_symmetry_cell_setting 'orthorhombic'
loop_
_space_group_symop_operation_xyz
x,y,z
1/2-x,-y,1/2+z
1/2+x,1/2-y,1/2-z
-x,1/2+y,-z
-x,-y,-z
1/2+x,y,1/2-z
1/2-x,1/2+y,1/2+z
x,1/2-y,z
loop_
_atom_site_type_symbol
_atom_site_label
_atom_site_fract_x
_atom_site_fract_y
_atom_site_fract_z
Si Si1 0.637683 0.250000 0.571290
Si Si2 0.369562 0.890931 0.443562
Si Si3 0.947427 0.540523 0.629833
Si Si4 0.817261 0.612409 0.406884
Si Si5 0.457328 0.107126 0.398420
Si Si6 0.744126 0.750000 0.375214
Si Si7 0.836896 0.481052 0.904566
Si Si8 0.943864 0.250000 0.976577
O O1 0.652031 0.318898 0.472866
O O2 0.710820 0.250000 0.704976
O O3 0.534517 0.250000 0.622845
O O4 0.370850 0.877914 0.255035
O O5 0.465501 0.914555 0.484603
O O6 0.308146 0.948009 0.516538
O O7 0.876783 0.587993 0.549610
O O8 0.898803 0.490705 0.751789
O O9 0.000000 0.500000 0.500000
O O10 0.016357 0.587795 0.718814
O O11 0.774441 0.682242 0.464150
O O12 0.748599 0.556892 0.352629
O O13 0.377099 0.063439 0.454737
O O14 0.437580 0.185700 0.408673
O O15 0.639480 0.750000 0.359001
#
# Coordination Sequence:
#
# PCOD8250732 Si02
#       8
#     4   8   8   8   8   4   8   4
#     4   8  18  32  58  86 113 155 198 254 292 364
#     4   9  18  34  54  82 113 145 195 238 296 356
#     4  11  23  37  57  89 119 153 200 255 308 369
#     4  11  21  36  58  86 115 157 195 251 303 358
#     4  10  20  36  60  84 114 156 198 241 302 363
#     4  10  20  37  59  88 122 155 206 247 301 364
#     4  11  20  35  59  85 115 154 192 244 298 364
#     4  10  18  37  61  88 119 166 204 245 313 374
#
# _framework density 19.892033999999999
#
# number of rings (size 3 to 8) (size 9 to 14) (size 15 to 20)
#    0.000    1.846    1.538    4.615    0.000    0.615 
#    0.000    0.769    0.000    1.846    0.000    0.000 
#    0.000    0.000    0.000    0.000    0.000    0.000 
#
# Total GULP energy -644323.289321 kJ/mol
# GULP energy per Si atom -12390.832487 kJ/mol
# Density = 1.984676 g / cm^3
# Si number density = 19.892034 Si / 1000 Ang^3
#
#
#
# Elastic Constant Matrix: (Units=GPa)
#
#
# Indices 1 2 3 4 5 6 
#
# 1 80.6341 45.0046 36.3316 0.0000 0.0000 0.0000
# 2 45.0046 164.0066 41.8266 0.0000 0.0000 0.0000
# 3 36.3316 41.8266 88.2336 0.0000 0.0000 0.0000
# 4 0.0000 0.0000 0.0000 27.1742 0.0000 0.0000
# 5 0.0000 0.0000 0.0000 0.0000 25.5937 0.0000
# 6 0.0000 0.0000 0.0000 0.0000 0.0000 29.5990
#
#
#
# Elastic Compliance Matrix: (Units=1/GPa)
#
#
# Indices 1 2 3 4 5 6 
#
# 1 0.016578 -0.003194 -0.005312 0.000000 0.000000 0.000000
# 2 -0.003194 0.007551 -0.002264 0.000000 0.000000 0.000000
# 3 -0.005312 -0.002264 0.014594 0.000000 0.000000 0.000000
# 4 0.000000 0.000000 0.000000 0.036800 0.000000 0.000000
# 5 0.000000 0.000000 0.000000 0.000000 0.039072 0.000000
# 6 0.000000 0.000000 0.000000 0.000000 0.000000 0.033785
#
#
# Mechanical properties :
#
#
# Convention : Reuss Voigt Hill
#
# Bulk Modulus (GPa) = 58.19977 64.35552 61.27765
# Shear Modulus (GPa) = 28.46585 30.45416 29.46001
#
# Velocity S-wave (km/s) = 3.78698 3.91701 3.85254
# Velocity P-wave (km/s) = 6.96010 7.27186 7.11769
#
# Compressibility (1/GPa) = 0.01718220
#
# Stress axis : x y z
#
# Youngs Moduli (GPa) = 60.32072 132.42649 68.52023
#
# Poissons Ratio (x) = 0.42303 0.36398
# Poissons Ratio (y) = 0.19269 0.15515
# Poissons Ratio (z) = 0.32042 0.29986
#
# Static dielectric constant tensor:
#      x y z
#    x 3.599250 0.000000 0.000000 
#    y 0.000000 4.279440 0.000000 
#    z 0.000000 0.000000 3.312060 
# 
# 
# High freq. dielectric constant tensor:
#      x y z
#    x 1.769160 0.000000 0.000000 
#    y 0.000000 1.803980 0.000000 
#    z 0.000000 0.000000 1.739930 
# 
# From -- ./inp_files/6712.got.cif
#   From: 2010.03.12/outbox.cif.g09.slc.cpg/sg62_4_cif.got.tgz:6712.got - 2010.04.10 19:12:36.
