data_PCOD8250261
_publ_section_title
;
Structure prediction by ZEFSAII (Michael W. Deem and Ramdas Pophale) SiO2 
 PCOD8250261
Probable space group: P N M A
;
_chemical_formula_sum "Si O2"
_cell_formula_units_Z 64
_cell_length_a 23.427767
_cell_length_b 8.884816
_cell_length_c 19.197077
_cell_angle_alpha 90.000000
_cell_angle_beta 90.000000
_cell_angle_gamma 90.000000
_cell_volume 3995.898436
_symmetry_space_group_name_H-M "P N M A"
_symmetry_group_IT_number 62
_symmetry_cell_setting 'orthorhombic'
loop_
_space_group_symop_operation_xyz
x,y,z
1/2-x,-y,1/2+z
1/2+x,1/2-y,1/2-z
-x,1/2+y,-z
-x,-y,-z
1/2+x,y,1/2-z
1/2-x,1/2+y,1/2+z
x,1/2-y,z
loop_
_atom_site_type_symbol
_atom_site_label
_atom_site_fract_x
_atom_site_fract_y
_atom_site_fract_z
Si Si1 0.332572 0.573261 0.283270
Si Si2 0.937489 0.571407 0.133217
Si Si3 0.565076 0.928543 0.354973
Si Si4 0.739380 0.075355 0.842464
Si Si5 0.270160 0.577388 0.856980
Si Si6 0.156580 0.426074 0.231434
Si Si7 0.761398 0.077758 0.994716
Si Si8 0.880692 0.927179 0.990152
O O1 0.335159 0.750000 0.292186
O O2 0.394097 0.507756 0.307211
O O3 0.315925 0.527700 0.203784
O O4 0.284493 0.518080 0.335973
O O5 0.939099 0.750000 0.135367
O O6 0.916409 0.518405 0.057269
O O7 0.000555 0.507323 0.147912
O O8 0.566336 0.750000 0.354866
O O9 0.598126 0.988502 0.286813
O O10 0.595553 0.985830 0.424044
O O11 0.754436 0.250000 0.828469
O O12 0.793774 0.977013 0.821243
O O13 0.726050 0.044955 0.923789
O O14 0.255427 0.750000 0.840330
O O15 0.325492 0.531587 0.810971
O O16 0.281033 0.550829 0.939461
O O17 0.146357 0.250000 0.221238
O O18 0.783734 0.250000 0.994527
O O19 0.814827 0.967694 0.001354
O O20 0.886381 0.750000 0.977567
#
# Coordination Sequence:
#
# PCOD8250261 Si02
#       8
#     8   8   8   8   8   8   8   8
#     4   9  16  30  47  65  87 114 149 187 225 267
#     4   9  19  32  46  64  89 120 156 192 225 261
#     4  11  21  33  46  62  88 123 158 192 225 262
#     4   9  17  28  47  68  89 115 145 182 226 274
#     4   9  18  30  45  65  92 119 145 183 226 268
#     4  10  19  31  45  64  89 118 152 188 225 265
#     4  10  18  29  45  69  95 121 148 177 221 273
#     4  11  20  31  45  65  92 123 155 187 219 261
#
# _framework density 16.016424000000001
#
# number of rings (size 3 to 8) (size 9 to 14) (size 15 to 20)
#    0.000    2.250    2.500    1.500    0.000    0.500 
#    0.000    3.125    0.000    0.000    0.000    0.875 
#    0.000    0.000    0.000    0.000    0.000    0.000 
#
# Total GULP energy -793269.549059 kJ/mol
# GULP energy per Si atom -12394.836704 kJ/mol
# Density = 1.597997 g / cm^3
# Si number density = 16.016424 Si / 1000 Ang^3
#
#
#
# Elastic Constant Matrix: (Units=GPa)
#
#
# Indices 1 2 3 4 5 6 
#
# 1 74.0691 19.0715 47.9440 0.0000 0.0000 0.0000
# 2 19.0715 36.1389 21.3548 0.0000 0.0000 0.0000
# 3 47.9440 21.3548 119.1861 0.0000 0.0000 0.0000
# 4 0.0000 0.0000 0.0000 15.0379 0.0000 0.0000
# 5 0.0000 0.0000 0.0000 0.0000 23.3772 0.0000
# 6 0.0000 0.0000 0.0000 0.0000 0.0000 10.9026
#
#
#
# Elastic Compliance Matrix: (Units=1/GPa)
#
#
# Indices 1 2 3 4 5 6 
#
# 1 0.019462 -0.006313 -0.006698 0.000000 0.000000 0.000000
# 2 -0.006313 0.032995 -0.003372 0.000000 0.000000 0.000000
# 3 -0.006698 -0.003372 0.011689 0.000000 0.000000 0.000000
# 4 0.000000 0.000000 0.000000 0.066499 0.000000 0.000000
# 5 0.000000 0.000000 0.000000 0.000000 0.042777 0.000000
# 6 0.000000 0.000000 0.000000 0.000000 0.000000 0.091722
#
#
# Mechanical properties :
#
#
# Convention : Reuss Voigt Hill
#
# Bulk Modulus (GPa) = 31.86746 45.12605 38.49676
# Shear Modulus (GPa) = 16.21438 19.26510 17.73974
#
# Velocity S-wave (km/s) = 3.18521 3.47195 3.33167
# Velocity P-wave (km/s) = 5.78510 6.65647 6.23602
#
# Compressibility (1/GPa) = 0.03137997
#
# Stress axis : x y z
#
# Youngs Moduli (GPa) = 51.38328 30.30739 85.55291
#
# Poissons Ratio (x) = 0.19132 0.57300
# Poissons Ratio (y) = 0.32437 0.28852
# Poissons Ratio (z) = 0.34414 0.10221
#
# Static dielectric constant tensor:
#      x y z
#    x 3.170910 0.000000 0.000000 
#    y 0.000000 3.002010 0.000000 
#    z 0.000000 0.000000 3.314090 
# 
# 
# High freq. dielectric constant tensor:
#      x y z
#    x 1.585210 0.000000 0.000000 
#    y 0.000000 1.612270 0.000000 
#    z 0.000000 0.000000 1.617160 
# 
# From -- ./inp_files/27872.got.cif
#   From: 2010.03.12/outbox.cif.g09.slc.cpg/sg62_14_cif.got.tgz:27872.got - 2010.04.10 19:12:36.
