data_PCOD8250436
_publ_section_title
;
Structure prediction by ZEFSAII (Michael W. Deem and Ramdas Pophale) SiO2 
 PCOD8250436
Probable space group: P N M A
;
_chemical_formula_sum "Si O2"
_cell_formula_units_Z 64
_cell_length_a 19.018855
_cell_length_b 8.693169
_cell_length_c 23.246504
_cell_angle_alpha 90.000000
_cell_angle_beta 90.000000
_cell_angle_gamma 90.000000
_cell_volume 3843.440298
_symmetry_space_group_name_H-M "P N M A"
_symmetry_group_IT_number 62
_symmetry_cell_setting 'orthorhombic'
loop_
_space_group_symop_operation_xyz
x,y,z
1/2-x,-y,1/2+z
1/2+x,1/2-y,1/2-z
-x,1/2+y,-z
-x,-y,-z
1/2+x,y,1/2-z
1/2-x,1/2+y,1/2+z
x,1/2-y,z
loop_
_atom_site_type_symbol
_atom_site_label
_atom_site_fract_x
_atom_site_fract_y
_atom_site_fract_z
Si Si1 0.275034 0.430347 0.340527
Si Si2 0.138812 0.572888 0.728491
Si Si3 0.499084 0.069706 0.746051
Si Si4 0.999700 0.432586 0.882553
Si Si5 0.353674 0.431617 0.564124
Si Si6 0.357547 0.931303 0.440954
Si Si7 0.346441 0.430370 0.774217
Si Si8 0.276109 0.570043 0.665780
O O1 0.278567 0.250000 0.353745
O O2 0.326535 0.479094 0.288689
O O3 0.296161 0.527042 0.396306
O O4 0.195860 0.475069 0.322371
O O5 0.118918 0.750000 0.730750
O O6 0.193505 0.536835 0.677207
O O7 0.066679 0.482279 0.717437
O O8 0.501149 0.250000 0.738329
O O9 0.500425 0.996368 0.681794
O O10 0.428391 0.022380 0.779922
O O11 0.000939 0.250000 0.880090
O O12 0.930353 0.490608 0.915675
O O13 0.067953 0.492583 0.916693
O O14 0.345712 0.250000 0.571620
O O15 0.340738 0.478763 0.498929
O O16 0.294095 0.516099 0.601702
O O17 0.358312 0.750000 0.452500
O O18 0.334215 0.250000 0.783953
O O19 0.323151 0.472688 0.709752
O O20 0.291898 0.750000 0.675384
#
# Coordination Sequence:
#
# PCOD8250436 Si02
#       8
#     8   8   8   8   8   8   8   8
#     4  10  20  34  49  71  99 130 168 209 248 293
#     4   9  19  32  48  71  99 127 161 205 250 292
#     4  10  18  31  50  74 100 130 167 202 243 298
#     4   9  18  32  47  69 100 134 172 207 239 287
#     4  11  21  35  51  70  99 134 173 211 248 290
#     4  11  21  34  51  71  98 135 174 209 249 291
#     4  10  19  32  51  73  99 130 163 205 252 296
#     4  10  20  34  49  71  99 129 168 209 248 295
#
# _framework density 16.651748999999999
#
# number of rings (size 3 to 8) (size 9 to 14) (size 15 to 20)
#    0.000    2.000    2.500    3.000    0.000    3.500 
#    0.000    1.875    0.000    0.000    0.000    0.875 
#    0.000    0.000    0.000    0.000    0.000    0.000 
#
# Total GULP energy -793701.193177 kJ/mol
# GULP energy per Si atom -12401.581143 kJ/mol
# Density = 1.661385 g / cm^3
# Si number density = 16.651749 Si / 1000 Ang^3
#
#
#
# Elastic Constant Matrix: (Units=GPa)
#
#
# Indices 1 2 3 4 5 6 
#
# 1 118.6388 24.0389 48.1784 0.0000 0.0000 0.0000
# 2 24.0389 26.0447 7.5197 0.0000 0.0000 0.0000
# 3 48.1784 7.5197 78.1535 0.0000 0.0000 0.0000
# 4 0.0000 0.0000 0.0000 25.5613 0.0000 0.0000
# 5 0.0000 0.0000 0.0000 0.0000 23.8103 0.0000
# 6 0.0000 0.0000 0.0000 0.0000 0.0000 25.0543
#
#
#
# Elastic Compliance Matrix: (Units=1/GPa)
#
#
# Indices 1 2 3 4 5 6 
#
# 1 0.013501 -0.010345 -0.007327 0.000000 0.000000 0.000000
# 2 -0.010345 0.047420 0.001815 0.000000 0.000000 0.000000
# 3 -0.007327 0.001815 0.017138 0.000000 0.000000 0.000000
# 4 0.000000 0.000000 0.000000 0.039122 0.000000 0.000000
# 5 0.000000 0.000000 0.000000 0.000000 0.041999 0.000000
# 6 0.000000 0.000000 0.000000 0.000000 0.000000 0.039913
#
#
# Mechanical properties :
#
#
# Convention : Reuss Voigt Hill
#
# Bulk Modulus (GPa) = 21.57820 42.47902 32.02861
# Shear Modulus (GPa) = 20.30412 24.42517 22.36464
#
# Velocity S-wave (km/s) = 3.49569 3.83407 3.66878
# Velocity P-wave (km/s) = 5.41108 6.72054 6.10105
#
# Compressibility (1/GPa) = 0.04634307
#
# Stress axis : x y z
#
# Youngs Moduli (GPa) = 74.07024 21.08803 58.35106
#
# Poissons Ratio (x) = 0.21816 0.42755
# Poissons Ratio (y) = 0.76629 -0.10590
# Poissons Ratio (z) = 0.54273 -0.03827
#
# Static dielectric constant tensor:
#      x y z
#    x 3.229490 0.000000 0.000000 
#    y 0.000000 3.013350 0.000000 
#    z 0.000000 0.000000 2.931970 
# 
# 
# High freq. dielectric constant tensor:
#      x y z
#    x 1.637730 0.000000 0.000000 
#    y 0.000000 1.641960 0.000000 
#    z 0.000000 0.000000 1.613670 
# 
# From -- ./inp_files/27662.got.cif
#   From: 2010.03.12/outbox.cif.g09.slc.cpg/sg62_14_cif.got.tgz:27662.got - 2010.04.10 19:12:36.
