data_PCOD8250537
_publ_section_title
;
Structure prediction by ZEFSAII (Michael W. Deem and Ramdas Pophale) SiO2 
 PCOD8250537
Probable space group: P N M A
;
_chemical_formula_sum "Si O2"
_cell_formula_units_Z 56
_cell_length_a 15.910420
_cell_length_b 18.837920
_cell_length_c 10.947017
_cell_angle_alpha 90.000000
_cell_angle_beta 90.000000
_cell_angle_gamma 90.000000
_cell_volume 3281.031387
_symmetry_space_group_name_H-M "P N M A"
_symmetry_group_IT_number 62
_symmetry_cell_setting 'orthorhombic'
loop_
_space_group_symop_operation_xyz
x,y,z
1/2-x,-y,1/2+z
1/2+x,1/2-y,1/2-z
-x,1/2+y,-z
-x,-y,-z
1/2+x,y,1/2-z
1/2-x,1/2+y,1/2+z
x,1/2-y,z
loop_
_atom_site_type_symbol
_atom_site_label
_atom_site_fract_x
_atom_site_fract_y
_atom_site_fract_z
Si Si1 0.980780 0.330157 0.347674
Si Si2 0.430649 0.959173 0.739461
Si Si3 0.609252 0.329709 0.942254
Si Si4 0.094444 0.453427 0.742473
Si Si5 0.220215 0.416148 0.391691
Si Si6 0.686736 0.908706 0.846059
Si Si7 0.173581 0.037039 0.998364
O O1 0.984280 0.250000 0.295577
O O2 0.885614 0.352966 0.374865
O O3 0.024254 0.381959 0.248414
O O4 0.025292 0.335486 0.478015
O O5 0.357844 0.964883 0.842716
O O6 0.394499 0.970660 0.604974
O O7 0.498358 0.020636 0.761617
O O8 0.624486 0.250000 0.895500
O O9 0.599894 0.379367 0.826025
O O10 0.688457 0.351999 0.024952
O O11 0.153115 0.511227 0.675810
O O12 0.126073 0.435610 0.878489
O O13 0.265821 0.381672 0.275087
O O14 0.285832 0.460836 0.470793
O O15 0.752151 0.909602 0.959100
#
# Coordination Sequence:
#
# PCOD8250537 Si02
#       7
#     8   8   8   8   8   8   8
#     4   9  19  34  52  73 101 134 173 214 255 311
#     4   9  19  32  53  78  98 134 175 214 258 302
#     4  10  20  34  50  72 104 141 174 205 255 319
#     4  10  19  32  52  74 103 138 172 212 250 313
#     4   9  18  31  51  78 103 127 166 220 263 300
#     4   9  18  31  53  78  99 127 172 216 263 294
#     4  10  18  32  51  79 104 127 169 222 265 298
#
# _framework density 17.067803999999999
#
# number of rings (size 3 to 8) (size 9 to 14) (size 15 to 20)
#    0.000    2.571    1.429    0.429    2.000    2.286 
#    0.000    3.571    0.000    2.571    0.000    0.000 
#    0.000    0.000    0.000    0.000    0.000    0.000 
#
# Total GULP energy -694334.666361 kJ/mol
# GULP energy per Si atom -12398.833328 kJ/mol
# Density = 1.702896 g / cm^3
# Si number density = 17.067804 Si / 1000 Ang^3
#
#
#
# Elastic Constant Matrix: (Units=GPa)
#
#
# Indices 1 2 3 4 5 6 
#
# 1 81.7570 42.5416 32.2251 0.0000 0.0000 0.0000
# 2 42.5416 108.8211 56.8803 0.0000 0.0000 0.0000
# 3 32.2251 56.8803 84.6851 0.0000 0.0000 0.0000
# 4 0.0000 0.0000 0.0000 20.5108 0.0000 0.0000
# 5 0.0000 0.0000 0.0000 0.0000 24.3983 0.0000
# 6 0.0000 0.0000 0.0000 0.0000 0.0000 19.3965
#
#
#
# Elastic Compliance Matrix: (Units=1/GPa)
#
#
# Indices 1 2 3 4 5 6 
#
# 1 0.015795 -0.004674 -0.002871 0.000000 0.000000 0.000000
# 2 -0.004674 0.015544 -0.008662 0.000000 0.000000 0.000000
# 3 -0.002871 -0.008662 0.018719 0.000000 0.000000 0.000000
# 4 0.000000 0.000000 0.000000 0.048755 0.000000 0.000000
# 5 0.000000 0.000000 0.000000 0.000000 0.040987 0.000000
# 6 0.000000 0.000000 0.000000 0.000000 0.000000 0.051556
#
#
# Mechanical properties :
#
#
# Convention : Reuss Voigt Hill
#
# Bulk Modulus (GPa) = 56.67621 59.83968 58.25794
# Shear Modulus (GPa) = 21.77219 22.43553 22.10386
#
# Velocity S-wave (km/s) = 3.57547 3.62953 3.60260
# Velocity P-wave (km/s) = 7.09393 7.25953 7.17721
#
# Compressibility (1/GPa) = 0.01764409
#
# Stress axis : x y z
#
# Youngs Moduli (GPa) = 63.31056 64.33270 53.42195
#
# Poissons Ratio (x) = 0.30070 0.15338
# Poissons Ratio (y) = 0.29592 0.46274
# Poissons Ratio (z) = 0.18177 0.55724
#
# Static dielectric constant tensor:
#      x y z
#    x 3.405320 0.000000 0.000000 
#    y 0.000000 2.974450 0.000000 
#    z 0.000000 0.000000 3.141710 
# 
# 
# High freq. dielectric constant tensor:
#      x y z
#    x 1.674390 0.000000 0.000000 
#    y 0.000000 1.628200 0.000000 
#    z 0.000000 0.000000 1.654170 
# 
# From -- ./inp_files/14368.got.cif
#   From: 2010.03.12/outbox.cif.g09.slc.cpg/sg62_8_cif.got.tgz:14368.got - 2010.04.10 19:12:36.
