data_PCOD8250367
_publ_section_title
;
Structure prediction by ZEFSAII (Michael W. Deem and Ramdas Pophale) SiO2 
 PCOD8250367
Probable space group: P N M A
;
_chemical_formula_sum "Si O2"
_cell_formula_units_Z 64
_cell_length_a 18.902786
_cell_length_b 8.764537
_cell_length_c 20.997419
_cell_angle_alpha 90.000000
_cell_angle_beta 90.000000
_cell_angle_gamma 90.000000
_cell_volume 3478.729908
_symmetry_space_group_name_H-M "P N M A"
_symmetry_group_IT_number 62
_symmetry_cell_setting 'orthorhombic'
loop_
_space_group_symop_operation_xyz
x,y,z
1/2-x,-y,1/2+z
1/2+x,1/2-y,1/2-z
-x,1/2+y,-z
-x,-y,-z
1/2+x,y,1/2-z
1/2-x,1/2+y,1/2+z
x,1/2-y,z
loop_
_atom_site_type_symbol
_atom_site_label
_atom_site_fract_x
_atom_site_fract_y
_atom_site_fract_z
Si Si1 0.326053 0.918105 0.006281
Si Si2 0.919647 0.430975 0.254501
Si Si3 0.335032 0.432613 0.638668
Si Si4 0.665630 0.566687 0.634354
Si Si5 0.341350 0.416690 0.501721
Si Si6 0.920287 0.568342 0.746947
Si Si7 0.817002 0.429360 0.365323
Si Si8 0.675497 0.068385 0.132231
O O1 0.359169 0.750000 0.019077
O O2 0.242637 0.899858 0.000622
O O3 0.346115 0.029260 0.064396
O O4 0.351957 0.985845 0.937885
O O5 0.918416 0.250000 0.251489
O O6 0.884726 0.497207 0.189841
O O7 0.875403 0.487673 0.315247
O O8 0.999593 0.490415 0.260379
O O9 0.333977 0.250000 0.638250
O O10 0.361073 0.497727 0.568931
O O11 0.389305 0.496037 0.689484
O O12 0.256006 0.489237 0.653064
O O13 0.665544 0.750000 0.631537
O O14 0.637442 0.501591 0.565313
O O15 0.745465 0.507856 0.647540
O O16 0.377079 0.250000 0.502231
O O17 0.915407 0.750000 0.752232
O O18 0.877198 0.505266 0.686146
O O19 0.804463 0.250000 0.360517
O O20 0.675732 0.250000 0.132509
#
# Coordination Sequence:
#
# PCOD8250367 Si02
#       8
#     8   8   8   8   8   8   8   8
#     4   8  14  27  46  69  91 117 154 195 234 281
#     4   9  18  29  44  68  98 126 158 197 236 277
#     4  10  19  32  49  71  95 122 157 199 241 286
#     4   8  12  23  43  66  87 115 154 192 225 269
#     4   7  12  23  42  64  86 111 146 188 230 273
#     4  10  19  32  48  69  96 128 162 197 234 280
#     4  10  18  30  49  73  97 123 154 196 243 286
#     4   8  14  26  48  70  90 120 160 196 232 282
#
# _framework density 18.397518999999999
#
# number of rings (size 3 to 8) (size 9 to 14) (size 15 to 20)
#    0.000    3.250    0.000    3.750    0.000    2.000 
#    0.000    3.125    0.000    0.000    0.000    6.125 
#    0.000    0.000    0.000    0.000    0.000    0.000 
#
# Total GULP energy -792851.079141 kJ/mol
# GULP energy per Si atom -12388.298112 kJ/mol
# Density = 1.835565 g / cm^3
# Si number density = 18.397519 Si / 1000 Ang^3
#
#
#
# Elastic Constant Matrix: (Units=GPa)
#
#
# Indices 1 2 3 4 5 6 
#
# 1 87.1553 13.1187 62.0007 0.0000 0.0000 0.0000
# 2 13.1187 26.3808 17.7206 0.0000 0.0000 0.0000
# 3 62.0007 17.7206 167.6567 0.0000 0.0000 0.0000
# 4 0.0000 0.0000 0.0000 22.0996 0.0000 0.0000
# 5 0.0000 0.0000 0.0000 0.0000 6.7552 0.0000
# 6 0.0000 0.0000 0.0000 0.0000 0.0000 11.6093
#
#
#
# Elastic Compliance Matrix: (Units=1/GPa)
#
#
# Indices 1 2 3 4 5 6 
#
# 1 0.016008 -0.004288 -0.005467 0.000000 0.000000 0.000000
# 2 -0.004288 0.041952 -0.002848 0.000000 0.000000 0.000000
# 3 -0.005467 -0.002848 0.008287 0.000000 0.000000 0.000000
# 4 0.000000 0.000000 0.000000 0.045250 0.000000 0.000000
# 5 0.000000 0.000000 0.000000 0.000000 0.148034 0.000000
# 6 0.000000 0.000000 0.000000 0.000000 0.000000 0.086138
#
#
# Mechanical properties :
#
#
# Convention : Reuss Voigt Hill
#
# Bulk Modulus (GPa) = 24.36599 51.87474 38.12036
# Shear Modulus (GPa) = 13.00202 20.64969 16.82585
#
# Velocity S-wave (km/s) = 2.66132 3.35388 3.02747
# Velocity P-wave (km/s) = 4.76617 6.57692 5.74336
#
# Compressibility (1/GPa) = 0.04104081
#
# Stress axis : x y z
#
# Youngs Moduli (GPa) = 62.46810 23.83664 120.66752
#
# Poissons Ratio (x) = 0.10222 0.65965
# Poissons Ratio (y) = 0.26789 0.34369
# Poissons Ratio (z) = 0.34149 0.06789
#
# Static dielectric constant tensor:
#      x y z
#    x 3.223550 0.000000 0.000000 
#    y 0.000000 2.890550 0.000000 
#    z 0.000000 0.000000 4.094400 
# 
# 
# High freq. dielectric constant tensor:
#      x y z
#    x 1.677140 0.000000 0.000000 
#    y 0.000000 1.659210 0.000000 
#    z 0.000000 0.000000 1.742650 
# 
# From -- ./inp_files/27913.got.cif
#   From: 2010.03.12/outbox.cif.g09.slc.cpg/sg62_14_cif.got.tgz:27913.got - 2010.04.10 19:12:36.
