data_PCOD8250643
_publ_section_title
;
Structure prediction by ZEFSAII (Michael W. Deem and Ramdas Pophale) SiO2 
 PCOD8250643
Probable space group: P N M A
;
_chemical_formula_sum "Si O2"
_cell_formula_units_Z 64
_cell_length_a 30.743505
_cell_length_b 8.812702
_cell_length_c 12.036759
_cell_angle_alpha 90.000000
_cell_angle_beta 90.000000
_cell_angle_gamma 90.000000
_cell_volume 3261.159415
_symmetry_space_group_name_H-M "P N M A"
_symmetry_group_IT_number 62
_symmetry_cell_setting 'orthorhombic'
loop_
_space_group_symop_operation_xyz
x,y,z
1/2-x,-y,1/2+z
1/2+x,1/2-y,1/2-z
-x,1/2+y,-z
-x,-y,-z
1/2+x,y,1/2-z
1/2-x,1/2+y,1/2+z
x,1/2-y,z
loop_
_atom_site_type_symbol
_atom_site_label
_atom_site_fract_x
_atom_site_fract_y
_atom_site_fract_z
Si Si1 0.875676 0.431094 0.364043
Si Si2 0.929762 0.421746 0.987976
Si Si3 0.946806 0.573453 0.759060
Si Si4 0.295752 0.430159 0.280202
Si Si5 0.800590 0.571612 0.765197
Si Si6 0.627593 0.570631 0.115785
Si Si7 0.956199 0.071664 0.224340
Si Si8 0.828678 0.421048 0.986101
O O1 0.876220 0.250000 0.362556
O O2 0.832833 0.495611 0.301934
O O3 0.875447 0.490702 0.490234
O O4 0.918856 0.497755 0.303787
O O5 0.945049 0.250000 0.958987
O O6 0.940152 0.532874 0.887312
O O7 0.953351 0.489607 0.097632
O O8 0.879044 0.421810 0.016140
O O9 0.936197 0.750000 0.742930
O O10 0.915435 0.477327 0.681366
O O11 0.996469 0.534213 0.724928
O O12 0.298249 0.250000 0.276034
O O13 0.248707 0.490152 0.242066
O O14 0.303404 0.484455 0.406408
O O15 0.802604 0.750000 0.746694
O O16 0.828993 0.495446 0.669571
O O17 0.819477 0.532697 0.885066
O O18 0.630950 0.750000 0.121105
O O19 0.948252 0.250000 0.215591
O O20 0.813703 0.250000 0.954874
#
# Coordination Sequence:
#
# PCOD8250643 Si02
#       8
#     8   8   8   8   8   8   8   8
#     4   9  18  36  59  81 107 143 190 231 270 330
#     4  10  18  33  59  85 112 144 184 226 271 331
#     4  11  22  35  55  83 117 147 180 230 284 330
#     4   9  19  36  58  85 113 145 183 229 280 328
#     4  11  23  37  57  85 118 148 182 231 282 326
#     4  11  23  38  58  80 108 149 193 232 273 331
#     4   9  18  34  57  85 111 144 186 231 278 327
#     4  10  19  35  61  86 111 146 187 226 272 331
#
# _framework density 19.624922000000002
#
# number of rings (size 3 to 8) (size 9 to 14) (size 15 to 20)
#    0.000    2.000    2.500    1.500    1.750    0.500 
#    0.000    1.250    0.000    5.250    0.000    0.000 
#    0.000    0.000    0.000    0.000    0.000    0.000 
#
# Total GULP energy -793647.230276 kJ/mol
# GULP energy per Si atom -12400.737973 kJ/mol
# Density = 1.958025 g / cm^3
# Si number density = 19.624922 Si / 1000 Ang^3
#
#
#
# Elastic Constant Matrix: (Units=GPa)
#
#
# Indices 1 2 3 4 5 6 
#
# 1 124.6942 22.8277 49.6914 0.0000 0.0000 0.0000
# 2 22.8277 42.5216 19.9222 0.0000 0.0000 0.0000
# 3 49.6914 19.9222 128.5709 0.0000 0.0000 0.0000
# 4 0.0000 0.0000 0.0000 1.2579 0.0000 0.0000
# 5 0.0000 0.0000 0.0000 0.0000 24.8199 0.0000
# 6 0.0000 0.0000 0.0000 0.0000 0.0000 14.7769
#
#
#
# Elastic Compliance Matrix: (Units=1/GPa)
#
#
# Indices 1 2 3 4 5 6 
#
# 1 0.010032 -0.003848 -0.003281 0.000000 0.000000 0.000000
# 2 -0.003848 0.026835 -0.002671 0.000000 0.000000 0.000000
# 3 -0.003281 -0.002671 0.009460 0.000000 0.000000 0.000000
# 4 0.000000 0.000000 0.000000 0.794989 0.000000 0.000000
# 5 0.000000 0.000000 0.000000 0.000000 0.040290 0.000000
# 6 0.000000 0.000000 0.000000 0.000000 0.000000 0.067673
#
#
# Mechanical properties :
#
#
# Convention : Reuss Voigt Hill
#
# Bulk Modulus (GPa) = 37.41645 53.40770 45.41208
# Shear Modulus (GPa) = 5.11359 21.72730 13.42044
#
# Velocity S-wave (km/s) = 1.61596 3.33096 2.61788
# Velocity P-wave (km/s) = 4.75278 6.48591 5.68577
#
# Compressibility (1/GPa) = 0.02672621
#
# Stress axis : x y z
#
# Youngs Moduli (GPa) = 99.68557 37.26517 105.71226
#
# Poissons Ratio (x) = 0.14341 0.34682
# Poissons Ratio (y) = 0.38362 0.28233
# Poissons Ratio (z) = 0.32705 0.09953
#
# Static dielectric constant tensor:
#      x y z
#    x 3.846630 0.000000 0.000000 
#    y 0.000000 3.200590 0.000000 
#    z 0.000000 0.000000 3.663200 
# 
# 
# High freq. dielectric constant tensor:
#      x y z
#    x 1.779750 0.000000 0.000000 
#    y 0.000000 1.725900 0.000000 
#    z 0.000000 0.000000 1.770200 
# 
# From -- ./inp_files/15890.got.cif
#   From: 2010.03.12/outbox.cif.g09.slc.cpg/sg62_8_cif.got.tgz:15890.got - 2010.04.10 19:12:36.
