data_PCOD8250548
_publ_section_title
;
Structure prediction by ZEFSAII (Michael W. Deem and Ramdas Pophale) SiO2 
 PCOD8250548
Probable space group: P N M A
;
_chemical_formula_sum "Si O2"
_cell_formula_units_Z 64
_cell_length_a 24.689875
_cell_length_b 11.099631
_cell_length_c 12.792189
_cell_angle_alpha 90.000000
_cell_angle_beta 90.000000
_cell_angle_gamma 90.000000
_cell_volume 3505.680232
_symmetry_space_group_name_H-M "P N M A"
_symmetry_group_IT_number 62
_symmetry_cell_setting 'orthorhombic'
loop_
_space_group_symop_operation_xyz
x,y,z
1/2-x,-y,1/2+z
1/2+x,1/2-y,1/2-z
-x,1/2+y,-z
-x,-y,-z
1/2+x,y,1/2-z
1/2-x,1/2+y,1/2+z
x,1/2-y,z
loop_
_atom_site_type_symbol
_atom_site_label
_atom_site_fract_x
_atom_site_fract_y
_atom_site_fract_z
Si Si1 0.708704 0.888662 0.115311
Si Si2 0.092293 0.612844 0.471520
Si Si3 0.469833 0.381298 0.594488
Si Si4 0.681495 0.386774 0.495815
Si Si5 0.822676 0.886614 0.753305
Si Si6 0.557838 0.615855 0.806944
Si Si7 0.439940 0.956964 0.782838
Si Si8 0.078778 0.500296 0.905531
O O1 0.710672 0.750000 0.163667
O O2 0.656614 0.899010 0.041459
O O3 0.707071 0.999480 0.198181
O O4 0.759915 0.913249 0.043053
O O5 0.072431 0.750000 0.469234
O O6 0.075641 0.555000 0.583239
O O7 0.060194 0.549261 0.378675
O O8 0.455741 0.250000 0.637701
O O9 0.442516 0.475778 0.672009
O O10 0.444590 0.393715 0.478882
O O11 0.535021 0.392626 0.587855
O O12 0.663859 0.250000 0.512301
O O13 0.683174 0.418982 0.374345
O O14 0.637995 0.465750 0.556537
O O15 0.799050 0.750000 0.729683
O O16 0.885456 0.878628 0.718595
O O17 0.581776 0.750000 0.801587
O O18 0.492853 0.624423 0.795999
O O19 0.584764 0.540672 0.714097
#
# Coordination Sequence:
#
# PCOD8250548 Si02
#       8
#     8   8   8   8   8   8   8   8
#     4   9  20  38  58  78 106 142 185 230 276 324
#     4   9  18  33  52  75 102 140 184 229 278 329
#     4  10  19  31  49  75 108 140 174 222 276 327
#     4  10  20  37  58  79 105 142 183 222 272 334
#     4  10  20  36  58  83 109 141 183 230 278 327
#     4  10  20  32  49  76 111 145 179 222 276 332
#     4  10  18  32  53  78 106 141 182 227 270 329
#     4  10  20  33  48  76 106 141 176 219 270 329
#
# _framework density 18.256086
#
# number of rings (size 3 to 8) (size 9 to 14) (size 15 to 20)
#    0.000    2.250    1.250    1.875    0.000    1.500 
#    0.000    3.125    0.000   12.000    0.000    0.000 
#    0.000    0.000    0.000    0.000    0.000    0.000 
#
# Total GULP energy -793250.699659 kJ/mol
# GULP energy per Si atom -12394.542182 kJ/mol
# Density = 1.821453 g / cm^3
# Si number density = 18.256086 Si / 1000 Ang^3
#
#
#
# Elastic Constant Matrix: (Units=GPa)
#
#
# Indices 1 2 3 4 5 6 
#
# 1 59.9869 25.4127 33.2401 0.0000 0.0000 0.0000
# 2 25.4127 86.2576 43.3242 0.0000 0.0000 0.0000
# 3 33.2401 43.3242 126.0875 0.0000 0.0000 0.0000
# 4 0.0000 0.0000 0.0000 -1.3522 0.0000 0.0000
# 5 0.0000 0.0000 0.0000 0.0000 23.8847 0.0000
# 6 0.0000 0.0000 0.0000 0.0000 0.0000 7.0026
#
#
#
# Elastic Compliance Matrix: (Units=1/GPa)
#
#
# Indices 1 2 3 4 5 6 
#
# 1 0.020627 -0.004044 -0.004048 0.000000 0.000000 0.000000
# 2 -0.004044 0.014804 -0.004021 0.000000 0.000000 0.000000
# 3 -0.004048 -0.004021 0.010380 0.000000 0.000000 0.000000
# 4 0.000000 0.000000 0.000000 -0.739532 0.000000 0.000000
# 5 0.000000 0.000000 0.000000 0.000000 0.041868 0.000000
# 6 0.000000 0.000000 0.000000 0.000000 0.000000 0.142804
#
#
# Mechanical properties :
#
#
# Convention : Reuss Voigt Hill
#
# Bulk Modulus (GPa) = 46.32821 52.92065 49.62443
# Shear Modulus (GPa) = -10.46835 17.26402 3.39784
#
# Velocity S-wave (km/s) = -2.39721 3.07849 1.36574
# Velocity P-wave (km/s) = 4.21542 6.45655 5.45238
#
# Compressibility (1/GPa) = 0.02158512
#
# Stress axis : x y z
#
# Youngs Moduli (GPa) = 48.48112 67.54969 96.34110
#
# Poissons Ratio (x) = 0.27314 0.39002
# Poissons Ratio (y) = 0.19603 0.38736
# Poissons Ratio (z) = 0.19627 0.27160
#
# Static dielectric constant tensor:
#      x y z
#    x 3.242490 0.000000 0.000000 
#    y 0.000000 3.298810 0.000000 
#    z 0.000000 0.000000 3.434440 
# 
# 
# High freq. dielectric constant tensor:
#      x y z
#    x 1.698930 0.000000 0.000000 
#    y 0.000000 1.700390 0.000000 
#    z 0.000000 0.000000 1.711470 
# 
# From -- ./inp_files/15320.got.cif
#   From: 2010.03.12/outbox.cif.g09.slc.cpg/sg62_8_cif.got.tgz:15320.got - 2010.04.10 19:12:36.
