data_PCOD8250951
_publ_section_title
;
Structure prediction by ZEFSAII (Michael W. Deem and Ramdas Pophale) SiO2 
 PCOD8250951
Probable space group: P N M A
;
_chemical_formula_sum "Si O2"
_cell_formula_units_Z 48
_cell_length_a 9.244179
_cell_length_b 9.029922
_cell_length_c 30.619390
_cell_angle_alpha 90.000000
_cell_angle_beta 90.000000
_cell_angle_gamma 90.000000
_cell_volume 2555.929554
_symmetry_space_group_name_H-M "P N M A"
_symmetry_group_IT_number 62
_symmetry_cell_setting 'orthorhombic'
loop_
_space_group_symop_operation_xyz
x,y,z
1/2-x,-y,1/2+z
1/2+x,1/2-y,1/2-z
-x,1/2+y,-z
-x,-y,-z
1/2+x,y,1/2-z
1/2-x,1/2+y,1/2+z
x,1/2-y,z
loop_
_atom_site_type_symbol
_atom_site_label
_atom_site_fract_x
_atom_site_fract_y
_atom_site_fract_z
Si Si1 0.337061 0.073957 0.620824
Si Si2 0.338129 0.925145 0.371506
Si Si3 0.340718 0.422554 0.049069
Si Si4 0.165588 0.073883 0.705492
Si Si5 0.838994 0.073129 0.710853
Si Si6 0.862838 0.077802 0.550747
O O1 0.333870 0.250000 0.616041
O O2 0.498694 0.014206 0.629720
O O3 0.235752 0.018525 0.660337
O O4 0.284254 0.003631 0.575751
O O5 0.341341 0.750000 0.367282
O O6 0.248108 0.990300 0.330769
O O7 0.263953 0.973589 0.416840
O O8 0.337705 0.250000 0.059639
O O9 0.495750 0.485487 0.063099
O O10 0.310108 0.455650 0.998209
O O11 0.164431 0.250000 0.706889
O O12 0.261207 0.012870 0.745601
O O13 0.002721 0.011547 0.709247
O O14 0.841068 0.250000 0.710415
O O15 0.902128 0.250000 0.557056
#
# Coordination Sequence:
#
# PCOD8250951 Si02
#       6
#     8   8   8   8   8   8
#     4  10  19  31  48  71  99 130 162 196 239 288
#     4   9  17  29  47  71  98 127 160 200 244 289
#     4  10  20  33  50  72  97 127 164 203 243 290
#     4   9  16  25  41  67  98 128 157 195 241 286
#     4   9  15  24  40  66  98 125 154 196 242 284
#     4   9  18  34  53  72  96 127 163 203 247 292
#
# _framework density 18.779859999999999
#
# number of rings (size 3 to 8) (size 9 to 14) (size 15 to 20)
#    0.000    2.667    0.000    2.500    0.000    8.000 
#    0.000    0.833    0.000    0.000    0.000   10.500 
#    0.000    0.000    0.000    0.000    0.000    0.000 
#
# Total GULP energy -595223.993521 kJ/mol
# GULP energy per Si atom -12400.499865 kJ/mol
# Density = 1.873712 g / cm^3
# Si number density = 18.779860 Si / 1000 Ang^3
#
#
#
# Elastic Constant Matrix: (Units=GPa)
#
#
# Indices 1 2 3 4 5 6 
#
# 1 164.1796 23.3260 79.1075 0.0000 0.0000 0.0000
# 2 23.3260 23.2942 23.2445 0.0000 0.0000 0.0000
# 3 79.1075 23.2445 124.4795 0.0000 0.0000 0.0000
# 4 0.0000 0.0000 0.0000 17.4748 0.0000 0.0000
# 5 0.0000 0.0000 0.0000 0.0000 43.0787 0.0000
# 6 0.0000 0.0000 0.0000 0.0000 0.0000 13.7640
#
#
#
# Elastic Compliance Matrix: (Units=1/GPa)
#
#
# Indices 1 2 3 4 5 6 
#
# 1 0.009087 -0.004101 -0.005009 0.000000 0.000000 0.000000
# 2 -0.004101 0.054611 -0.007591 0.000000 0.000000 0.000000
# 3 -0.005009 -0.007591 0.012634 0.000000 0.000000 0.000000
# 4 0.000000 0.000000 0.000000 0.057225 0.000000 0.000000
# 5 0.000000 0.000000 0.000000 0.000000 0.023213 0.000000
# 6 0.000000 0.000000 0.000000 0.000000 0.000000 0.072653
#
#
# Mechanical properties :
#
#
# Convention : Reuss Voigt Hill
#
# Bulk Modulus (GPa) = 23.29418 62.58992 42.94205
# Shear Modulus (GPa) = 18.04160 27.28185 22.66172
#
# Velocity S-wave (km/s) = 3.10286 3.81559 3.47753
# Velocity P-wave (km/s) = 5.02670 7.26720 6.24820
#
# Compressibility (1/GPa) = 0.04292917
#
# Stress axis : x y z
#
# Youngs Moduli (GPa) = 110.04571 18.31134 79.14933
#
# Poissons Ratio (x) = 0.07510 0.39647
# Poissons Ratio (y) = 0.45131 0.60085
# Poissons Ratio (z) = 0.55123 0.13901
#
# Static dielectric constant tensor:
#      x y z
#    x 3.639390 0.000000 0.000000 
#    y 0.000000 2.862640 0.000000 
#    z 0.000000 0.000000 3.617000 
# 
# 
# High freq. dielectric constant tensor:
#      x y z
#    x 1.739200 0.000000 0.000000 
#    y 0.000000 1.664590 0.000000 
#    z 0.000000 0.000000 1.745290 
# 
# From -- ./inp_files/31951.got.cif
#   From: 2010.03.12/outbox.cif.g09.slc.cpg/sg62_16_cif.got.tgz:31951.got - 2010.04.10 19:12:36.
