data_PCOD8250397
_publ_section_title
;
Structure prediction by ZEFSAII (Michael W. Deem and Ramdas Pophale) SiO2 
 PCOD8250397
Probable space group: P N M A
;
_chemical_formula_sum "Si O2"
_cell_formula_units_Z 56
_cell_length_a 21.774668
_cell_length_b 9.303610
_cell_length_c 14.494420
_cell_angle_alpha 90.000000
_cell_angle_beta 90.000000
_cell_angle_gamma 90.000000
_cell_volume 2936.323362
_symmetry_space_group_name_H-M "P N M A"
_symmetry_group_IT_number 62
_symmetry_cell_setting 'orthorhombic'
loop_
_space_group_symop_operation_xyz
x,y,z
1/2-x,-y,1/2+z
1/2+x,1/2-y,1/2-z
-x,1/2+y,-z
-x,-y,-z
1/2+x,y,1/2-z
1/2-x,1/2+y,1/2+z
x,1/2-y,z
loop_
_atom_site_type_symbol
_atom_site_label
_atom_site_fract_x
_atom_site_fract_y
_atom_site_fract_z
Si Si1 0.448637 0.416367 0.889850
Si Si2 0.335665 0.916848 0.393807
Si Si3 0.073310 0.916745 0.594052
Si Si4 0.909220 0.083440 0.801479
Si Si5 0.524868 0.083294 0.586502
Si Si6 0.302145 0.080157 0.571780
Si Si7 0.317838 0.583527 0.186634
O O1 0.469314 0.250000 0.878646
O O2 0.508180 0.514596 0.883354
O O3 0.403060 0.462244 0.806006
O O4 0.412275 0.439576 0.985252
O O5 0.330536 0.750000 0.420181
O O6 0.406781 0.966428 0.387210
O O7 0.304665 0.947759 0.294641
O O8 0.300135 0.006628 0.471651
O O9 0.070559 0.750000 0.620217
O O10 0.125450 0.989903 0.653738
O O11 0.894634 0.250000 0.811180
O O12 0.858922 0.011510 0.869181
O O13 0.979210 0.046895 0.829371
O O14 0.523269 0.250000 0.561420
O O15 0.500000 0.000000 0.500000
O O16 0.307928 0.250000 0.556308
O O17 0.241268 0.039607 0.627800
O O18 0.335204 0.750000 0.172897
#
# Coordination Sequence:
#
# PCOD8250397 Si02
#       7
#     8   8   8   8   8   8   8
#     4   9  18  34  57  81 110 144 178 222 277 335
#     4  10  21  37  57  81 110 146 184 224 278 337
#     4  10  20  34  55  84 111 141 183 231 274 316
#     4   9  17  32  54  79 107 141 180 219 268 330
#     4  10  18  30  52  79 107 139 173 218 273 324
#     4  10  21  37  57  80 106 141 185 229 269 316
#     4  10  22  39  58  78 108 152 191 222 268 334
#
# _framework density 19.071470000000001
#
# number of rings (size 3 to 8) (size 9 to 14) (size 15 to 20)
#    0.000    2.286    1.429    1.286    0.000    5.143 
#    0.000    5.714    0.000    0.000    0.000    0.000 
#    0.000    0.000    0.000    0.000    0.000    0.000 
#
# Total GULP energy -694274.915017 kJ/mol
# GULP energy per Si atom -12397.766340 kJ/mol
# Density = 1.902806 g / cm^3
# Si number density = 19.071470 Si / 1000 Ang^3
#
#
#
# Elastic Constant Matrix: (Units=GPa)
#
#
# Indices 1 2 3 4 5 6 
#
# 1 68.7857 31.4043 39.5239 0.0000 0.0000 0.0000
# 2 31.4043 50.2984 41.7137 0.0000 0.0000 0.0000
# 3 39.5239 41.7137 129.7149 0.0000 0.0000 0.0000
# 4 0.0000 0.0000 0.0000 31.1257 0.0000 0.0000
# 5 0.0000 0.0000 0.0000 0.0000 29.5862 0.0000
# 6 0.0000 0.0000 0.0000 0.0000 0.0000 19.9976
#
#
#
# Elastic Compliance Matrix: (Units=1/GPa)
#
#
# Indices 1 2 3 4 5 6 
#
# 1 0.021156 -0.010723 -0.002998 0.000000 0.000000 0.000000
# 2 -0.010723 0.032547 -0.007199 0.000000 0.000000 0.000000
# 3 -0.002998 -0.007199 0.010938 0.000000 0.000000 0.000000
# 4 0.000000 0.000000 0.000000 0.032128 0.000000 0.000000
# 5 0.000000 0.000000 0.000000 0.000000 0.033800 0.000000
# 6 0.000000 0.000000 0.000000 0.000000 0.000000 0.050006
#
#
# Mechanical properties :
#
#
# Convention : Reuss Voigt Hill
#
# Bulk Modulus (GPa) = 43.85813 52.67586 48.26699
# Shear Modulus (GPa) = 21.73785 25.21903 23.47844
#
# Velocity S-wave (km/s) = 3.37977 3.64035 3.51248
# Velocity P-wave (km/s) = 6.18685 6.73422 6.46633
#
# Compressibility (1/GPa) = 0.02280079
#
# Stress axis : x y z
#
# Youngs Moduli (GPa) = 47.26789 30.72522 91.42601
#
# Poissons Ratio (x) = 0.32945 0.27410
# Poissons Ratio (y) = 0.50684 0.65819
# Poissons Ratio (z) = 0.14171 0.22120
#
# Static dielectric constant tensor:
#      x y z
#    x 3.608600 0.000000 0.000000 
#    y 0.000000 3.309080 0.000000 
#    z 0.000000 0.000000 3.559530 
# 
# 
# High freq. dielectric constant tensor:
#      x y z
#    x 1.730070 0.000000 0.000000 
#    y 0.000000 1.719870 0.000000 
#    z 0.000000 0.000000 1.758500 
# 
# From -- ./inp_files/20326.got.cif
#   From: 2010.03.12/outbox.cif.g09.slc.cpg/sg62_11_cif.got.tgz:20326.got - 2010.04.10 19:12:36.
