data_PCOD8250916
_publ_section_title
;
Structure prediction by ZEFSAII (Michael W. Deem and Ramdas Pophale) SiO2 
 PCOD8250916
Probable space group: P N M A
;
_chemical_formula_sum "Si O2"
_cell_formula_units_Z 48
_cell_length_a 18.768593
_cell_length_b 9.372742
_cell_length_c 13.939648
_cell_angle_alpha 90.000000
_cell_angle_beta 90.000000
_cell_angle_gamma 90.000000
_cell_volume 2452.167806
_symmetry_space_group_name_H-M "P N M A"
_symmetry_group_IT_number 62
_symmetry_cell_setting 'orthorhombic'
loop_
_space_group_symop_operation_xyz
x,y,z
1/2-x,-y,1/2+z
1/2+x,1/2-y,1/2-z
-x,1/2+y,-z
-x,-y,-z
1/2+x,y,1/2-z
1/2-x,1/2+y,1/2+z
x,1/2-y,z
loop_
_atom_site_type_symbol
_atom_site_label
_atom_site_fract_x
_atom_site_fract_y
_atom_site_fract_z
Si Si1 0.514710 0.084445 0.655726
Si Si2 0.895930 0.586386 0.552661
Si Si3 0.350186 0.915939 0.451486
Si Si4 0.853960 0.080613 0.863062
Si Si5 0.214156 0.913770 0.336091
Si Si6 0.975420 0.588303 0.368673
O O1 0.508111 0.250000 0.634351
O O2 0.572009 0.021722 0.579883
O O3 0.434980 0.020700 0.649006
O O4 0.548420 0.056918 0.760478
O O5 0.887385 0.750000 0.583240
O O6 0.826056 0.502275 0.582385
O O7 0.907151 0.570097 0.437909
O O8 0.964086 0.523954 0.606235
O O9 0.354324 0.750000 0.480379
O O10 0.297447 0.934704 0.360155
O O11 0.322014 0.005057 0.542687
O O12 0.850711 0.250000 0.876956
O O13 0.806781 0.033367 0.770936
O O14 0.190413 0.750000 0.346016
O O15 0.006336 0.750000 0.377890
#
# Coordination Sequence:
#
# PCOD8250916 Si02
#       6
#     8   8   8   8   8   8
#     4   9  17  34  58  81 107 144 185 223 268 329
#     4  10  19  30  52  84 112 142 183 229 268 314
#     4  10  22  37  56  83 110 139 182 232 276 320
#     4  10  20  37  60  79 104 147 186 221 272 334
#     4  10  21  38  57  77 110 153 185 218 276 339
#     4   9  17  32  54  80 111 144 179 222 274 329
#
# _framework density 19.574518000000001
#
# number of rings (size 3 to 8) (size 9 to 14) (size 15 to 20)
#    0.000    2.333    1.667    1.000    0.000    3.333 
#    0.000    4.167    0.000    0.000    0.000    0.000 
#    0.000    0.000    0.000    0.000    0.000    0.000 
#
# Total GULP energy -594979.930125 kJ/mol
# GULP energy per Si atom -12395.415211 kJ/mol
# Density = 1.952997 g / cm^3
# Si number density = 19.574518 Si / 1000 Ang^3
#
#
#
# Elastic Constant Matrix: (Units=GPa)
#
#
# Indices 1 2 3 4 5 6 
#
# 1 80.0773 25.7803 44.4041 0.0000 0.0000 0.0000
# 2 25.7803 50.1162 32.5681 0.0000 0.0000 0.0000
# 3 44.4041 32.5681 118.1888 0.0000 0.0000 0.0000
# 4 0.0000 0.0000 0.0000 29.3278 0.0000 0.0000
# 5 0.0000 0.0000 0.0000 0.0000 29.9523 0.0000
# 6 0.0000 0.0000 0.0000 0.0000 0.0000 22.3050
#
#
#
# Elastic Compliance Matrix: (Units=1/GPa)
#
#
# Indices 1 2 3 4 5 6 
#
# 1 0.016968 -0.005586 -0.004836 0.000000 0.000000 0.000000
# 2 -0.005586 0.026145 -0.005106 0.000000 0.000000 0.000000
# 3 -0.004836 -0.005106 0.011685 0.000000 0.000000 0.000000
# 4 0.000000 0.000000 0.000000 0.034097 0.000000 0.000000
# 5 0.000000 0.000000 0.000000 0.000000 0.033386 0.000000
# 6 0.000000 0.000000 0.000000 0.000000 0.000000 0.044833
#
#
# Mechanical properties :
#
#
# Convention : Reuss Voigt Hill
#
# Bulk Modulus (GPa) = 42.11803 50.43192 46.27498
# Shear Modulus (GPa) = 24.26200 26.02567 25.14384
#
# Velocity S-wave (km/s) = 3.52443 3.65028 3.58791
# Velocity P-wave (km/s) = 6.17459 6.60197 6.39186
#
# Compressibility (1/GPa) = 0.02374280
#
# Stress axis : x y z
#
# Youngs Moduli (GPa) = 58.93553 38.24795 85.58148
#
# Poissons Ratio (x) = 0.21365 0.41384
# Poissons Ratio (y) = 0.32921 0.43697
# Poissons Ratio (z) = 0.28499 0.19529
#
# Static dielectric constant tensor:
#      x y z
#    x 3.588210 0.000000 0.000000 
#    y 0.000000 3.368370 0.000000 
#    z 0.000000 0.000000 3.671930 
# 
# 
# High freq. dielectric constant tensor:
#      x y z
#    x 1.751180 0.000000 0.000000 
#    y 0.000000 1.738630 0.000000 
#    z 0.000000 0.000000 1.769290 
# 
# From -- ./inp_files/20032.got.cif
#   From: 2010.03.12/outbox.cif.g09.slc.cpg/sg62_11_cif.got.tgz:20032.got - 2010.04.10 19:12:36.
