data_PCOD8250000
_publ_section_title
;
Structure prediction by ZEFSAII (Michael W. Deem and Ramdas Pophale) SiO2 
 PCOD8250000
Probable space group: P N M A
;
_chemical_formula_sum "Si O2"
_cell_formula_units_Z 64
_cell_length_a 19.287209
_cell_length_b 9.093612
_cell_length_c 23.467555
_cell_angle_alpha 90.000000
_cell_angle_beta 90.000000
_cell_angle_gamma 90.000000
_cell_volume 4115.983746
_symmetry_space_group_name_H-M "P N M A"
_symmetry_group_IT_number 62
_symmetry_cell_setting 'orthorhombic'
loop_
_space_group_symop_operation_xyz
x,y,z
1/2-x,-y,1/2+z
1/2+x,1/2-y,1/2-z
-x,1/2+y,-z
-x,-y,-z
1/2+x,y,1/2-z
1/2-x,1/2+y,1/2+z
x,1/2-y,z
loop_
_atom_site_type_symbol
_atom_site_label
_atom_site_fract_x
_atom_site_fract_y
_atom_site_fract_z
Si Si1 0.358970 0.075616 0.562698
Si Si2 0.992525 0.076696 0.756592
Si Si3 0.365901 0.419834 0.435094
Si Si4 0.265971 0.418623 0.660777
Si Si5 0.723654 0.920274 0.670977
Si Si6 0.357153 0.924364 0.231591
Si Si7 0.654090 0.919405 0.222765
Si Si8 0.502059 0.424774 0.615284
O O1 0.358045 0.250000 0.570331
O O2 0.343029 0.027474 0.498130
O O3 0.299932 0.005796 0.604776
O O4 0.434585 0.018228 0.581409
O O5 0.983012 0.250000 0.762563
O O6 0.924830 0.017634 0.722958
O O7 0.998038 0.011973 0.820359
O O8 0.062189 0.035746 0.721275
O O9 0.388922 0.250000 0.436031
O O10 0.299917 0.443930 0.394162
O O11 0.430981 0.513446 0.415715
O O12 0.254218 0.250000 0.646006
O O13 0.190253 0.483559 0.678891
O O14 0.318082 0.438804 0.713322
O O15 0.725329 0.750000 0.688061
O O16 0.667735 0.001847 0.710153
O O17 0.800495 0.986976 0.678398
O O18 0.346486 0.750000 0.239858
O O19 0.657565 0.750000 0.203419
O O20 0.507942 0.250000 0.615263
#
# Coordination Sequence:
#
# PCOD8250000 Si02
#       8
#     8   8   8   8   8   8   8   8
#     4   9  16  27  42  60  83 114 148 176 205 242
#     4   9  15  25  44  69  87 104 134 174 216 255
#     4  10  20  30  40  57  86 119 147 175 203 240
#     4   8  13  23  41  62  79 102 137 173 206 242
#     4  10  19  29  39  58  86 114 143 174 207 245
#     4   9  16  27  46  66  84 106 136 174 217 258
#     4   9  16  28  46  63  81 106 138 176 216 253
#     4  10  17  27  44  63  85 113 145 175 204 245
#
# _framework density 15.549137999999999
#
# number of rings (size 3 to 8) (size 9 to 14) (size 15 to 20)
#    0.000    2.750    2.500    1.500    0.000    0.500 
#    0.000    1.250    0.000    3.000    0.000    0.875 
#    0.000    0.000    0.000    0.000    0.000    0.000 
#
# Total GULP energy -793124.439315 kJ/mol
# GULP energy per Si atom -12392.569364 kJ/mol
# Density = 1.551375 g / cm^3
# Si number density = 15.549138 Si / 1000 Ang^3
#
#
#
# Elastic Constant Matrix: (Units=GPa)
#
#
# Indices 1 2 3 4 5 6 
#
# 1 139.9996 28.3079 64.5615 0.0000 0.0000 0.0000
# 2 28.3079 28.8344 21.7047 0.0000 0.0000 0.0000
# 3 64.5615 21.7047 90.4730 0.0000 0.0000 0.0000
# 4 0.0000 0.0000 0.0000 13.3633 0.0000 0.0000
# 5 0.0000 0.0000 0.0000 0.0000 24.6579 0.0000
# 6 0.0000 0.0000 0.0000 0.0000 0.0000 14.6493
#
#
#
# Elastic Compliance Matrix: (Units=1/GPa)
#
#
# Indices 1 2 3 4 5 6 
#
# 1 0.011498 -0.006238 -0.006708 0.000000 0.000000 0.000000
# 2 -0.006238 0.045709 -0.006514 0.000000 0.000000 0.000000
# 3 -0.006708 -0.006514 0.017403 0.000000 0.000000 0.000000
# 4 0.000000 0.000000 0.000000 0.074832 0.000000 0.000000
# 5 0.000000 0.000000 0.000000 0.000000 0.040555 0.000000
# 6 0.000000 0.000000 0.000000 0.000000 0.000000 0.068263
#
#
# Mechanical properties :
#
#
# Convention : Reuss Voigt Hill
#
# Bulk Modulus (GPa) = 28.02055 54.27282 41.14668
# Shear Modulus (GPa) = 16.17728 20.18297 18.18012
#
# Velocity S-wave (km/s) = 3.22902 3.60670 3.42307
# Velocity P-wave (km/s) = 5.65348 7.23355 6.49177
#
# Compressibility (1/GPa) = 0.03568809
#
# Stress axis : x y z
#
# Youngs Moduli (GPa) = 86.97308 21.87772 57.46224
#
# Poissons Ratio (x) = 0.13648 0.38547
# Poissons Ratio (y) = 0.54257 0.37431
# Poissons Ratio (z) = 0.58344 0.14251
#
# Static dielectric constant tensor:
#      x y z
#    x 3.233130 0.000000 0.000000 
#    y 0.000000 2.681140 0.000000 
#    z 0.000000 0.000000 2.993550 
# 
# 
# High freq. dielectric constant tensor:
#      x y z
#    x 1.599730 0.000000 0.000000 
#    y 0.000000 1.561860 0.000000 
#    z 0.000000 0.000000 1.572750 
# 
# From -- ./inp_files/27907.got.cif
#   From: 2010.03.12/outbox.cif.g09.slc.cpg/sg62_14_cif.got.tgz:27907.got - 2010.04.10 19:12:36.
