data_PCOD8250171
_publ_section_title
;
Structure prediction by ZEFSAII (Michael W. Deem and Ramdas Pophale) SiO2 
 PCOD8250171
Probable space group: P N M A
;
_chemical_formula_sum "Si O2"
_cell_formula_units_Z 64
_cell_length_a 26.759838
_cell_length_b 8.707815
_cell_length_c 18.193433
_cell_angle_alpha 90.000000
_cell_angle_beta 90.000000
_cell_angle_gamma 90.000000
_cell_volume 4239.428640
_symmetry_space_group_name_H-M "P N M A"
_symmetry_group_IT_number 62
_symmetry_cell_setting 'orthorhombic'
loop_
_space_group_symop_operation_xyz
x,y,z
1/2-x,-y,1/2+z
1/2+x,1/2-y,1/2-z
-x,1/2+y,-z
-x,-y,-z
1/2+x,y,1/2-z
1/2-x,1/2+y,1/2+z
x,1/2-y,z
loop_
_atom_site_type_symbol
_atom_site_label
_atom_site_fract_x
_atom_site_fract_y
_atom_site_fract_z
Si Si1 0.949017 0.068843 0.917102
Si Si2 0.651377 0.930357 0.340611
Si Si3 0.755201 0.427886 0.073137
Si Si4 0.799747 0.927284 0.714202
Si Si5 0.148479 0.569278 0.831416
Si Si6 0.247058 0.070113 0.082353
Si Si7 0.295038 0.930577 0.210186
Si Si8 0.448504 0.431462 0.416292
O O1 0.954640 0.250000 0.914844
O O2 0.902693 0.013266 0.867714
O O3 0.940312 0.009817 0.000324
O O4 0.999604 0.996361 0.884200
O O5 0.658223 0.750000 0.352213
O O6 0.656673 0.973617 0.253802
O O7 0.693269 0.014037 0.388960
O O8 0.757118 0.250000 0.049318
O O9 0.707788 0.459368 0.127377
O O10 0.806921 0.473427 0.112761
O O11 0.747468 0.534529 0.003323
O O12 0.811577 0.750000 0.728521
O O13 0.748141 0.969890 0.752616
O O14 0.147376 0.750000 0.815817
O O15 0.154689 0.480051 0.753386
O O16 0.097059 0.508343 0.866628
O O17 0.252366 0.250000 0.095378
O O18 0.292618 0.982075 0.124737
O O19 0.285464 0.750000 0.217509
O O20 0.450183 0.250000 0.414418
#
# Coordination Sequence:
#
# PCOD8250171 Si02
#       8
#     8   8   8   8   8   8   8   8
#     4   9  18  30  42  59  83 110 140 174 209 241
#     4  10  18  29  44  59  81 112 142 172 208 247
#     4   9  17  29  43  59  83 111 136 167 207 247
#     4   9  17  29  43  59  81 107 136 171 207 244
#     4   9  17  30  45  60  82 111 141 172 209 247
#     4  11  20  28  41  61  84 109 140 174 204 242
#     4  10  18  28  42  59  81 108 138 170 205 245
#     4   9  17  29  44  60  81 110 141 174 209 242
#
# _framework density 15.096374000000001
#
# number of rings (size 3 to 8) (size 9 to 14) (size 15 to 20)
#    0.000    2.500    0.000    6.000    0.000    6.000 
#    0.000    2.500    0.000    0.000    0.000    0.000 
#    0.000    1.000    0.000    3.250    0.000    4.750 
#
# Total GULP energy -793273.069384 kJ/mol
# GULP energy per Si atom -12394.891709 kJ/mol
# Density = 1.506201 g / cm^3
# Si number density = 15.096374 Si / 1000 Ang^3
#
#
#
# Elastic Constant Matrix: (Units=GPa)
#
#
# Indices 1 2 3 4 5 6 
#
# 1 94.0539 24.5182 54.1890 0.0000 0.0000 0.0000
# 2 24.5182 39.5093 29.9680 0.0000 0.0000 0.0000
# 3 54.1890 29.9680 87.1645 0.0000 0.0000 0.0000
# 4 0.0000 0.0000 0.0000 26.0077 0.0000 0.0000
# 5 0.0000 0.0000 0.0000 0.0000 26.2015 0.0000
# 6 0.0000 0.0000 0.0000 0.0000 0.0000 21.5925
#
#
#
# Elastic Compliance Matrix: (Units=1/GPa)
#
#
# Indices 1 2 3 4 5 6 
#
# 1 0.016898 -0.003406 -0.009334 0.000000 0.000000 0.000000
# 2 -0.003406 0.034926 -0.009890 0.000000 0.000000 0.000000
# 3 -0.009334 -0.009890 0.020676 0.000000 0.000000 0.000000
# 4 0.000000 0.000000 0.000000 0.038450 0.000000 0.000000
# 5 0.000000 0.000000 0.000000 0.000000 0.038166 0.000000
# 6 0.000000 0.000000 0.000000 0.000000 0.000000 0.046312
#
#
# Mechanical properties :
#
#
# Convention : Reuss Voigt Hill
#
# Bulk Modulus (GPa) = 36.71274 48.67536 42.69405
# Shear Modulus (GPa) = 20.01847 22.23052 21.12449
#
# Velocity S-wave (km/s) = 3.64544 3.84158 3.74479
# Velocity P-wave (km/s) = 6.48773 7.21041 6.85860
#
# Compressibility (1/GPa) = 0.02723850
#
# Stress axis : x y z
#
# Youngs Moduli (GPa) = 59.17845 28.63180 48.36562
#
# Poissons Ratio (x) = 0.09753 0.45145
# Poissons Ratio (y) = 0.20159 0.47835
# Poissons Ratio (z) = 0.55238 0.28318
#
# Static dielectric constant tensor:
#      x y z
#    x 2.898560 0.000000 0.000000 
#    y 0.000000 2.870940 0.000000 
#    z 0.000000 0.000000 3.222840 
# 
# 
# High freq. dielectric constant tensor:
#      x y z
#    x 1.544080 0.000000 0.000000 
#    y 0.000000 1.585150 0.000000 
#    z 0.000000 0.000000 1.567970 
# 
# From -- ./inp_files/25010.got.cif
#   From: 2010.03.12/outbox.cif.g09.slc.cpg/sg62_13_cif.got.tgz:25010.got - 2010.04.10 19:12:36.
