data_PCOD8250018
_publ_section_title
;
Structure prediction by ZEFSAII (Michael W. Deem and Ramdas Pophale) SiO2 
 PCOD8250018
Probable space group: P N M A
;
_chemical_formula_sum "Si O2"
_cell_formula_units_Z 48
_cell_length_a 8.991618
_cell_length_b 12.993800
_cell_length_c 21.902504
_cell_angle_alpha 90.000000
_cell_angle_beta 90.000000
_cell_angle_gamma 90.000000
_cell_volume 2558.985318
_symmetry_space_group_name_H-M "P N M A"
_symmetry_group_IT_number 62
_symmetry_cell_setting 'orthorhombic'
loop_
_space_group_symop_operation_xyz
x,y,z
1/2-x,-y,1/2+z
1/2+x,1/2-y,1/2-z
-x,1/2+y,-z
-x,-y,-z
1/2+x,y,1/2-z
1/2-x,1/2+y,1/2+z
x,1/2-y,z
loop_
_atom_site_type_symbol
_atom_site_label
_atom_site_fract_x
_atom_site_fract_y
_atom_site_fract_z
Si Si1 0.092653 0.563578 0.587320
Si Si2 0.912492 0.560147 0.868478
Si Si3 0.637942 0.250000 0.288073
Si Si4 0.471407 0.250000 0.167542
Si Si5 0.673150 0.551450 0.045057
Si Si6 0.050559 0.363698 0.896336
Si Si7 0.611510 0.633607 0.523902
O O1 0.240113 0.530429 0.623629
O O2 0.009335 0.651943 0.624570
O O3 0.136402 0.604548 0.519713
O O4 0.980457 0.466990 0.581818
O O5 0.934478 0.647101 0.817086
O O6 0.000634 0.454717 0.849749
O O7 0.976064 0.604295 0.931775
O O8 0.604348 0.250000 0.216370
O O9 0.813956 0.250000 0.297728
O O10 0.776657 0.625364 0.085299
O O11 0.748620 0.440247 0.033467
O O12 0.027911 0.250000 0.867488
O O13 0.949202 0.379356 0.955802
O O14 0.664205 0.750000 0.536344
#
# Coordination Sequence:
#
# PCOD8250018 Si02
#       7
#     8   8   4   4   8   8   8
#     4  10  20  33  49  75 112 138 173 224 278 329
#     4  10  17  35  51  74 107 142 185 225 275 317
#     4  10  22  36  58  78 106 152 180 237 280 309
#     4  10  24  38  56  80 108 142 190 229 276 327
#     4  10  19  31  48  76 110 151 172 211 280 331
#     4  10  19  30  50  77 110 142 186 215 254 334
#     4  10  17  28  48  75 107 144 185 216 255 330
#
# _framework density 18.757435000000001
#
# number of rings (size 3 to 8) (size 9 to 14) (size 15 to 20)
#    0.000    2.000    4.167    1.000    2.333    2.667 
#    0.000    0.833    0.000    0.000    0.000   11.667 
#    0.000    0.000    0.000    0.000    0.000    0.000 
#
# Total GULP energy -595079.170554 kJ/mol
# GULP energy per Si atom -12397.482720 kJ/mol
# Density = 1.871474 g / cm^3
# Si number density = 18.757435 Si / 1000 Ang^3
#
#
#
# Elastic Constant Matrix: (Units=GPa)
#
#
# Indices 1 2 3 4 5 6 
#
# 1 60.1676 17.0586 24.6429 0.0000 0.0000 0.0000
# 2 17.0586 97.7060 39.8479 0.0000 0.0000 0.0000
# 3 24.6429 39.8479 51.9888 0.0000 0.0000 0.0000
# 4 0.0000 0.0000 0.0000 21.4669 0.0000 0.0000
# 5 0.0000 0.0000 0.0000 0.0000 24.6692 0.0000
# 6 0.0000 0.0000 0.0000 0.0000 0.0000 22.1665
#
#
#
# Elastic Compliance Matrix: (Units=1/GPa)
#
#
# Indices 1 2 3 4 5 6 
#
# 1 0.020645 0.000562 -0.010217 0.000000 0.000000 0.000000
# 2 0.000562 0.014904 -0.011690 0.000000 0.000000 0.000000
# 3 -0.010217 -0.011690 0.033038 0.000000 0.000000 0.000000
# 4 0.000000 0.000000 0.000000 0.046583 0.000000 0.000000
# 5 0.000000 0.000000 0.000000 0.000000 0.040536 0.000000
# 6 0.000000 0.000000 0.000000 0.000000 0.000000 0.045113
#
#
# Mechanical properties :
#
#
# Convention : Reuss Voigt Hill
#
# Bulk Modulus (GPa) = 38.61321 41.44015 40.02668
# Shear Modulus (GPa) = 19.83001 22.21473 21.02237
#
# Velocity S-wave (km/s) = 3.25496 3.44512 3.35139
# Velocity P-wave (km/s) = 5.89547 6.16164 6.03002
#
# Compressibility (1/GPa) = 0.02589787
#
# Stress axis : x y z
#
# Youngs Moduli (GPa) = 48.43688 67.09471 30.26806
#
# Poissons Ratio (x) = -0.03773 0.30925
# Poissons Ratio (y) = -0.02724 0.35384
# Poissons Ratio (z) = 0.49488 0.78436
#
# Static dielectric constant tensor:
#      x y z
#    x 3.436420 0.000000 0.000000 
#    y 0.000000 3.638390 0.000000 
#    z 0.000000 0.000000 3.015260 
# 
# 
# High freq. dielectric constant tensor:
#      x y z
#    x 1.735730 0.000000 0.000000 
#    y 0.000000 1.725280 0.000000 
#    z 0.000000 0.000000 1.674100 
# 
# From -- ./inp_files/25886.got.cif
#   From: 2010.03.12/outbox.cif.g09.slc.cpg/sg62_13_cif.got.tgz:25886.got - 2010.04.10 19:12:36.
