data_PCOD8250098
_publ_section_title
;
Structure prediction by ZEFSAII (Michael W. Deem and Ramdas Pophale) SiO2 
 PCOD8250098
Probable space group: P N M A
;
_chemical_formula_sum "Si O2"
_cell_formula_units_Z 64
_cell_length_a 16.289095
_cell_length_b 17.917180
_cell_length_c 12.164450
_cell_angle_alpha 90.000000
_cell_angle_beta 90.000000
_cell_angle_gamma 90.000000
_cell_volume 3550.251263
_symmetry_space_group_name_H-M "P N M A"
_symmetry_group_IT_number 62
_symmetry_cell_setting 'orthorhombic'
loop_
_space_group_symop_operation_xyz
x,y,z
1/2-x,-y,1/2+z
1/2+x,1/2-y,1/2-z
-x,1/2+y,-z
-x,-y,-z
1/2+x,y,1/2-z
1/2-x,1/2+y,1/2+z
x,1/2-y,z
loop_
_atom_site_type_symbol
_atom_site_label
_atom_site_fract_x
_atom_site_fract_y
_atom_site_fract_z
Si Si1 0.488577 0.333503 0.560904
Si Si2 0.601701 0.170836 0.355003
Si Si3 0.460184 0.976791 0.319974
Si Si4 0.652564 0.569699 0.519501
Si Si5 0.571038 0.972568 0.919729
Si Si6 0.142007 0.479919 0.184367
Si Si7 0.670776 0.054893 0.080180
Si Si8 0.025539 0.334899 0.372399
O O1 0.476146 0.250000 0.609814
O O2 0.559213 0.333384 0.471796
O O3 0.517309 0.390028 0.656812
O O4 0.403418 0.358398 0.502658
O O5 0.648831 0.250000 0.344293
O O6 0.669275 0.105471 0.342452
O O7 0.532808 0.166395 0.259082
O O8 0.395053 0.007812 0.408279
O O9 0.427426 0.983968 0.196232
O O10 0.543420 0.023479 0.333065
O O11 0.680600 0.537266 0.400648
O O12 0.738439 0.590958 0.576202
O O13 0.556373 0.883465 0.901908
O O14 0.500000 0.000000 0.000000
O O15 0.655490 0.995721 0.980639
O O16 0.164560 0.496891 0.310270
O O17 0.606327 0.123398 0.078741
O O18 0.018193 0.250000 0.419678
#
# Coordination Sequence:
#
# PCOD8250098 Si02
#       8
#     8   8   8   8   8   8   8   8
#     4  10  19  32  53  80 108 137 179 226 268 320
#     4   9  14  27  51  78 102 128 170 225 264 299
#     4  11  18  34  57  79 102 138 190 223 262 322
#     4  11  21  32  53  82 109 144 176 229 281 324
#     4  10  18  35  55  77 104 140 183 222 262 322
#     4  10  17  35  51  77 104 140 186 222 261 321
#     4  10  22  33  51  82 111 144 177 224 279 325
#     4   9  17  32  56  78 102 136 177 221 266 316
#
# _framework density 18.026893999999999
#
# number of rings (size 3 to 8) (size 9 to 14) (size 15 to 20)
#    0.000    2.000    6.250    0.750    1.750    0.500 
#    0.000    2.500    0.000    1.500    0.000    0.000 
#    0.000    0.000    0.000    0.000    0.000    0.000 
#
# Total GULP energy -792861.971581 kJ/mol
# GULP energy per Si atom -12388.468306 kJ/mol
# Density = 1.798586 g / cm^3
# Si number density = 18.026894 Si / 1000 Ang^3
#
#
#
# Elastic Constant Matrix: (Units=GPa)
#
#
# Indices 1 2 3 4 5 6 
#
# 1 59.6228 18.6377 17.6072 0.0000 0.0000 0.0000
# 2 18.6377 121.4442 38.8076 0.0000 0.0000 0.0000
# 3 17.6072 38.8076 96.2767 0.0000 0.0000 0.0000
# 4 0.0000 0.0000 0.0000 21.4086 0.0000 0.0000
# 5 0.0000 0.0000 0.0000 0.0000 12.7341 0.0000
# 6 0.0000 0.0000 0.0000 0.0000 0.0000 13.7526
#
#
#
# Elastic Compliance Matrix: (Units=1/GPa)
#
#
# Indices 1 2 3 4 5 6 
#
# 1 0.018134 -0.001978 -0.002519 0.000000 0.000000 0.000000
# 2 -0.001978 0.009667 -0.003535 0.000000 0.000000 0.000000
# 3 -0.002519 -0.003535 0.012272 0.000000 0.000000 0.000000
# 4 0.000000 0.000000 0.000000 0.046710 0.000000 0.000000
# 5 0.000000 0.000000 0.000000 0.000000 0.078529 0.000000
# 6 0.000000 0.000000 0.000000 0.000000 0.000000 0.072714
#
#
# Mechanical properties :
#
#
# Convention : Reuss Voigt Hill
#
# Bulk Modulus (GPa) = 41.64979 47.49431 44.57205
# Shear Modulus (GPa) = 19.07708 23.06515 21.07111
#
# Velocity S-wave (km/s) = 3.25661 3.58087 3.42258
# Velocity P-wave (km/s) = 6.10697 6.59548 6.35592
#
# Compressibility (1/GPa) = 0.02400972
#
# Stress axis : x y z
#
# Youngs Moduli (GPa) = 55.14392 103.44021 81.48400
#
# Poissons Ratio (x) = 0.20461 0.20527
# Poissons Ratio (y) = 0.10908 0.28805
# Poissons Ratio (z) = 0.13891 0.36566
#
# Static dielectric constant tensor:
#      x y z
#    x 3.093820 0.000000 0.000000 
#    y 0.000000 3.701800 0.000000 
#    z 0.000000 0.000000 3.488500 
# 
# 
# High freq. dielectric constant tensor:
#      x y z
#    x 1.660980 0.000000 0.000000 
#    y 0.000000 1.691740 0.000000 
#    z 0.000000 0.000000 1.701050 
# 
# From -- ./inp_files/14425.got.cif
#   From: 2010.03.12/outbox.cif.g09.slc.cpg/sg62_8_cif.got.tgz:14425.got - 2010.04.10 19:12:36.
