data_PCOD8250084
_publ_section_title
;
Structure prediction by ZEFSAII (Michael W. Deem and Ramdas Pophale) SiO2 
 PCOD8250084
Probable space group: P N M A
;
_chemical_formula_sum "Si O2"
_cell_formula_units_Z 56
_cell_length_a 17.005470
_cell_length_b 21.907265
_cell_length_c 9.076574
_cell_angle_alpha 90.000000
_cell_angle_beta 90.000000
_cell_angle_gamma 90.000000
_cell_volume 3381.417173
_symmetry_space_group_name_H-M "P N M A"
_symmetry_group_IT_number 62
_symmetry_cell_setting 'orthorhombic'
loop_
_space_group_symop_operation_xyz
x,y,z
1/2-x,-y,1/2+z
1/2+x,1/2-y,1/2-z
-x,1/2+y,-z
-x,-y,-z
1/2+x,y,1/2-z
1/2-x,1/2+y,1/2+z
x,1/2-y,z
loop_
_atom_site_type_symbol
_atom_site_label
_atom_site_fract_x
_atom_site_fract_y
_atom_site_fract_z
Si Si1 0.074728 0.499509 0.169456
Si Si2 0.592529 0.037050 0.767077
Si Si3 0.158984 0.568820 0.920919
Si Si4 0.426609 0.617291 0.483306
Si Si5 0.156910 0.428588 0.421298
Si Si6 0.058068 0.681521 0.895409
Si Si7 0.400975 0.681428 0.754177
O O1 0.044044 0.446104 0.060592
O O2 0.136024 0.473298 0.287661
O O3 0.000886 0.527582 0.254875
O O4 0.119412 0.550796 0.075543
O O5 0.614189 0.098242 0.670246
O O6 0.613138 0.047999 0.934543
O O7 0.640630 0.979063 0.708423
O O8 0.130558 0.636008 0.868830
O O9 0.251054 0.571660 0.948281
O O10 0.505646 0.658584 0.463297
O O11 0.368120 0.653076 0.597210
O O12 0.127861 0.359583 0.389331
O O13 0.090203 0.750000 0.922118
O O14 0.996928 0.679921 0.756210
O O15 0.369093 0.750000 0.775424
#
# Coordination Sequence:
#
# PCOD8250084 Si02
#       7
#     8   8   8   8   8   8   8
#     4  10  17  33  51  68 101 135 165 201 248 304
#     4  11  18  32  52  74 103 132 171 207 251 299
#     4  11  19  33  48  75 104 134 168 209 247 304
#     4   8  14  30  54  72  85 123 175 209 227 284
#     4  11  22  28  47  81 109 129 158 210 275 292
#     4   9  16  31  56  72  85 127 180 205 230 292
#     4   8  16  34  51  70  97 130 169 204 241 301
#
# _framework density 16.561102999999999
#
# number of rings (size 3 to 8) (size 9 to 14) (size 15 to 20)
#    0.857    1.429    2.857    2.143    0.000    0.571 
#    0.000    1.429    0.000    0.000    0.000    0.000 
#    0.000    0.000    0.000    0.000    0.000    0.000 
#
# Total GULP energy -693788.325826 kJ/mol
# GULP energy per Si atom -12389.077247 kJ/mol
# Density = 1.652341 g / cm^3
# Si number density = 16.561103 Si / 1000 Ang^3
#
#
#
# Elastic Constant Matrix: (Units=GPa)
#
#
# Indices 1 2 3 4 5 6 
#
# 1 85.3984 38.2925 22.2920 0.0000 0.0000 0.0000
# 2 38.2925 121.3626 39.2423 0.0000 0.0000 0.0000
# 3 22.2920 39.2423 60.3817 0.0000 0.0000 0.0000
# 4 0.0000 0.0000 0.0000 17.0423 0.0000 0.0000
# 5 0.0000 0.0000 0.0000 0.0000 16.7012 0.0000
# 6 0.0000 0.0000 0.0000 0.0000 0.0000 14.3121
#
#
#
# Elastic Compliance Matrix: (Units=1/GPa)
#
#
# Indices 1 2 3 4 5 6 
#
# 1 0.014034 -0.003485 -0.002916 0.000000 0.000000 0.000000
# 2 -0.003485 0.011297 -0.006056 0.000000 0.000000 0.000000
# 3 -0.002916 -0.006056 0.021573 0.000000 0.000000 0.000000
# 4 0.000000 0.000000 0.000000 0.058678 0.000000 0.000000
# 5 0.000000 0.000000 0.000000 0.000000 0.059876 0.000000
# 6 0.000000 0.000000 0.000000 0.000000 0.000000 0.069871
#
#
# Mechanical properties :
#
#
# Convention : Reuss Voigt Hill
#
# Bulk Modulus (GPa) = 45.47291 51.86625 48.66958
# Shear Modulus (GPa) = 18.68648 20.76551 19.72599
#
# Velocity S-wave (km/s) = 3.36271 3.54485 3.45498
# Velocity P-wave (km/s) = 6.52644 6.93835 6.73554
#
# Compressibility (1/GPa) = 0.02199111
#
# Stress axis : x y z
#
# Youngs Moduli (GPa) = 71.25699 88.51557 46.35321
#
# Poissons Ratio (x) = 0.30848 0.13517
# Poissons Ratio (y) = 0.24833 0.28070
# Poissons Ratio (z) = 0.20779 0.53602
#
# Static dielectric constant tensor:
#      x y z
#    x 2.880630 0.000000 0.000000 
#    y 0.000000 3.204500 0.000000 
#    z 0.000000 0.000000 2.965660 
# 
# 
# High freq. dielectric constant tensor:
#      x y z
#    x 1.617030 0.000000 0.000000 
#    y 0.000000 1.639430 0.000000 
#    z 0.000000 0.000000 1.611650 
# 
# From -- ./inp_files/8138.got.cif
#   From: 2010.03.12/outbox.cif.g09.slc.cpg/sg62_5_cif.got.tgz:8138.got - 2010.04.10 19:12:36.
