data_PCOD8250842
_publ_section_title
;
Structure prediction by ZEFSAII (Michael W. Deem and Ramdas Pophale) SiO2 
 PCOD8250842
Probable space group: P N M A
;
_chemical_formula_sum "Si O2"
_cell_formula_units_Z 64
_cell_length_a 14.297019
_cell_length_b 9.125408
_cell_length_c 29.940475
_cell_angle_alpha 90.000000
_cell_angle_beta 90.000000
_cell_angle_gamma 90.000000
_cell_volume 3906.217950
_symmetry_space_group_name_H-M "P N M A"
_symmetry_group_IT_number 62
_symmetry_cell_setting 'orthorhombic'
loop_
_space_group_symop_operation_xyz
x,y,z
1/2-x,-y,1/2+z
1/2+x,1/2-y,1/2-z
-x,1/2+y,-z
-x,-y,-z
1/2+x,y,1/2-z
1/2-x,1/2+y,1/2+z
x,1/2-y,z
loop_
_atom_site_type_symbol
_atom_site_label
_atom_site_fract_x
_atom_site_fract_y
_atom_site_fract_z
Si Si1 0.102540 0.079158 0.050878
Si Si2 0.783905 0.922436 0.285271
Si Si3 0.656428 0.921947 0.367557
Si Si4 0.679163 0.083984 0.639188
Si Si5 0.978990 0.416206 0.277807
Si Si6 0.987982 0.084290 0.174771
Si Si7 0.410525 0.581995 0.451267
Si Si8 0.158058 0.581461 0.298114
O O1 0.105163 0.250000 0.061448
O O2 0.175120 0.998603 0.084419
O O3 0.132552 0.044073 0.999857
O O4 0.997548 0.021922 0.059788
O O5 0.801341 0.750000 0.281491
O O6 0.734807 0.966367 0.331813
O O7 0.720384 0.975881 0.243718
O O8 0.882691 0.001182 0.285699
O O9 0.652103 0.750000 0.374715
O O10 0.555875 0.975802 0.351093
O O11 0.647522 0.250000 0.651064
O O12 0.669817 0.056119 0.585927
O O13 0.785282 0.060428 0.655565
O O14 0.616915 0.970561 0.666846
O O15 0.966789 0.250000 0.294325
O O16 0.063169 0.490963 0.304972
O O17 0.010217 0.423509 0.226719
O O18 0.999627 0.250000 0.156897
O O19 0.446439 0.750000 0.451057
O O20 0.130983 0.750000 0.289456
#
# Coordination Sequence:
#
# PCOD8250842 Si02
#       8
#     8   8   8   8   8   8   8   8
#     4  10  19  30  46  71 101 130 162 201 248 296
#     4  10  21  35  52  72  95 130 172 206 239 288
#     4  11  21  33  49  70  97 133 172 205 239 287
#     4  10  19  32  51  72  95 131 170 202 237 284
#     4  11  23  35  49  71 102 133 163 206 251 289
#     4  11  21  30  45  71 101 132 164 201 243 288
#     4   9  18  31  47  70 100 131 163 200 244 295
#     4  10  20  34  52  72  96 130 170 202 237 290
#
# _framework density 16.384134
#
# number of rings (size 3 to 8) (size 9 to 14) (size 15 to 20)
#    0.000    1.750    3.750    1.500    0.000    3.500 
#    0.000    0.000    0.000    0.000    0.000    0.875 
#    0.000    0.000    0.000    0.000    0.000    0.000 
#
# Total GULP energy -793580.300340 kJ/mol
# GULP energy per Si atom -12399.692193 kJ/mol
# Density = 1.634684 g / cm^3
# Si number density = 16.384134 Si / 1000 Ang^3
#
#
#
# Elastic Constant Matrix: (Units=GPa)
#
#
# Indices 1 2 3 4 5 6 
#
# 1 80.1951 37.3030 34.0309 0.0000 0.0000 0.0000
# 2 37.3030 64.9621 40.0470 0.0000 0.0000 0.0000
# 3 34.0309 40.0470 98.3095 0.0000 0.0000 0.0000
# 4 0.0000 0.0000 0.0000 24.4029 0.0000 0.0000
# 5 0.0000 0.0000 0.0000 0.0000 24.0625 0.0000
# 6 0.0000 0.0000 0.0000 0.0000 0.0000 16.5334
#
#
#
# Elastic Compliance Matrix: (Units=1/GPa)
#
#
# Indices 1 2 3 4 5 6 
#
# 1 0.017507 -0.008435 -0.002624 0.000000 0.000000 0.000000
# 2 -0.008435 0.024620 -0.007109 0.000000 0.000000 0.000000
# 3 -0.002624 -0.007109 0.013976 0.000000 0.000000 0.000000
# 4 0.000000 0.000000 0.000000 0.040979 0.000000 0.000000
# 5 0.000000 0.000000 0.000000 0.000000 0.041558 0.000000
# 6 0.000000 0.000000 0.000000 0.000000 0.000000 0.060484
#
#
# Mechanical properties :
#
#
# Convention : Reuss Voigt Hill
#
# Bulk Modulus (GPa) = 50.59154 51.80315 51.19735
# Shear Modulus (GPa) = 20.65697 21.80548 21.23122
#
# Velocity S-wave (km/s) = 3.55461 3.65209 3.60368
# Velocity P-wave (km/s) = 6.91321 7.03351 6.97362
#
# Compressibility (1/GPa) = 0.01976615
#
# Stress axis : x y z
#
# Youngs Moduli (GPa) = 57.12078 40.61760 71.55010
#
# Poissons Ratio (x) = 0.34262 0.18775
# Poissons Ratio (y) = 0.48183 0.50866
# Poissons Ratio (z) = 0.14989 0.28875
#
# Static dielectric constant tensor:
#      x y z
#    x 2.810650 0.000000 0.000000 
#    y 0.000000 3.189580 0.000000 
#    z 0.000000 0.000000 3.333610 
# 
# 
# High freq. dielectric constant tensor:
#      x y z
#    x 1.594770 0.000000 0.000000 
#    y 0.000000 1.640020 0.000000 
#    z 0.000000 0.000000 1.628630 
# 
# From -- ./inp_files/32701.got.cif
#   From: 2010.03.12/outbox.cif.g09.slc.cpg/sg62_17_cif.got.tgz:32701.got - 2010.04.10 19:12:36.
