data_PCOD8250353
_publ_section_title
;
Structure prediction by ZEFSAII (Michael W. Deem and Ramdas Pophale) SiO2 
 PCOD8250353
Probable space group: P N M A
;
_chemical_formula_sum "Si O2"
_cell_formula_units_Z 56
_cell_length_a 21.975617
_cell_length_b 9.223929
_cell_length_c 15.116802
_cell_angle_alpha 90.000000
_cell_angle_beta 90.000000
_cell_angle_gamma 90.000000
_cell_volume 3064.198908
_symmetry_space_group_name_H-M "P N M A"
_symmetry_group_IT_number 62
_symmetry_cell_setting 'orthorhombic'
loop_
_space_group_symop_operation_xyz
x,y,z
1/2-x,-y,1/2+z
1/2+x,1/2-y,1/2-z
-x,1/2+y,-z
-x,-y,-z
1/2+x,y,1/2-z
1/2-x,1/2+y,1/2+z
x,1/2-y,z
loop_
_atom_site_type_symbol
_atom_site_label
_atom_site_fract_x
_atom_site_fract_y
_atom_site_fract_z
Si Si1 0.481235 0.914843 0.630955
Si Si2 0.320358 0.420565 0.041277
Si Si3 0.946067 0.589082 0.256476
Si Si4 0.723536 0.916672 0.574449
Si Si5 0.325817 0.083319 0.242525
Si Si6 0.592375 0.913611 0.498310
Si Si7 0.943644 0.913024 0.463047
O O1 0.466483 0.750000 0.655003
O O2 0.540905 0.933202 0.571573
O O3 0.495459 0.002432 0.720220
O O4 0.421804 0.980645 0.583608
O O5 0.329331 0.250000 0.026873
O O6 0.301503 0.454666 0.143752
O O7 0.382197 0.500992 0.014756
O O8 0.269157 0.476957 0.974996
O O9 0.944653 0.750000 0.214582
O O10 0.883472 0.511701 0.231283
O O11 0.954223 0.597317 0.359902
O O12 0.740546 0.750000 0.553029
O O13 0.725222 0.943470 0.681337
O O14 0.656540 0.955812 0.540124
O O15 0.347654 0.250000 0.246087
O O16 0.592817 0.750000 0.462161
O O17 0.940003 0.750000 0.503360
O O18 0.000000 0.000000 0.500000
#
# Coordination Sequence:
#
# PCOD8250353 Si02
#       7
#     8   8   8   8   8   8   8
#     4  10  18  30  48  74 106 140 177 213 258 310
#     4  10  21  36  57  84 111 139 179 225 268 322
#     4  10  19  31  52  80 107 135 175 222 265 315
#     4  10  19  35  56  77 107 146 183 221 270 320
#     4   9  18  35  55  76 104 141 182 222 265 320
#     4   9  18  31  48  72 104 141 178 216 259 305
#     4  10  21  38  59  82 106 136 174 220 272 319
#
# _framework density 18.275575
#
# number of rings (size 3 to 8) (size 9 to 14) (size 15 to 20)
#    0.000    2.286    1.429    1.714    0.000    4.000 
#    0.000    1.429    0.000    3.429    0.000    0.000 
#    0.000    0.000    0.000    0.000    0.000    0.000 
#
# Total GULP energy -694287.598302 kJ/mol
# GULP energy per Si atom -12397.992827 kJ/mol
# Density = 1.823398 g / cm^3
# Si number density = 18.275575 Si / 1000 Ang^3
#
#
#
# Elastic Constant Matrix: (Units=GPa)
#
#
# Indices 1 2 3 4 5 6 
#
# 1 86.4181 53.1569 43.9346 0.0000 0.0000 0.0000
# 2 53.1569 125.2690 44.9719 0.0000 0.0000 0.0000
# 3 43.9346 44.9719 62.6614 0.0000 0.0000 0.0000
# 4 0.0000 0.0000 0.0000 29.0503 0.0000 0.0000
# 5 0.0000 0.0000 0.0000 0.0000 31.8516 0.0000
# 6 0.0000 0.0000 0.0000 0.0000 0.0000 34.6527
#
#
#
# Elastic Compliance Matrix: (Units=1/GPa)
#
#
# Indices 1 2 3 4 5 6 
#
# 1 0.019769 -0.004597 -0.010561 0.000000 0.000000 0.000000
# 2 -0.004597 0.011823 -0.005262 0.000000 0.000000 0.000000
# 3 -0.010561 -0.005262 0.027140 0.000000 0.000000 0.000000
# 4 0.000000 0.000000 0.000000 0.034423 0.000000 0.000000
# 5 0.000000 0.000000 0.000000 0.000000 0.031396 0.000000
# 6 0.000000 0.000000 0.000000 0.000000 0.000000 0.028858
#
#
# Mechanical properties :
#
#
# Convention : Reuss Voigt Hill
#
# Bulk Modulus (GPa) = 55.89423 62.05282 58.97352
# Shear Modulus (GPa) = 24.97351 27.92993 26.45172
#
# Velocity S-wave (km/s) = 3.70063 3.91354 3.80857
# Velocity P-wave (km/s) = 6.99357 7.37894 7.18884
#
# Compressibility (1/GPa) = 0.01789094
#
# Stress axis : x y z
#
# Youngs Moduli (GPa) = 50.58483 84.58391 36.84574
#
# Poissons Ratio (x) = 0.38885 0.38914
# Poissons Ratio (y) = 0.23255 0.19387
# Poissons Ratio (z) = 0.53425 0.44506
#
# Static dielectric constant tensor:
#      x y z
#    x 3.139260 0.000000 0.000000 
#    y 0.000000 3.690430 0.000000 
#    z 0.000000 0.000000 3.755340 
# 
# 
# High freq. dielectric constant tensor:
#      x y z
#    x 1.681390 0.000000 0.000000 
#    y 0.000000 1.721610 0.000000 
#    z 0.000000 0.000000 1.703440 
# 
# From -- ./inp_files/20398.got.cif
#   From: 2010.03.12/outbox.cif.g09.slc.cpg/sg62_11_cif.got.tgz:20398.got - 2010.04.10 19:12:36.
