data_PCOD8250601
_publ_section_title
;
Structure prediction by ZEFSAII (Michael W. Deem and Ramdas Pophale) SiO2 
 PCOD8250601
Probable space group: P N M A
;
_chemical_formula_sum "Si O2"
_cell_formula_units_Z 48
_cell_length_a 11.360969
_cell_length_b 12.327179
_cell_length_c 16.065875
_cell_angle_alpha 90.000000
_cell_angle_beta 90.000000
_cell_angle_gamma 90.000000
_cell_volume 2250.004884
_symmetry_space_group_name_H-M "P N M A"
_symmetry_group_IT_number 62
_symmetry_cell_setting 'orthorhombic'
loop_
_space_group_symop_operation_xyz
x,y,z
1/2-x,-y,1/2+z
1/2+x,1/2-y,1/2-z
-x,1/2+y,-z
-x,-y,-z
1/2+x,y,1/2-z
1/2-x,1/2+y,1/2+z
x,1/2-y,z
loop_
_atom_site_type_symbol
_atom_site_label
_atom_site_fract_x
_atom_site_fract_y
_atom_site_fract_z
Si Si1 0.661850 0.979880 0.837121
Si Si2 0.411145 0.450873 0.619118
Si Si3 0.050010 0.876266 0.301751
Si Si4 0.887008 0.750000 0.716300
Si Si5 0.269143 0.545119 0.838998
Si Si6 0.930312 0.373395 0.058662
Si Si7 0.146525 0.750000 0.679234
O O1 0.683018 0.949808 0.740353
O O2 0.636302 0.860141 0.876887
O O3 0.771284 0.039313 0.879257
O O4 0.557294 0.065045 0.847868
O O5 0.458320 0.393978 0.702411
O O6 0.463033 0.572333 0.609945
O O7 0.451891 0.379520 0.540373
O O8 0.047805 0.750000 0.323149
O O9 0.169139 0.927516 0.339529
O O10 0.868055 0.860670 0.663646
O O11 0.780314 0.750000 0.783336
O O12 0.027674 0.750000 0.740908
O O13 0.189792 0.561615 0.920675
O O14 0.920830 0.250000 0.088228
#
# Coordination Sequence:
#
# PCOD8250601 Si02
#       7
#     8   8   8   4   8   8   4
#     4  10  21  36  60  89 122 158 211 258 316 372
#     4  10  24  41  59  95 127 163 212 254 320 394
#     4  11  22  39  62  88 123 166 210 262 311 379
#     4  10  18  32  58  90 124 154 201 266 327 373
#     4  10  20  36  58  90 117 158 208 258 315 374
#     4  11  22  41  65  91 129 168 205 261 326 385
#     4  10  20  32  60  92 126 158 201 274 321 377
#
# _framework density 21.333286999999999
#
# number of rings (size 3 to 8) (size 9 to 14) (size 15 to 20)
#    0.000    1.667    4.167    0.500    1.167    3.333 
#    1.500    1.667    0.000    0.000    0.000    0.000 
#    0.000    0.000    0.000    0.000    0.000    0.000 
#
# Total GULP energy -594776.648161 kJ/mol
# GULP energy per Si atom -12391.180170 kJ/mol
# Density = 2.128473 g / cm^3
# Si number density = 21.333287 Si / 1000 Ang^3
#
#
#
# Elastic Constant Matrix: (Units=GPa)
#
#
# Indices 1 2 3 4 5 6 
#
# 1 86.5475 27.0683 7.5515 0.0000 0.0000 0.0000
# 2 27.0683 162.7988 9.2907 0.0000 0.0000 0.0000
# 3 7.5515 9.2907 23.7825 0.0000 0.0000 0.0000
# 4 0.0000 0.0000 0.0000 12.2516 0.0000 0.0000
# 5 0.0000 0.0000 0.0000 0.0000 21.2703 0.0000
# 6 0.0000 0.0000 0.0000 0.0000 0.0000 32.4434
#
#
#
# Elastic Compliance Matrix: (Units=1/GPa)
#
#
# Indices 1 2 3 4 5 6 
#
# 1 0.012423 -0.001882 -0.003209 0.000000 0.000000 0.000000
# 2 -0.001882 0.006568 -0.001968 0.000000 0.000000 0.000000
# 3 -0.003209 -0.001968 0.043835 0.000000 0.000000 0.000000
# 4 0.000000 0.000000 0.000000 0.081622 0.000000 0.000000
# 5 0.000000 0.000000 0.000000 0.000000 0.047014 0.000000
# 6 0.000000 0.000000 0.000000 0.000000 0.000000 0.030823
#
#
# Mechanical properties :
#
#
# Convention : Reuss Voigt Hill
#
# Bulk Modulus (GPa) = 20.53091 40.10553 30.31822
# Shear Modulus (GPa) = 19.79097 28.47427 24.13262
#
# Velocity S-wave (km/s) = 3.04913 3.65737 3.36701
# Velocity P-wave (km/s) = 4.69479 6.05602 5.41832
#
# Compressibility (1/GPa) = 0.04870704
#
# Stress axis : x y z
#
# Youngs Moduli (GPa) = 80.49515 152.25681 22.81257
#
# Poissons Ratio (x) = 0.28661 0.07321
# Poissons Ratio (y) = 0.15153 0.04490
# Poissons Ratio (z) = 0.25833 0.29965
#
# Static dielectric constant tensor:
#      x y z
#    x 3.872330 0.000000 0.000000 
#    y 0.000000 4.014000 0.000000 
#    z 0.000000 0.000000 3.295530 
# 
# 
# High freq. dielectric constant tensor:
#      x y z
#    x 1.847980 0.000000 0.000000 
#    y 0.000000 1.846860 0.000000 
#    z 0.000000 0.000000 1.778150 
# 
# From -- ./inp_files/23055.got.cif
#   From: 2010.03.12/outbox.cif.g09.slc.cpg/sg62_12_cif.got.tgz:23055.got - 2010.04.10 19:12:36.
