data_PCOD8250823
_publ_section_title
;
Structure prediction by ZEFSAII (Michael W. Deem and Ramdas Pophale) SiO2 
 PCOD8250823
Probable space group: P N M A
;
_chemical_formula_sum "Si O2"
_cell_formula_units_Z 56
_cell_length_a 9.005875
_cell_length_b 20.607866
_cell_length_c 18.266945
_cell_angle_alpha 90.000000
_cell_angle_beta 90.000000
_cell_angle_gamma 90.000000
_cell_volume 3390.196394
_symmetry_space_group_name_H-M "P N M A"
_symmetry_group_IT_number 62
_symmetry_cell_setting 'orthorhombic'
loop_
_space_group_symop_operation_xyz
x,y,z
1/2-x,-y,1/2+z
1/2+x,1/2-y,1/2-z
-x,1/2+y,-z
-x,-y,-z
1/2+x,y,1/2-z
1/2-x,1/2+y,1/2+z
x,1/2-y,z
loop_
_atom_site_type_symbol
_atom_site_label
_atom_site_fract_x
_atom_site_fract_y
_atom_site_fract_z
Si Si1 0.820588 0.117564 0.394412
Si Si2 0.318040 0.750000 0.835656
Si Si3 0.668905 0.569499 0.460866
Si Si4 0.656072 0.427661 0.526521
Si Si5 0.661243 0.750000 0.817199
Si Si6 0.680681 0.003334 0.669412
Si Si7 0.670362 0.996366 0.319965
Si Si8 0.832435 0.615618 0.593257
O O1 0.763499 0.118282 0.478792
O O2 0.781999 0.187246 0.360783
O O3 0.740945 0.064674 0.343835
O O4 0.994783 0.102354 0.394651
O O5 0.485831 0.750000 0.809276
O O6 0.216665 0.750000 0.765007
O O7 0.283412 0.812501 0.884773
O O8 0.649490 0.495792 0.485661
O O9 0.508633 0.604084 0.470980
O O10 0.713697 0.562666 0.375348
O O11 0.793757 0.606903 0.507128
O O12 0.714258 0.440611 0.609109
O O13 0.766339 0.024945 0.741895
O O14 0.506412 0.995268 0.684116
O O15 0.739187 0.933985 0.642195
#
# Coordination Sequence:
#
# PCOD8250823 Si02
#       8
#     8   4   8   8   4   8   8   8
#     4  10  19  31  46  64  89 120 153 184 217 259
#     4  10  22  34  44  64  91 120 153 186 215 250
#     4   8  16  30  45  63  88 115 144 181 222 264
#     4   8  16  30  45  63  88 115 144 181 222 264
#     4  10  22  34  44  64  91 120 153 186 215 250
#     4  10  19  30  45  67  93 117 145 182 223 265
#     4  10  19  30  45  67  93 117 145 182 223 265
#     4  10  19  31  46  64  89 120 153 184 217 259
#
# _framework density 16.518217
#
# number of rings (size 3 to 8) (size 9 to 14) (size 15 to 20)
#    0.000    2.571    0.000    4.286    0.000   10.857 
#    0.000    0.000    0.000    0.000    0.000    1.000 
#    0.000    0.000    0.000    0.000    0.000    0.000 
#
# Total GULP energy -694179.771692 kJ/mol
# GULP energy per Si atom -12396.067352 kJ/mol
# Density = 1.648062 g / cm^3
# Si number density = 16.518217 Si / 1000 Ang^3
#
#
#
# Elastic Constant Matrix: (Units=GPa)
#
#
# Indices 1 2 3 4 5 6 
#
# 1 56.6230 9.8893 19.7099 0.0000 0.0000 0.0000
# 2 9.8893 31.5581 5.2836 0.0000 0.0000 0.0000
# 3 19.7099 5.2836 81.5816 0.0000 0.0000 0.0000
# 4 0.0000 0.0000 0.0000 20.1314 0.0000 0.0000
# 5 0.0000 0.0000 0.0000 0.0000 32.8457 0.0000
# 6 0.0000 0.0000 0.0000 0.0000 0.0000 21.7486
#
#
#
# Elastic Compliance Matrix: (Units=1/GPa)
#
#
# Indices 1 2 3 4 5 6 
#
# 1 0.020208 -0.005576 -0.004521 0.000000 0.000000 0.000000
# 2 -0.005576 0.033573 -0.000827 0.000000 0.000000 0.000000
# 3 -0.004521 -0.000827 0.013404 0.000000 0.000000 0.000000
# 4 0.000000 0.000000 0.000000 0.049674 0.000000 0.000000
# 5 0.000000 0.000000 0.000000 0.000000 0.030445 0.000000
# 6 0.000000 0.000000 0.000000 0.000000 0.000000 0.045980
#
#
# Mechanical properties :
#
#
# Convention : Reuss Voigt Hill
#
# Bulk Modulus (GPa) = 22.05709 26.61426 24.33567
# Shear Modulus (GPa) = 21.71603 23.93713 22.82658
#
# Velocity S-wave (km/s) = 3.62977 3.81088 3.72143
# Velocity P-wave (km/s) = 5.56320 5.95909 5.76455
#
# Compressibility (1/GPa) = 0.04533690
#
# Stress axis : x y z
#
# Youngs Moduli (GPa) = 49.48482 29.78553 74.60709
#
# Poissons Ratio (x) = 0.16607 0.33731
# Poissons Ratio (y) = 0.27591 0.06172
# Poissons Ratio (z) = 0.22373 0.02464
#
# Static dielectric constant tensor:
#      x y z
#    x 3.205640 0.000000 0.000000 
#    y 0.000000 2.844210 0.000000 
#    z 0.000000 0.000000 3.533040 
# 
# 
# High freq. dielectric constant tensor:
#      x y z
#    x 1.646920 0.000000 0.000000 
#    y 0.000000 1.588640 0.000000 
#    z 0.000000 0.000000 1.645150 
# 
# From -- ./inp_files/22533.got.cif
#   From: 2010.03.12/outbox.cif.g09.slc.cpg/sg62_12_cif.got.tgz:22533.got - 2010.04.10 19:12:36.
