data_PCOD8250001
_publ_section_title
;
Structure prediction by ZEFSAII (Michael W. Deem and Ramdas Pophale) SiO2 
 PCOD8250001
Probable space group: P N M A
;
_chemical_formula_sum "Si O2"
_cell_formula_units_Z 64
_cell_length_a 13.144542
_cell_length_b 13.063570
_cell_length_c 21.916702
_cell_angle_alpha 90.000000
_cell_angle_beta 90.000000
_cell_angle_gamma 90.000000
_cell_volume 3763.418693
_symmetry_space_group_name_H-M "P N M A"
_symmetry_group_IT_number 62
_symmetry_cell_setting 'orthorhombic'
loop_
_space_group_symop_operation_xyz
x,y,z
1/2-x,-y,1/2+z
1/2+x,1/2-y,1/2-z
-x,1/2+y,-z
-x,-y,-z
1/2+x,y,1/2-z
1/2-x,1/2+y,1/2+z
x,1/2-y,z
loop_
_atom_site_type_symbol
_atom_site_label
_atom_site_fract_x
_atom_site_fract_y
_atom_site_fract_z
Si Si1 0.901475 0.557394 0.431214
Si Si2 0.521423 0.628677 0.411917
Si Si3 0.594523 0.870020 0.283970
Si Si4 0.205544 0.867454 0.001430
Si Si5 0.438454 0.634713 0.193565
Si Si6 0.223098 0.365636 0.789425
Si Si7 0.203479 0.052160 0.918351
Si Si8 0.893201 0.133551 0.510643
O O1 0.808703 0.621086 0.459694
O O2 0.893535 0.559707 0.357717
O O3 0.896220 0.439383 0.451497
O O4 0.010080 0.607740 0.447207
O O5 0.518657 0.750000 0.407625
O O6 0.552871 0.578190 0.346259
O O7 0.607856 0.594572 0.459942
O O8 0.410272 0.591599 0.432734
O O9 0.581289 0.750000 0.294192
O O10 0.548306 0.901841 0.217413
O O11 0.710933 0.899594 0.269891
O O12 0.193741 0.750000 0.981443
O O13 0.212396 0.934704 0.940060
O O14 0.436135 0.750000 0.166382
O O15 0.387762 0.631440 0.260637
O O16 0.250546 0.250000 0.811930
O O17 0.227813 0.442338 0.846482
O O18 0.287324 0.119417 0.953596
O O19 0.900277 0.250000 0.487759
#
# Coordination Sequence:
#
# PCOD8250001 Si02
#       8
#     8   8   8   8   8   8   8   8
#     4  10  20  33  50  73 100 130 168 204 245 296
#     4  10  18  32  50  74 105 130 160 202 251 305
#     4   9  17  27  43  69  98 125 149 185 244 303
#     4  10  21  34  50  70  98 138 174 207 247 294
#     4  10  17  27  44  67  94 122 152 190 238 291
#     4  10  18  28  45  70  98 124 152 194 248 299
#     4  11  20  32  50  75 102 131 167 208 252 301
#     4  10  20  33  51  73 100 130 163 207 252 292
#
# _framework density 17.005814000000001
#
# number of rings (size 3 to 8) (size 9 to 14) (size 15 to 20)
#    0.000    2.000    1.250    4.125    0.000    3.000 
#    0.000    0.000    0.000    0.750    0.000    0.875 
#    0.000    0.000    0.000    0.000    0.000    0.000 
#
# Total GULP energy -793021.354389 kJ/mol
# GULP energy per Si atom -12390.958662 kJ/mol
# Density = 1.696711 g / cm^3
# Si number density = 17.005814 Si / 1000 Ang^3
#
#
#
# Elastic Constant Matrix: (Units=GPa)
#
#
# Indices 1 2 3 4 5 6 
#
# 1 95.7388 24.5391 26.1241 0.0000 0.0000 0.0000
# 2 24.5391 70.1811 45.5035 0.0000 0.0000 0.0000
# 3 26.1241 45.5035 92.9508 0.0000 0.0000 0.0000
# 4 0.0000 0.0000 0.0000 25.4399 0.0000 0.0000
# 5 0.0000 0.0000 0.0000 0.0000 19.3481 0.0000
# 6 0.0000 0.0000 0.0000 0.0000 0.0000 19.7668
#
#
#
# Elastic Compliance Matrix: (Units=1/GPa)
#
#
# Indices 1 2 3 4 5 6 
#
# 1 0.011694 -0.002868 -0.001882 0.000000 0.000000 0.000000
# 2 -0.002868 0.021578 -0.009757 0.000000 0.000000 0.000000
# 3 -0.001882 -0.009757 0.016064 0.000000 0.000000 0.000000
# 4 0.000000 0.000000 0.000000 0.039308 0.000000 0.000000
# 5 0.000000 0.000000 0.000000 0.000000 0.051685 0.000000
# 6 0.000000 0.000000 0.000000 0.000000 0.000000 0.050590
#
#
# Mechanical properties :
#
#
# Convention : Reuss Voigt Hill
#
# Bulk Modulus (GPa) = 49.21253 50.13380 49.67317
# Shear Modulus (GPa) = 22.05478 23.75791 22.90635
#
# Velocity S-wave (km/s) = 3.60515 3.74176 3.67409
# Velocity P-wave (km/s) = 6.80669 6.94349 6.87543
#
# Compressibility (1/GPa) = 0.02032003
#
# Stress axis : x y z
#
# Youngs Moduli (GPa) = 85.51448 46.34324 62.25071
#
# Poissons Ratio (x) = 0.13293 0.11718
# Poissons Ratio (y) = 0.24528 0.60740
# Poissons Ratio (z) = 0.16098 0.45218
#
# Static dielectric constant tensor:
#      x y z
#    x 3.486890 0.000000 0.000000 
#    y 0.000000 2.846420 0.000000 
#    z 0.000000 0.000000 3.122260 
# 
# 
# High freq. dielectric constant tensor:
#      x y z
#    x 1.686270 0.000000 0.000000 
#    y 0.000000 1.603680 0.000000 
#    z 0.000000 0.000000 1.651780 
# 
# From -- ./inp_files/29485.got.cif
#   From: 2010.03.12/outbox.cif.g09.slc.cpg/sg62_15_cif.got.tgz:29485.got - 2010.04.10 19:12:36.
