data_PCOD8250050
_publ_section_title
;
Structure prediction by ZEFSAII (Michael W. Deem and Ramdas Pophale) SiO2 
 PCOD8250050
Probable space group: P N M A
;
_chemical_formula_sum "Si O2"
_cell_formula_units_Z 56
_cell_length_a 9.486560
_cell_length_b 13.306504
_cell_length_c 27.866444
_cell_angle_alpha 90.000000
_cell_angle_beta 90.000000
_cell_angle_gamma 90.000000
_cell_volume 3517.663393
_symmetry_space_group_name_H-M "P N M A"
_symmetry_group_IT_number 62
_symmetry_cell_setting 'orthorhombic'
loop_
_space_group_symop_operation_xyz
x,y,z
1/2-x,-y,1/2+z
1/2+x,1/2-y,1/2-z
-x,1/2+y,-z
-x,-y,-z
1/2+x,y,1/2-z
1/2-x,1/2+y,1/2+z
x,1/2-y,z
loop_
_atom_site_type_symbol
_atom_site_label
_atom_site_fract_x
_atom_site_fract_y
_atom_site_fract_z
Si Si1 0.329928 0.363811 0.952258
Si Si2 0.352316 0.869958 0.801451
Si Si3 0.804993 0.559927 0.597833
Si Si4 0.959217 0.368401 0.216169
Si Si5 0.010224 0.132780 0.110962
Si Si6 0.355034 0.971639 0.525349
Si Si7 0.365939 0.864876 0.003517
O O1 0.311166 0.250000 0.934024
O O2 0.296414 0.439008 0.908158
O O3 0.221013 0.383911 0.995388
O O4 0.487092 0.385145 0.970527
O O5 0.354886 0.750000 0.804565
O O6 0.390528 0.913954 0.853792
O O7 0.199100 0.910697 0.785666
O O8 0.460908 0.913995 0.762249
O O9 0.650780 0.608296 0.598492
O O10 0.886307 0.606057 0.552265
O O11 0.953109 0.250000 0.222420
O O12 0.040240 0.394925 0.166653
O O13 0.036082 0.250000 0.101076
O O14 0.116856 0.068124 0.078911
O O15 0.500000 0.000000 0.500000
O O16 0.255546 0.069141 0.528454
O O17 0.318595 0.750000 0.008457
#
# Coordination Sequence:
#
# PCOD8250050 Si02
#       7
#     8   8   8   8   8   8   8
#     4  10  21  35  47  67 100 129 161 202 237 274
#     4   9  16  29  47  68  94 120 152 188 231 285
#     4  10  17  30  50  70  90 128 163 187 231 288
#     4   8  16  29  44  64  93 122 147 184 231 280
#     4  10  18  30  47  70 101 127 152 193 239 281
#     4  11  19  30  49  73  95 123 163 197 229 288
#     4  10  20  34  48  67  99 132 160 197 237 277
#
# _framework density 15.919657000000001
#
# number of rings (size 3 to 8) (size 9 to 14) (size 15 to 20)
#    0.000    2.286    2.857    4.286    0.000    0.571 
#    5.143    0.000    0.000    0.000    0.000    5.000 
#    0.000    0.000    0.000    0.000    0.000    0.000 
#
# Total GULP energy -694221.992385 kJ/mol
# GULP energy per Si atom -12396.821293 kJ/mol
# Density = 1.588342 g / cm^3
# Si number density = 15.919657 Si / 1000 Ang^3
#
#
#
# Elastic Constant Matrix: (Units=GPa)
#
#
# Indices 1 2 3 4 5 6 
#
# 1 43.7895 19.9053 9.5976 0.0000 0.0000 0.0000
# 2 19.9053 66.0590 30.9671 0.0000 0.0000 0.0000
# 3 9.5976 30.9671 81.6653 0.0000 0.0000 0.0000
# 4 0.0000 0.0000 0.0000 23.7667 0.0000 0.0000
# 5 0.0000 0.0000 0.0000 0.0000 23.7335 0.0000
# 6 0.0000 0.0000 0.0000 0.0000 0.0000 23.8668
#
#
#
# Elastic Compliance Matrix: (Units=1/GPa)
#
#
# Indices 1 2 3 4 5 6 
#
# 1 0.026462 -0.007924 -0.000105 0.000000 0.000000 0.000000
# 2 -0.007924 0.020784 -0.006950 0.000000 0.000000 0.000000
# 3 -0.000105 -0.006950 0.014893 0.000000 0.000000 0.000000
# 4 0.000000 0.000000 0.000000 0.042076 0.000000 0.000000
# 5 0.000000 0.000000 0.000000 0.000000 0.042135 0.000000
# 6 0.000000 0.000000 0.000000 0.000000 0.000000 0.041899
#
#
# Mechanical properties :
#
#
# Convention : Reuss Voigt Hill
#
# Bulk Modulus (GPa) = 31.07532 34.71708 32.89620
# Shear Modulus (GPa) = 21.84048 23.00964 22.42506
#
# Velocity S-wave (km/s) = 3.70796 3.80591 3.75726
# Velocity P-wave (km/s) = 6.15585 6.41626 6.28740
#
# Compressibility (1/GPa) = 0.03217988
#
# Stress axis : x y z
#
# Youngs Moduli (GPa) = 37.79050 48.11455 67.14670
#
# Poissons Ratio (x) = 0.38128 0.00705
# Poissons Ratio (y) = 0.29947 0.46666
# Poissons Ratio (z) = 0.00397 0.33439
#
# Static dielectric constant tensor:
#      x y z
#    x 3.150170 0.000000 0.000000 
#    y 0.000000 2.966550 0.000000 
#    z 0.000000 0.000000 3.241540 
# 
# 
# High freq. dielectric constant tensor:
#      x y z
#    x 1.611410 0.000000 0.000000 
#    y 0.000000 1.589250 0.000000 
#    z 0.000000 0.000000 1.604040 
# 
# From -- ./inp_files/32300.got.cif
#   From: 2010.03.12/outbox.cif.g09.slc.cpg/sg62_17_cif.got.tgz:32300.got - 2010.04.10 19:12:36.
