data_PCOD8250522
_publ_section_title
;
Structure prediction by ZEFSAII (Michael W. Deem and Ramdas Pophale) SiO2 
 PCOD8250522
Probable space group: P N M A
;
_chemical_formula_sum "Si O2"
_cell_formula_units_Z 64
_cell_length_a 22.937070
_cell_length_b 9.324806
_cell_length_c 18.855484
_cell_angle_alpha 90.000000
_cell_angle_beta 90.000000
_cell_angle_gamma 90.000000
_cell_volume 4032.881210
_symmetry_space_group_name_H-M "P N M A"
_symmetry_group_IT_number 62
_symmetry_cell_setting 'orthorhombic'
loop_
_space_group_symop_operation_xyz
x,y,z
1/2-x,-y,1/2+z
1/2+x,1/2-y,1/2-z
-x,1/2+y,-z
-x,-y,-z
1/2+x,y,1/2-z
1/2-x,1/2+y,1/2+z
x,1/2-y,z
loop_
_atom_site_type_symbol
_atom_site_label
_atom_site_fract_x
_atom_site_fract_y
_atom_site_fract_z
Si Si1 0.653804 0.081802 0.743691
Si Si2 0.567338 0.914944 0.651978
Si Si3 0.762609 0.584262 0.004725
Si Si4 0.730366 0.915574 0.160043
Si Si5 0.381787 0.419649 0.499985
Si Si6 0.433931 0.583622 0.627504
Si Si7 0.714874 0.586871 0.856941
Si Si8 0.669110 0.085108 0.272719
O O1 0.644153 0.250000 0.751323
O O2 0.706622 0.041181 0.691092
O O3 0.595447 0.012043 0.712939
O O4 0.667344 0.017123 0.821374
O O5 0.582938 0.750000 0.667307
O O6 0.591791 0.961638 0.575787
O O7 0.498668 0.942298 0.655478
O O8 0.784066 0.750000 0.006340
O O9 0.729592 0.543754 0.077234
O O10 0.817540 0.483111 0.992759
O O11 0.716535 0.559564 0.941329
O O12 0.717894 0.750000 0.173164
O O13 0.678876 0.999975 0.199584
O O14 0.379347 0.250000 0.511624
O O15 0.424086 0.488085 0.558277
O O16 0.422964 0.750000 0.607458
O O17 0.390529 0.534648 0.690238
O O18 0.697182 0.750000 0.839370
O O19 0.779192 0.552447 0.827707
O O20 0.666183 0.250000 0.251304
#
# Coordination Sequence:
#
# PCOD8250522 Si02
#       8
#     8   8   8   8   8   8   8   8
#     4  10  19  31  48  69  95 124 155 196 241 279
#     4  10  21  34  48  67  94 129 168 200 230 275
#     4  10  18  32  50  69  94 130 160 186 232 287
#     4   9  18  30  47  69  94 122 153 192 237 283
#     4  11  21  30  44  70  98 126 161 201 233 266
#     4  10  20  35  50  65  92 132 169 197 230 278
#     4   9  17  30  49  68  91 122 158 192 228 280
#     4   9  17  30  48  67  89 122 158 193 232 274
#
# _framework density 15.869547000000001
#
# number of rings (size 3 to 8) (size 9 to 14) (size 15 to 20)
#    0.000    2.250    2.500    1.125    0.000    3.000 
#    0.000    0.000    0.000    0.000    0.000    0.875 
#    0.000    0.000    0.000    0.000    0.000    0.000 
#
# Total GULP energy -793753.990268 kJ/mol
# GULP energy per Si atom -12402.406098 kJ/mol
# Density = 1.583343 g / cm^3
# Si number density = 15.869547 Si / 1000 Ang^3
#
#
#
# Elastic Constant Matrix: (Units=GPa)
#
#
# Indices 1 2 3 4 5 6 
#
# 1 59.2809 29.3580 30.9021 0.0000 0.0000 0.0000
# 2 29.3580 55.5664 32.5379 0.0000 0.0000 0.0000
# 3 30.9021 32.5379 90.0543 0.0000 0.0000 0.0000
# 4 0.0000 0.0000 0.0000 27.2668 0.0000 0.0000
# 5 0.0000 0.0000 0.0000 0.0000 20.5421 0.0000
# 6 0.0000 0.0000 0.0000 0.0000 0.0000 21.6719
#
#
#
# Elastic Compliance Matrix: (Units=1/GPa)
#
#
# Indices 1 2 3 4 5 6 
#
# 1 0.024318 -0.010098 -0.004696 0.000000 0.000000 0.000000
# 2 -0.010098 0.027019 -0.006297 0.000000 0.000000 0.000000
# 3 -0.004696 -0.006297 0.014991 0.000000 0.000000 0.000000
# 4 0.000000 0.000000 0.000000 0.036675 0.000000 0.000000
# 5 0.000000 0.000000 0.000000 0.000000 0.048681 0.000000
# 6 0.000000 0.000000 0.000000 0.000000 0.000000 0.046143
#
#
# Mechanical properties :
#
#
# Convention : Reuss Voigt Hill
#
# Bulk Modulus (GPa) = 41.41610 43.38864 42.40237
# Shear Modulus (GPa) = 20.15662 21.36973 20.76318
#
# Velocity S-wave (km/s) = 3.56778 3.67357 3.62106
# Velocity P-wave (km/s) = 6.56708 6.73748 6.65283
#
# Compressibility (1/GPa) = 0.02414520
#
# Stress axis : x y z
#
# Youngs Moduli (GPa) = 41.12217 37.01062 66.70615
#
# Poissons Ratio (x) = 0.37374 0.31325
# Poissons Ratio (y) = 0.41526 0.42006
# Poissons Ratio (z) = 0.19311 0.23306
#
# Static dielectric constant tensor:
#      x y z
#    x 2.806610 0.000000 0.000000 
#    y 0.000000 3.038680 0.000000 
#    z 0.000000 0.000000 3.080610 
# 
# 
# High freq. dielectric constant tensor:
#      x y z
#    x 1.580330 0.000000 0.000000 
#    y 0.000000 1.614010 0.000000 
#    z 0.000000 0.000000 1.604880 
# 
# From -- ./inp_files/24758.got.cif
#   From: 2010.03.12/outbox.cif.g09.slc.cpg/sg62_13_cif.got.tgz:24758.got - 2010.04.10 19:12:36.
