data_PCOD8250300
_publ_section_title
;
Structure prediction by ZEFSAII (Michael W. Deem and Ramdas Pophale) SiO2 
 PCOD8250300
Probable space group: P N M A
;
_chemical_formula_sum "Si O2"
_cell_formula_units_Z 64
_cell_length_a 27.759875
_cell_length_b 9.022340
_cell_length_c 14.653146
_cell_angle_alpha 90.000000
_cell_angle_beta 90.000000
_cell_angle_gamma 90.000000
_cell_volume 3670.012743
_symmetry_space_group_name_H-M "P N M A"
_symmetry_group_IT_number 62
_symmetry_cell_setting 'orthorhombic'
loop_
_space_group_symop_operation_xyz
x,y,z
1/2-x,-y,1/2+z
1/2+x,1/2-y,1/2-z
-x,1/2+y,-z
-x,-y,-z
1/2+x,y,1/2-z
1/2-x,1/2+y,1/2+z
x,1/2-y,z
loop_
_atom_site_type_symbol
_atom_site_label
_atom_site_fract_x
_atom_site_fract_y
_atom_site_fract_z
Si Si1 0.280621 0.924935 0.596349
Si Si2 0.633277 0.426265 0.280613
Si Si3 0.861080 0.424076 0.217463
Si Si4 0.549420 0.576901 0.601402
Si Si5 0.168322 0.577369 0.392286
Si Si6 0.174365 0.574841 0.593643
Si Si7 0.719568 0.420598 0.609156
Si Si8 0.550156 0.922358 0.391431
O O1 0.279678 0.750000 0.608690
O O2 0.320393 0.991411 0.664937
O O3 0.227467 0.991593 0.616934
O O4 0.295181 0.966878 0.493273
O O5 0.631076 0.250000 0.282274
O O6 0.636011 0.482723 0.176848
O O7 0.585495 0.487821 0.326775
O O8 0.859846 0.250000 0.204414
O O9 0.907768 0.486412 0.165333
O O10 0.862675 0.467692 0.325277
O O11 0.811304 0.483121 0.177999
O O12 0.538556 0.750000 0.619057
O O13 0.503206 0.481605 0.627835
O O14 0.564507 0.549726 0.496662
O O15 0.155815 0.750000 0.380071
O O16 0.155445 0.519792 0.494943
O O17 0.224437 0.546891 0.373210
O O18 0.181322 0.750000 0.584430
O O19 0.707384 0.250000 0.626572
O O20 0.552334 0.750000 0.366302
#
# Coordination Sequence:
#
# PCOD8250300 Si02
#       8
#     8   8   8   8   8   8   8   8
#     4   8  15  27  43  66  96 128 158 185 223 278
#     4  11  20  30  49  73  96 124 160 201 239 278
#     4  10  18  29  49  73  95 121 156 197 237 278
#     4   9  19  34  51  74 100 123 152 193 238 283
#     4   9  18  32  47  65  94 130 164 194 226 271
#     4   8  15  29  47  66  92 127 160 189 227 275
#     4   9  17  29  45  67  97 130 160 190 225 272
#     4  10  20  34  51  71  98 128 154 186 235 293
#
# _framework density 17.438631999999998
#
# number of rings (size 3 to 8) (size 9 to 14) (size 15 to 20)
#    0.000    2.750    0.000    3.750    0.000    2.500 
#    0.000    1.250    0.000    3.000    0.000    0.000 
#    0.000    0.000    0.000    0.000    0.000    0.000 
#
# Total GULP energy -793393.441180 kJ/mol
# GULP energy per Si atom -12396.772518 kJ/mol
# Density = 1.739894 g / cm^3
# Si number density = 17.438632 Si / 1000 Ang^3
#
#
#
# Elastic Constant Matrix: (Units=GPa)
#
#
# Indices 1 2 3 4 5 6 
#
# 1 82.0205 36.0904 70.2838 0.0000 0.0000 0.0000
# 2 36.0904 45.9920 40.3696 0.0000 0.0000 0.0000
# 3 70.2838 40.3696 129.3819 0.0000 0.0000 0.0000
# 4 0.0000 0.0000 0.0000 20.8513 0.0000 0.0000
# 5 0.0000 0.0000 0.0000 0.0000 27.8713 0.0000
# 6 0.0000 0.0000 0.0000 0.0000 0.0000 24.4358
#
#
#
# Elastic Compliance Matrix: (Units=1/GPa)
#
#
# Indices 1 2 3 4 5 6 
#
# 1 0.026430 -0.011207 -0.010861 0.000000 0.000000 0.000000
# 2 -0.011207 0.034696 -0.004738 0.000000 0.000000 0.000000
# 3 -0.010861 -0.004738 0.015107 0.000000 0.000000 0.000000
# 4 0.000000 0.000000 0.000000 0.047959 0.000000 0.000000
# 5 0.000000 0.000000 0.000000 0.000000 0.035879 0.000000
# 6 0.000000 0.000000 0.000000 0.000000 0.000000 0.040924
#
#
# Mechanical properties :
#
#
# Convention : Reuss Voigt Hill
#
# Bulk Modulus (GPa) = 44.20470 61.20910 52.70690
# Shear Modulus (GPa) = 19.07338 22.00838 20.54088
#
# Velocity S-wave (km/s) = 3.31077 3.55638 3.43577
# Velocity P-wave (km/s) = 6.32603 7.21386 6.78448
#
# Compressibility (1/GPa) = 0.02262203
#
# Stress axis : x y z
#
# Youngs Moduli (GPa) = 37.83608 28.82200 66.19367
#
# Poissons Ratio (x) = 0.32300 0.71891
# Poissons Ratio (y) = 0.42402 0.31362
# Poissons Ratio (z) = 0.41092 0.13656
#
# Static dielectric constant tensor:
#      x y z
#    x 3.187810 0.000000 0.000000 
#    y 0.000000 2.973350 0.000000 
#    z 0.000000 0.000000 3.456230 
# 
# 
# High freq. dielectric constant tensor:
#      x y z
#    x 1.653960 0.000000 0.000000 
#    y 0.000000 1.650800 0.000000 
#    z 0.000000 0.000000 1.678890 
# 
# From -- ./inp_files/20946.got.cif
#   From: 2010.03.12/outbox.cif.g09.slc.cpg/sg62_11_cif.got.tgz:20946.got - 2010.04.10 19:12:36.
