data_PCOD8250691
_publ_section_title
;
Structure prediction by ZEFSAII (Michael W. Deem and Ramdas Pophale) SiO2 
 PCOD8250691
Probable space group: P N M A
;
_chemical_formula_sum "Si O2"
_cell_formula_units_Z 48
_cell_length_a 17.368452
_cell_length_b 16.129360
_cell_length_c 8.954630
_cell_angle_alpha 90.000000
_cell_angle_beta 90.000000
_cell_angle_gamma 90.000000
_cell_volume 2508.568091
_symmetry_space_group_name_H-M "P N M A"
_symmetry_group_IT_number 62
_symmetry_cell_setting 'orthorhombic'
loop_
_space_group_symop_operation_xyz
x,y,z
1/2-x,-y,1/2+z
1/2+x,1/2-y,1/2-z
-x,1/2+y,-z
-x,-y,-z
1/2+x,y,1/2-z
1/2-x,1/2+y,1/2+z
x,1/2-y,z
loop_
_atom_site_type_symbol
_atom_site_label
_atom_site_fract_x
_atom_site_fract_y
_atom_site_fract_z
Si Si1 0.911789 0.431782 0.183022
Si Si2 0.847885 0.994009 0.460445
Si Si3 0.684262 0.438455 0.514838
Si Si4 0.377451 0.157027 0.596302
Si Si5 0.580647 0.013299 0.271698
Si Si6 0.295679 0.658040 0.209115
O O1 0.873181 0.431789 0.347788
O O2 0.883577 0.512435 0.095919
O O3 0.885495 0.352037 0.084621
O O4 0.003518 0.436369 0.195332
O O5 0.907549 0.989487 0.594978
O O6 0.851056 0.906075 0.375244
O O7 0.762731 0.010057 0.520090
O O8 0.651322 0.432692 0.345651
O O9 0.699239 0.354849 0.609992
O O10 0.406491 0.250000 0.639951
O O11 0.290684 0.144706 0.651668
O O12 0.426116 0.082648 0.672088
O O13 0.325019 0.750000 0.172951
#
# Coordination Sequence:
#
# PCOD8250691 Si02
#       6
#     8   8   8   8   8   8
#     4  10  21  35  55  84 112 148 188 227 282 344
#     4  11  19  36  59  83 112 146 190 230 279 339
#     4  10  18  35  57  79 106 145 192 224 270 336
#     4  10  19  35  56  81 111 145 189 235 282 328
#     4  11  20  36  59  84 111 150 191 230 280 345
#     4  10  20  35  56  85 111 142 188 244 285 319
#
# _framework density 19.134422000000001
#
# number of rings (size 3 to 8) (size 9 to 14) (size 15 to 20)
#    0.000    1.667    5.000    3.500    0.000    0.000 
#    0.000   10.833    0.000    0.000    0.000    0.000 
#    0.000    0.000    0.000    0.000    0.000    0.000 
#
# Total GULP energy -594731.238456 kJ/mol
# GULP energy per Si atom -12390.234134 kJ/mol
# Density = 1.909087 g / cm^3
# Si number density = 19.134422 Si / 1000 Ang^3
#
#
#
# Elastic Constant Matrix: (Units=GPa)
#
#
# Indices 1 2 3 4 5 6 
#
# 1 69.7200 20.8874 18.0633 0.0000 0.0000 0.0000
# 2 20.8874 79.9402 32.7878 0.0000 0.0000 0.0000
# 3 18.0633 32.7878 104.5175 0.0000 0.0000 0.0000
# 4 0.0000 0.0000 0.0000 23.4211 0.0000 0.0000
# 5 0.0000 0.0000 0.0000 0.0000 25.4898 0.0000
# 6 0.0000 0.0000 0.0000 0.0000 0.0000 1.1177
#
#
#
# Elastic Compliance Matrix: (Units=1/GPa)
#
#
# Indices 1 2 3 4 5 6 
#
# 1 0.015805 -0.003454 -0.001648 0.000000 0.000000 0.000000
# 2 -0.003454 0.015111 -0.004144 0.000000 0.000000 0.000000
# 3 -0.001648 -0.004144 0.011152 0.000000 0.000000 0.000000
# 4 0.000000 0.000000 0.000000 0.042697 0.000000 0.000000
# 5 0.000000 0.000000 0.000000 0.000000 0.039231 0.000000
# 6 0.000000 0.000000 0.000000 0.000000 0.000000 0.894677
#
#
# Mechanical properties :
#
#
# Convention : Reuss Voigt Hill
#
# Bulk Modulus (GPa) = 42.41259 44.18384 43.29821
# Shear Modulus (GPa) = 4.78458 22.16833 13.47646
#
# Velocity S-wave (km/s) = 1.58302 3.40745 2.65675
# Velocity P-wave (km/s) = 5.05519 6.21469 5.66469
#
# Compressibility (1/GPa) = 0.02357791
#
# Stress axis : x y z
#
# Youngs Moduli (GPa) = 63.27214 66.17579 89.66618
#
# Poissons Ratio (x) = 0.22855 0.14777
# Poissons Ratio (y) = 0.21852 0.37154
# Poissons Ratio (z) = 0.10427 0.27421
#
# Static dielectric constant tensor:
#      x y z
#    x 3.316500 0.000000 0.000000 
#    y 0.000000 3.432910 0.000000 
#    z 0.000000 0.000000 3.999460 
# 
# 
# High freq. dielectric constant tensor:
#      x y z
#    x 1.737480 0.000000 0.000000 
#    y 0.000000 1.705900 0.000000 
#    z 0.000000 0.000000 1.755900 
# 
# From -- ./inp_files/7625.got.cif
#   From: 2010.03.12/outbox.cif.g09.slc.cpg/sg62_4_cif.got.tgz:7625.got - 2010.04.10 19:12:36.
