data_PCOD8250083
_publ_section_title
;
Structure prediction by ZEFSAII (Michael W. Deem and Ramdas Pophale) SiO2 
 PCOD8250083
Probable space group: P N M A
;
_chemical_formula_sum "Si O2"
_cell_formula_units_Z 64
_cell_length_a 22.056211
_cell_length_b 17.442048
_cell_length_c 9.508845
_cell_angle_alpha 90.000000
_cell_angle_beta 90.000000
_cell_angle_gamma 90.000000
_cell_volume 3658.104884
_symmetry_space_group_name_H-M "P N M A"
_symmetry_group_IT_number 62
_symmetry_cell_setting 'orthorhombic'
loop_
_space_group_symop_operation_xyz
x,y,z
1/2-x,-y,1/2+z
1/2+x,1/2-y,1/2-z
-x,1/2+y,-z
-x,-y,-z
1/2+x,y,1/2-z
1/2-x,1/2+y,1/2+z
x,1/2-y,z
loop_
_atom_site_type_symbol
_atom_site_label
_atom_site_fract_x
_atom_site_fract_y
_atom_site_fract_z
Si Si1 0.790608 0.054118 0.483273
Si Si2 0.527897 0.159166 0.056316
Si Si3 0.113453 0.338912 0.199337
Si Si4 0.292619 0.885119 0.923036
Si Si5 0.892002 0.340185 0.417314
Si Si6 0.374217 0.837230 0.159980
Si Si7 0.844790 0.573686 0.061669
Si Si8 0.328469 0.418633 0.314610
O O1 0.843397 0.116815 0.518033
O O2 0.726118 0.088626 0.530115
O O3 0.791847 0.039020 0.314176
O O4 0.805521 0.976218 0.565305
O O5 0.530774 0.250000 0.049108
O O6 0.556416 0.134258 0.205871
O O7 0.459104 0.129674 0.043718
O O8 0.568763 0.127250 0.927753
O O9 0.108488 0.250000 0.152715
O O10 0.174700 0.349792 0.287840
O O11 0.114261 0.393708 0.063985
O O12 0.220620 0.870521 0.904755
O O13 0.314364 0.841913 0.062987
O O14 0.885669 0.250000 0.439419
O O15 0.878854 0.362041 0.252829
O O16 0.386291 0.750000 0.202986
O O17 0.365856 0.884743 0.298904
O O18 0.857744 0.483046 0.083948
#
# Coordination Sequence:
#
# PCOD8250083 Si02
#       8
#     8   8   8   8   8   8   8   8
#     4   9  19  31  50  74 100 134 164 200 258 302
#     4   8  17  33  52  73  98 131 168 210 258 295
#     4  10  19  31  52  76  97 132 172 208 247 295
#     4  10  17  33  48  71 103 133 162 204 247 308
#     4   9  17  34  54  75  98 130 179 214 238 302
#     4  10  19  30  49  75 103 130 163 211 259 294
#     4  11  19  33  49  76 109 130 164 208 257 307
#     4   9  19  31  49  73 101 133 166 200 258 298
#
# _framework density 17.495397000000001
#
# number of rings (size 3 to 8) (size 9 to 14) (size 15 to 20)
#    0.750    1.750    2.500    1.500    0.000    3.000 
#    0.000    6.250    0.000    1.500    0.000    3.500 
#    0.000    0.000    0.000    0.000    0.000    0.000 
#
# Total GULP energy -793126.029212 kJ/mol
# GULP energy per Si atom -12392.594206 kJ/mol
# Density = 1.745558 g / cm^3
# Si number density = 17.495397 Si / 1000 Ang^3
#
#
#
# Elastic Constant Matrix: (Units=GPa)
#
#
# Indices 1 2 3 4 5 6 
#
# 1 84.4880 24.2207 20.7141 0.0000 0.0000 0.0000
# 2 24.2207 42.9360 4.4645 0.0000 0.0000 0.0000
# 3 20.7141 4.4645 70.0238 0.0000 0.0000 0.0000
# 4 0.0000 0.0000 0.0000 33.0587 0.0000 0.0000
# 5 0.0000 0.0000 0.0000 0.0000 18.7202 0.0000
# 6 0.0000 0.0000 0.0000 0.0000 0.0000 18.0527
#
#
#
# Elastic Compliance Matrix: (Units=1/GPa)
#
#
# Indices 1 2 3 4 5 6 
#
# 1 0.015137 -0.008127 -0.003959 0.000000 0.000000 0.000000
# 2 -0.008127 0.027809 0.000631 0.000000 0.000000 0.000000
# 3 -0.003959 0.000631 0.015412 0.000000 0.000000 0.000000
# 4 0.000000 0.000000 0.000000 0.030249 0.000000 0.000000
# 5 0.000000 0.000000 0.000000 0.000000 0.053418 0.000000
# 6 0.000000 0.000000 0.000000 0.000000 0.000000 0.055393
#
#
# Mechanical properties :
#
#
# Convention : Reuss Voigt Hill
#
# Bulk Modulus (GPa) = 28.21111 32.91626 30.56368
# Shear Modulus (GPa) = 21.53825 23.83622 22.68724
#
# Velocity S-wave (km/s) = 3.51248 3.69511 3.60495
# Velocity P-wave (km/s) = 5.71051 6.08771 5.90212
#
# Compressibility (1/GPa) = 0.03544703
#
# Stress axis : x y z
#
# Youngs Moduli (GPa) = 66.06516 35.95902 64.88497
#
# Poissons Ratio (x) = 0.29224 0.25691
# Poissons Ratio (y) = 0.53691 -0.04095
# Poissons Ratio (z) = 0.26158 -0.02269
#
# Static dielectric constant tensor:
#      x y z
#    x 3.278720 0.000000 0.000000 
#    y 0.000000 3.127820 0.000000 
#    z 0.000000 0.000000 3.207850 
# 
# 
# High freq. dielectric constant tensor:
#      x y z
#    x 1.660530 0.000000 0.000000 
#    y 0.000000 1.665790 0.000000 
#    z 0.000000 0.000000 1.662440 
# 
# From -- ./inp_files/9586.got.cif
#   From: 2010.03.12/outbox.cif.g09.slc.cpg/sg62_5_cif.got.tgz:9586.got - 2010.04.10 19:12:36.
