data_PCOD8250314
_publ_section_title
;
Structure prediction by ZEFSAII (Michael W. Deem and Ramdas Pophale) SiO2 
 PCOD8250314
Probable space group: P N M A
;
_chemical_formula_sum "Si O2"
_cell_formula_units_Z 64
_cell_length_a 18.710546
_cell_length_b 8.493156
_cell_length_c 21.117208
_cell_angle_alpha 90.000000
_cell_angle_beta 90.000000
_cell_angle_gamma 90.000000
_cell_volume 3355.769016
_symmetry_space_group_name_H-M "P N M A"
_symmetry_group_IT_number 62
_symmetry_cell_setting 'orthorhombic'
loop_
_space_group_symop_operation_xyz
x,y,z
1/2-x,-y,1/2+z
1/2+x,1/2-y,1/2-z
-x,1/2+y,-z
-x,-y,-z
1/2+x,y,1/2-z
1/2-x,1/2+y,1/2+z
x,1/2-y,z
loop_
_atom_site_type_symbol
_atom_site_label
_atom_site_fract_x
_atom_site_fract_y
_atom_site_fract_z
Si Si1 0.334877 0.932294 0.998909
Si Si2 0.918007 0.562236 0.245661
Si Si3 0.331632 0.436896 0.627788
Si Si4 0.669204 0.565376 0.628966
Si Si5 0.318589 0.933287 0.499430
Si Si6 0.920465 0.435297 0.753692
Si Si7 0.831838 0.562608 0.365833
Si Si8 0.666110 0.436340 0.137513
O O1 0.352562 0.750000 0.998183
O O2 0.363553 0.002970 0.066127
O O3 0.250075 0.954399 0.999635
O O4 0.363188 0.000209 0.931542
O O5 0.913010 0.750000 0.241915
O O6 0.880778 0.487836 0.185489
O O7 0.879021 0.495588 0.308607
O O8 0.999026 0.499534 0.247984
O O9 0.338033 0.250000 0.621154
O O10 0.361321 0.518935 0.563351
O O11 0.379503 0.503900 0.685227
O O12 0.250292 0.491261 0.642299
O O13 0.662589 0.750000 0.617954
O O14 0.640296 0.476502 0.565628
O O15 0.750782 0.515852 0.644997
O O16 0.298487 0.750000 0.500523
O O17 0.921939 0.250000 0.758779
O O18 0.880080 0.479642 0.690008
O O19 0.835187 0.750000 0.366391
O O20 0.656983 0.250000 0.143483
#
# Coordination Sequence:
#
# PCOD8250314 Si02
#       8
#     8   8   8   8   8   8   8   8
#     4   8  15  30  50  74 101 131 164 201 249 302
#     4  10  20  34  51  75 103 134 173 214 250 294
#     4   9  17  32  51  71  97 133 167 199 246 303
#     4  10  20  35  54  76 101 133 167 204 252 306
#     4  10  18  29  50  79 102 122 156 209 256 295
#     4  10  21  34  50  73 104 138 172 208 251 299
#     4   8  14  28  52  73  95 129 167 204 247 294
#     4   9  18  32  52  75 100 130 169 209 247 297
#
# _framework density 19.071636000000002
#
# number of rings (size 3 to 8) (size 9 to 14) (size 15 to 20)
#    0.000    2.750    0.000    3.750    0.000    4.500 
#    0.000    5.000    0.000    0.000    0.000    0.000 
#    0.000    0.000    0.000    0.000    0.000    0.000 
#
# Total GULP energy -792974.420006 kJ/mol
# GULP energy per Si atom -12390.225313 kJ/mol
# Density = 1.902823 g / cm^3
# Si number density = 19.071636 Si / 1000 Ang^3
#
#
#
# Elastic Constant Matrix: (Units=GPa)
#
#
# Indices 1 2 3 4 5 6 
#
# 1 91.9888 19.8305 80.0191 0.0000 0.0000 0.0000
# 2 19.8305 17.6459 21.8080 0.0000 0.0000 0.0000
# 3 80.0191 21.8080 214.5777 0.0000 0.0000 0.0000
# 4 0.0000 0.0000 0.0000 27.2651 0.0000 0.0000
# 5 0.0000 0.0000 0.0000 0.0000 0.3975 0.0000
# 6 0.0000 0.0000 0.0000 0.0000 0.0000 12.4326
#
#
#
# Elastic Compliance Matrix: (Units=1/GPa)
#
#
# Indices 1 2 3 4 5 6 
#
# 1 0.018769 -0.014230 -0.005553 0.000000 0.000000 0.000000
# 2 -0.014230 0.075599 -0.002377 0.000000 0.000000 0.000000
# 3 -0.005553 -0.002377 0.006973 0.000000 0.000000 0.000000
# 4 0.000000 0.000000 0.000000 0.036677 0.000000 0.000000
# 5 0.000000 0.000000 0.000000 0.000000 2.515924 0.000000
# 6 0.000000 0.000000 0.000000 0.000000 0.000000 0.080434
#
#
# Mechanical properties :
#
#
# Convention : Reuss Voigt Hill
#
# Bulk Modulus (GPa) = 17.53717 63.05861 40.29789
# Shear Modulus (GPa) = 1.78718 21.52268 11.65493
#
# Velocity S-wave (km/s) = 0.96908 3.36299 2.47475
# Velocity P-wave (km/s) = 3.23536 6.94373 5.41678
#
# Compressibility (1/GPa) = 0.05702174
#
# Stress axis : x y z
#
# Youngs Moduli (GPa) = 53.27959 13.22761 143.41715
#
# Poissons Ratio (x) = 0.18823 0.79639
# Poissons Ratio (y) = 0.75816 0.34088
# Poissons Ratio (z) = 0.29586 0.03144
#
# Static dielectric constant tensor:
#      x y z
#    x 3.411060 0.000000 0.000000 
#    y 0.000000 3.154710 0.000000 
#    z 0.000000 0.000000 4.257050 
# 
# 
# High freq. dielectric constant tensor:
#      x y z
#    x 1.696130 0.000000 0.000000 
#    y 0.000000 1.715920 0.000000 
#    z 0.000000 0.000000 1.774770 
# 
# From -- ./inp_files/27910.got.cif
#   From: 2010.03.12/outbox.cif.g09.slc.cpg/sg62_14_cif.got.tgz:27910.got - 2010.04.10 19:12:36.
