data_PCOD8250738
_publ_section_title
;
Structure prediction by ZEFSAII (Michael W. Deem and Ramdas Pophale) SiO2 
 PCOD8250738
Probable space group: P N M A
;
_chemical_formula_sum "Si O2"
_cell_formula_units_Z 48
_cell_length_a 9.784494
_cell_length_b 14.495066
_cell_length_c 17.029689
_cell_angle_alpha 90.000000
_cell_angle_beta 90.000000
_cell_angle_gamma 90.000000
_cell_volume 2415.267766
_symmetry_space_group_name_H-M "P N M A"
_symmetry_group_IT_number 62
_symmetry_cell_setting 'orthorhombic'
loop_
_space_group_symop_operation_xyz
x,y,z
1/2-x,-y,1/2+z
1/2+x,1/2-y,1/2-z
-x,1/2+y,-z
-x,-y,-z
1/2+x,y,1/2-z
1/2-x,1/2+y,1/2+z
x,1/2-y,z
loop_
_atom_site_type_symbol
_atom_site_label
_atom_site_fract_x
_atom_site_fract_y
_atom_site_fract_z
Si Si1 0.125656 0.969415 0.854367
Si Si2 0.623487 0.148900 0.096601
Si Si3 0.625681 0.947748 0.826915
Si Si4 0.229785 0.353644 0.927374
Si Si5 0.528797 0.414819 0.943824
Si Si6 0.127940 0.143294 0.101448
O O1 0.272273 0.927716 0.874575
O O2 0.089843 0.963669 0.763301
O O3 0.013354 0.912670 0.903104
O O4 0.132274 0.076606 0.879583
O O5 0.669911 0.250000 0.125393
O O6 0.478183 0.125604 0.135480
O O7 0.612356 0.154079 0.000887
O O8 0.776551 0.903876 0.832834
O O9 0.617872 0.047559 0.870491
O O10 0.190846 0.250000 0.900777
O O11 0.390019 0.370107 0.910592
O O12 0.205478 0.367064 0.019506
O O13 0.500000 0.500000 0.000000
O O14 0.098470 0.250000 0.122807
#
# Coordination Sequence:
#
# PCOD8250738 Si02
#       6
#     8   8   8   8   8   8
#     4  12  24  38  59  93 129 160 193 252 308 361
#     4  11  21  38  65  92 120 159 206 247 295 365
#     4  11  22  38  62  87 128 161 198 243 309 363
#     4  11  22  42  66  86 117 163 211 251 300 357
#     4  10  18  38  64  89 110 155 209 249 289 352
#     4  11  23  38  61  92 124 161 199 245 306 365
#
# _framework density 19.873571999999999
#
# number of rings (size 3 to 8) (size 9 to 14) (size 15 to 20)
#    0.000    1.000    6.667    3.000    0.000    4.000 
#    0.000    1.667    0.000    1.000    0.000    0.000 
#    0.000    0.000    0.000    0.000    0.000    0.000 
#
# Total GULP energy -595225.183025 kJ/mol
# GULP energy per Si atom -12400.524646 kJ/mol
# Density = 1.982834 g / cm^3
# Si number density = 19.873572 Si / 1000 Ang^3
#
#
#
# Elastic Constant Matrix: (Units=GPa)
#
#
# Indices 1 2 3 4 5 6 
#
# 1 78.6995 38.1056 16.9653 0.0000 0.0000 0.0000
# 2 38.1056 138.0249 43.0646 0.0000 0.0000 0.0000
# 3 16.9653 43.0646 73.1141 0.0000 0.0000 0.0000
# 4 0.0000 0.0000 0.0000 14.8075 0.0000 0.0000
# 5 0.0000 0.0000 0.0000 0.0000 16.2416 0.0000
# 6 0.0000 0.0000 0.0000 0.0000 0.0000 28.5742
#
#
#
# Elastic Compliance Matrix: (Units=1/GPa)
#
#
# Indices 1 2 3 4 5 6 
#
# 1 0.014761 -0.003683 -0.001256 0.000000 0.000000 0.000000
# 2 -0.003683 0.009795 -0.004915 0.000000 0.000000 0.000000
# 3 -0.001256 -0.004915 0.016863 0.000000 0.000000 0.000000
# 4 0.000000 0.000000 0.000000 0.067533 0.000000 0.000000
# 5 0.000000 0.000000 0.000000 0.000000 0.061570 0.000000
# 6 0.000000 0.000000 0.000000 0.000000 0.000000 0.034997
#
#
# Mechanical properties :
#
#
# Convention : Reuss Voigt Hill
#
# Bulk Modulus (GPa) = 46.05738 54.01216 50.03477
# Shear Modulus (GPa) = 21.50863 24.70485 23.10674
#
# Velocity S-wave (km/s) = 3.29336 3.52959 3.41352
# Velocity P-wave (km/s) = 6.13899 6.62175 6.38493
#
# Compressibility (1/GPa) = 0.02171204
#
# Stress axis : x y z
#
# Youngs Moduli (GPa) = 67.74756 102.08842 59.29978
#
# Poissons Ratio (x) = 0.37603 0.07445
# Poissons Ratio (y) = 0.24954 0.29145
# Poissons Ratio (z) = 0.08506 0.50175
#
# Static dielectric constant tensor:
#      x y z
#    x 3.490030 0.000000 0.000000 
#    y 0.000000 4.182250 0.000000 
#    z 0.000000 0.000000 3.743530 
# 
# 
# High freq. dielectric constant tensor:
#      x y z
#    x 1.768310 0.000000 0.000000 
#    y 0.000000 1.776710 0.000000 
#    z 0.000000 0.000000 1.760840 
# 
# From -- ./inp_files/22225.got.cif
#   From: 2010.03.12/outbox.cif.g09.slc.cpg/sg62_12_cif.got.tgz:22225.got - 2010.04.10 19:12:36.
