data_PCOD8250999
_publ_section_title
;
Structure prediction by ZEFSAII (Michael W. Deem and Ramdas Pophale) SiO2 
 PCOD8250999
Probable space group: P N M A
;
_chemical_formula_sum "Si O2"
_cell_formula_units_Z 64
_cell_length_a 14.432922
_cell_length_b 8.934115
_cell_length_c 24.933223
_cell_angle_alpha 90.000000
_cell_angle_beta 90.000000
_cell_angle_gamma 90.000000
_cell_volume 3215.024037
_symmetry_space_group_name_H-M "P N M A"
_symmetry_group_IT_number 62
_symmetry_cell_setting 'orthorhombic'
loop_
_space_group_symop_operation_xyz
x,y,z
1/2-x,-y,1/2+z
1/2+x,1/2-y,1/2-z
-x,1/2+y,-z
-x,-y,-z
1/2+x,y,1/2-z
1/2-x,1/2+y,1/2+z
x,1/2-y,z
loop_
_atom_site_type_symbol
_atom_site_label
_atom_site_fract_x
_atom_site_fract_y
_atom_site_fract_z
Si Si1 0.143867 0.077192 0.603151
Si Si2 0.271153 0.085017 0.507113
Si Si3 0.477358 0.927533 0.942740
Si Si4 0.964408 0.082964 0.948846
Si Si5 0.983617 0.071151 0.832153
Si Si6 0.212998 0.925578 0.409807
Si Si7 0.219013 0.571559 0.195962
Si Si8 0.316720 0.927674 0.302555
O O1 0.120460 0.250000 0.616217
O O2 0.180271 0.058202 0.542497
O O3 0.217221 0.014324 0.646758
O O4 0.050274 0.979822 0.603125
O O5 0.267738 0.250000 0.480275
O O6 0.353563 0.077646 0.549943
O O7 0.280922 0.961804 0.460070
O O8 0.479516 0.750000 0.949187
O O9 0.378673 0.978933 0.920045
O O10 0.500000 0.000000 0.000000
O O11 0.003918 0.250000 0.951770
O O12 0.995067 0.008740 0.892859
O O13 0.000000 0.000000 0.000000
O O14 0.977754 0.250000 0.834243
O O15 0.887006 0.009530 0.807291
O O16 0.075677 0.016220 0.800731
O O17 0.190216 0.750000 0.407810
O O18 0.263135 0.981749 0.355751
O O19 0.216888 0.750000 0.195797
O O20 0.263641 0.508164 0.250784
O O21 0.317391 0.750000 0.301688
#
# Coordination Sequence:
#
# PCOD8250999 Si02
#       8
#     8   8   8   8   8   8   8   8
#     4  10  19  34  57  84 111 145 190 238 285 340
#     4  10  19  32  52  77 108 147 188 231 287 350
#     4  12  24  38  57  83 115 154 193 236 291 349
#     4  10  19  31  49  76 108 146 184 226 280 338
#     4   9  16  30  50  74 109 146 179 222 274 326
#     4  11  22  36  55  84 117 150 189 239 291 347
#     4   9  17  32  55  82 114 151 188 234 284 331
#     4   9  19  32  51  83 117 148 188 234 284 335
#
# _framework density 19.90654
#
# number of rings (size 3 to 8) (size 9 to 14) (size 15 to 20)
#    0.000    2.000    2.500    2.250    0.000    2.500 
#    0.000    3.750    0.000    1.500    0.000    3.500 
#    0.000    0.000    0.000    0.000    0.000    0.000 
#
# Total GULP energy -793266.110664 kJ/mol
# GULP energy per Si atom -12394.782979 kJ/mol
# Density = 1.986123 g / cm^3
# Si number density = 19.906540 Si / 1000 Ang^3
#
#
#
# Elastic Constant Matrix: (Units=GPa)
#
#
# Indices 1 2 3 4 5 6 
#
# 1 130.6794 27.7301 69.0649 0.0000 0.0000 0.0000
# 2 27.7301 55.8042 27.1527 0.0000 0.0000 0.0000
# 3 69.0649 27.1527 127.3242 0.0000 0.0000 0.0000
# 4 0.0000 0.0000 0.0000 20.0381 0.0000 0.0000
# 5 0.0000 0.0000 0.0000 0.0000 34.8699 0.0000
# 6 0.0000 0.0000 0.0000 0.0000 0.0000 22.5613
#
#
#
# Elastic Compliance Matrix: (Units=1/GPa)
#
#
# Indices 1 2 3 4 5 6 
#
# 1 0.011131 -0.002894 -0.005421 0.000000 0.000000 0.000000
# 2 -0.002894 0.020747 -0.002855 0.000000 0.000000 0.000000
# 3 -0.005421 -0.002855 0.011403 0.000000 0.000000 0.000000
# 4 0.000000 0.000000 0.000000 0.049905 0.000000 0.000000
# 5 0.000000 0.000000 0.000000 0.000000 0.028678 0.000000
# 6 0.000000 0.000000 0.000000 0.000000 0.000000 0.044324
#
#
# Mechanical properties :
#
#
# Convention : Reuss Voigt Hill
#
# Bulk Modulus (GPa) = 47.74947 62.41148 55.08048
# Shear Modulus (GPa) = 25.57446 28.15120 26.86283
#
# Velocity S-wave (km/s) = 3.58820 3.76462 3.67747
# Velocity P-wave (km/s) = 6.41917 7.09344 6.76471
#
# Compressibility (1/GPa) = 0.02094264
#
# Stress axis : x y z
#
# Youngs Moduli (GPa) = 89.83636 48.20024 87.69431
#
# Poissons Ratio (x) = 0.13948 0.47538
# Poissons Ratio (y) = 0.25996 0.25035
# Poissons Ratio (z) = 0.48700 0.13760
#
# Static dielectric constant tensor:
#      x y z
#    x 4.233050 0.000000 0.000000 
#    y 0.000000 3.188010 0.000000 
#    z 0.000000 0.000000 3.729490 
# 
# 
# High freq. dielectric constant tensor:
#      x y z
#    x 1.796440 0.000000 0.000000 
#    y 0.000000 1.722240 0.000000 
#    z 0.000000 0.000000 1.771560 
# 
# From -- ./inp_files/29931.got.cif
#   From: 2010.03.12/outbox.cif.g09.slc.cpg/sg62_15_cif.got.tgz:29931.got - 2010.04.10 19:12:36.
