data_PCOD8250230
_publ_section_title
;
Structure prediction by ZEFSAII (Michael W. Deem and Ramdas Pophale) SiO2 
 PCOD8250230
Probable space group: P N M A
;
_chemical_formula_sum "Si O2"
_cell_formula_units_Z 64
_cell_length_a 12.257954
_cell_length_b 12.815585
_cell_length_c 22.279774
_cell_angle_alpha 90.000000
_cell_angle_beta 90.000000
_cell_angle_gamma 90.000000
_cell_volume 3499.993226
_symmetry_space_group_name_H-M "P N M A"
_symmetry_group_IT_number 62
_symmetry_cell_setting 'orthorhombic'
loop_
_space_group_symop_operation_xyz
x,y,z
1/2-x,-y,1/2+z
1/2+x,1/2-y,1/2-z
-x,1/2+y,-z
-x,-y,-z
1/2+x,y,1/2-z
1/2-x,1/2+y,1/2+z
x,1/2-y,z
loop_
_atom_site_type_symbol
_atom_site_label
_atom_site_fract_x
_atom_site_fract_y
_atom_site_fract_z
Si Si1 0.865097 0.509456 0.685132
Si Si2 0.025203 0.629927 0.763918
Si Si3 0.448764 0.628460 0.146517
Si Si4 0.711054 0.517055 0.788679
Si Si5 0.731078 0.126439 0.411203
Si Si6 0.755485 0.126644 0.080070
Si Si7 0.117458 0.469729 0.525053
Si Si8 0.493505 0.128007 0.395246
O O1 0.954825 0.590146 0.708146
O O2 0.801129 0.468560 0.743996
O O3 0.787410 0.565487 0.637774
O O4 0.927612 0.414192 0.652548
O O5 0.000745 0.750000 0.768264
O O6 0.150806 0.607830 0.748560
O O7 0.998756 0.576756 0.828518
O O8 0.450961 0.750000 0.158736
O O9 0.370655 0.576812 0.196016
O O10 0.399496 0.605198 0.081419
O O11 0.761072 0.573195 0.846393
O O12 0.756349 0.250000 0.407858
O O13 0.605245 0.104346 0.432180
O O14 0.816495 0.074734 0.457146
O O15 0.743223 0.250000 0.090786
O O16 0.882831 0.092419 0.070472
O O17 0.687048 0.095295 0.022128
O O18 0.000000 0.500000 0.500000
O O19 0.482726 0.250000 0.384632
#
# Coordination Sequence:
#
# PCOD8250230 Si02
#       8
#     8   8   8   8   8   8   8   8
#     4  11  20  34  56  87 114 149 188 230 292 350
#     4  10  18  28  48  82 122 148 171 217 282 350
#     4  10  23  41  57  77 111 151 195 242 288 340
#     4  10  20  33  56  85 116 147 187 229 288 353
#     4  10  21  37  59  86 119 153 191 237 289 348
#     4  11  22  36  57  85 120 152 192 243 291 345
#     4  11  23  42  58  84 110 154 204 244 291 332
#     4   9  18  32  53  83 114 151 182 222 291 346
#
# _framework density 18.28575
#
# number of rings (size 3 to 8) (size 9 to 14) (size 15 to 20)
#    0.000    1.750    3.750    1.125    0.000    3.000 
#    0.000    0.000    0.000    0.000    0.000    0.875 
#    0.000    0.000    0.000    0.000    0.000    0.000 
#
# Total GULP energy -793229.544426 kJ/mol
# GULP energy per Si atom -12394.211632 kJ/mol
# Density = 1.824413 g / cm^3
# Si number density = 18.285750 Si / 1000 Ang^3
#
#
#
# Elastic Constant Matrix: (Units=GPa)
#
#
# Indices 1 2 3 4 5 6 
#
# 1 140.2201 52.3933 45.4989 0.0000 0.0000 0.0000
# 2 52.3933 96.4509 30.5604 0.0000 0.0000 0.0000
# 3 45.4989 30.5604 76.4923 0.0000 0.0000 0.0000
# 4 0.0000 0.0000 0.0000 20.7718 0.0000 0.0000
# 5 0.0000 0.0000 0.0000 0.0000 39.8267 0.0000
# 6 0.0000 0.0000 0.0000 0.0000 0.0000 23.1360
#
#
#
# Elastic Compliance Matrix: (Units=1/GPa)
#
#
# Indices 1 2 3 4 5 6 
#
# 1 0.010075 -0.004092 -0.004358 0.000000 0.000000 0.000000
# 2 -0.004092 0.013533 -0.002973 0.000000 0.000000 0.000000
# 3 -0.004358 -0.002973 0.016853 0.000000 0.000000 0.000000
# 4 0.000000 0.000000 0.000000 0.048142 0.000000 0.000000
# 5 0.000000 0.000000 0.000000 0.000000 0.025109 0.000000
# 6 0.000000 0.000000 0.000000 0.000000 0.000000 0.043223
#
#
# Mechanical properties :
#
#
# Convention : Reuss Voigt Hill
#
# Bulk Modulus (GPa) = 56.76804 63.34094 60.05449
# Shear Modulus (GPa) = 26.93239 29.06097 27.99668
#
# Velocity S-wave (km/s) = 3.84195 3.99089 3.91713
# Velocity P-wave (km/s) = 7.12693 7.48004 7.30562
#
# Compressibility (1/GPa) = 0.01761555
#
# Stress axis : x y z
#
# Youngs Moduli (GPa) = 99.25969 73.89557 59.33702
#
# Poissons Ratio (x) = 0.30237 0.25857
# Poissons Ratio (y) = 0.40616 0.17639
# Poissons Ratio (z) = 0.43255 0.21967
#
# Static dielectric constant tensor:
#      x y z
#    x 3.758450 0.000000 0.000000 
#    y 0.000000 3.082210 0.000000 
#    z 0.000000 0.000000 3.413860 
# 
# 
# High freq. dielectric constant tensor:
#      x y z
#    x 1.730520 0.000000 0.000000 
#    y 0.000000 1.677400 0.000000 
#    z 0.000000 0.000000 1.705550 
# 
# From -- ./inp_files/29468.got.cif
#   From: 2010.03.12/outbox.cif.g09.slc.cpg/sg62_15_cif.got.tgz:29468.got - 2010.04.10 19:12:36.
