data_PCOD8250586
_publ_section_title
;
Structure prediction by ZEFSAII (Michael W. Deem and Ramdas Pophale) SiO2 
 PCOD8250586
Probable space group: P N M A
;
_chemical_formula_sum "Si O2"
_cell_formula_units_Z 64
_cell_length_a 33.643202
_cell_length_b 8.649736
_cell_length_c 11.916673
_cell_angle_alpha 90.000000
_cell_angle_beta 90.000000
_cell_angle_gamma 90.000000
_cell_volume 3467.809228
_symmetry_space_group_name_H-M "P N M A"
_symmetry_group_IT_number 62
_symmetry_cell_setting 'orthorhombic'
loop_
_space_group_symop_operation_xyz
x,y,z
1/2-x,-y,1/2+z
1/2+x,1/2-y,1/2-z
-x,1/2+y,-z
-x,-y,-z
1/2+x,y,1/2-z
1/2-x,1/2+y,1/2+z
x,1/2-y,z
loop_
_atom_site_type_symbol
_atom_site_label
_atom_site_fract_x
_atom_site_fract_y
_atom_site_fract_z
Si Si1 0.826344 0.432630 0.103270
Si Si2 0.631929 0.572160 0.158106
Si Si3 0.469010 0.570293 0.145835
Si Si4 0.336777 0.930617 0.058235
Si Si5 0.550139 0.429785 0.108579
Si Si6 0.810956 0.429650 0.856209
Si Si7 0.229144 0.931953 0.697479
Si Si8 0.394061 0.068343 0.236959
O O1 0.826866 0.250000 0.095158
O O2 0.819946 0.501624 0.979256
O O3 0.790721 0.486569 0.185258
O O4 0.868723 0.487162 0.154604
O O5 0.635536 0.750000 0.121370
O O6 0.586011 0.523979 0.163548
O O7 0.650006 0.545431 0.281414
O O8 0.657082 0.467614 0.072270
O O9 0.478387 0.750000 0.157067
O O10 0.509494 0.478003 0.170325
O O11 0.436198 0.519343 0.236879
O O12 0.452497 0.527860 0.022762
O O13 0.343512 0.750000 0.080026
O O14 0.292508 0.980588 0.094616
O O15 0.369333 0.027412 0.126113
O O16 0.558154 0.250000 0.126787
O O17 0.799010 0.250000 0.863867
O O18 0.774986 0.522482 0.799923
O O19 0.223647 0.750000 0.680202
O O20 0.402177 0.250000 0.238118
#
# Coordination Sequence:
#
# PCOD8250586 Si02
#       8
#     8   8   8   8   8   8   8   8
#     4   8  18  37  56  76 105 141 178 220 269 322
#     4  11  22  35  54  80 112 146 182 225 271 325
#     4  10  19  31  51  81 113 146 177 218 270 322
#     4  11  21  34  53  77 108 144 180 220 270 324
#     4  10  20  33  51  77 113 149 180 220 269 325
#     4  10  22  39  57  79 107 144 183 222 272 326
#     4  10  21  37  57  81 106 137 179 228 276 321
#     4  10  18  32  56  81 107 140 178 221 269 321
#
# _framework density 18.455456000000002
#
# number of rings (size 3 to 8) (size 9 to 14) (size 15 to 20)
#    0.000    2.000    1.250    3.750    1.750    2.000 
#    0.000    3.125    0.000    0.750    0.000    0.000 
#    0.000    0.000    0.000    0.000    0.000    0.000 
#
# Total GULP energy -793746.335174 kJ/mol
# GULP energy per Si atom -12402.286487 kJ/mol
# Density = 1.841345 g / cm^3
# Si number density = 18.455456 Si / 1000 Ang^3
#
#
#
# Elastic Constant Matrix: (Units=GPa)
#
#
# Indices 1 2 3 4 5 6 
#
# 1 125.0799 27.3516 49.0317 0.0000 0.0000 0.0000
# 2 27.3516 49.2952 22.3430 0.0000 0.0000 0.0000
# 3 49.0317 22.3430 97.5128 0.0000 0.0000 0.0000
# 4 0.0000 0.0000 0.0000 16.5199 0.0000 0.0000
# 5 0.0000 0.0000 0.0000 0.0000 23.0401 0.0000
# 6 0.0000 0.0000 0.0000 0.0000 0.0000 35.2715
#
#
#
# Elastic Compliance Matrix: (Units=1/GPa)
#
#
# Indices 1 2 3 4 5 6 
#
# 1 0.010577 -0.003859 -0.004434 0.000000 0.000000 0.000000
# 2 -0.003859 0.024045 -0.003569 0.000000 0.000000 0.000000
# 3 -0.004434 -0.003569 0.013302 0.000000 0.000000 0.000000
# 4 0.000000 0.000000 0.000000 0.060533 0.000000 0.000000
# 5 0.000000 0.000000 0.000000 0.000000 0.043403 0.000000
# 6 0.000000 0.000000 0.000000 0.000000 0.000000 0.028351
#
#
# Mechanical properties :
#
#
# Convention : Reuss Voigt Hill
#
# Bulk Modulus (GPa) = 41.32230 52.14894 46.73562
# Shear Modulus (GPa) = 23.58472 26.51043 25.04758
#
# Velocity S-wave (km/s) = 3.57869 3.79417 3.68800
# Velocity P-wave (km/s) = 6.28609 6.89292 6.59648
#
# Compressibility (1/GPa) = 0.02420001
#
# Stress axis : x y z
#
# Youngs Moduli (GPa) = 94.54554 41.58923 75.17432
#
# Poissons Ratio (x) = 0.16049 0.33333
# Poissons Ratio (y) = 0.36484 0.26830
# Poissons Ratio (z) = 0.41923 0.14843
#
# Static dielectric constant tensor:
#      x y z
#    x 3.452620 0.000000 0.000000 
#    y 0.000000 3.307770 0.000000 
#    z 0.000000 0.000000 3.361540 
# 
# 
# High freq. dielectric constant tensor:
#      x y z
#    x 1.720570 0.000000 0.000000 
#    y 0.000000 1.715400 0.000000 
#    z 0.000000 0.000000 1.685680 
# 
# From -- ./inp_files/15873.got.cif
#   From: 2010.03.12/outbox.cif.g09.slc.cpg/sg62_8_cif.got.tgz:15873.got - 2010.04.10 19:12:36.
