data_PCOD8250064
_publ_section_title
;
Structure prediction by ZEFSAII (Michael W. Deem and Ramdas Pophale) SiO2 
 PCOD8250064
Probable space group: P N M A
;
_chemical_formula_sum "Si O2"
_cell_formula_units_Z 48
_cell_length_a 17.811864
_cell_length_b 13.397358
_cell_length_c 9.961536
_cell_angle_alpha 90.000000
_cell_angle_beta 90.000000
_cell_angle_gamma 90.000000
_cell_volume 2377.140448
_symmetry_space_group_name_H-M "P N M A"
_symmetry_group_IT_number 62
_symmetry_cell_setting 'orthorhombic'
loop_
_space_group_symop_operation_xyz
x,y,z
1/2-x,-y,1/2+z
1/2+x,1/2-y,1/2-z
-x,1/2+y,-z
-x,-y,-z
1/2+x,y,1/2-z
1/2-x,1/2+y,1/2+z
x,1/2-y,z
loop_
_atom_site_type_symbol
_atom_site_label
_atom_site_fract_x
_atom_site_fract_y
_atom_site_fract_z
Si Si1 0.191338 0.940519 0.914548
Si Si2 0.750606 0.641401 0.990964
Si Si3 0.978601 0.953888 0.782587
Si Si4 0.889174 0.367074 0.343287
Si Si5 0.048138 0.865466 0.045771
Si Si6 0.828622 0.858882 0.707879
O O1 0.151902 0.925621 0.774575
O O2 0.274024 0.890112 0.915983
O O3 0.136171 0.896318 0.028737
O O4 0.203089 0.059358 0.928880
O O5 0.763492 0.750000 0.060011
O O6 0.660065 0.619501 0.979479
O O7 0.777040 0.646459 0.838266
O O8 0.894348 0.937272 0.732363
O O9 0.030510 0.924021 0.654088
O O10 0.986181 0.068786 0.832007
O O11 0.000339 0.883793 0.909926
O O12 0.899395 0.250000 0.308129
O O13 0.042051 0.750000 0.086395
O O14 0.862908 0.750000 0.675443
#
# Coordination Sequence:
#
# PCOD8250064 Si02
#       6
#     8   8   8   8   8   8
#     4  10  17  31  50  73  99 131 167 204 249 292
#     4   9  18  32  50  71 100 133 166 206 248 296
#     4  10  18  31  50  76  96 129 166 208 246 297
#     4   9  18  33  52  73 101 131 164 207 255 297
#     4  10  19  31  49  74 103 130 159 208 266 297
#     4  10  18  30  51  75  98 128 172 210 238 292
#
# _framework density 20.192329000000001
#
# number of rings (size 3 to 8) (size 9 to 14) (size 15 to 20)
#    0.000    2.333    1.667    5.000    0.000    0.000 
#    0.000    1.667    0.000    3.000    0.000    0.000 
#    0.000    0.000    0.000    0.000    0.000    0.000 
#
# Total GULP energy -594642.427885 kJ/mol
# GULP energy per Si atom -12388.383914 kJ/mol
# Density = 2.014637 g / cm^3
# Si number density = 20.192329 Si / 1000 Ang^3
#
#
#
# Elastic Constant Matrix: (Units=GPa)
#
#
# Indices 1 2 3 4 5 6 
#
# 1 99.6703 36.2595 13.7821 0.0000 0.0000 0.0000
# 2 36.2595 150.1038 21.5753 0.0000 0.0000 0.0000
# 3 13.7821 21.5753 10.0471 0.0000 0.0000 0.0000
# 4 0.0000 0.0000 0.0000 12.2995 0.0000 0.0000
# 5 0.0000 0.0000 0.0000 0.0000 15.8554 0.0000
# 6 0.0000 0.0000 0.0000 0.0000 0.0000 32.0834
#
#
#
# Elastic Compliance Matrix: (Units=1/GPa)
#
#
# Indices 1 2 3 4 5 6 
#
# 1 0.012448 -0.000799 -0.015358 0.000000 0.000000 0.000000
# 2 -0.000799 0.009688 -0.019707 0.000000 0.000000 0.000000
# 3 -0.015358 -0.019707 0.162917 0.000000 0.000000 0.000000
# 4 0.000000 0.000000 0.000000 0.081304 0.000000 0.000000
# 5 0.000000 0.000000 0.000000 0.000000 0.063070 0.000000
# 6 0.000000 0.000000 0.000000 0.000000 0.000000 0.031169
#
#
# Mechanical properties :
#
#
# Convention : Reuss Voigt Hill
#
# Bulk Modulus (GPa) = 8.82432 44.78390 26.80411
# Shear Modulus (GPa) = 10.63605 24.59462 17.61534
#
# Velocity S-wave (km/s) = 2.29757 3.49380 2.95681
# Velocity P-wave (km/s) = 3.37906 6.20502 4.99602
#
# Compressibility (1/GPa) = 0.11332322
#
# Stress axis : x y z
#
# Youngs Moduli (GPa) = 80.33698 103.22316 6.13808
#
# Poissons Ratio (x) = 0.08251 0.09427
# Poissons Ratio (y) = 0.06422 0.12096
# Poissons Ratio (z) = 1.23384 2.03422
#
# Static dielectric constant tensor:
#      x y z
#    x 4.222520 0.000000 0.000000 
#    y 0.000000 3.765580 0.000000 
#    z 0.000000 0.000000 3.112170 
# 
# 
# High freq. dielectric constant tensor:
#      x y z
#    x 1.801690 0.000000 0.000000 
#    y 0.000000 1.792070 0.000000 
#    z 0.000000 0.000000 1.716300 
# 
# From -- ./inp_files/14119.got.cif
#   From: 2010.03.12/outbox.cif.g09.slc.cpg/sg62_8_cif.got.tgz:14119.got - 2010.04.10 19:12:36.
