data_PCOD8250603
_publ_section_title
;
Structure prediction by ZEFSAII (Michael W. Deem and Ramdas Pophale) SiO2 
 PCOD8250603
Probable space group: P N M A
;
_chemical_formula_sum "Si O2"
_cell_formula_units_Z 64
_cell_length_a 14.683345
_cell_length_b 23.225099
_cell_length_c 10.026753
_cell_angle_alpha 90.000000
_cell_angle_beta 90.000000
_cell_angle_gamma 90.000000
_cell_volume 3419.344778
_symmetry_space_group_name_H-M "P N M A"
_symmetry_group_IT_number 62
_symmetry_cell_setting 'orthorhombic'
loop_
_space_group_symop_operation_xyz
x,y,z
1/2-x,-y,1/2+z
1/2+x,1/2-y,1/2-z
-x,1/2+y,-z
-x,-y,-z
1/2+x,y,1/2-z
1/2-x,1/2+y,1/2+z
x,1/2-y,z
loop_
_atom_site_type_symbol
_atom_site_label
_atom_site_fract_x
_atom_site_fract_y
_atom_site_fract_z
Si Si1 0.670927 0.472702 0.054166
Si Si2 0.502695 0.317180 0.407810
Si Si3 0.794459 0.182555 0.089594
Si Si4 0.665410 0.121881 0.271505
Si Si5 0.391143 0.443472 0.750709
Si Si6 0.558231 0.382537 0.657133
Si Si7 0.347623 0.969576 0.522422
Si Si8 0.287068 0.610026 0.153340
O O1 0.651416 0.419009 0.147102
O O2 0.604707 0.523853 0.105009
O O3 0.775023 0.495333 0.065404
O O4 0.661298 0.447839 0.904191
O O5 0.510339 0.250000 0.380583
O O6 0.398540 0.338892 0.391780
O O7 0.568082 0.348787 0.302330
O O8 0.535045 0.330690 0.557723
O O9 0.791405 0.250000 0.060168
O O10 0.741314 0.168767 0.227828
O O11 0.747622 0.151449 0.963874
O O12 0.699836 0.083762 0.397119
O O13 0.471589 0.397321 0.748513
O O14 0.397812 0.488399 0.627373
O O15 0.296850 0.408932 0.744319
O O16 0.580516 0.441730 0.578829
O O17 0.640099 0.359405 0.750296
#
# Coordination Sequence:
#
# PCOD8250603 Si02
#       8
#     8   8   8   8   8   8   8   8
#     4   9  18  34  51  77 113 145 177 216 264 329
#     4  10  21  37  59  85 105 136 190 235 275 329
#     4  10  20  38  61  80 104 141 182 232 281 322
#     4   9  19  35  57  83 109 142 179 226 275 320
#     4  10  18  33  50  76 110 143 181 219 263 320
#     4  11  20  33  55  78 107 146 181 225 274 324
#     4   9  18  32  51  79 110 144 180 216 261 326
#     4  10  20  34  53  78 108 142 183 222 271 328
#
# _framework density 18.717036
#
# number of rings (size 3 to 8) (size 9 to 14) (size 15 to 20)
#    0.000    2.250    2.500    0.750    0.000    1.000 
#    0.000    2.500    0.000    0.000    0.000    0.000 
#    0.000    0.000    0.000    0.000    0.000    0.000 
#
# Total GULP energy -793072.017339 kJ/mol
# GULP energy per Si atom -12391.750271 kJ/mol
# Density = 1.867444 g / cm^3
# Si number density = 18.717036 Si / 1000 Ang^3
#
#
#
# Elastic Constant Matrix: (Units=GPa)
#
#
# Indices 1 2 3 4 5 6 
#
# 1 113.7016 34.7951 57.3790 0.0000 0.0000 0.0000
# 2 34.7951 58.1553 21.6790 0.0000 0.0000 0.0000
# 3 57.3790 21.6790 53.4226 0.0000 0.0000 0.0000
# 4 0.0000 0.0000 0.0000 24.5405 0.0000 0.0000
# 5 0.0000 0.0000 0.0000 0.0000 35.4479 0.0000
# 6 0.0000 0.0000 0.0000 0.0000 0.0000 27.5745
#
#
#
# Elastic Compliance Matrix: (Units=1/GPa)
#
#
# Indices 1 2 3 4 5 6 
#
# 1 0.020248 -0.004722 -0.019831 0.000000 0.000000 0.000000
# 2 -0.004722 0.021361 -0.003597 0.000000 0.000000 0.000000
# 3 -0.019831 -0.003597 0.041478 0.000000 0.000000 0.000000
# 4 0.000000 0.000000 0.000000 0.040749 0.000000 0.000000
# 5 0.000000 0.000000 0.000000 0.000000 0.028210 0.000000
# 6 0.000000 0.000000 0.000000 0.000000 0.000000 0.036265
#
#
# Mechanical properties :
#
#
# Convention : Reuss Voigt Hill
#
# Bulk Modulus (GPa) = 37.33099 50.33174 43.83136
# Shear Modulus (GPa) = 19.72077 24.94100 22.33089
#
# Velocity S-wave (km/s) = 3.24948 3.65434 3.45784
# Velocity P-wave (km/s) = 5.83670 6.68991 6.27782
#
# Compressibility (1/GPa) = 0.02678740
#
# Stress axis : x y z
#
# Youngs Moduli (GPa) = 49.38879 46.81357 24.10927
#
# Poissons Ratio (x) = 0.22105 0.47811
# Poissons Ratio (y) = 0.23321 0.08672
# Poissons Ratio (z) = 0.97942 0.16838
#
# Static dielectric constant tensor:
#      x y z
#    x 3.442780 0.000000 0.000000 
#    y 0.000000 3.391480 0.000000 
#    z 0.000000 0.000000 3.478810 
# 
# 
# High freq. dielectric constant tensor:
#      x y z
#    x 1.719630 0.000000 0.000000 
#    y 0.000000 1.716010 0.000000 
#    z 0.000000 0.000000 1.718080 
# 
# From -- ./inp_files/6972.got.cif
#   From: 2010.03.12/outbox.cif.g09.slc.cpg/sg62_4_cif.got.tgz:6972.got - 2010.04.10 19:12:36.
