data_PCOD8250185
_publ_section_title
;
Structure prediction by ZEFSAII (Michael W. Deem and Ramdas Pophale) SiO2 
 PCOD8250185
Probable space group: P N M A
;
_chemical_formula_sum "Si O2"
_cell_formula_units_Z 64
_cell_length_a 25.969572
_cell_length_b 8.995929
_cell_length_c 18.300892
_cell_angle_alpha 90.000000
_cell_angle_beta 90.000000
_cell_angle_gamma 90.000000
_cell_volume 4275.462183
_symmetry_space_group_name_H-M "P N M A"
_symmetry_group_IT_number 62
_symmetry_cell_setting 'orthorhombic'
loop_
_space_group_symop_operation_xyz
x,y,z
1/2-x,-y,1/2+z
1/2+x,1/2-y,1/2-z
-x,1/2+y,-z
-x,-y,-z
1/2+x,y,1/2-z
1/2-x,1/2+y,1/2+z
x,1/2-y,z
loop_
_atom_site_type_symbol
_atom_site_label
_atom_site_fract_x
_atom_site_fract_y
_atom_site_fract_z
Si Si1 0.053269 0.922022 0.420231
Si Si2 0.212362 0.083246 0.224044
Si Si3 0.448569 0.422983 0.089057
Si Si4 0.646393 0.075894 0.842161
Si Si5 0.853932 0.917196 0.648602
Si Si6 0.259484 0.079983 0.077753
Si Si7 0.754735 0.421342 0.071311
Si Si8 0.200679 0.420067 0.800831
O O1 0.040323 0.750000 0.407459
O O2 0.065029 0.955060 0.504814
O O3 0.103198 0.965521 0.373943
O O4 0.005540 0.019311 0.392475
O O5 0.233544 0.250000 0.245138
O O6 0.156852 0.065465 0.263808
O O7 0.212150 0.068169 0.136154
O O8 0.248431 0.954328 0.254463
O O9 0.445274 0.250000 0.108292
O O10 0.409355 0.513173 0.139054
O O11 0.649556 0.250000 0.860393
O O12 0.653736 0.046531 0.755074
O O13 0.689091 0.995261 0.891272
O O14 0.872703 0.750000 0.630045
O O15 0.801275 0.952687 0.605479
O O16 0.273640 0.250000 0.060838
O O17 0.239498 0.003961 0.004986
O O18 0.764820 0.250000 0.056925
O O19 0.799511 0.480320 0.125992
O O20 0.201242 0.250000 0.825908
#
# Coordination Sequence:
#
# PCOD8250185 Si02
#       8
#     8   8   8   8   8   8   8   8
#     4  10  20  31  43  61  83 107 139 178 213 244
#     4   8  16  29  42  58  82 111 140 172 208 246
#     4  10  20  32  45  60  81 111 143 175 211 249
#     4  10  19  30  44  62  85 112 142 176 212 249
#     4   9  17  29  43  58  80 111 142 170 206 249
#     4  10  18  28  43  62  85 113 145 176 207 248
#     4  10  19  29  42  61  86 114 143 176 211 247
#     4   9  17  28  42  60  82 109 140 173 208 247
#
# _framework density 14.969142
#
# number of rings (size 3 to 8) (size 9 to 14) (size 15 to 20)
#    0.000    2.500    0.000    3.750    0.000    8.000 
#    0.000    0.000    0.000    0.000    0.000    0.000 
#    0.000    1.000    0.000    3.000    0.000    4.000 
#
# Total GULP energy -793301.843196 kJ/mol
# GULP energy per Si atom -12395.341300 kJ/mol
# Density = 1.493507 g / cm^3
# Si number density = 14.969142 Si / 1000 Ang^3
#
#
#
# Elastic Constant Matrix: (Units=GPa)
#
#
# Indices 1 2 3 4 5 6 
#
# 1 58.5343 35.4529 38.8354 0.0000 0.0000 0.0000
# 2 35.4529 87.8090 47.7775 0.0000 0.0000 0.0000
# 3 38.8354 47.7775 93.3684 0.0000 0.0000 0.0000
# 4 0.0000 0.0000 0.0000 24.9860 0.0000 0.0000
# 5 0.0000 0.0000 0.0000 0.0000 22.5047 0.0000
# 6 0.0000 0.0000 0.0000 0.0000 0.0000 23.3141
#
#
#
# Elastic Compliance Matrix: (Units=1/GPa)
#
#
# Indices 1 2 3 4 5 6 
#
# 1 0.025940 -0.006379 -0.007525 0.000000 0.000000 0.000000
# 2 -0.006379 0.017351 -0.006226 0.000000 0.000000 0.000000
# 3 -0.007525 -0.006226 0.017026 0.000000 0.000000 0.000000
# 4 0.000000 0.000000 0.000000 0.040022 0.000000 0.000000
# 5 0.000000 0.000000 0.000000 0.000000 0.044435 0.000000
# 6 0.000000 0.000000 0.000000 0.000000 0.000000 0.042893
#
#
# Mechanical properties :
#
#
# Convention : Reuss Voigt Hill
#
# Bulk Modulus (GPa) = 49.85556 53.76035 51.80796
# Shear Modulus (GPa) = 21.31166 22.00401 21.65783
#
# Velocity S-wave (km/s) = 3.77730 3.83816 3.80785
# Velocity P-wave (km/s) = 7.23891 7.45883 7.34969
#
# Compressibility (1/GPa) = 0.02005794
#
# Stress axis : x y z
#
# Youngs Moduli (GPa) = 38.55000 57.63300 58.73337
#
# Poissons Ratio (x) = 0.36763 0.44200
# Poissons Ratio (y) = 0.24590 0.36565
# Poissons Ratio (z) = 0.29011 0.35880
#
# Static dielectric constant tensor:
#      x y z
#    x 2.629900 0.000000 0.000000 
#    y 0.000000 3.017950 0.000000 
#    z 0.000000 0.000000 3.021000 
# 
# 
# High freq. dielectric constant tensor:
#      x y z
#    x 1.531180 0.000000 0.000000 
#    y 0.000000 1.592650 0.000000 
#    z 0.000000 0.000000 1.565120 
# 
# From -- ./inp_files/24910.got.cif
#   From: 2010.03.12/outbox.cif.g09.slc.cpg/sg62_13_cif.got.tgz:24910.got - 2010.04.10 19:12:36.
