data_PCOD8250164
_publ_section_title
;
Structure prediction by ZEFSAII (Michael W. Deem and Ramdas Pophale) SiO2 
 PCOD8250164
Probable space group: P N M A
;
_chemical_formula_sum "Si O2"
_cell_formula_units_Z 56
_cell_length_a 13.390709
_cell_length_b 8.986113
_cell_length_c 29.585605
_cell_angle_alpha 90.000000
_cell_angle_beta 90.000000
_cell_angle_gamma 90.000000
_cell_volume 3560.048401
_symmetry_space_group_name_H-M "P N M A"
_symmetry_group_IT_number 62
_symmetry_cell_setting 'orthorhombic'
loop_
_space_group_symop_operation_xyz
x,y,z
1/2-x,-y,1/2+z
1/2+x,1/2-y,1/2-z
-x,1/2+y,-z
-x,-y,-z
1/2+x,y,1/2-z
1/2-x,1/2+y,1/2+z
x,1/2-y,z
loop_
_atom_site_type_symbol
_atom_site_label
_atom_site_fract_x
_atom_site_fract_y
_atom_site_fract_z
Si Si1 0.112755 0.074884 0.098464
Si Si2 0.898603 0.923917 0.096977
Si Si3 0.203033 0.923517 0.182180
Si Si4 0.392860 0.925153 0.766470
Si Si5 0.721306 0.077592 0.683477
Si Si6 0.103378 0.420599 0.000862
Si Si7 0.594206 0.419570 0.769899
O O1 0.114275 0.250000 0.108773
O O2 0.158483 0.036685 0.048052
O O3 0.184658 0.991570 0.133086
O O4 0.999288 0.017987 0.102904
O O5 0.926222 0.750000 0.102810
O O6 0.818909 0.972529 0.134628
O O7 0.844711 0.954395 0.047814
O O8 0.176766 0.750000 0.182417
O O9 0.318281 0.952035 0.194240
O O10 0.130917 0.999742 0.218552
O O11 0.384275 0.750000 0.761104
O O12 0.317813 0.979364 0.805452
O O13 0.504244 0.969770 0.781214
O O14 0.753701 0.250000 0.684838
O O15 0.634209 0.047863 0.719638
O O16 0.075829 0.250000 0.004184
O O17 0.000000 0.500000 0.000000
O O18 0.556648 0.250000 0.773911
#
# Coordination Sequence:
#
# PCOD8250164 Si02
#       7
#     8   8   8   8   8   8   8
#     4  10  18  27  42  66  95 120 144 182 225 259
#     4   9  16  28  46  65  89 123 156 180 208 255
#     4  10  20  33  48  64  85 117 153 181 210 257
#     4  11  21  31  46  67  91 115 140 179 225 262
#     4   9  18  31  47  65  86 117 152 180 208 251
#     4   8  15  26  40  62  90 118 147 178 215 257
#     4   9  18  32  47  63  86 116 149 182 213 253
#
# _framework density 15.730123000000001
#
# number of rings (size 3 to 8) (size 9 to 14) (size 15 to 20)
#    0.000    2.571    0.000    3.857    0.000    5.143 
#    0.000    0.000    0.000    0.000    0.000    1.000 
#    0.000    0.000    0.000    0.000    0.000    0.000 
#
# Total GULP energy -694008.392814 kJ/mol
# GULP energy per Si atom -12393.007015 kJ/mol
# Density = 1.569432 g / cm^3
# Si number density = 15.730123 Si / 1000 Ang^3
#
#
#
# Elastic Constant Matrix: (Units=GPa)
#
#
# Indices 1 2 3 4 5 6 
#
# 1 74.1597 44.8691 53.1485 0.0000 0.0000 0.0000
# 2 44.8691 85.4501 52.7091 0.0000 0.0000 0.0000
# 3 53.1485 52.7091 152.6948 0.0000 0.0000 0.0000
# 4 0.0000 0.0000 0.0000 22.4851 0.0000 0.0000
# 5 0.0000 0.0000 0.0000 0.0000 20.2602 0.0000
# 6 0.0000 0.0000 0.0000 0.0000 0.0000 18.8350
#
#
#
# Elastic Compliance Matrix: (Units=1/GPa)
#
#
# Indices 1 2 3 4 5 6 
#
# 1 0.022123 -0.008725 -0.004689 0.000000 0.000000 0.000000
# 2 -0.008725 0.018309 -0.003283 0.000000 0.000000 0.000000
# 3 -0.004689 -0.003283 0.009315 0.000000 0.000000 0.000000
# 4 0.000000 0.000000 0.000000 0.044474 0.000000 0.000000
# 5 0.000000 0.000000 0.000000 0.000000 0.049358 0.000000
# 6 0.000000 0.000000 0.000000 0.000000 0.000000 0.053093
#
#
# Mechanical properties :
#
#
# Convention : Reuss Voigt Hill
#
# Bulk Modulus (GPa) = 61.14910 68.19534 64.67222
# Shear Modulus (GPa) = 21.22993 23.08792 22.15893
#
# Velocity S-wave (km/s) = 3.67772 3.83528 3.75733
# Velocity P-wave (km/s) = 7.54934 7.94103 7.74766
#
# Compressibility (1/GPa) = 0.01635347
#
# Stress axis : x y z
#
# Youngs Moduli (GPa) = 45.20091 54.61703 107.35946
#
# Poissons Ratio (x) = 0.47651 0.50339
# Poissons Ratio (y) = 0.39436 0.35251
# Poissons Ratio (z) = 0.21194 0.17933
#
# Static dielectric constant tensor:
#      x y z
#    x 2.681920 0.000000 0.000000 
#    y 0.000000 3.010240 0.000000 
#    z 0.000000 0.000000 3.560650 
# 
# 
# High freq. dielectric constant tensor:
#      x y z
#    x 1.565000 0.000000 0.000000 
#    y 0.000000 1.611340 0.000000 
#    z 0.000000 0.000000 1.610830 
# 
# From -- ./inp_files/32648.got.cif
#   From: 2010.03.12/outbox.cif.g09.slc.cpg/sg62_17_cif.got.tgz:32648.got - 2010.04.10 19:12:36.
