data_PCOD8250651
_publ_section_title
;
Structure prediction by ZEFSAII (Michael W. Deem and Ramdas Pophale) SiO2 
 PCOD8250651
Probable space group: P N M A
;
_chemical_formula_sum "Si O2"
_cell_formula_units_Z 32
_cell_length_a 5.228819
_cell_length_b 14.016156
_cell_length_c 26.134062
_cell_angle_alpha 90.000000
_cell_angle_beta 90.000000
_cell_angle_gamma 90.000000
_cell_volume 1915.311641
_symmetry_space_group_name_H-M "P N M A"
_symmetry_group_IT_number 62
_symmetry_cell_setting 'orthorhombic'
loop_
_space_group_symop_operation_xyz
x,y,z
1/2-x,-y,1/2+z
1/2+x,1/2-y,1/2-z
-x,1/2+y,-z
-x,-y,-z
1/2+x,y,1/2-z
1/2-x,1/2+y,1/2+z
x,1/2-y,z
loop_
_atom_site_type_symbol
_atom_site_label
_atom_site_fract_x
_atom_site_fract_y
_atom_site_fract_z
Si Si1 0.784380 0.360135 0.717953
Si Si2 0.701014 0.472532 0.432459
Si Si3 0.209058 0.964788 0.387887
Si Si4 0.432963 0.858702 0.475018
O O1 0.513129 0.384318 0.743336
O O2 0.796995 0.250000 0.701140
O O3 0.818378 0.425049 0.668682
O O4 0.460652 0.468002 0.393035
O O5 0.699009 0.382088 0.470477
O O6 0.676160 0.570110 0.466834
O O7 0.960981 0.471951 0.400415
O O8 0.232550 0.877504 0.428611
O O9 0.527092 0.750000 0.474132
#
# Coordination Sequence:
#
# PCOD8250651 Si02
#       4
#     8   8   8   8
#     4  10  20  31  45  68  93 121 162 198 225 276
#     4   9  20  32  46  70  98 126 160 196 218 288
#     4  10  18  34  46  65  97 131 156 187 239 268
#     4   9  19  31  49  71  97 131 157 189 235 277
#
# _framework density 16.707462
#
# number of rings (size 3 to 8) (size 9 to 14) (size 15 to 20)
#    1.500    1.000    0.000    3.000    0.000    2.000 
#    0.000    0.000    0.000    0.000    0.000    0.000 
#    0.000   20.000    0.000    0.000    0.000    0.000 
#
# Total GULP energy -396526.779059 kJ/mol
# GULP energy per Si atom -12391.461846 kJ/mol
# Density = 1.666944 g / cm^3
# Si number density = 16.707462 Si / 1000 Ang^3
#
#
#
# Elastic Constant Matrix: (Units=GPa)
#
#
# Indices 1 2 3 4 5 6 
#
# 1 86.3005 3.7389 8.0035 0.0000 0.0000 0.0000
# 2 3.7389 29.0710 4.2213 0.0000 0.0000 0.0000
# 3 8.0035 4.2213 70.5728 0.0000 0.0000 0.0000
# 4 0.0000 0.0000 0.0000 14.9231 0.0000 0.0000
# 5 0.0000 0.0000 0.0000 0.0000 19.4920 0.0000
# 6 0.0000 0.0000 0.0000 0.0000 0.0000 9.8471
#
#
#
# Elastic Compliance Matrix: (Units=1/GPa)
#
#
# Indices 1 2 3 4 5 6 
#
# 1 0.011761 -0.001331 -0.001254 0.000000 0.000000 0.000000
# 2 -0.001331 0.034850 -0.001934 0.000000 0.000000 0.000000
# 3 -0.001254 -0.001934 0.014428 0.000000 0.000000 0.000000
# 4 0.000000 0.000000 0.000000 0.067010 0.000000 0.000000
# 5 0.000000 0.000000 0.000000 0.000000 0.051303 0.000000
# 6 0.000000 0.000000 0.000000 0.000000 0.000000 0.101553
#
#
# Mechanical properties :
#
#
# Convention : Reuss Voigt Hill
#
# Bulk Modulus (GPa) = 19.22983 24.20797 21.71890
# Shear Modulus (GPa) = 16.27197 20.18448 18.22823
#
# Velocity S-wave (km/s) = 3.12418 3.47956 3.30665
# Velocity P-wave (km/s) = 4.95466 5.53750 5.25417
#
# Compressibility (1/GPa) = 0.05200255
#
# Stress axis : x y z
#
# Youngs Moduli (GPa) = 85.02402 28.69405 69.31127
#
# Poissons Ratio (x) = 0.03818 0.08693
# Poissons Ratio (y) = 0.11313 0.13403
# Poissons Ratio (z) = 0.10664 0.05549
#
# Static dielectric constant tensor:
#      x y z
#    x 3.108480 0.000000 0.000000 
#    y 0.000000 2.663750 0.000000 
#    z 0.000000 0.000000 2.978190 
# 
# 
# High freq. dielectric constant tensor:
#      x y z
#    x 1.649840 0.000000 0.000000 
#    y 0.000000 1.592520 0.000000 
#    z 0.000000 0.000000 1.634700 
# 
# From -- ./inp_files/28194.got.cif
#   From: 2010.03.12/outbox.cif.g09.slc.cpg/sg62_15_cif.got.tgz:28194.got - 2010.04.10 19:12:36.
