data_PCOD8250491
_publ_section_title
;
Structure prediction by ZEFSAII (Michael W. Deem and Ramdas Pophale) SiO2 
 PCOD8250491
Probable space group: P N M A
;
_chemical_formula_sum "Si O2"
_cell_formula_units_Z 64
_cell_length_a 19.506963
_cell_length_b 12.424591
_cell_length_c 15.025730
_cell_angle_alpha 90.000000
_cell_angle_beta 90.000000
_cell_angle_gamma 90.000000
_cell_volume 3641.726632
_symmetry_space_group_name_H-M "P N M A"
_symmetry_group_IT_number 62
_symmetry_cell_setting 'orthorhombic'
loop_
_space_group_symop_operation_xyz
x,y,z
1/2-x,-y,1/2+z
1/2+x,1/2-y,1/2-z
-x,1/2+y,-z
-x,-y,-z
1/2+x,y,1/2-z
1/2-x,1/2+y,1/2+z
x,1/2-y,z
loop_
_atom_site_type_symbol
_atom_site_label
_atom_site_fract_x
_atom_site_fract_y
_atom_site_fract_z
Si Si1 0.832150 0.505111 0.540121
Si Si2 0.888314 0.127804 0.375249
Si Si3 0.643124 0.506900 0.704235
Si Si4 0.129195 0.624417 0.149852
Si Si5 0.477073 0.975878 0.901266
Si Si6 0.991030 0.876684 0.240905
Si Si7 0.306070 0.122968 0.469283
Si Si8 0.775222 0.376783 0.696698
O O1 0.857450 0.452591 0.448476
O O2 0.896854 0.558026 0.593404
O O3 0.774906 0.596018 0.523261
O O4 0.798318 0.411807 0.598815
O O5 0.869120 0.250000 0.398754
O O6 0.855636 0.096690 0.281006
O O7 0.971507 0.117310 0.366882
O O8 0.573150 0.440363 0.702276
O O9 0.655754 0.567111 0.612170
O O10 0.701266 0.420040 0.723115
O O11 0.144595 0.750000 0.148056
O O12 0.172465 0.574080 0.230872
O O13 0.049574 0.600664 0.167537
O O14 0.154605 0.576463 0.056045
O O15 0.486022 0.080665 0.838128
O O16 0.500000 0.000000 0.000000
O O17 0.975683 0.750000 0.251097
O O18 0.313802 0.250000 0.458909
O O19 0.772941 0.250000 0.698067
#
# Coordination Sequence:
#
# PCOD8250491 Si02
#       8
#     8   8   8   8   8   8   8   8
#     4  10  19  33  53  79 105 133 177 221 271 326
#     4  10  20  34  51  73 105 141 175 211 265 331
#     4  10  21  34  51  76 106 142 180 219 269 323
#     4   9  18  32  53  76 100 138 179 217 270 317
#     4   9  19  32  49  79 109 138 171 210 271 333
#     4  10  19  34  55  79 108 139 179 229 272 318
#     4  10  21  36  53  75 105 142 184 227 271 322
#     4  10  18  31  53  79 106 134 171 223 274 322
#
# _framework density 17.574082000000001
#
# number of rings (size 3 to 8) (size 9 to 14) (size 15 to 20)
#    0.000    2.250    1.250    1.875    0.000    3.000 
#    0.000    6.250    0.000    0.000    0.000    4.375 
#    0.000    0.000    0.000    0.000    0.000    0.000 
#
# Total GULP energy -793326.075619 kJ/mol
# GULP energy per Si atom -12395.719932 kJ/mol
# Density = 1.753408 g / cm^3
# Si number density = 17.574082 Si / 1000 Ang^3
#
#
#
# Elastic Constant Matrix: (Units=GPa)
#
#
# Indices 1 2 3 4 5 6 
#
# 1 111.1618 26.4854 43.0495 0.0000 0.0000 0.0000
# 2 26.4854 55.8332 33.4389 0.0000 0.0000 0.0000
# 3 43.0495 33.4389 95.3776 0.0000 0.0000 0.0000
# 4 0.0000 0.0000 0.0000 20.7652 0.0000 0.0000
# 5 0.0000 0.0000 0.0000 0.0000 30.5566 0.0000
# 6 0.0000 0.0000 0.0000 0.0000 0.0000 20.0641
#
#
#
# Elastic Compliance Matrix: (Units=1/GPa)
#
#
# Indices 1 2 3 4 5 6 
#
# 1 0.011263 -0.002909 -0.004064 0.000000 0.000000 0.000000
# 2 -0.002909 0.023422 -0.006899 0.000000 0.000000 0.000000
# 3 -0.004064 -0.006899 0.014737 0.000000 0.000000 0.000000
# 4 0.000000 0.000000 0.000000 0.048157 0.000000 0.000000
# 5 0.000000 0.000000 0.000000 0.000000 0.032726 0.000000
# 6 0.000000 0.000000 0.000000 0.000000 0.000000 0.049840
#
#
# Mechanical properties :
#
#
# Convention : Reuss Voigt Hill
#
# Bulk Modulus (GPa) = 46.12613 52.03557 49.08085
# Shear Modulus (GPa) = 23.24335 24.90376 24.07355
#
# Velocity S-wave (km/s) = 3.64069 3.76849 3.70514
# Velocity P-wave (km/s) = 6.63148 6.97201 6.80387
#
# Compressibility (1/GPa) = 0.02167969
#
# Stress axis : x y z
#
# Youngs Moduli (GPa) = 88.78862 42.69485 67.85424
#
# Poissons Ratio (x) = 0.12419 0.27574
# Poissons Ratio (y) = 0.25828 0.46811
# Poissons Ratio (z) = 0.36081 0.29454
#
# Static dielectric constant tensor:
#      x y z
#    x 3.624470 0.000000 0.000000 
#    y 0.000000 3.008540 0.000000 
#    z 0.000000 0.000000 3.383200 
# 
# 
# High freq. dielectric constant tensor:
#      x y z
#    x 1.692550 0.000000 0.000000 
#    y 0.000000 1.655980 0.000000 
#    z 0.000000 0.000000 1.687150 
# 
# From -- ./inp_files/19906.got.cif
#   From: 2010.03.12/outbox.cif.g09.slc.cpg/sg62_10_cif.got.tgz:19906.got - 2010.04.10 19:12:36.
