data_PCOD8250173
_publ_section_title
;
Structure prediction by ZEFSAII (Michael W. Deem and Ramdas Pophale) SiO2 
 PCOD8250173
Probable space group: P N M A
;
_chemical_formula_sum "Si O2"
_cell_formula_units_Z 64
_cell_length_a 26.542739
_cell_length_b 8.892576
_cell_length_c 18.297197
_cell_angle_alpha 90.000000
_cell_angle_beta 90.000000
_cell_angle_gamma 90.000000
_cell_volume 4318.748224
_symmetry_space_group_name_H-M "P N M A"
_symmetry_group_IT_number 62
_symmetry_cell_setting 'orthorhombic'
loop_
_space_group_symop_operation_xyz
x,y,z
1/2-x,-y,1/2+z
1/2+x,1/2-y,1/2-z
-x,1/2+y,-z
-x,-y,-z
1/2+x,y,1/2-z
1/2-x,1/2+y,1/2+z
x,1/2-y,z
loop_
_atom_site_type_symbol
_atom_site_label
_atom_site_fract_x
_atom_site_fract_y
_atom_site_fract_z
Si Si1 0.253877 0.578894 0.565632
Si Si2 0.352270 0.076840 0.341910
Si Si3 0.299368 0.425704 0.786186
Si Si4 0.851828 0.573908 0.840230
Si Si5 0.209402 0.578754 0.711191
Si Si6 0.554820 0.576274 0.416156
Si Si7 0.048312 0.925126 0.913663
Si Si8 0.249825 0.427201 0.414634
O O1 0.256686 0.750000 0.537107
O O2 0.305649 0.532838 0.605847
O O3 0.207300 0.558656 0.623487
O O4 0.243005 0.469258 0.498913
O O5 0.356992 0.250000 0.363776
O O6 0.343645 0.054476 0.254011
O O7 0.405043 0.004324 0.367123
O O8 0.304151 0.011590 0.386146
O O9 0.308759 0.250000 0.794241
O O10 0.344838 0.496826 0.739096
O O11 0.247909 0.458794 0.743429
O O12 0.294956 0.497751 0.867150
O O13 0.855119 0.750000 0.827401
O O14 0.903104 0.516959 0.874791
O O15 0.228963 0.750000 0.728244
O O16 0.560314 0.750000 0.395582
O O17 0.561603 0.548176 0.501998
O O18 0.500507 0.518252 0.389799
O O19 0.038017 0.750000 0.897320
O O20 0.245750 0.250000 0.405139
#
# Coordination Sequence:
#
# PCOD8250173 Si02
#       8
#     8   8   8   8   8   8   8   8
#     4   9  17  27  40  60  84 108 136 170 206 244
#     4   8  14  26  43  58  75 106 143 172 201 241
#     4  10  18  28  42  60  82 107 138 173 207 245
#     4  10  19  31  45  60  82 112 143 174 211 251
#     4   8  15  28  42  58  82 109 137 171 209 246
#     4  10  19  29  41  60  84 109 141 179 214 246
#     4   9  17  29  43  59  81 110 143 176 210 247
#     4  10  18  28  42  60  84 112 141 171 204 244
#
# _framework density 14.819108
#
# number of rings (size 3 to 8) (size 9 to 14) (size 15 to 20)
#    0.000    2.750    0.000    4.500    0.000    4.000 
#    0.000    3.125    0.000    0.000    0.000    0.000 
#    0.000    1.000    0.000    2.750    0.000    4.000 
#
# Total GULP energy -793180.290469 kJ/mol
# GULP energy per Si atom -12393.442039 kJ/mol
# Density = 1.478538 g / cm^3
# Si number density = 14.819108 Si / 1000 Ang^3
#
#
#
# Elastic Constant Matrix: (Units=GPa)
#
#
# Indices 1 2 3 4 5 6 
#
# 1 71.4600 28.0152 47.1941 0.0000 0.0000 0.0000
# 2 28.0152 64.9129 40.0463 0.0000 0.0000 0.0000
# 3 47.1941 40.0463 97.8508 0.0000 0.0000 0.0000
# 4 0.0000 0.0000 0.0000 23.7201 0.0000 0.0000
# 5 0.0000 0.0000 0.0000 0.0000 25.0643 0.0000
# 6 0.0000 0.0000 0.0000 0.0000 0.0000 18.2183
#
#
#
# Elastic Compliance Matrix: (Units=1/GPa)
#
#
# Indices 1 2 3 4 5 6 
#
# 1 0.021214 -0.003804 -0.008675 0.000000 0.000000 0.000000
# 2 -0.003804 0.021291 -0.006879 0.000000 0.000000 0.000000
# 3 -0.008675 -0.006879 0.017219 0.000000 0.000000 0.000000
# 4 0.000000 0.000000 0.000000 0.042158 0.000000 0.000000
# 5 0.000000 0.000000 0.000000 0.000000 0.039897 0.000000
# 6 0.000000 0.000000 0.000000 0.000000 0.000000 0.054890
#
#
# Mechanical properties :
#
#
# Convention : Reuss Voigt Hill
#
# Bulk Modulus (GPa) = 47.59983 51.63722 49.61852
# Shear Modulus (GPa) = 20.62811 21.33173 20.97992
#
# Velocity S-wave (km/s) = 3.73499 3.79816 3.76671
# Velocity P-wave (km/s) = 7.12675 7.35903 7.24382
#
# Compressibility (1/GPa) = 0.02100848
#
# Stress axis : x y z
#
# Youngs Moduli (GPa) = 47.13792 46.96913 58.07586
#
# Poissons Ratio (x) = 0.17866 0.50381
# Poissons Ratio (y) = 0.17931 0.39949
# Poissons Ratio (z) = 0.40892 0.32309
#
# Static dielectric constant tensor:
#      x y z
#    x 2.776680 0.000000 0.000000 
#    y 0.000000 2.802990 0.000000 
#    z 0.000000 0.000000 2.955230 
# 
# 
# High freq. dielectric constant tensor:
#      x y z
#    x 1.532850 0.000000 0.000000 
#    y 0.000000 1.567360 0.000000 
#    z 0.000000 0.000000 1.557650 
# 
# From -- ./inp_files/24994.got.cif
#   From: 2010.03.12/outbox.cif.g09.slc.cpg/sg62_13_cif.got.tgz:24994.got - 2010.04.10 19:12:36.
