data_PCOD8250805
_publ_section_title
;
Structure prediction by ZEFSAII (Michael W. Deem and Ramdas Pophale) SiO2 
 PCOD8250805
Probable space group: P N M A
;
_chemical_formula_sum "Si O2"
_cell_formula_units_Z 64
_cell_length_a 20.785576
_cell_length_b 9.372519
_cell_length_c 19.051154
_cell_angle_alpha 90.000000
_cell_angle_beta 90.000000
_cell_angle_gamma 90.000000
_cell_volume 3711.416388
_symmetry_space_group_name_H-M "P N M A"
_symmetry_group_IT_number 62
_symmetry_cell_setting 'orthorhombic'
loop_
_space_group_symop_operation_xyz
x,y,z
1/2-x,-y,1/2+z
1/2+x,1/2-y,1/2-z
-x,1/2+y,-z
-x,-y,-z
1/2+x,y,1/2-z
1/2-x,1/2+y,1/2+z
x,1/2-y,z
loop_
_atom_site_type_symbol
_atom_site_label
_atom_site_fract_x
_atom_site_fract_y
_atom_site_fract_z
Si Si1 0.129748 0.415869 0.326720
Si Si2 0.186280 0.417716 0.470677
Si Si3 0.491170 0.086764 0.316122
Si Si4 0.639347 0.413531 0.330091
Si Si5 0.944321 0.585887 0.462602
Si Si6 0.943148 0.085009 0.035249
Si Si7 0.499268 0.414245 0.816196
Si Si8 0.185329 0.919301 0.041646
O O1 0.109437 0.250000 0.332069
O O2 0.180310 0.456912 0.387912
O O3 0.160670 0.446188 0.250325
O O4 0.066045 0.507757 0.338631
O O5 0.190328 0.250000 0.480658
O O6 0.124529 0.476729 0.513126
O O7 0.251525 0.482814 0.503049
O O8 0.487749 0.250000 0.290260
O O9 0.564020 0.049928 0.339067
O O10 0.443677 0.058396 0.381110
O O11 0.469233 0.985894 0.252478
O O12 0.652991 0.250000 0.350109
O O13 0.680720 0.513076 0.381085
O O14 0.951208 0.750000 0.486264
O O15 0.000000 0.500000 0.500000
O O16 0.949330 0.570662 0.378706
O O17 0.955020 0.250000 0.017956
O O18 0.875028 0.032304 0.005619
O O19 0.000000 0.000000 0.000000
O O20 0.483353 0.250000 0.799861
O O21 0.187992 0.750000 0.050420
#
# Coordination Sequence:
#
# PCOD8250805 Si02
#       8
#     8   8   8   8   8   8   8   8
#     4   9  17  32  53  71  96 135 169 200 248 306
#     4   9  18  34  53  73 100 136 170 202 247 303
#     4   9  18  32  49  71 101 135 166 202 253 309
#     4   9  17  30  49  73 100 129 163 203 253 301
#     4  10  19  32  52  75 101 130 165 208 252 298
#     4  10  19  32  51  75 100 128 168 211 251 296
#     4  10  19  29  47  78 104 124 163 215 254 292
#     4  10  20  33  52  76 100 132 172 208 245 296
#
# _framework density 17.24409
#
# number of rings (size 3 to 8) (size 9 to 14) (size 15 to 20)
#    0.000    2.500    2.500    1.125    0.000    3.000 
#    0.000    2.500    0.000    1.500    0.000    0.000 
#    0.000    0.000    0.000    0.000    0.000    0.000 
#
# Total GULP energy -793502.586308 kJ/mol
# GULP energy per Si atom -12398.477911 kJ/mol
# Density = 1.720484 g / cm^3
# Si number density = 17.244090 Si / 1000 Ang^3
#
#
#
# Elastic Constant Matrix: (Units=GPa)
#
#
# Indices 1 2 3 4 5 6 
#
# 1 113.7214 36.8293 71.3345 0.0000 0.0000 0.0000
# 2 36.8293 54.6280 46.9166 0.0000 0.0000 0.0000
# 3 71.3345 46.9166 139.3623 0.0000 0.0000 0.0000
# 4 0.0000 0.0000 0.0000 29.0432 0.0000 0.0000
# 5 0.0000 0.0000 0.0000 0.0000 27.1106 0.0000
# 6 0.0000 0.0000 0.0000 0.0000 0.0000 16.4525
#
#
#
# Elastic Compliance Matrix: (Units=1/GPa)
#
#
# Indices 1 2 3 4 5 6 
#
# 1 0.013703 -0.004522 -0.005492 0.000000 0.000000 0.000000
# 2 -0.004522 0.027243 -0.006857 0.000000 0.000000 0.000000
# 3 -0.005492 -0.006857 0.012295 0.000000 0.000000 0.000000
# 4 0.000000 0.000000 0.000000 0.034431 0.000000 0.000000
# 5 0.000000 0.000000 0.000000 0.000000 0.036886 0.000000
# 6 0.000000 0.000000 0.000000 0.000000 0.000000 0.060781
#
#
# Mechanical properties :
#
#
# Convention : Reuss Voigt Hill
#
# Bulk Modulus (GPa) = 51.28183 68.65249 59.96716
# Shear Modulus (GPa) = 22.16515 24.69668 23.43091
#
# Velocity S-wave (km/s) = 3.58910 3.78852 3.69016
# Velocity P-wave (km/s) = 6.85412 7.68348 7.28062
#
# Compressibility (1/GPa) = 0.01950008
#
# Stress axis : x y z
#
# Youngs Moduli (GPa) = 72.97935 36.70665 81.33445
#
# Poissons Ratio (x) = 0.16597 0.44666
# Poissons Ratio (y) = 0.32998 0.55771
# Poissons Ratio (z) = 0.40077 0.25170
#
# Static dielectric constant tensor:
#      x y z
#    x 3.172640 0.000000 0.000000 
#    y 0.000000 3.099410 0.000000 
#    z 0.000000 0.000000 3.483340 
# 
# 
# High freq. dielectric constant tensor:
#      x y z
#    x 1.635530 0.000000 0.000000 
#    y 0.000000 1.652390 0.000000 
#    z 0.000000 0.000000 1.680840 
# 
# From -- ./inp_files/27936.got.cif
#   From: 2010.03.12/outbox.cif.g09.slc.cpg/sg62_14_cif.got.tgz:27936.got - 2010.04.10 19:12:36.
