data_PCOD8250989
_publ_section_title
;
Structure prediction by ZEFSAII (Michael W. Deem and Ramdas Pophale) SiO2 
 PCOD8250989
Probable space group: P N M A
;
_chemical_formula_sum "Si O2"
_cell_formula_units_Z 64
_cell_length_a 14.311655
_cell_length_b 8.636661
_cell_length_c 30.040091
_cell_angle_alpha 90.000000
_cell_angle_beta 90.000000
_cell_angle_gamma 90.000000
_cell_volume 3713.102822
_symmetry_space_group_name_H-M "P N M A"
_symmetry_group_IT_number 62
_symmetry_cell_setting 'orthorhombic'
loop_
_space_group_symop_operation_xyz
x,y,z
1/2-x,-y,1/2+z
1/2+x,1/2-y,1/2-z
-x,1/2+y,-z
-x,-y,-z
1/2+x,y,1/2-z
1/2-x,1/2+y,1/2+z
x,1/2-y,z
loop_
_atom_site_type_symbol
_atom_site_label
_atom_site_fract_x
_atom_site_fract_y
_atom_site_fract_z
Si Si1 0.232211 0.068194 0.720017
Si Si2 0.594129 0.429276 0.547799
Si Si3 0.980149 0.071320 0.183142
Si Si4 0.308722 0.570191 0.363073
Si Si5 0.019668 0.069836 0.725136
Si Si6 0.162275 0.431472 0.304736
Si Si7 0.645180 0.929073 0.363449
Si Si8 0.894484 0.928928 0.948864
O O1 0.236929 0.250000 0.730810
O O2 0.125236 0.010316 0.717493
O O3 0.274205 0.027854 0.671564
O O4 0.288145 0.981530 0.758700
O O5 0.562700 0.250000 0.549158
O O6 0.673706 0.463888 0.584711
O O7 0.503657 0.531655 0.557673
O O8 0.636531 0.470940 0.499332
O O9 0.985284 0.250000 0.197282
O O10 0.876813 0.031337 0.167379
O O11 0.009462 0.963383 0.224216
O O12 0.053235 0.032183 0.144628
O O13 0.324818 0.750000 0.352095
O O14 0.206073 0.517203 0.347846
O O15 0.009480 0.250000 0.714491
O O16 0.946975 0.977143 0.694339
O O17 0.173361 0.250000 0.310625
O O18 0.618858 0.750000 0.360149
O O19 0.671194 0.974412 0.414405
O O20 0.878845 0.750000 0.938701
#
# Coordination Sequence:
#
# PCOD8250989 Si02
#       8
#     8   8   8   8   8   8   8   8
#     4  10  22  37  55  73  98 137 179 214 251 306
#     4   9  19  33  50  72 101 137 173 210 256 310
#     4  12  22  31  48  77 106 136 175 219 257 297
#     4  11  21  35  53  73 102 142 179 211 254 310
#     4  11  22  38  55  72 100 139 178 215 257 305
#     4  12  24  35  52  77 105 135 173 218 261 302
#     4  11  21  34  51  74 103 141 178 208 254 312
#     4  10  19  31  49  75 104 134 170 213 259 304
#
# _framework density 17.236260000000001
#
# number of rings (size 3 to 8) (size 9 to 14) (size 15 to 20)
#    0.000    1.250    3.750    3.750    0.000    2.000 
#    0.000    0.000    0.000    0.000    0.000    0.875 
#    0.000    0.000    0.000    0.000    0.000    0.000 
#
# Total GULP energy -793635.805197 kJ/mol
# GULP energy per Si atom -12400.559456 kJ/mol
# Density = 1.719703 g / cm^3
# Si number density = 17.236260 Si / 1000 Ang^3
#
#
#
# Elastic Constant Matrix: (Units=GPa)
#
#
# Indices 1 2 3 4 5 6 
#
# 1 66.7137 27.3909 27.0181 0.0000 0.0000 0.0000
# 2 27.3909 62.1970 32.9137 0.0000 0.0000 0.0000
# 3 27.0181 32.9137 104.5752 0.0000 0.0000 0.0000
# 4 0.0000 0.0000 0.0000 25.9642 0.0000 0.0000
# 5 0.0000 0.0000 0.0000 0.0000 26.5069 0.0000
# 6 0.0000 0.0000 0.0000 0.0000 0.0000 19.9706
#
#
#
# Elastic Compliance Matrix: (Units=1/GPa)
#
#
# Indices 1 2 3 4 5 6 
#
# 1 0.018921 -0.006894 -0.002719 0.000000 0.000000 0.000000
# 2 -0.006894 0.021803 -0.005081 0.000000 0.000000 0.000000
# 3 -0.002719 -0.005081 0.011864 0.000000 0.000000 0.000000
# 4 0.000000 0.000000 0.000000 0.038515 0.000000 0.000000
# 5 0.000000 0.000000 0.000000 0.000000 0.037726 0.000000
# 6 0.000000 0.000000 0.000000 0.000000 0.000000 0.050074
#
#
# Mechanical properties :
#
#
# Convention : Reuss Voigt Hill
#
# Bulk Modulus (GPa) = 43.10237 45.34793 44.22515
# Shear Modulus (GPa) = 23.14575 24.23257 23.68916
#
# Velocity S-wave (km/s) = 3.66847 3.75361 3.71128
# Velocity P-wave (km/s) = 6.55779 6.71959 6.63918
#
# Compressibility (1/GPa) = 0.02320058
#
# Stress axis : x y z
#
# Youngs Moduli (GPa) = 52.85165 45.86582 84.28800
#
# Poissons Ratio (x) = 0.31619 0.22915
# Poissons Ratio (y) = 0.36435 0.42827
# Poissons Ratio (z) = 0.14369 0.23305
#
# Static dielectric constant tensor:
#      x y z
#    x 3.109030 0.000000 0.000000 
#    y 0.000000 3.216590 0.000000 
#    z 0.000000 0.000000 3.379150 
# 
# 
# High freq. dielectric constant tensor:
#      x y z
#    x 1.632520 0.000000 0.000000 
#    y 0.000000 1.674790 0.000000 
#    z 0.000000 0.000000 1.660530 
# 
# From -- ./inp_files/32700.got.cif
#   From: 2010.03.12/outbox.cif.g09.slc.cpg/sg62_17_cif.got.tgz:32700.got - 2010.04.10 19:12:36.
