data_PCOD8250115
_publ_section_title
;
Structure prediction by ZEFSAII (Michael W. Deem and Ramdas Pophale) SiO2 
 PCOD8250115
Probable space group: P N M A
;
_chemical_formula_sum "Si O2"
_cell_formula_units_Z 36
_cell_length_a 5.370728
_cell_length_b 18.227512
_cell_length_c 18.664543
_cell_angle_alpha 90.000000
_cell_angle_beta 90.000000
_cell_angle_gamma 90.000000
_cell_volume 1827.165606
_symmetry_space_group_name_H-M "P N M A"
_symmetry_group_IT_number 62
_symmetry_cell_setting 'orthorhombic'
loop_
_space_group_symop_operation_xyz
x,y,z
1/2-x,-y,1/2+z
1/2+x,1/2-y,1/2-z
-x,1/2+y,-z
-x,-y,-z
1/2+x,y,1/2-z
1/2-x,1/2+y,1/2+z
x,1/2-y,z
loop_
_atom_site_type_symbol
_atom_site_label
_atom_site_fract_x
_atom_site_fract_y
_atom_site_fract_z
Si Si1 0.250156 0.905839 0.862360
Si Si2 0.250660 0.334703 0.996304
Si Si3 0.250099 0.953210 0.619537
Si Si4 0.750644 0.101059 0.969354
Si Si5 0.262510 0.750000 0.796118
O O1 0.500427 0.945279 0.831614
O O2 0.249574 0.819815 0.847454
O O3 0.999274 0.944854 0.831482
O O4 0.249202 0.921628 0.947509
O O5 0.251104 0.250000 0.018360
O O6 0.500563 0.353007 0.950672
O O7 0.000606 0.352914 0.950723
O O8 0.250980 0.381742 0.068590
O O9 0.250991 0.027769 0.576379
O O10 0.525387 0.750000 0.755694
#
# Coordination Sequence:
#
# PCOD8250115 Si02
#       5
#     8   8   8   8   4
#     4  10  20  32  53  64  91 130 169 218 270 284
#     4  10  18  25  41  63  96 126 159 197 234 295
#     4  10  19  31  50  72  95 119 172 214 261 323
#     4  10  19  31  46  72  97 121 168 218 255 319
#     4  12  26  40  50  72 104 138 194 240 252 278
#
# _framework density 19.702648
#
# number of rings (size 3 to 8) (size 9 to 14) (size 15 to 20)
#    0.000    1.778    0.000    8.667   12.444    0.000 
#    0.000    0.000    0.000    0.000    0.000    0.000 
#    0.000    0.000    0.000    0.000    0.000  753.333 
#
# Total GULP energy -446085.657023 kJ/mol
# GULP energy per Si atom -12391.268251 kJ/mol
# Density = 1.965780 g / cm^3
# Si number density = 19.702648 Si / 1000 Ang^3
#
#
#
# Elastic Constant Matrix: (Units=GPa)
#
#
# Indices 1 2 3 4 5 6 
#
# 1 233.5453 37.5057 4.8064 0.0000 0.0000 0.0000
# 2 37.5057 99.6575 8.6330 0.0000 0.0000 0.0000
# 3 4.8064 8.6330 14.2683 0.0000 0.0000 0.0000
# 4 0.0000 0.0000 0.0000 9.8754 0.0000 0.0000
# 5 0.0000 0.0000 0.0000 0.0000 4.9611 0.0000
# 6 0.0000 0.0000 0.0000 0.0000 0.0000 37.1801
#
#
#
# Elastic Compliance Matrix: (Units=1/GPa)
#
#
# Indices 1 2 3 4 5 6 
#
# 1 0.004561 -0.001671 -0.000525 0.000000 0.000000 0.000000
# 2 -0.001671 0.011202 -0.006215 0.000000 0.000000 0.000000
# 3 -0.000525 -0.006215 0.074023 0.000000 0.000000 0.000000
# 4 0.000000 0.000000 0.000000 0.101262 0.000000 0.000000
# 5 0.000000 0.000000 0.000000 0.000000 0.201570 0.000000
# 6 0.000000 0.000000 0.000000 0.000000 0.000000 0.026896
#
#
# Mechanical properties :
#
#
# Convention : Reuss Voigt Hill
#
# Bulk Modulus (GPa) = 13.70553 49.92904 31.81729
# Shear Modulus (GPa) = 10.85407 30.17169 20.51288
#
# Velocity S-wave (km/s) = 2.34966 3.91749 3.23014
# Velocity P-wave (km/s) = 3.78583 6.77190 5.48594
#
# Compressibility (1/GPa) = 0.07296323
#
# Stress axis : x y z
#
# Youngs Moduli (GPa) = 219.25078 89.27301 13.50937
#
# Poissons Ratio (x) = 0.14917 0.00710
# Poissons Ratio (y) = 0.36637 0.08396
# Poissons Ratio (z) = 0.11519 0.55480
#
# Static dielectric constant tensor:
#      x y z
#    x 6.200660 0.000000 0.000000 
#    y 0.000000 3.492670 0.000000 
#    z 0.000000 0.000000 2.802430 
# 
# 
# High freq. dielectric constant tensor:
#      x y z
#    x 1.827720 0.000000 0.000000 
#    y 0.000000 1.759910 0.000000 
#    z 0.000000 0.000000 1.676200 
# 
# From -- ./inp_files/21480.got.cif
#   From: 2010.03.12/outbox.cif.g09.slc.cpg/sg62_11_cif.got.tgz:21480.got - 2010.04.10 19:12:36.
