data_PCOD8250525
_publ_section_title
;
Structure prediction by ZEFSAII (Michael W. Deem and Ramdas Pophale) SiO2 
 PCOD8250525
Probable space group: P N M A
;
_chemical_formula_sum "Si O2"
_cell_formula_units_Z 64
_cell_length_a 30.000913
_cell_length_b 9.102699
_cell_length_c 14.510099
_cell_angle_alpha 90.000000
_cell_angle_beta 90.000000
_cell_angle_gamma 90.000000
_cell_volume 3962.552500
_symmetry_space_group_name_H-M "P N M A"
_symmetry_group_IT_number 62
_symmetry_cell_setting 'orthorhombic'
loop_
_space_group_symop_operation_xyz
x,y,z
1/2-x,-y,1/2+z
1/2+x,1/2-y,1/2-z
-x,1/2+y,-z
-x,-y,-z
1/2+x,y,1/2-z
1/2-x,1/2+y,1/2+z
x,1/2-y,z
loop_
_atom_site_type_symbol
_atom_site_label
_atom_site_fract_x
_atom_site_fract_y
_atom_site_fract_z
Si Si1 0.221603 0.585226 0.026792
Si Si2 0.458087 0.079625 0.107180
Si Si3 0.825499 0.585788 0.488281
Si Si4 0.796294 0.421092 0.171160
Si Si5 0.140878 0.578251 0.338462
Si Si6 0.288990 0.575222 0.715503
Si Si7 0.045139 0.920378 0.397810
Si Si8 0.135839 0.920004 0.678005
O O1 0.203817 0.750000 0.049895
O O2 0.273092 0.593081 0.002754
O O3 0.211456 0.477375 0.110432
O O4 0.199553 0.517393 0.933180
O O5 0.468963 0.250000 0.107969
O O6 0.416694 0.042336 0.174640
O O7 0.502087 0.999740 0.145247
O O8 0.446126 0.025779 0.003291
O O9 0.845361 0.750000 0.503769
O O10 0.843704 0.470214 0.561052
O O11 0.837531 0.527407 0.388153
O O12 0.785970 0.250000 0.162095
O O13 0.754493 0.486895 0.229840
O O14 0.843575 0.450901 0.221132
O O15 0.151176 0.750000 0.325712
O O16 0.165881 0.485887 0.260664
O O17 0.087854 0.545796 0.333811
O O18 0.290483 0.750000 0.716521
O O19 0.034286 0.750000 0.398835
O O20 0.143766 0.750000 0.648842
#
# Coordination Sequence:
#
# PCOD8250525 Si02
#       8
#     8   8   8   8   8   8   8   8
#     4  10  20  35  48  68  99 132 166 202 239 282
#     4   9  17  29  46  70  97 125 162 200 240 294
#     4  11  20  29  46  72 101 131 168 207 238 282
#     4   9  18  32  50  69  96 129 166 201 236 287
#     4  11  21  34  50  70  98 134 169 202 243 295
#     4  11  21  34  51  74  98 129 167 204 243 285
#     4   9  18  31  46  67  96 129 162 196 243 297
#     4  10  18  32  50  70  97 134 169 200 244 293
#
# _framework density 16.151205000000001
#
# number of rings (size 3 to 8) (size 9 to 14) (size 15 to 20)
#    0.000    2.000    3.750    1.125    0.000    2.000 
#    0.000    0.625    0.000    0.000    0.000    0.875 
#    0.000    0.000    0.000    0.000    0.000    0.000 
#
# Total GULP energy -793393.548829 kJ/mol
# GULP energy per Si atom -12396.774200 kJ/mol
# Density = 1.611444 g / cm^3
# Si number density = 16.151205 Si / 1000 Ang^3
#
#
#
# Elastic Constant Matrix: (Units=GPa)
#
#
# Indices 1 2 3 4 5 6 
#
# 1 74.7585 25.2273 18.1810 0.0000 0.0000 0.0000
# 2 25.2273 48.7255 20.4849 0.0000 0.0000 0.0000
# 3 18.1810 20.4849 71.5608 0.0000 0.0000 0.0000
# 4 0.0000 0.0000 0.0000 20.6096 0.0000 0.0000
# 5 0.0000 0.0000 0.0000 0.0000 4.3438 0.0000
# 6 0.0000 0.0000 0.0000 0.0000 0.0000 24.6479
#
#
#
# Elastic Compliance Matrix: (Units=1/GPa)
#
#
# Indices 1 2 3 4 5 6 
#
# 1 0.016451 -0.007685 -0.001980 0.000000 0.000000 0.000000
# 2 -0.007685 0.026921 -0.005754 0.000000 0.000000 0.000000
# 3 -0.001980 -0.005754 0.016124 0.000000 0.000000 0.000000
# 4 0.000000 0.000000 0.000000 0.048521 0.000000 0.000000
# 5 0.000000 0.000000 0.000000 0.000000 0.230211 0.000000
# 6 0.000000 0.000000 0.000000 0.000000 0.000000 0.040571
#
#
# Mechanical properties :
#
#
# Convention : Reuss Voigt Hill
#
# Bulk Modulus (GPa) = 34.89308 35.87013 35.38161
# Shear Modulus (GPa) = 11.92776 18.66373 15.29574
#
# Velocity S-wave (km/s) = 2.72049 3.40304 3.08073
# Velocity P-wave (km/s) = 5.61418 6.13988 5.88291
#
# Compressibility (1/GPa) = 0.02865897
#
# Stress axis : x y z
#
# Youngs Moduli (GPa) = 60.78566 37.14558 62.01868
#
# Poissons Ratio (x) = 0.28547 0.12278
# Poissons Ratio (y) = 0.46715 0.35685
# Poissons Ratio (z) = 0.12034 0.21373
#
# Static dielectric constant tensor:
#      x y z
#    x 3.105590 0.000000 0.000000 
#    y 0.000000 3.047740 0.000000 
#    z 0.000000 0.000000 2.998120 
# 
# 
# High freq. dielectric constant tensor:
#      x y z
#    x 1.612010 0.000000 0.000000 
#    y 0.000000 1.617890 0.000000 
#    z 0.000000 0.000000 1.595310 
# 
# From -- ./inp_files/21274.got.cif
#   From: 2010.03.12/outbox.cif.g09.slc.cpg/sg62_11_cif.got.tgz:21274.got - 2010.04.10 19:12:36.
