data_PCOD8250912
_publ_section_title
;
Structure prediction by ZEFSAII (Michael W. Deem and Ramdas Pophale) SiO2 
 PCOD8250912
Probable space group: P N M A
;
_chemical_formula_sum "Si O2"
_cell_formula_units_Z 64
_cell_length_a 17.900992
_cell_length_b 18.124579
_cell_length_c 11.056953
_cell_angle_alpha 90.000000
_cell_angle_beta 90.000000
_cell_angle_gamma 90.000000
_cell_volume 3587.405664
_symmetry_space_group_name_H-M "P N M A"
_symmetry_group_IT_number 62
_symmetry_cell_setting 'orthorhombic'
loop_
_space_group_symop_operation_xyz
x,y,z
1/2-x,-y,1/2+z
1/2+x,1/2-y,1/2-z
-x,1/2+y,-z
-x,-y,-z
1/2+x,y,1/2-z
1/2-x,1/2+y,1/2+z
x,1/2-y,z
loop_
_atom_site_type_symbol
_atom_site_label
_atom_site_fract_x
_atom_site_fract_y
_atom_site_fract_z
Si Si1 0.550168 0.471954 0.673287
Si Si2 0.838952 0.667876 0.578110
Si Si3 0.891956 0.022858 0.933805
Si Si4 0.805769 0.972296 0.718188
Si Si5 0.849539 0.412054 0.269451
Si Si6 0.050657 0.095563 0.587352
Si Si7 0.671097 0.831343 0.544739
Si Si8 0.890733 0.056028 0.521898
O O1 0.461988 0.474395 0.655082
O O2 0.593075 0.466460 0.545175
O O3 0.572011 0.548976 0.737632
O O4 0.567742 0.405534 0.767687
O O5 0.845733 0.750000 0.635631
O O6 0.845453 0.605392 0.681756
O O7 0.903825 0.661176 0.476601
O O8 0.758554 0.658603 0.513049
O O9 0.824411 0.990162 0.857091
O O10 0.875826 0.106019 0.977227
O O11 0.716200 0.965986 0.718374
O O12 0.832110 0.038828 0.629872
O O13 0.841467 0.337219 0.191157
O O14 0.847753 0.398887 0.414396
O O15 0.961370 0.104027 0.567509
O O16 0.080818 0.020950 0.529023
O O17 0.643448 0.750000 0.504345
#
# Coordination Sequence:
#
# PCOD8250912 Si02
#       8
#     8   8   8   8   8   8   8   8
#     4   9  18  31  48  75 105 132 168 218 265 302
#     4   9  19  34  53  75 105 140 175 217 266 325
#     4  10  19  31  52  78 106 139 175 220 260 310
#     4  10  19  30  52  80 104 134 179 220 266 308
#     4   9  19  29  51  75 101 130 173 222 261 310
#     4   9  16  30  50  71  99 136 166 214 263 306
#     4   9  19  36  52  73 104 141 176 212 265 321
#     4   9  17  29  48  74 102 126 167 221 265 295
#
# _framework density 17.840191000000001
#
# number of rings (size 3 to 8) (size 9 to 14) (size 15 to 20)
#    0.000    2.750    1.250    0.000   10.500    0.000 
#    0.000    1.250    0.000    1.500    0.000    3.500 
#    0.000    0.000    0.000    0.000    0.000    0.000 
#
# Total GULP energy -792944.294920 kJ/mol
# GULP energy per Si atom -12389.754608 kJ/mol
# Density = 1.779959 g / cm^3
# Si number density = 17.840191 Si / 1000 Ang^3
#
#
#
# Elastic Constant Matrix: (Units=GPa)
#
#
# Indices 1 2 3 4 5 6 
#
# 1 73.8653 30.2890 27.5370 0.0000 0.0000 0.0000
# 2 30.2890 67.5639 29.2514 0.0000 0.0000 0.0000
# 3 27.5370 29.2514 94.9950 0.0000 0.0000 0.0000
# 4 0.0000 0.0000 0.0000 16.5323 0.0000 0.0000
# 5 0.0000 0.0000 0.0000 0.0000 27.8655 0.0000
# 6 0.0000 0.0000 0.0000 0.0000 0.0000 13.8855
#
#
#
# Elastic Compliance Matrix: (Units=1/GPa)
#
#
# Indices 1 2 3 4 5 6 
#
# 1 0.017313 -0.006448 -0.003033 0.000000 0.000000 0.000000
# 2 -0.006448 0.019479 -0.004129 0.000000 0.000000 0.000000
# 3 -0.003033 -0.004129 0.012677 0.000000 0.000000 0.000000
# 4 0.000000 0.000000 0.000000 0.060488 0.000000 0.000000
# 5 0.000000 0.000000 0.000000 0.000000 0.035887 0.000000
# 6 0.000000 0.000000 0.000000 0.000000 0.000000 0.072018
#
#
# Mechanical properties :
#
#
# Convention : Reuss Voigt Hill
#
# Bulk Modulus (GPa) = 44.94560 45.61988 45.28274
# Shear Modulus (GPa) = 19.80208 21.61312 20.70760
#
# Velocity S-wave (km/s) = 3.33524 3.48441 3.41064
# Velocity P-wave (km/s) = 6.33087 6.46646 6.39902
#
# Compressibility (1/GPa) = 0.02224912
#
# Stress axis : x y z
#
# Youngs Moduli (GPa) = 57.75983 51.33692 78.87996
#
# Poissons Ratio (x) = 0.33104 0.23925
# Poissons Ratio (y) = 0.37245 0.32569
# Poissons Ratio (z) = 0.17519 0.21196
#
# Static dielectric constant tensor:
#      x y z
#    x 3.391160 0.000000 0.000000 
#    y 0.000000 2.952750 0.000000 
#    z 0.000000 0.000000 3.511340 
# 
# 
# High freq. dielectric constant tensor:
#      x y z
#    x 1.695020 0.000000 0.000000 
#    y 0.000000 1.635630 0.000000 
#    z 0.000000 0.000000 1.692550 
# 
# From -- ./inp_files/14422.got.cif
#   From: 2010.03.12/outbox.cif.g09.slc.cpg/sg62_8_cif.got.tgz:14422.got - 2010.04.10 19:12:36.
