data_PCOD8250883
_publ_section_title
;
Structure prediction by ZEFSAII (Michael W. Deem and Ramdas Pophale) SiO2 
 PCOD8250883
Probable space group: P N M A
;
_chemical_formula_sum "Si O2"
_cell_formula_units_Z 64
_cell_length_a 17.790380
_cell_length_b 8.823500
_cell_length_c 20.957903
_cell_angle_alpha 90.000000
_cell_angle_beta 90.000000
_cell_angle_gamma 90.000000
_cell_volume 3289.833667
_symmetry_space_group_name_H-M "P N M A"
_symmetry_group_IT_number 62
_symmetry_cell_setting 'orthorhombic'
loop_
_space_group_symop_operation_xyz
x,y,z
1/2-x,-y,1/2+z
1/2+x,1/2-y,1/2-z
-x,1/2+y,-z
-x,-y,-z
1/2+x,y,1/2-z
1/2-x,1/2+y,1/2+z
x,1/2-y,z
loop_
_atom_site_type_symbol
_atom_site_label
_atom_site_fract_x
_atom_site_fract_y
_atom_site_fract_z
Si Si1 0.490297 0.917632 0.597061
Si Si2 0.653471 0.429576 0.121680
Si Si3 0.717971 0.575454 0.246045
Si Si4 0.279552 0.571891 0.009433
Si Si5 0.551554 0.579621 0.283416
Si Si6 0.890489 0.420613 0.999576
Si Si7 0.332874 0.929855 0.146047
Si Si8 0.008722 0.574628 0.667327
O O1 0.471466 0.750000 0.624538
O O2 0.575277 0.920370 0.570804
O O3 0.481109 0.051595 0.647127
O O4 0.432881 0.952193 0.540334
O O5 0.661999 0.250000 0.126000
O O6 0.708453 0.493608 0.177432
O O7 0.566290 0.478907 0.129747
O O8 0.674864 0.493595 0.051593
O O9 0.735026 0.750000 0.230924
O O10 0.640950 0.554851 0.285348
O O11 0.784015 0.508512 0.292817
O O12 0.292888 0.750000 0.011759
O O13 0.194573 0.526988 0.995682
O O14 0.303275 0.503269 0.078264
O O15 0.531829 0.750000 0.260895
O O16 0.509362 0.456152 0.240808
O O17 0.897056 0.250000 0.969951
O O18 0.325498 0.750000 0.146494
O O19 0.419552 0.976708 0.148265
O O20 0.027106 0.750000 0.655954
#
# Coordination Sequence:
#
# PCOD8250883 Si02
#       8
#     8   8   8   8   8   8   8   8
#     4  10  19  30  48  77 110 139 170 213 263 315
#     4   9  19  36  57  79 105 140 177 218 271 322
#     4   9  19  35  55  79 105 136 176 220 264 315
#     4   9  18  35  57  77 100 136 182 224 263 315
#     4  10  19  34  56  77 101 137 177 215 262 318
#     4   9  18  33  51  72 102 140 177 211 256 318
#     4  10  20  35  56  80 105 137 178 219 260 313
#     4  10  21  36  52  76 108 136 171 219 269 319
#
# _framework density 19.453870999999999
#
# number of rings (size 3 to 8) (size 9 to 14) (size 15 to 20)
#    0.000    2.500    0.000    1.875    0.000    5.500 
#    0.000    4.375    0.000    0.000    0.000    0.000 
#    0.000    0.000    0.000    0.000    0.000    0.000 
#
# Total GULP energy -793168.373775 kJ/mol
# GULP energy per Si atom -12393.255840 kJ/mol
# Density = 1.940959 g / cm^3
# Si number density = 19.453871 Si / 1000 Ang^3
#
#
#
# Elastic Constant Matrix: (Units=GPa)
#
#
# Indices 1 2 3 4 5 6 
#
# 1 119.8094 21.9905 56.3151 0.0000 0.0000 0.0000
# 2 21.9905 31.2641 17.2051 0.0000 0.0000 0.0000
# 3 56.3151 17.2051 107.6444 0.0000 0.0000 0.0000
# 4 0.0000 0.0000 0.0000 26.4050 0.0000 0.0000
# 5 0.0000 0.0000 0.0000 0.0000 19.9399 0.0000
# 6 0.0000 0.0000 0.0000 0.0000 0.0000 25.9837
#
#
#
# Elastic Compliance Matrix: (Units=1/GPa)
#
#
# Indices 1 2 3 4 5 6 
#
# 1 0.011844 -0.005396 -0.005334 0.000000 0.000000 0.000000
# 2 -0.005396 0.037528 -0.003176 0.000000 0.000000 0.000000
# 3 -0.005334 -0.003176 0.012588 0.000000 0.000000 0.000000
# 4 0.000000 0.000000 0.000000 0.037872 0.000000 0.000000
# 5 0.000000 0.000000 0.000000 0.000000 0.050151 0.000000
# 6 0.000000 0.000000 0.000000 0.000000 0.000000 0.038486
#
#
# Mechanical properties :
#
#
# Convention : Reuss Voigt Hill
#
# Bulk Modulus (GPa) = 29.28239 49.97102 39.62671
# Shear Modulus (GPa) = 21.96243 25.34622 23.65432
#
# Velocity S-wave (km/s) = 3.36363 3.61347 3.49079
# Velocity P-wave (km/s) = 5.49274 6.56904 6.05485
#
# Compressibility (1/GPa) = 0.03415021
#
# Stress axis : x y z
#
# Youngs Moduli (GPa) = 84.43039 26.64660 79.44138
#
# Poissons Ratio (x) = 0.14377 0.42374
# Poissons Ratio (y) = 0.45554 0.25227
# Poissons Ratio (z) = 0.45035 0.08462
#
# Static dielectric constant tensor:
#      x y z
#    x 3.567820 0.000000 0.000000 
#    y 0.000000 3.332930 0.000000 
#    z 0.000000 0.000000 3.672940 
# 
# 
# High freq. dielectric constant tensor:
#      x y z
#    x 1.756310 0.000000 0.000000 
#    y 0.000000 1.737220 0.000000 
#    z 0.000000 0.000000 1.756480 
# 
# From -- ./inp_files/27765.got.cif
#   From: 2010.03.12/outbox.cif.g09.slc.cpg/sg62_14_cif.got.tgz:27765.got - 2010.04.10 19:12:36.
