data_PCOD8250120
_publ_section_title
;
Structure prediction by ZEFSAII (Michael W. Deem and Ramdas Pophale) SiO2 
 PCOD8250120
Probable space group: P N M A
;
_chemical_formula_sum "Si O2"
_cell_formula_units_Z 64
_cell_length_a 18.058516
_cell_length_b 9.399492
_cell_length_c 26.121389
_cell_angle_alpha 90.000000
_cell_angle_beta 90.000000
_cell_angle_gamma 90.000000
_cell_volume 4433.867469
_symmetry_space_group_name_H-M "P N M A"
_symmetry_group_IT_number 62
_symmetry_cell_setting 'orthorhombic'
loop_
_space_group_symop_operation_xyz
x,y,z
1/2-x,-y,1/2+z
1/2+x,1/2-y,1/2-z
-x,1/2+y,-z
-x,-y,-z
1/2+x,y,1/2-z
1/2-x,1/2+y,1/2+z
x,1/2-y,z
loop_
_atom_site_type_symbol
_atom_site_label
_atom_site_fract_x
_atom_site_fract_y
_atom_site_fract_z
Si Si1 0.846091 0.084300 0.143605
Si Si2 0.917807 0.082699 0.748408
Si Si3 0.084661 0.914957 0.048894
Si Si4 0.587099 0.415830 0.551322
Si Si5 0.298277 0.592834 0.799750
Si Si6 0.568049 0.583254 0.746291
Si Si7 0.669884 0.915547 0.350111
Si Si8 0.209322 0.593153 0.694932
O O1 0.856897 0.250000 0.129689
O O2 0.759961 0.051264 0.155946
O O3 0.898122 0.042766 0.191264
O O4 0.866349 0.985795 0.096323
O O5 0.925660 0.250000 0.740342
O O6 0.884760 0.043020 0.803844
O O7 0.864441 0.021261 0.703822
O O8 0.996983 0.011177 0.743132
O O9 0.098332 0.750000 0.035464
O O10 0.131905 0.965493 0.097553
O O11 0.999197 0.942171 0.062375
O O12 0.110762 0.010518 0.001634
O O13 0.606462 0.250000 0.547973
O O14 0.331732 0.750000 0.810462
O O15 0.253359 0.597230 0.747520
O O16 0.548050 0.750000 0.747906
O O17 0.625959 0.543872 0.791579
O O18 0.686028 0.750000 0.350014
O O19 0.750002 0.989578 0.344975
O O20 0.208000 0.750000 0.670161
#
# Coordination Sequence:
#
# PCOD8250120 Si02
#       8
#     8   8   8   8   8   8   8   8
#     4   9  17  29  44  59  78 108 141 169 201 241
#     4  10  18  26  39  61  85 107 134 168 203 236
#     4   9  18  31  42  55  80 110 138 168 202 241
#     4  10  19  29  42  60  81 105 136 174 208 236
#     4   8  15  28  42  56  77 106 137 165 196 238
#     4   9  17  28  41  58  81 109 138 165 196 238
#     4   9  17  28  41  57  79 107 136 167 203 238
#     4   8  15  27  41  57  77 102 134 168 197 232
#
# _framework density 14.434352000000001
#
# number of rings (size 3 to 8) (size 9 to 14) (size 15 to 20)
#    0.000    3.000    0.000    3.000    0.000    4.000 
#    0.000    2.500    0.000    0.000    0.000    0.000 
#    0.000    1.000    0.000    3.250    0.000    4.000 
#
# Total GULP energy -793407.214712 kJ/mol
# GULP energy per Si atom -12396.987730 kJ/mol
# Density = 1.440150 g / cm^3
# Si number density = 14.434352 Si / 1000 Ang^3
#
#
#
# Elastic Constant Matrix: (Units=GPa)
#
#
# Indices 1 2 3 4 5 6 
#
# 1 99.4016 62.2599 48.8943 0.0000 0.0000 0.0000
# 2 62.2599 78.8605 50.3272 0.0000 0.0000 0.0000
# 3 48.8943 50.3272 78.6418 0.0000 0.0000 0.0000
# 4 0.0000 0.0000 0.0000 22.4510 0.0000 0.0000
# 5 0.0000 0.0000 0.0000 0.0000 24.2381 0.0000
# 6 0.0000 0.0000 0.0000 0.0000 0.0000 26.6417
#
#
#
# Elastic Compliance Matrix: (Units=1/GPa)
#
#
# Indices 1 2 3 4 5 6 
#
# 1 0.020642 -0.013703 -0.004065 0.000000 0.000000 0.000000
# 2 -0.013703 0.030531 -0.011019 0.000000 0.000000 0.000000
# 3 -0.004065 -0.011019 0.022295 0.000000 0.000000 0.000000
# 4 0.000000 0.000000 0.000000 0.044541 0.000000 0.000000
# 5 0.000000 0.000000 0.000000 0.000000 0.041257 0.000000
# 6 0.000000 0.000000 0.000000 0.000000 0.000000 0.037535
#
#
# Mechanical properties :
#
#
# Convention : Reuss Voigt Hill
#
# Bulk Modulus (GPa) = 62.91352 64.42963 63.67157
# Shear Modulus (GPa) = 19.25493 21.02767 20.14130
#
# Velocity S-wave (km/s) = 3.65631 3.82092 3.73952
# Velocity P-wave (km/s) = 7.84254 8.01243 7.92794
#
# Compressibility (1/GPa) = 0.01589483
#
# Stress axis : x y z
#
# Youngs Moduli (GPa) = 48.44383 32.75353 44.85378
#
# Poissons Ratio (x) = 0.44882 0.18232
# Poissons Ratio (y) = 0.66383 0.49424
# Poissons Ratio (z) = 0.19691 0.36091
#
# Static dielectric constant tensor:
#      x y z
#    x 2.829140 0.000000 0.000000 
#    y 0.000000 2.898160 0.000000 
#    z 0.000000 0.000000 2.658750 
# 
# 
# High freq. dielectric constant tensor:
#      x y z
#    x 1.539670 0.000000 0.000000 
#    y 0.000000 1.558550 0.000000 
#    z 0.000000 0.000000 1.519300 
# 
# From -- ./inp_files/31343.got.cif
#   From: 2010.03.12/outbox.cif.g09.slc.cpg/sg62_16_cif.got.tgz:31343.got - 2010.04.10 19:12:36.
