data_PCOD8250079
_publ_section_title
;
Structure prediction by ZEFSAII (Michael W. Deem and Ramdas Pophale) SiO2 
 PCOD8250079
Probable space group: P N M A
;
_chemical_formula_sum "Si O2"
_cell_formula_units_Z 48
_cell_length_a 15.001568
_cell_length_b 18.802016
_cell_length_c 9.608193
_cell_angle_alpha 90.000000
_cell_angle_beta 90.000000
_cell_angle_gamma 90.000000
_cell_volume 2710.084242
_symmetry_space_group_name_H-M "P N M A"
_symmetry_group_IT_number 62
_symmetry_cell_setting 'orthorhombic'
loop_
_space_group_symop_operation_xyz
x,y,z
1/2-x,-y,1/2+z
1/2+x,1/2-y,1/2-z
-x,1/2+y,-z
-x,-y,-z
1/2+x,y,1/2-z
1/2-x,1/2+y,1/2+z
x,1/2-y,z
loop_
_atom_site_type_symbol
_atom_site_label
_atom_site_fract_x
_atom_site_fract_y
_atom_site_fract_z
Si Si1 0.373826 0.880703 0.825064
Si Si2 0.094254 0.750000 0.994913
Si Si3 0.296075 0.250000 0.070424
Si Si4 0.964635 0.033791 0.319556
Si Si5 0.078504 0.750000 0.315729
Si Si6 0.517412 0.387879 0.923223
Si Si7 0.828613 0.135072 0.203023
Si Si8 0.097252 0.250000 0.129862
O O1 0.432478 0.948886 0.775466
O O2 0.269626 0.896570 0.819475
O O3 0.406691 0.817514 0.728288
O O4 0.399360 0.859967 0.984328
O O5 0.140751 0.680964 0.928999
O O6 0.987505 0.750000 0.971756
O O7 0.113752 0.750000 0.158719
O O8 0.329697 0.318219 0.156601
O O9 0.189818 0.250000 0.044944
O O10 0.337617 0.250000 0.918152
O O11 0.894242 0.068250 0.214033
O O12 0.948235 0.070164 0.472920
O O13 0.949508 0.948801 0.315366
O O14 0.022291 0.678474 0.340830
#
# Coordination Sequence:
#
# PCOD8250079 Si02
#       8
#     8   4   4   8   4   8   8   4
#     4   9  17  31  61  84 106 139 198 234 268 326
#     4  11  22  34  52  84 120 146 185 236 290 332
#     4   9  18  31  55  82 101 149 198 216 275 339
#     4   9  17  34  61  80 108 138 200 224 275 336
#     4  12  21  37  57  78 120 150 177 235 295 331
#     4   9  19  34  58  83 108 148 187 228 276 346
#     4  10  18  34  59  83 107 146 193 240 267 329
#     4  10  17  32  54  84 111 149 182 235 274 336
#
# _framework density 17.711625999999999
#
# number of rings (size 3 to 8) (size 9 to 14) (size 15 to 20)
#    1.000    1.333    3.333    1.000    2.333    0.000 
#    3.000    2.500    7.333    0.000    0.000    0.000 
#    0.000    0.000    0.000    0.000    0.000    0.000 
#
# Total GULP energy -594719.792180 kJ/mol
# GULP energy per Si atom -12389.995670 kJ/mol
# Density = 1.767131 g / cm^3
# Si number density = 17.711626 Si / 1000 Ang^3
#
#
#
# Elastic Constant Matrix: (Units=GPa)
#
#
# Indices 1 2 3 4 5 6 
#
# 1 122.3774 40.9843 53.1166 0.0000 0.0000 0.0000
# 2 40.9843 84.0904 46.0477 0.0000 0.0000 0.0000
# 3 53.1166 46.0477 99.5404 0.0000 0.0000 0.0000
# 4 0.0000 0.0000 0.0000 16.1191 0.0000 0.0000
# 5 0.0000 0.0000 0.0000 0.0000 19.5863 0.0000
# 6 0.0000 0.0000 0.0000 0.0000 0.0000 12.4102
#
#
#
# Elastic Compliance Matrix: (Units=1/GPa)
#
#
# Indices 1 2 3 4 5 6 
#
# 1 0.011143 -0.002913 -0.004599 0.000000 0.000000 0.000000
# 2 -0.002913 0.016688 -0.006166 0.000000 0.000000 0.000000
# 3 -0.004599 -0.006166 0.015352 0.000000 0.000000 0.000000
# 4 0.000000 0.000000 0.000000 0.062038 0.000000 0.000000
# 5 0.000000 0.000000 0.000000 0.000000 0.051056 0.000000
# 6 0.000000 0.000000 0.000000 0.000000 0.000000 0.080579
#
#
# Mechanical properties :
#
#
# Convention : Reuss Voigt Hill
#
# Bulk Modulus (GPa) = 63.17426 65.14505 64.15965
# Shear Modulus (GPa) = 18.55381 20.68043 19.61712
#
# Velocity S-wave (km/s) = 3.24010 3.42075 3.33165
# Velocity P-wave (km/s) = 7.05289 7.24312 7.14864
#
# Compressibility (1/GPa) = 0.01582923
#
# Stress axis : x y z
#
# Youngs Moduli (GPa) = 89.74332 59.92404 65.13681
#
# Poissons Ratio (x) = 0.17454 0.29954
# Poissons Ratio (y) = 0.26139 0.40161
# Poissons Ratio (z) = 0.41270 0.36947
#
# Static dielectric constant tensor:
#      x y z
#    x 3.228030 0.000000 0.000000 
#    y 0.000000 3.192690 0.000000 
#    z 0.000000 0.000000 2.984520 
# 
# 
# High freq. dielectric constant tensor:
#      x y z
#    x 1.679810 0.000000 0.000000 
#    y 0.000000 1.679480 0.000000 
#    z 0.000000 0.000000 1.653910 
# 
# From -- ./inp_files/6652.got.cif
#   From: 2010.03.12/outbox.cif.g09.slc.cpg/sg62_4_cif.got.tgz:6652.got - 2010.04.10 19:12:36.
