data_PCOD8250013
_publ_section_title
;
Structure prediction by ZEFSAII (Michael W. Deem and Ramdas Pophale) SiO2 
 PCOD8250013
Probable space group: P N M A
;
_chemical_formula_sum "Si O2"
_cell_formula_units_Z 64
_cell_length_a 22.165942
_cell_length_b 9.249875
_cell_length_c 16.871406
_cell_angle_alpha 90.000000
_cell_angle_beta 90.000000
_cell_angle_gamma 90.000000
_cell_volume 3459.181367
_symmetry_space_group_name_H-M "P N M A"
_symmetry_group_IT_number 62
_symmetry_cell_setting 'orthorhombic'
loop_
_space_group_symop_operation_xyz
x,y,z
1/2-x,-y,1/2+z
1/2+x,1/2-y,1/2-z
-x,1/2+y,-z
-x,-y,-z
1/2+x,y,1/2-z
1/2-x,1/2+y,1/2+z
x,1/2-y,z
loop_
_atom_site_type_symbol
_atom_site_label
_atom_site_fract_x
_atom_site_fract_y
_atom_site_fract_z
Si Si1 0.871248 0.077849 0.034679
Si Si2 0.846244 0.578491 0.713163
Si Si3 0.099421 0.421197 0.126511
Si Si4 0.947473 0.919177 0.600213
Si Si5 0.759928 0.921632 0.581692
Si Si6 0.638609 0.418722 0.961691
Si Si7 0.535397 0.921045 0.665651
Si Si8 0.072634 0.578705 0.662151
O O1 0.871900 0.250000 0.024719
O O2 0.807706 0.021364 0.069932
O O3 0.923560 0.022773 0.093372
O O4 0.880872 0.005753 0.950571
O O5 0.848384 0.750000 0.706416
O O6 0.851920 0.534295 0.805387
O O7 0.903769 0.512610 0.666990
O O8 0.785778 0.522961 0.667324
O O9 0.099665 0.250000 0.110073
O O10 0.032981 0.474826 0.153159
O O11 0.949815 0.750000 0.616269
O O12 0.920878 0.953770 0.513953
O O13 0.014821 0.978103 0.612168
O O14 0.761197 0.750000 0.581331
O O15 0.802440 0.975168 0.509159
O O16 0.644380 0.250000 0.942730
O O17 0.631005 0.504465 0.878743
O O18 0.535675 0.750000 0.668828
O O19 0.564024 0.977752 0.747922
O O20 0.082099 0.750000 0.659092
#
# Coordination Sequence:
#
# PCOD8250013 Si02
#       8
#     8   8   8   8   8   8   8   8
#     4  10  20  35  52  71  98 131 165 201 245 294
#     4   8  13  26  50  74  92 122 166 202 230 279
#     4  10  18  32  55  79  99 122 162 209 249 285
#     4   8  13  24  45  68  94 125 158 192 235 290
#     4   8  16  32  51  68  93 131 170 198 230 290
#     4   9  17  29  46  69  93 126 166 199 235 288
#     4   9  18  32  51  74 100 130 162 201 246 294
#     4  10  17  28  46  71 101 127 155 198 248 288
#
# _framework density 18.501487000000001
#
# number of rings (size 3 to 8) (size 9 to 14) (size 15 to 20)
#    0.000    3.000    1.250    2.250    0.000    0.000 
#    2.250    1.875    0.000    3.750    0.000    0.000 
#    0.000    0.000    0.000    0.000    0.000    0.000 
#
# Total GULP energy -792984.853714 kJ/mol
# GULP energy per Si atom -12390.388339 kJ/mol
# Density = 1.845938 g / cm^3
# Si number density = 18.501487 Si / 1000 Ang^3
#
#
#
# Elastic Constant Matrix: (Units=GPa)
#
#
# Indices 1 2 3 4 5 6 
#
# 1 100.1896 18.5547 68.1731 0.0000 0.0000 0.0000
# 2 18.5547 21.4201 31.1331 0.0000 0.0000 0.0000
# 3 68.1731 31.1331 133.0150 0.0000 0.0000 0.0000
# 4 0.0000 0.0000 0.0000 27.9415 0.0000 0.0000
# 5 0.0000 0.0000 0.0000 0.0000 22.7478 0.0000
# 6 0.0000 0.0000 0.0000 0.0000 0.0000 13.7257
#
#
#
# Elastic Compliance Matrix: (Units=1/GPa)
#
#
# Indices 1 2 3 4 5 6 
#
# 1 0.015439 -0.002838 -0.007248 0.000000 0.000000 0.000000
# 2 -0.002838 0.071277 -0.015228 0.000000 0.000000 0.000000
# 3 -0.007248 -0.015228 0.014797 0.000000 0.000000 0.000000
# 4 0.000000 0.000000 0.000000 0.035789 0.000000 0.000000
# 5 0.000000 0.000000 0.000000 0.000000 0.043960 0.000000
# 6 0.000000 0.000000 0.000000 0.000000 0.000000 0.072856
#
#
# Mechanical properties :
#
#
# Convention : Reuss Voigt Hill
#
# Bulk Modulus (GPa) = 19.65284 54.48296 37.06790
# Shear Modulus (GPa) = 15.54197 22.00059 18.77128
#
# Velocity S-wave (km/s) = 2.90149 3.45211 3.18871
# Velocity P-wave (km/s) = 4.67656 6.73804 5.79963
#
# Compressibility (1/GPa) = 0.05088322
#
# Stress axis : x y z
#
# Youngs Moduli (GPa) = 64.77165 14.02975 67.58044
#
# Poissons Ratio (x) = 0.03982 0.48985
# Poissons Ratio (y) = 0.18385 1.02913
# Poissons Ratio (z) = 0.46949 0.21365
#
# Static dielectric constant tensor:
#      x y z
#    x 3.748680 0.000000 0.000000 
#    y 0.000000 2.819300 0.000000 
#    z 0.000000 0.000000 3.566970 
# 
# 
# High freq. dielectric constant tensor:
#      x y z
#    x 1.713790 0.000000 0.000000 
#    y 0.000000 1.654230 0.000000 
#    z 0.000000 0.000000 1.727100 
# 
# From -- ./inp_files/20813.got.cif
#   From: 2010.03.12/outbox.cif.g09.slc.cpg/sg62_11_cif.got.tgz:20813.got - 2010.04.10 19:12:36.
