data_PCOD8250109
_publ_section_title
;
Structure prediction by ZEFSAII (Michael W. Deem and Ramdas Pophale) SiO2 
 PCOD8250109
Probable space group: P N M A
;
_chemical_formula_sum "Si O2"
_cell_formula_units_Z 56
_cell_length_a 9.371131
_cell_length_b 19.152456
_cell_length_c 16.811285
_cell_angle_alpha 90.000000
_cell_angle_beta 90.000000
_cell_angle_gamma 90.000000
_cell_volume 3017.292359
_symmetry_space_group_name_H-M "P N M A"
_symmetry_group_IT_number 62
_symmetry_cell_setting 'orthorhombic'
loop_
_space_group_symop_operation_xyz
x,y,z
1/2-x,-y,1/2+z
1/2+x,1/2-y,1/2-z
-x,1/2+y,-z
-x,-y,-z
1/2+x,y,1/2-z
1/2-x,1/2+y,1/2+z
x,1/2-y,z
loop_
_atom_site_type_symbol
_atom_site_label
_atom_site_fract_x
_atom_site_fract_y
_atom_site_fract_z
Si Si1 0.772304 0.250000 0.345906
Si Si2 0.906889 0.429797 0.998083
Si Si3 0.990321 0.019217 0.684968
Si Si4 0.828528 0.883944 0.935554
Si Si5 0.142326 0.389808 0.402303
Si Si6 0.560628 0.574801 0.025370
Si Si7 0.893459 0.750000 0.684832
Si Si8 0.681658 0.982238 0.338380
O O1 0.745050 0.184019 0.401297
O O2 0.659172 0.250000 0.275068
O O3 0.934540 0.250000 0.314807
O O4 0.835496 0.426007 0.910559
O O5 0.786628 0.425832 0.066111
O O6 0.000000 0.500000 0.000000
O O7 0.021929 0.368292 0.018178
O O8 0.934208 0.943106 0.658177
O O9 0.949525 0.079593 0.620780
O O10 0.923927 0.041249 0.768644
O O11 0.159339 0.017259 0.695488
O O12 0.858064 0.939257 0.865109
O O13 0.724022 0.919735 0.999645
O O14 0.173296 0.317786 0.357437
O O15 0.038579 0.370497 0.477206
O O16 0.500000 0.500000 0.000000
#
# Coordination Sequence:
#
# PCOD8250109 Si02
#       8
#     4   8   8   8   8   8   4   8
#     4  12  26  42  58  88 123 162 201 235 275 348
#     4  10  22  37  58  83 112 151 198 244 294 349
#     4  11  21  32  55  82 117 145 184 241 297 341
#     4  11  22  38  58  80 119 156 198 234 282 344
#     4  11  21  39  58  78 117 161 199 233 282 349
#     4  10  17  37  57  75 108 154 193 243 286 343
#     4  12  26  40  60  86 121 164 203 233 281 340
#     4  11  21  34  52  87 114 146 184 237 297 343
#
# _framework density 18.559685999999999
#
# number of rings (size 3 to 8) (size 9 to 14) (size 15 to 20)
#    0.000    1.143    5.714    3.429    8.000    0.000 
#    0.000    0.000    0.000    0.000    0.000    6.000 
#    0.000    0.000    0.000    0.000    0.000    0.000 
#
# Total GULP energy -694182.521506 kJ/mol
# GULP energy per Si atom -12396.116455 kJ/mol
# Density = 1.851744 g / cm^3
# Si number density = 18.559686 Si / 1000 Ang^3
#
#
#
# Elastic Constant Matrix: (Units=GPa)
#
#
# Indices 1 2 3 4 5 6 
#
# 1 146.0200 20.7988 50.4749 0.0000 0.0000 0.0000
# 2 20.7988 46.0205 30.3187 0.0000 0.0000 0.0000
# 3 50.4749 30.3187 98.6974 0.0000 0.0000 0.0000
# 4 0.0000 0.0000 0.0000 18.5827 0.0000 0.0000
# 5 0.0000 0.0000 0.0000 0.0000 46.2775 0.0000
# 6 0.0000 0.0000 0.0000 0.0000 0.0000 15.9308
#
#
#
# Elastic Compliance Matrix: (Units=1/GPa)
#
#
# Indices 1 2 3 4 5 6 
#
# 1 0.008372 -0.001207 -0.003911 0.000000 0.000000 0.000000
# 2 -0.001207 0.027417 -0.007805 0.000000 0.000000 0.000000
# 3 -0.003911 -0.007805 0.014529 0.000000 0.000000 0.000000
# 4 0.000000 0.000000 0.000000 0.053814 0.000000 0.000000
# 5 0.000000 0.000000 0.000000 0.000000 0.021609 0.000000
# 6 0.000000 0.000000 0.000000 0.000000 0.000000 0.062771
#
#
# Mechanical properties :
#
#
# Convention : Reuss Voigt Hill
#
# Bulk Modulus (GPa) = 40.86139 54.88032 47.87085
# Shear Modulus (GPa) = 22.47032 28.76788 25.61910
#
# Velocity S-wave (km/s) = 3.48329 3.94130 3.71935
# Velocity P-wave (km/s) = 6.18399 7.09547 6.65535
#
# Compressibility (1/GPa) = 0.02447298
#
# Stress axis : x y z
#
# Youngs Moduli (GPa) = 119.44315 36.47382 68.82550
#
# Poissons Ratio (x) = 0.04404 0.26916
# Poissons Ratio (y) = 0.14421 0.53716
# Poissons Ratio (z) = 0.46711 0.28467
#
# Static dielectric constant tensor:
#      x y z
#    x 3.787420 0.000000 0.000000 
#    y 0.000000 3.258740 0.000000 
#    z 0.000000 0.000000 3.847240 
# 
# 
# High freq. dielectric constant tensor:
#      x y z
#    x 1.747460 0.000000 0.000000 
#    y 0.000000 1.666420 0.000000 
#    z 0.000000 0.000000 1.721240 
# 
# From -- ./inp_files/22536.got.cif
#   From: 2010.03.12/outbox.cif.g09.slc.cpg/sg62_12_cif.got.tgz:22536.got - 2010.04.10 19:12:36.
