data_PCOD8250338
_publ_section_title
;
Structure prediction by ZEFSAII (Michael W. Deem and Ramdas Pophale) SiO2 
 PCOD8250338
Probable space group: P N M A
;
_chemical_formula_sum "Si O2"
_cell_formula_units_Z 56
_cell_length_a 15.805283
_cell_length_b 8.872248
_cell_length_c 22.135196
_cell_angle_alpha 90.000000
_cell_angle_beta 90.000000
_cell_angle_gamma 90.000000
_cell_volume 3103.982908
_symmetry_space_group_name_H-M "P N M A"
_symmetry_group_IT_number 62
_symmetry_cell_setting 'orthorhombic'
loop_
_space_group_symop_operation_xyz
x,y,z
1/2-x,-y,1/2+z
1/2+x,1/2-y,1/2-z
-x,1/2+y,-z
-x,-y,-z
1/2+x,y,1/2-z
1/2-x,1/2+y,1/2+z
x,1/2-y,z
loop_
_atom_site_type_symbol
_atom_site_label
_atom_site_fract_x
_atom_site_fract_y
_atom_site_fract_z
Si Si1 0.995208 0.580792 0.094462
Si Si2 0.746905 0.071982 0.820919
Si Si3 0.425778 0.071766 0.718237
Si Si4 0.440213 0.927953 0.048799
Si Si5 0.766050 0.073529 0.447079
Si Si6 0.056947 0.071837 0.684865
Si Si7 0.374091 0.418342 0.485681
O O1 0.961538 0.750000 0.106801
O O2 0.917265 0.473780 0.076359
O O3 0.038484 0.512488 0.154385
O O4 0.061059 0.583084 0.040496
O O5 0.748106 0.250000 0.835696
O O6 0.825196 0.028940 0.775803
O O7 0.653663 0.024826 0.795576
O O8 0.766468 0.985027 0.882642
O O9 0.433759 0.250000 0.720633
O O10 0.484944 0.000515 0.771217
O O11 0.446270 0.750000 0.044544
O O12 0.462267 0.984226 0.116841
O O13 0.347547 0.982261 0.032136
O O14 0.500000 0.000000 0.000000
O O15 0.784907 0.250000 0.444177
O O16 0.698257 0.037975 0.498747
O O17 0.050645 0.250000 0.687665
O O18 0.337849 0.250000 0.475468
#
# Coordination Sequence:
#
# PCOD8250338 Si02
#       7
#     8   8   8   8   8   8   8
#     4   9  17  28  45  69 101 136 169 205 247 299
#     4   9  16  30  50  72  98 131 169 211 259 307
#     4   9  15  28  49  73 101 133 171 212 255 302
#     4  10  20  36  56  78 104 133 170 213 263 308
#     4  11  20  31  51  76 101 131 174 217 256 305
#     4   8  16  29  50  77 101 128 168 213 253 303
#     4  10  18  30  46  70 102 135 167 206 253 297
#
# _framework density 18.041338
#
# number of rings (size 3 to 8) (size 9 to 14) (size 15 to 20)
#    0.000    2.571    1.429    3.000    0.000    0.571 
#    0.000    1.429    0.000   13.714    0.000    0.000 
#    0.000    0.000    0.000    0.000    0.000    0.000 
#
# Total GULP energy -693947.769586 kJ/mol
# GULP energy per Si atom -12391.924457 kJ/mol
# Density = 1.800027 g / cm^3
# Si number density = 18.041338 Si / 1000 Ang^3
#
#
#
# Elastic Constant Matrix: (Units=GPa)
#
#
# Indices 1 2 3 4 5 6 
#
# 1 126.6172 19.2139 69.4320 0.0000 0.0000 0.0000
# 2 19.2139 51.0452 20.6617 0.0000 0.0000 0.0000
# 3 69.4320 20.6617 79.3121 0.0000 0.0000 0.0000
# 4 0.0000 0.0000 0.0000 18.9866 0.0000 0.0000
# 5 0.0000 0.0000 0.0000 0.0000 35.4357 0.0000
# 6 0.0000 0.0000 0.0000 0.0000 0.0000 23.7998
#
#
#
# Elastic Compliance Matrix: (Units=1/GPa)
#
#
# Indices 1 2 3 4 5 6 
#
# 1 0.015196 -0.000375 -0.013205 0.000000 0.000000 0.000000
# 2 -0.000375 0.021909 -0.005380 0.000000 0.000000 0.000000
# 3 -0.013205 -0.005380 0.025570 0.000000 0.000000 0.000000
# 4 0.000000 0.000000 0.000000 0.052669 0.000000 0.000000
# 5 0.000000 0.000000 0.000000 0.000000 0.028220 0.000000
# 6 0.000000 0.000000 0.000000 0.000000 0.000000 0.042017
#
#
# Mechanical properties :
#
#
# Convention : Reuss Voigt Hill
#
# Bulk Modulus (GPa) = 40.39427 52.84330 46.61879
# Shear Modulus (GPa) = 21.57473 25.48887 23.53180
#
# Velocity S-wave (km/s) = 3.46186 3.76281 3.61546
# Velocity P-wave (km/s) = 6.19820 6.94493 6.58216
#
# Compressibility (1/GPa) = 0.02475599
#
# Stress axis : x y z
#
# Youngs Moduli (GPa) = 65.80683 45.64328 39.10806
#
# Poissons Ratio (x) = 0.01710 0.51644
# Poissons Ratio (y) = 0.02466 0.21038
# Poissons Ratio (z) = 0.86900 0.24554
#
# Static dielectric constant tensor:
#      x y z
#    x 3.588520 0.000000 0.000000 
#    y 0.000000 3.191960 0.000000 
#    z 0.000000 0.000000 3.373490 
# 
# 
# High freq. dielectric constant tensor:
#      x y z
#    x 1.702880 0.000000 0.000000 
#    y 0.000000 1.672710 0.000000 
#    z 0.000000 0.000000 1.673090 
# 
# From -- ./inp_files/30000.got.cif
#   From: 2010.03.12/outbox.cif.g09.slc.cpg/sg62_15_cif.got.tgz:30000.got - 2010.04.10 19:12:36.
