data_PCOD8250760
_publ_section_title
;
Structure prediction by ZEFSAII (Michael W. Deem and Ramdas Pophale) SiO2 
 PCOD8250760
Probable space group: P N M A
;
_chemical_formula_sum "Si O2"
_cell_formula_units_Z 64
_cell_length_a 18.503037
_cell_length_b 9.357936
_cell_length_c 25.921106
_cell_angle_alpha 90.000000
_cell_angle_beta 90.000000
_cell_angle_gamma 90.000000
_cell_volume 4488.245623
_symmetry_space_group_name_H-M "P N M A"
_symmetry_group_IT_number 62
_symmetry_cell_setting 'orthorhombic'
loop_
_space_group_symop_operation_xyz
x,y,z
1/2-x,-y,1/2+z
1/2+x,1/2-y,1/2-z
-x,1/2+y,-z
-x,-y,-z
1/2+x,y,1/2-z
1/2-x,1/2+y,1/2+z
x,1/2-y,z
loop_
_atom_site_type_symbol
_atom_site_label
_atom_site_fract_x
_atom_site_fract_y
_atom_site_fract_z
Si Si1 0.923104 0.414864 0.244579
Si Si2 0.199834 0.414932 0.795401
Si Si3 0.082502 0.414184 0.258946
Si Si4 0.414518 0.084578 0.953492
Si Si5 0.918871 0.916538 0.445836
Si Si6 0.148499 0.589702 0.644610
Si Si7 0.224915 0.410776 0.210017
Si Si8 0.659156 0.584562 0.151031
O O1 0.920869 0.250000 0.228972
O O2 0.875290 0.497929 0.201608
O O3 0.892130 0.441844 0.301690
O O4 0.004767 0.476108 0.242186
O O5 0.179840 0.250000 0.789250
O O6 0.244292 0.466083 0.745994
O O7 0.254149 0.441687 0.843689
O O8 0.072584 0.250000 0.275767
O O9 0.137757 0.428667 0.210054
O O10 0.112749 0.494566 0.308654
O O11 0.405408 0.250000 0.968283
O O12 0.496746 0.050741 0.937312
O O13 0.363056 0.039050 0.906469
O O14 0.390512 0.991585 0.002346
O O15 0.902577 0.750000 0.450536
O O16 0.875212 0.976107 0.397387
O O17 0.130117 0.750000 0.625295
O O18 0.235576 0.573310 0.654454
O O19 0.244073 0.250000 0.231370
O O20 0.640206 0.750000 0.161162
#
# Coordination Sequence:
#
# PCOD8250760 Si02
#       8
#     8   8   8   8   8   8   8   8
#     4   9  17  27  39  57  80 106 134 160 189 227
#     4   9  16  25  38  56  77 101 129 160 191 225
#     4   9  16  26  41  59  79 104 133 163 191 223
#     4   9  18  31  42  53  75 103 128 159 195 227
#     4  10  19  28  40  58  76  97 129 164 193 223
#     4   9  16  26  39  54  76 105 131 155 188 227
#     4   8  15  27  40  55  76 102 131 160 190 226
#     4   9  17  28  41  57  77 103 133 161 193 231
#
# _framework density 14.259468999999999
#
# number of rings (size 3 to 8) (size 9 to 14) (size 15 to 20)
#    0.000    3.000    0.000    2.250    0.000    4.000 
#    0.000    0.000    0.000    0.000    0.000    0.000 
#    0.000    1.000    0.000    2.000    0.000    2.750 
#
# Total GULP energy -793089.921509 kJ/mol
# GULP energy per Si atom -12392.030024 kJ/mol
# Density = 1.422701 g / cm^3
# Si number density = 14.259469 Si / 1000 Ang^3
#
#
#
# Elastic Constant Matrix: (Units=GPa)
#
#
# Indices 1 2 3 4 5 6 
#
# 1 103.4014 37.3400 41.4848 0.0000 0.0000 0.0000
# 2 37.3400 58.9437 35.5798 0.0000 0.0000 0.0000
# 3 41.4848 35.5798 63.4560 0.0000 0.0000 0.0000
# 4 0.0000 0.0000 0.0000 20.3571 0.0000 0.0000
# 5 0.0000 0.0000 0.0000 0.0000 22.8292 0.0000
# 6 0.0000 0.0000 0.0000 0.0000 0.0000 20.6303
#
#
#
# Elastic Compliance Matrix: (Units=1/GPa)
#
#
# Indices 1 2 3 4 5 6 
#
# 1 0.014046 -0.005071 -0.006339 0.000000 0.000000 0.000000
# 2 -0.005071 0.027476 -0.012090 0.000000 0.000000 0.000000
# 3 -0.006339 -0.012090 0.026682 0.000000 0.000000 0.000000
# 4 0.000000 0.000000 0.000000 0.049123 0.000000 0.000000
# 5 0.000000 0.000000 0.000000 0.000000 0.043804 0.000000
# 6 0.000000 0.000000 0.000000 0.000000 0.000000 0.048472
#
#
# Mechanical properties :
#
#
# Convention : Reuss Voigt Hill
#
# Bulk Modulus (GPa) = 47.16433 50.51227 48.83830
# Shear Modulus (GPa) = 18.96301 20.18976 19.57638
#
# Velocity S-wave (km/s) = 3.65067 3.76691 3.70924
# Velocity P-wave (km/s) = 7.13565 7.37699 7.25732
#
# Compressibility (1/GPa) = 0.02120246
#
# Stress axis : x y z
#
# Youngs Moduli (GPa) = 71.19677 36.39540 37.47828
#
# Poissons Ratio (x) = 0.18457 0.23757
# Poissons Ratio (y) = 0.36107 0.45313
# Poissons Ratio (z) = 0.45131 0.44003
#
# Static dielectric constant tensor:
#      x y z
#    x 3.062330 0.000000 0.000000 
#    y 0.000000 2.847890 0.000000 
#    z 0.000000 0.000000 2.569790 
# 
# 
# High freq. dielectric constant tensor:
#      x y z
#    x 1.540830 0.000000 0.000000 
#    y 0.000000 1.553140 0.000000 
#    z 0.000000 0.000000 1.502360 
# 
# From -- ./inp_files/30082.got.cif
#   From: 2010.03.12/outbox.cif.g09.slc.cpg/sg62_16_cif.got.tgz:30082.got - 2010.04.10 19:12:36.
