data_PCOD8250002
_publ_section_title
;
Structure prediction by ZEFSAII (Michael W. Deem and Ramdas Pophale) SiO2 
 PCOD8250002
Probable space group: P N M A
;
_chemical_formula_sum "Si O2"
_cell_formula_units_Z 56
_cell_length_a 8.713928
_cell_length_b 24.627203
_cell_length_c 15.604994
_cell_angle_alpha 90.000000
_cell_angle_beta 90.000000
_cell_angle_gamma 90.000000
_cell_volume 3348.826622
_symmetry_space_group_name_H-M "P N M A"
_symmetry_group_IT_number 62
_symmetry_cell_setting 'orthorhombic'
loop_
_space_group_symop_operation_xyz
x,y,z
1/2-x,-y,1/2+z
1/2+x,1/2-y,1/2-z
-x,1/2+y,-z
-x,-y,-z
1/2+x,y,1/2-z
1/2-x,1/2+y,1/2+z
x,1/2-y,z
loop_
_atom_site_type_symbol
_atom_site_label
_atom_site_fract_x
_atom_site_fract_y
_atom_site_fract_z
Si Si1 0.603810 0.103196 0.597472
Si Si2 0.097011 0.581124 0.497572
Si Si3 0.522139 0.189484 0.944755
Si Si4 0.635529 0.809599 0.402268
Si Si5 0.655383 0.651204 0.216167
Si Si6 0.428578 0.505304 0.137680
Si Si7 0.403688 0.463052 0.707327
O O1 0.723508 0.082224 0.527128
O O2 0.473454 0.143250 0.559506
O O3 0.680532 0.141061 0.670881
O O4 0.527306 0.047232 0.631876
O O5 0.078400 0.551479 0.587855
O O6 0.044945 0.643590 0.508225
O O7 0.996696 0.552098 0.423653
O O8 0.470400 0.250000 0.974233
O O9 0.704287 0.184324 0.950588
O O10 0.462274 0.179676 0.848475
O O11 0.564071 0.750000 0.420531
O O12 0.671121 0.813154 0.300881
O O13 0.593074 0.592435 0.240004
O O14 0.259061 0.521821 0.168063
O O15 0.533904 0.494135 0.221875
#
# Coordination Sequence:
#
# PCOD8250002 Si02
#       7
#     8   8   8   8   8   8   8
#     4  10  19  29  46  67 103 130 172 203 249 285
#     4  10  21  35  48  76  98 140 165 210 252 308
#     4  10  19  32  47  67 100 137 173 204 248 302
#     4  10  19  27  42  68  96 136 174 204 233 283
#     4  10  17  27  44  67  98 134 170 204 233 285
#     4  11  20  34  55  70 105 128 174 207 260 299
#     4  11  18  32  50  72  95 136 164 213 245 297
#
# _framework density 16.722276000000001
#
# number of rings (size 3 to 8) (size 9 to 14) (size 15 to 20)
#    0.000    1.714    4.286    3.857    0.000    4.571 
#    0.000    1.429    0.000    0.000    0.000    1.000 
#    0.000    0.000    0.000    0.000    0.000    0.000 
#
# Total GULP energy -694027.581854 kJ/mol
# GULP energy per Si atom -12393.349676 kJ/mol
# Density = 1.668422 g / cm^3
# Si number density = 16.722276 Si / 1000 Ang^3
#
#
#
# Elastic Constant Matrix: (Units=GPa)
#
#
# Indices 1 2 3 4 5 6 
#
# 1 94.9116 33.7589 32.9737 0.0000 0.0000 0.0000
# 2 33.7589 90.6562 38.2070 0.0000 0.0000 0.0000
# 3 32.9737 38.2070 46.9744 0.0000 0.0000 0.0000
# 4 0.0000 0.0000 0.0000 16.4628 0.0000 0.0000
# 5 0.0000 0.0000 0.0000 0.0000 8.4321 0.0000
# 6 0.0000 0.0000 0.0000 0.0000 0.0000 21.3091
#
#
#
# Elastic Compliance Matrix: (Units=1/GPa)
#
#
# Indices 1 2 3 4 5 6 
#
# 1 0.014093 -0.001641 -0.008557 0.000000 0.000000 0.000000
# 2 -0.001641 0.016975 -0.012655 0.000000 0.000000 0.000000
# 3 -0.008557 -0.012655 0.037588 0.000000 0.000000 0.000000
# 4 0.000000 0.000000 0.000000 0.060743 0.000000 0.000000
# 5 0.000000 0.000000 0.000000 0.000000 0.118594 0.000000
# 6 0.000000 0.000000 0.000000 0.000000 0.000000 0.046928
#
#
# Mechanical properties :
#
#
# Convention : Reuss Voigt Hill
#
# Bulk Modulus (GPa) = 43.57518 49.15793 46.36656
# Shear Modulus (GPa) = 14.35631 17.74764 16.05198
#
# Velocity S-wave (km/s) = 2.93322 3.26132 3.10161
# Velocity P-wave (km/s) = 6.13078 6.60622 6.37293
#
# Compressibility (1/GPa) = 0.02294884
#
# Stress axis : x y z
#
# Youngs Moduli (GPa) = 70.95739 58.90911 26.60421
#
# Poissons Ratio (x) = 0.09670 0.22767
# Poissons Ratio (y) = 0.11647 0.33667
# Poissons Ratio (z) = 0.60722 0.74548
#
# Static dielectric constant tensor:
#      x y z
#    x 3.350410 0.000000 0.000000 
#    y 0.000000 3.219620 0.000000 
#    z 0.000000 0.000000 2.835350 
# 
# 
# High freq. dielectric constant tensor:
#      x y z
#    x 1.664860 0.000000 0.000000 
#    y 0.000000 1.629910 0.000000 
#    z 0.000000 0.000000 1.585930 
# 
# From -- ./inp_files/22592.got.cif
#   From: 2010.03.12/outbox.cif.g09.slc.cpg/sg62_12_cif.got.tgz:22592.got - 2010.04.10 19:12:36.
