data_PCOD8250086
_publ_section_title
;
Structure prediction by ZEFSAII (Michael W. Deem and Ramdas Pophale) SiO2 
 PCOD8250086
Probable space group: P N M A
;
_chemical_formula_sum "Si O2"
_cell_formula_units_Z 64
_cell_length_a 19.397180
_cell_length_b 8.704637
_cell_length_c 18.997655
_cell_angle_alpha 90.000000
_cell_angle_beta 90.000000
_cell_angle_gamma 90.000000
_cell_volume 3207.666861
_symmetry_space_group_name_H-M "P N M A"
_symmetry_group_IT_number 62
_symmetry_cell_setting 'orthorhombic'
loop_
_space_group_symop_operation_xyz
x,y,z
1/2-x,-y,1/2+z
1/2+x,1/2-y,1/2-z
-x,1/2+y,-z
-x,-y,-z
1/2+x,y,1/2-z
1/2-x,1/2+y,1/2+z
x,1/2-y,z
loop_
_atom_site_type_symbol
_atom_site_label
_atom_site_fract_x
_atom_site_fract_y
_atom_site_fract_z
Si Si1 0.100580 0.074484 0.087229
Si Si2 0.533385 0.932942 0.796038
Si Si3 0.832671 0.070270 0.043093
Si Si4 0.301926 0.574969 0.717027
Si Si5 0.172560 0.933434 0.632436
Si Si6 0.310185 0.430873 0.973448
Si Si7 0.614338 0.433140 0.152366
Si Si8 0.044234 0.932322 0.860692
O O1 0.105053 0.250000 0.059228
O O2 0.134950 0.062969 0.163313
O O3 0.022331 0.015043 0.094698
O O4 0.139623 0.961963 0.034752
O O5 0.533144 0.750000 0.793608
O O6 0.598188 0.991855 0.841705
O O7 0.462226 0.994324 0.829191
O O8 0.542078 0.001594 0.717660
O O9 0.817908 0.250000 0.051805
O O10 0.887610 0.008978 0.100037
O O11 0.763378 0.977663 0.058109
O O12 0.282696 0.750000 0.733036
O O13 0.232742 0.497926 0.683817
O O14 0.329746 0.501696 0.790387
O O15 0.178337 0.750000 0.632019
O O16 0.183270 0.994857 0.553041
O O17 0.319570 0.250000 0.971509
O O18 0.368901 0.506012 0.925201
O O19 0.615167 0.250000 0.153597
O O20 0.043359 0.750000 0.856268
#
# Coordination Sequence:
#
# PCOD8250086 Si02
#       8
#     8   8   8   8   8   8   8   8
#     4  10  17  33  57  80 111 150 183 218 275 344
#     4   9  17  32  55  83 109 137 184 237 275 318
#     4  11  22  34  52  84 117 146 185 234 278 323
#     4   9  16  30  55  82 106 140 184 222 265 326
#     4   9  18  32  54  80 105 143 188 225 265 323
#     4  11  23  39  56  78 111 151 189 227 280 339
#     4  10  20  35  59  87 109 136 181 234 278 322
#     4   9  18  31  52  84 115 141 180 231 279 330
#
# _framework density 19.952197999999999
#
# number of rings (size 3 to 8) (size 9 to 14) (size 15 to 20)
#    0.000    2.250    2.500    1.125    1.750    0.500 
#    0.000    1.250    0.000    2.250    0.000    0.000 
#    0.000    0.000    0.000    0.000    0.000    0.000 
#
# Total GULP energy -793470.993750 kJ/mol
# GULP energy per Si atom -12397.984277 kJ/mol
# Density = 1.990679 g / cm^3
# Si number density = 19.952198 Si / 1000 Ang^3
#
#
#
# Elastic Constant Matrix: (Units=GPa)
#
#
# Indices 1 2 3 4 5 6 
#
# 1 138.2453 14.9554 55.4644 0.0000 0.0000 0.0000
# 2 14.9554 14.2975 16.0010 0.0000 0.0000 0.0000
# 3 55.4644 16.0010 85.4026 0.0000 0.0000 0.0000
# 4 0.0000 0.0000 0.0000 18.8317 0.0000 0.0000
# 5 0.0000 0.0000 0.0000 0.0000 34.0031 0.0000
# 6 0.0000 0.0000 0.0000 0.0000 0.0000 17.6350
#
#
#
# Elastic Compliance Matrix: (Units=1/GPa)
#
#
# Indices 1 2 3 4 5 6 
#
# 1 0.009962 -0.004023 -0.005716 0.000000 0.000000 0.000000
# 2 -0.004023 0.090124 -0.014273 0.000000 0.000000 0.000000
# 3 -0.005716 -0.014273 0.018096 0.000000 0.000000 0.000000
# 4 0.000000 0.000000 0.000000 0.053102 0.000000 0.000000
# 5 0.000000 0.000000 0.000000 0.000000 0.029409 0.000000
# 6 0.000000 0.000000 0.000000 0.000000 0.000000 0.056705
#
#
# Mechanical properties :
#
#
# Convention : Reuss Voigt Hill
#
# Bulk Modulus (GPa) = 14.25362 45.64301 29.94831
# Shear Modulus (GPa) = 15.20645 24.19559 19.70102
#
# Velocity S-wave (km/s) = 2.76369 3.48613 3.14572
# Velocity P-wave (km/s) = 4.16454 6.25540 5.31382
#
# Compressibility (1/GPa) = 0.07015761
#
# Stress axis : x y z
#
# Youngs Moduli (GPa) = 100.38099 11.09583 55.26219
#
# Poissons Ratio (x) = 0.04464 0.31588
# Poissons Ratio (y) = 0.40388 0.78873
# Poissons Ratio (z) = 0.57378 0.15837
#
# Static dielectric constant tensor:
#      x y z
#    x 3.873840 0.000000 0.000000 
#    y 0.000000 3.040260 0.000000 
#    z 0.000000 0.000000 3.778300 
# 
# 
# High freq. dielectric constant tensor:
#      x y z
#    x 1.793190 0.000000 0.000000 
#    y 0.000000 1.713990 0.000000 
#    z 0.000000 0.000000 1.785350 
# 
# From -- ./inp_files/27756.got.cif
#   From: 2010.03.12/outbox.cif.g09.slc.cpg/sg62_14_cif.got.tgz:27756.got - 2010.04.10 19:12:36.
