data_PCOD8250201
_publ_section_title
;
Structure prediction by ZEFSAII (Michael W. Deem and Ramdas Pophale) SiO2 
 PCOD8250201
Probable space group: P N M A
;
_chemical_formula_sum "Si O2"
_cell_formula_units_Z 64
_cell_length_a 29.701082
_cell_length_b 9.227359
_cell_length_c 14.443334
_cell_angle_alpha 90.000000
_cell_angle_beta 90.000000
_cell_angle_gamma 90.000000
_cell_volume 3958.376893
_symmetry_space_group_name_H-M "P N M A"
_symmetry_group_IT_number 62
_symmetry_cell_setting 'orthorhombic'
loop_
_space_group_symop_operation_xyz
x,y,z
1/2-x,-y,1/2+z
1/2+x,1/2-y,1/2-z
-x,1/2+y,-z
-x,-y,-z
1/2+x,y,1/2-z
1/2-x,1/2+y,1/2+z
x,1/2-y,z
loop_
_atom_site_type_symbol
_atom_site_label
_atom_site_fract_x
_atom_site_fract_y
_atom_site_fract_z
Si Si1 0.548141 0.418945 0.896972
Si Si2 0.456371 0.581012 0.888945
Si Si3 0.875831 0.080961 0.692239
Si Si4 0.731948 0.917751 0.520798
Si Si5 0.318730 0.089792 0.979911
Si Si6 0.299448 0.417759 0.673893
Si Si7 0.630145 0.912547 0.835107
Si Si8 0.782454 0.422389 0.226813
O O1 0.542030 0.250000 0.875815
O O2 0.503005 0.501487 0.869022
O O3 0.587339 0.481307 0.830624
O O4 0.559301 0.445689 0.005290
O O5 0.462459 0.750000 0.867975
O O6 0.420422 0.515304 0.816819
O O7 0.888978 0.250000 0.682245
O O8 0.841264 0.031177 0.613068
O O9 0.849460 0.047041 0.787710
O O10 0.741491 0.750000 0.531623
O O11 0.697705 0.950990 0.436363
O O12 0.714630 0.975923 0.619913
O O13 0.778706 0.986782 0.489967
O O14 0.298728 0.250000 0.963226
O O15 0.355972 0.092775 0.058487
O O16 0.287471 0.250000 0.692581
O O17 0.260925 0.510274 0.723904
O O18 0.616869 0.750000 0.801786
O O19 0.671074 0.975629 0.773557
O O20 0.778330 0.250000 0.237629
#
# Coordination Sequence:
#
# PCOD8250201 Si02
#       8
#     8   8   8   8   8   8   8   8
#     4  10  20  32  48  70  96 124 154 190 233 282
#     4  10  20  32  48  70  96 124 154 190 233 282
#     4  10  19  31  46  66  94 128 161 193 234 281
#     4  10  20  32  46  67  96 127 164 206 240 275
#     4  10  18  28  45  67  94 127 162 198 236 277
#     4  10  20  32  47  68  95 128 164 201 239 281
#     4  10  19  31  46  66  94 128 161 193 234 281
#     4  10  20  32  47  68  95 128 164 201 239 281
#
# _framework density 16.168243
#
# number of rings (size 3 to 8) (size 9 to 14) (size 15 to 20)
#    0.000    2.000    3.750    0.750    0.000    3.000 
#    0.000    0.000    0.000    0.000    0.000    0.875 
#    0.000    0.000    0.000    0.000    0.000    0.000 
#
# Total GULP energy -793443.525874 kJ/mol
# GULP energy per Si atom -12397.555092 kJ/mol
# Density = 1.613144 g / cm^3
# Si number density = 16.168243 Si / 1000 Ang^3
#
#
#
# Elastic Constant Matrix: (Units=GPa)
#
#
# Indices 1 2 3 4 5 6 
#
# 1 100.4090 51.6903 31.7335 0.0000 0.0000 0.0000
# 2 51.6903 63.1410 26.6346 0.0000 0.0000 0.0000
# 3 31.7335 26.6346 70.7707 0.0000 0.0000 0.0000
# 4 0.0000 0.0000 0.0000 15.4303 0.0000 0.0000
# 5 0.0000 0.0000 0.0000 0.0000 25.3149 0.0000
# 6 0.0000 0.0000 0.0000 0.0000 0.0000 31.4429
#
#
#
# Elastic Compliance Matrix: (Units=1/GPa)
#
#
# Indices 1 2 3 4 5 6 
#
# 1 0.017719 -0.013259 -0.002955 0.000000 0.000000 0.000000
# 2 -0.013259 0.028748 -0.004874 0.000000 0.000000 0.000000
# 3 -0.002955 -0.004874 0.017290 0.000000 0.000000 0.000000
# 4 0.000000 0.000000 0.000000 0.064807 0.000000 0.000000
# 5 0.000000 0.000000 0.000000 0.000000 0.039502 0.000000
# 6 0.000000 0.000000 0.000000 0.000000 0.000000 0.031804
#
#
# Mechanical properties :
#
#
# Convention : Reuss Voigt Hill
#
# Bulk Modulus (GPa) = 46.33873 50.49307 48.41590
# Shear Modulus (GPa) = 20.06100 22.72178 21.39139
#
# Velocity S-wave (km/s) = 3.52627 3.75285 3.64132
# Velocity P-wave (km/s) = 6.73068 7.07644 6.90572
#
# Compressibility (1/GPa) = 0.02158022
#
# Stress axis : x y z
#
# Youngs Moduli (GPa) = 56.43687 34.78494 57.83835
#
# Poissons Ratio (x) = 0.46121 0.17092
# Poissons Ratio (y) = 0.74830 0.28191
# Poissons Ratio (z) = 0.16678 0.16954
#
# Static dielectric constant tensor:
#      x y z
#    x 2.941810 0.000000 0.000000 
#    y 0.000000 4.515750 0.000000 
#    z 0.000000 0.000000 3.140650 
# 
# 
# High freq. dielectric constant tensor:
#      x y z
#    x 1.608010 0.000000 0.000000 
#    y 0.000000 1.624470 0.000000 
#    z 0.000000 0.000000 1.599040 
# 
# From -- ./inp_files/21205.got.cif
#   From: 2010.03.12/outbox.cif.g09.slc.cpg/sg62_11_cif.got.tgz:21205.got - 2010.04.10 19:12:36.
