data_PCOD8250827
_publ_section_title
;
Structure prediction by ZEFSAII (Michael W. Deem and Ramdas Pophale) SiO2 
 PCOD8250827
Probable space group: P N M A
;
_chemical_formula_sum "Si O2"
_cell_formula_units_Z 56
_cell_length_a 13.385456
_cell_length_b 8.911405
_cell_length_c 29.070915
_cell_angle_alpha 90.000000
_cell_angle_beta 90.000000
_cell_angle_gamma 90.000000
_cell_volume 3467.672336
_symmetry_space_group_name_H-M "P N M A"
_symmetry_group_IT_number 62
_symmetry_cell_setting 'orthorhombic'
loop_
_space_group_symop_operation_xyz
x,y,z
1/2-x,-y,1/2+z
1/2+x,1/2-y,1/2-z
-x,1/2+y,-z
-x,-y,-z
1/2+x,y,1/2-z
1/2-x,1/2+y,1/2+z
x,1/2-y,z
loop_
_atom_site_type_symbol
_atom_site_label
_atom_site_fract_x
_atom_site_fract_y
_atom_site_fract_z
Si Si1 0.311388 0.076316 0.315431
Si Si2 0.903597 0.573626 0.270140
Si Si3 0.605963 0.423535 0.497265
Si Si4 0.393026 0.578354 0.769088
Si Si5 0.773054 0.574357 0.821475
Si Si6 0.394526 0.578592 0.401045
Si Si7 0.372461 0.074087 0.592105
O O1 0.337928 0.250000 0.307372
O O2 0.195045 0.046785 0.305455
O O3 0.380661 0.980385 0.281517
O O4 0.333867 0.029976 0.367510
O O5 0.887718 0.750000 0.273686
O O6 0.833160 0.493080 0.307015
O O7 0.017412 0.532231 0.281977
O O8 0.500000 0.500000 0.500000
O O9 0.592739 0.250000 0.484577
O O10 0.654280 0.441770 0.548075
O O11 0.667183 0.504792 0.456397
O O12 0.429754 0.750000 0.772012
O O13 0.354187 0.541506 0.717947
O O14 0.759156 0.750000 0.829658
O O15 0.807376 0.496796 0.867892
O O16 0.382858 0.750000 0.384528
O O17 0.511265 0.533609 0.400693
O O18 0.354106 0.250000 0.590859
#
# Coordination Sequence:
#
# PCOD8250827 Si02
#       7
#     8   8   8   8   8   8   8
#     4  10  20  32  48  68  91 122 156 188 225 271
#     4  11  21  32  48  68  92 121 152 190 230 267
#     4   9  17  29  44  64  91 123 155 188 229 273
#     4   9  19  34  48  65  90 120 154 188 223 266
#     4  10  20  33  49  68  92 123 156 189 226 271
#     4   9  18  30  45  67  95 123 152 189 228 268
#     4  10  19  30  45  68  96 124 155 190 228 272
#
# _framework density 16.149162
#
# number of rings (size 3 to 8) (size 9 to 14) (size 15 to 20)
#    0.000    2.286    0.000    5.571    0.000    9.143 
#    0.000    0.000    0.000    0.000    0.000    1.000 
#    0.000    0.000    0.000    0.000    0.000    0.000 
#
# Total GULP energy -694381.901755 kJ/mol
# GULP energy per Si atom -12399.676817 kJ/mol
# Density = 1.611241 g / cm^3
# Si number density = 16.149162 Si / 1000 Ang^3
#
#
#
# Elastic Constant Matrix: (Units=GPa)
#
#
# Indices 1 2 3 4 5 6 
#
# 1 67.2609 39.3502 38.4561 0.0000 0.0000 0.0000
# 2 39.3502 101.5565 51.6685 0.0000 0.0000 0.0000
# 3 38.4561 51.6685 113.4303 0.0000 0.0000 0.0000
# 4 0.0000 0.0000 0.0000 32.8223 0.0000 0.0000
# 5 0.0000 0.0000 0.0000 0.0000 19.9255 0.0000
# 6 0.0000 0.0000 0.0000 0.0000 0.0000 24.3156
#
#
#
# Elastic Compliance Matrix: (Units=1/GPa)
#
#
# Indices 1 2 3 4 5 6 
#
# 1 0.020784 -0.005816 -0.004397 0.000000 0.000000 0.000000
# 2 -0.005816 0.014445 -0.004608 0.000000 0.000000 0.000000
# 3 -0.004397 -0.004608 0.012406 0.000000 0.000000 0.000000
# 4 0.000000 0.000000 0.000000 0.030467 0.000000 0.000000
# 5 0.000000 0.000000 0.000000 0.000000 0.050187 0.000000
# 6 0.000000 0.000000 0.000000 0.000000 0.000000 0.041126
#
#
# Mechanical properties :
#
#
# Convention : Reuss Voigt Hill
#
# Bulk Modulus (GPa) = 55.57942 60.13300 57.85621
# Shear Modulus (GPa) = 24.38382 25.59754 24.99068
#
# Velocity S-wave (km/s) = 3.88997 3.98561 3.93808
# Velocity P-wave (km/s) = 7.39371 7.64833 7.52210
#
# Compressibility (1/GPa) = 0.01799227
#
# Stress axis : x y z
#
# Youngs Moduli (GPa) = 48.11353 69.22993 80.60857
#
# Poissons Ratio (x) = 0.40265 0.35444
# Poissons Ratio (y) = 0.27984 0.37143
# Poissons Ratio (z) = 0.21156 0.31900
#
# Static dielectric constant tensor:
#      x y z
#    x 2.789660 0.000000 0.000000 
#    y 0.000000 3.208380 0.000000 
#    z 0.000000 0.000000 3.286370 
# 
# 
# High freq. dielectric constant tensor:
#      x y z
#    x 1.584800 0.000000 0.000000 
#    y 0.000000 1.637260 0.000000 
#    z 0.000000 0.000000 1.620440 
# 
# From -- ./inp_files/32654.got.cif
#   From: 2010.03.12/outbox.cif.g09.slc.cpg/sg62_17_cif.got.tgz:32654.got - 2010.04.10 19:12:36.
