data_PCOD8250979
_publ_section_title
;
Structure prediction by ZEFSAII (Michael W. Deem and Ramdas Pophale) SiO2 
 PCOD8250979
Probable space group: P N M A
;
_chemical_formula_sum "Si O2"
_cell_formula_units_Z 64
_cell_length_a 15.175901
_cell_length_b 28.592189
_cell_length_c 8.407400
_cell_angle_alpha 90.000000
_cell_angle_beta 90.000000
_cell_angle_gamma 90.000000
_cell_volume 3648.073679
_symmetry_space_group_name_H-M "P N M A"
_symmetry_group_IT_number 62
_symmetry_cell_setting 'orthorhombic'
loop_
_space_group_symop_operation_xyz
x,y,z
1/2-x,-y,1/2+z
1/2+x,1/2-y,1/2-z
-x,1/2+y,-z
-x,-y,-z
1/2+x,y,1/2-z
1/2-x,1/2+y,1/2+z
x,1/2-y,z
loop_
_atom_site_type_symbol
_atom_site_label
_atom_site_fract_x
_atom_site_fract_y
_atom_site_fract_z
Si Si1 0.409612 0.874129 0.628857
Si Si2 0.914549 0.803625 0.595564
Si Si3 0.410305 0.446770 0.900506
Si Si4 0.589206 0.696525 0.107919
Si Si5 0.086296 0.446397 0.401113
Si Si6 0.267820 0.125834 0.927803
Si Si7 0.337416 0.624526 0.126306
Si Si8 0.511545 0.876140 0.325097
O O1 0.417699 0.827049 0.731544
O O2 0.413183 0.920729 0.732990
O O3 0.318034 0.873360 0.535275
O O4 0.495140 0.876094 0.513842
O O5 0.885526 0.750000 0.612519
O O6 0.841606 0.829878 0.487418
O O7 0.010830 0.808754 0.518689
O O8 0.384991 0.500432 0.871769
O O9 0.325393 0.419993 0.970753
O O10 0.438442 0.423045 0.733114
O O11 0.488414 0.442071 0.028068
O O12 0.609600 0.750000 0.149210
O O13 0.676006 0.672512 0.033467
O O14 0.565438 0.669841 0.271665
O O15 0.157318 0.422329 0.518885
O O16 0.248835 0.124667 0.736785
O O17 0.417109 0.625909 0.246659
#
# Coordination Sequence:
#
# PCOD8250979 Si02
#       8
#     8   8   8   8   8   8   8   8
#     4  10  19  31  50  76 102 125 155 200 248 289
#     4   9  18  34  53  70  95 132 165 195 240 295
#     4   9  18  34  53  70  94 131 168 199 235 285
#     4   9  18  34  53  70  94 131 168 199 235 284
#     4   9  18  34  53  70  95 132 165 195 240 294
#     4  10  19  31  49  73 100 126 158 204 244 280
#     4   8  16  31  48  67  94 126 156 190 237 291
#     4   8  16  31  49  70  94 122 159 193 231 287
#
# _framework density 17.543507000000002
#
# number of rings (size 3 to 8) (size 9 to 14) (size 15 to 20)
#    0.000    3.000    0.000    2.250    0.000    3.000 
#    0.000   12.500    0.000    0.000    0.000    0.000 
#    0.000    0.000    0.000    0.000    0.000    0.000 
#
# Total GULP energy -793319.144831 kJ/mol
# GULP energy per Si atom -12395.611638 kJ/mol
# Density = 1.750358 g / cm^3
# Si number density = 17.543507 Si / 1000 Ang^3
#
#
#
# Elastic Constant Matrix: (Units=GPa)
#
#
# Indices 1 2 3 4 5 6 
#
# 1 63.0913 44.8245 29.0954 0.0000 0.0000 0.0000
# 2 44.8245 180.6159 57.9645 0.0000 0.0000 0.0000
# 3 29.0954 57.9645 100.6657 0.0000 0.0000 0.0000
# 4 0.0000 0.0000 0.0000 16.3495 0.0000 0.0000
# 5 0.0000 0.0000 0.0000 0.0000 23.2904 0.0000
# 6 0.0000 0.0000 0.0000 0.0000 0.0000 19.8658
#
#
#
# Elastic Compliance Matrix: (Units=1/GPa)
#
#
# Indices 1 2 3 4 5 6 
#
# 1 0.020272 -0.003865 -0.003634 0.000000 0.000000 0.000000
# 2 -0.003865 0.007528 -0.003218 0.000000 0.000000 0.000000
# 3 -0.003634 -0.003218 0.012837 0.000000 0.000000 0.000000
# 4 0.000000 0.000000 0.000000 0.061164 0.000000 0.000000
# 5 0.000000 0.000000 0.000000 0.000000 0.042936 0.000000
# 6 0.000000 0.000000 0.000000 0.000000 0.000000 0.050338
#
#
# Mechanical properties :
#
#
# Convention : Reuss Voigt Hill
#
# Bulk Modulus (GPa) = 52.07177 67.57128 59.82153
# Shear Modulus (GPa) = 22.43065 26.06705 24.24885
#
# Velocity S-wave (km/s) = 3.57959 3.85886 3.72185
# Velocity P-wave (km/s) = 6.84329 7.64555 7.25551
#
# Compressibility (1/GPa) = 0.01920426
#
# Stress axis : x y z
#
# Youngs Moduli (GPa) = 49.33014 132.82896 77.89951
#
# Poissons Ratio (x) = 0.51335 0.28306
# Poissons Ratio (y) = 0.19065 0.25068
# Poissons Ratio (z) = 0.17925 0.42744
#
# Static dielectric constant tensor:
#      x y z
#    x 3.222680 0.000000 0.000000 
#    y 0.000000 3.415160 0.000000 
#    z 0.000000 0.000000 3.316710 
# 
# 
# High freq. dielectric constant tensor:
#      x y z
#    x 1.667110 0.000000 0.000000 
#    y 0.000000 1.682640 0.000000 
#    z 0.000000 0.000000 1.667750 
# 
# From -- ./inp_files/7018.got.cif
#   From: 2010.03.12/outbox.cif.g09.slc.cpg/sg62_4_cif.got.tgz:7018.got - 2010.04.10 19:12:36.
