data_PCOD8250280
_publ_section_title
;
Structure prediction by ZEFSAII (Michael W. Deem and Ramdas Pophale) SiO2 
 PCOD8250280
Probable space group: P N M A
;
_chemical_formula_sum "Si O2"
_cell_formula_units_Z 56
_cell_length_a 20.558416
_cell_length_b 9.102669
_cell_length_c 17.320931
_cell_angle_alpha 90.000000
_cell_angle_beta 90.000000
_cell_angle_gamma 90.000000
_cell_volume 3241.377642
_symmetry_space_group_name_H-M "P N M A"
_symmetry_group_IT_number 62
_symmetry_cell_setting 'orthorhombic'
loop_
_space_group_symop_operation_xyz
x,y,z
1/2-x,-y,1/2+z
1/2+x,1/2-y,1/2-z
-x,1/2+y,-z
-x,-y,-z
1/2+x,y,1/2-z
1/2-x,1/2+y,1/2+z
x,1/2-y,z
loop_
_atom_site_type_symbol
_atom_site_label
_atom_site_fract_x
_atom_site_fract_y
_atom_site_fract_z
Si Si1 0.531146 0.921094 0.072411
Si Si2 0.100984 0.079935 0.637051
Si Si3 0.407530 0.088744 0.538749
Si Si4 0.122831 0.425249 0.805557
Si Si5 0.990326 0.087712 0.113894
Si Si6 0.795314 0.423589 0.068456
Si Si7 0.149872 0.423925 0.473677
O O1 0.542585 0.750000 0.055561
O O2 0.477712 0.944506 0.140091
O O3 0.500000 0.000000 0.000000
O O4 0.600681 0.999238 0.087816
O O5 0.116998 0.250000 0.632364
O O6 0.131582 0.019932 0.716814
O O7 0.134686 0.012353 0.560012
O O8 0.396762 0.250000 0.576000
O O9 0.457976 0.103243 0.469189
O O10 0.339309 0.027328 0.504857
O O11 0.437277 0.981112 0.603740
O O12 0.123658 0.250000 0.813275
O O13 0.052776 0.482159 0.833180
O O14 0.181764 0.493508 0.854426
O O15 0.996951 0.250000 0.151435
O O16 0.803969 0.250000 0.082497
O O17 0.722068 0.469831 0.050369
O O18 0.139292 0.250000 0.469239
#
# Coordination Sequence:
#
# PCOD8250280 Si02
#       7
#     8   8   8   8   8   8   8
#     4   9  16  29  49  73  96 117 151 195 236 278
#     4   8  16  30  49  71  94 121 156 197 237 279
#     4   8  14  25  41  62  86 116 154 189 224 271
#     4  10  18  29  47  69  94 125 160 198 237 281
#     4   9  16  26  41  63  89 117 150 192 235 272
#     4   9  18  31  48  70  96 128 161 194 236 286
#     4   9  17  32  52  72  96 126 159 197 239 285
#
# _framework density 17.276603999999999
#
# number of rings (size 3 to 8) (size 9 to 14) (size 15 to 20)
#    0.000    3.143    0.000    3.000    0.000    4.000 
#    0.000    7.143    3.143    0.000    0.000    0.000 
#    0.000    0.000    0.000    0.000    0.000    0.000 
#
# Total GULP energy -693801.455267 kJ/mol
# GULP energy per Si atom -12389.311701 kJ/mol
# Density = 1.723728 g / cm^3
# Si number density = 17.276604 Si / 1000 Ang^3
#
#
#
# Elastic Constant Matrix: (Units=GPa)
#
#
# Indices 1 2 3 4 5 6 
#
# 1 134.6211 46.4032 48.2090 0.0000 0.0000 0.0000
# 2 46.4032 66.8340 30.2891 0.0000 0.0000 0.0000
# 3 48.2090 30.2891 73.3436 0.0000 0.0000 0.0000
# 4 0.0000 0.0000 0.0000 17.1398 0.0000 0.0000
# 5 0.0000 0.0000 0.0000 0.0000 15.6422 0.0000
# 6 0.0000 0.0000 0.0000 0.0000 0.0000 27.4572
#
#
#
# Elastic Compliance Matrix: (Units=1/GPa)
#
#
# Indices 1 2 3 4 5 6 
#
# 1 0.011110 -0.005418 -0.005065 0.000000 0.000000 0.000000
# 2 -0.005418 0.021050 -0.005132 0.000000 0.000000 0.000000
# 3 -0.005065 -0.005132 0.019083 0.000000 0.000000 0.000000
# 4 0.000000 0.000000 0.000000 0.058344 0.000000 0.000000
# 5 0.000000 0.000000 0.000000 0.000000 0.063929 0.000000
# 6 0.000000 0.000000 0.000000 0.000000 0.000000 0.036420
#
#
# Mechanical properties :
#
#
# Convention : Reuss Voigt Hill
#
# Bulk Modulus (GPa) = 49.96745 58.28905 54.12825
# Shear Modulus (GPa) = 20.17459 22.04100 21.10780
#
# Velocity S-wave (km/s) = 3.42093 3.57567 3.49915
# Velocity P-wave (km/s) = 6.67746 7.13156 6.90824
#
# Compressibility (1/GPa) = 0.02001303
#
# Stress axis : x y z
#
# Youngs Moduli (GPa) = 90.01219 47.50595 52.40284
#
# Poissons Ratio (x) = 0.25739 0.26541
# Poissons Ratio (y) = 0.48769 0.26892
# Poissons Ratio (z) = 0.45590 0.24379
#
# Static dielectric constant tensor:
#      x y z
#    x 3.277890 0.000000 0.000000 
#    y 0.000000 3.326770 0.000000 
#    z 0.000000 0.000000 3.144460 
# 
# 
# High freq. dielectric constant tensor:
#      x y z
#    x 1.659500 0.000000 0.000000 
#    y 0.000000 1.662110 0.000000 
#    z 0.000000 0.000000 1.630630 
# 
# From -- ./inp_files/24581.got.cif
#   From: 2010.03.12/outbox.cif.g09.slc.cpg/sg62_13_cif.got.tgz:24581.got - 2010.04.10 19:12:36.
