data_PCOD8250544
_publ_section_title
;
Structure prediction by ZEFSAII (Michael W. Deem and Ramdas Pophale) SiO2 
 PCOD8250544
Probable space group: P N M A
;
_chemical_formula_sum "Si O2"
_cell_formula_units_Z 48
_cell_length_a 16.636932
_cell_length_b 16.513558
_cell_length_c 9.155368
_cell_angle_alpha 90.000000
_cell_angle_beta 90.000000
_cell_angle_gamma 90.000000
_cell_volume 2515.299492
_symmetry_space_group_name_H-M "P N M A"
_symmetry_group_IT_number 62
_symmetry_cell_setting 'orthorhombic'
loop_
_space_group_symop_operation_xyz
x,y,z
1/2-x,-y,1/2+z
1/2+x,1/2-y,1/2-z
-x,1/2+y,-z
-x,-y,-z
1/2+x,y,1/2-z
1/2-x,1/2+y,1/2+z
x,1/2-y,z
loop_
_atom_site_type_symbol
_atom_site_label
_atom_site_fract_x
_atom_site_fract_y
_atom_site_fract_z
Si Si1 0.306326 0.659881 0.609730
Si Si2 0.363967 0.657063 0.140003
Si Si3 0.219655 0.885569 0.345431
Si Si4 0.868525 0.154851 0.918348
Si Si5 0.226765 0.073250 0.404682
Si Si6 0.451553 0.654225 0.415338
O O1 0.324056 0.750000 0.667963
O O2 0.231507 0.663850 0.495362
O O3 0.280098 0.604403 0.741448
O O4 0.385221 0.620712 0.530216
O O5 0.377938 0.750000 0.090454
O O6 0.282238 0.649664 0.229430
O O7 0.434124 0.624179 0.248294
O O8 0.352487 0.601512 0.995771
O O9 0.137642 0.868780 0.255348
O O10 0.231255 0.977728 0.392668
O O11 0.853988 0.250000 0.942923
O O12 0.959149 0.129673 0.964646
O O13 0.808739 0.105023 0.021838
O O14 0.439224 0.750000 0.410826
#
# Coordination Sequence:
#
# PCOD8250544 Si02
#       6
#     8   8   8   8   8   8
#     4  10  18  32  52  76 102 133 166 206 255 304
#     4   9  17  34  54  71  95 137 175 201 242 309
#     4  10  19  32  49  73 102 134 168 203 242 296
#     4  10  19  36  57  76  97 133 175 209 241 292
#     4  11  20  31  50  79 106 130 163 209 256 297
#     4   8  17  33  55  75  95 127 174 212 242 292
#
# _framework density 19.083214999999999
#
# number of rings (size 3 to 8) (size 9 to 14) (size 15 to 20)
#    0.000    2.333    0.000    7.000    0.000    0.000 
#    0.000   10.000    0.000    4.000    0.000    0.000 
#    0.000    0.000    0.000    0.000    0.000    0.000 
#
# Total GULP energy -594707.284307 kJ/mol
# GULP energy per Si atom -12389.735090 kJ/mol
# Density = 1.903978 g / cm^3
# Si number density = 19.083215 Si / 1000 Ang^3
#
#
#
# Elastic Constant Matrix: (Units=GPa)
#
#
# Indices 1 2 3 4 5 6 
#
# 1 81.4294 15.0635 30.8482 0.0000 0.0000 0.0000
# 2 15.0635 62.5001 4.3944 0.0000 0.0000 0.0000
# 3 30.8482 4.3944 93.4997 0.0000 0.0000 0.0000
# 4 0.0000 0.0000 0.0000 30.9288 0.0000 0.0000
# 5 0.0000 0.0000 0.0000 0.0000 22.3074 0.0000
# 6 0.0000 0.0000 0.0000 0.0000 0.0000 6.0011
#
#
#
# Elastic Compliance Matrix: (Units=1/GPa)
#
#
# Indices 1 2 3 4 5 6 
#
# 1 0.014646 -0.003201 -0.004682 0.000000 0.000000 0.000000
# 2 -0.003201 0.016753 0.000269 0.000000 0.000000 0.000000
# 3 -0.004682 0.000269 0.012227 0.000000 0.000000 0.000000
# 4 0.000000 0.000000 0.000000 0.032332 0.000000 0.000000
# 5 0.000000 0.000000 0.000000 0.000000 0.044828 0.000000
# 6 0.000000 0.000000 0.000000 0.000000 0.000000 0.166637
#
#
# Mechanical properties :
#
#
# Convention : Reuss Voigt Hill
#
# Bulk Modulus (GPa) = 35.21344 37.56015 36.38680
# Shear Modulus (GPa) = 16.01962 24.32232 20.17097
#
# Velocity S-wave (km/s) = 2.90049 3.57394 3.25468
# Velocity P-wave (km/s) = 5.45066 6.06265 5.76479
#
# Compressibility (1/GPa) = 0.02839825
#
# Stress axis : x y z
#
# Youngs Moduli (GPa) = 68.27654 59.69248 81.78445
#
# Poissons Ratio (x) = 0.19106 0.38290
# Poissons Ratio (y) = 0.21854 -0.02197
# Poissons Ratio (z) = 0.31966 -0.01604
#
# Static dielectric constant tensor:
#      x y z
#    x 3.623270 0.000000 0.000000 
#    y 0.000000 3.391480 0.000000 
#    z 0.000000 0.000000 3.770100 
# 
# 
# High freq. dielectric constant tensor:
#      x y z
#    x 1.715080 0.000000 0.000000 
#    y 0.000000 1.734810 0.000000 
#    z 0.000000 0.000000 1.744180 
# 
# From -- ./inp_files/7605.got.cif
#   From: 2010.03.12/outbox.cif.g09.slc.cpg/sg62_4_cif.got.tgz:7605.got - 2010.04.10 19:12:36.
