data_PCOD8250268
_publ_section_title
;
Structure prediction by ZEFSAII (Michael W. Deem and Ramdas Pophale) SiO2 
 PCOD8250268
Probable space group: P N M A
;
_chemical_formula_sum "Si O2"
_cell_formula_units_Z 64
_cell_length_a 9.774425
_cell_length_b 13.488462
_cell_length_c 29.677318
_cell_angle_alpha 90.000000
_cell_angle_beta 90.000000
_cell_angle_gamma 90.000000
_cell_volume 3912.715778
_symmetry_space_group_name_H-M "P N M A"
_symmetry_group_IT_number 62
_symmetry_cell_setting 'orthorhombic'
loop_
_space_group_symop_operation_xyz
x,y,z
1/2-x,-y,1/2+z
1/2+x,1/2-y,1/2-z
-x,1/2+y,-z
-x,-y,-z
1/2+x,y,1/2-z
1/2-x,1/2+y,1/2+z
x,1/2-y,z
loop_
_atom_site_type_symbol
_atom_site_label
_atom_site_fract_x
_atom_site_fract_y
_atom_site_fract_z
Si Si1 0.330394 0.861747 0.941560
Si Si2 0.331014 0.865313 0.272857
Si Si3 0.892876 0.448838 0.937954
Si Si4 0.022679 0.638720 0.969750
Si Si5 0.599037 0.367669 0.629295
Si Si6 0.887833 0.444270 0.605180
Si Si7 0.612215 0.364425 0.957545
Si Si8 0.533995 0.866431 0.199435
O O1 0.368498 0.750000 0.926496
O O2 0.167714 0.874014 0.945386
O O3 0.385791 0.937812 0.904168
O O4 0.399866 0.888177 0.989433
O O5 0.364688 0.750000 0.272354
O O6 0.391339 0.908325 0.319510
O O7 0.407347 0.909095 0.228794
O O8 0.169410 0.885962 0.270549
O O9 0.731521 0.429214 0.934289
O O10 0.913625 0.565723 0.946794
O O11 0.965073 0.417360 0.891682
O O12 0.961836 0.384530 0.977483
O O13 0.966211 0.750000 0.964435
O O14 0.586751 0.250000 0.627642
O O15 0.735885 0.399659 0.602970
O O16 0.969360 0.388742 0.565763
O O17 0.960830 0.427005 0.653067
O O18 0.652366 0.250000 0.950893
O O19 0.522248 0.750000 0.187050
#
# Coordination Sequence:
#
# PCOD8250268 Si02
#       8
#     8   8   8   8   8   8   8   8
#     4   9  18  33  49  66  93 129 165 202 239 278
#     4   8  16  28  42  63  93 121 145 185 233 282
#     4  10  18  30  47  68  92 128 164 201 234 280
#     4   9  17  31  48  66  92 126 165 207 243 272
#     4  10  18  29  46  70  95 122 162 198 228 279
#     4  11  19  31  48  71  94 128 160 196 233 283
#     4  10  20  32  45  67 101 130 157 197 243 282
#     4   9  17  30  47  68  94 120 151 186 230 286
#
# _framework density 16.356925
#
# number of rings (size 3 to 8) (size 9 to 14) (size 15 to 20)
#    0.000    2.500    1.250    4.125    0.000    1.000 
#    0.000    3.125    0.000    0.000    0.000    4.375 
#    0.000    0.000    0.000    0.000    0.000    0.000 
#
# Total GULP energy -793543.683259 kJ/mol
# GULP energy per Si atom -12399.120051 kJ/mol
# Density = 1.631970 g / cm^3
# Si number density = 16.356925 Si / 1000 Ang^3
#
#
#
# Elastic Constant Matrix: (Units=GPa)
#
#
# Indices 1 2 3 4 5 6 
#
# 1 42.1111 25.4537 31.6140 0.0000 0.0000 0.0000
# 2 25.4537 86.8026 38.1259 0.0000 0.0000 0.0000
# 3 31.6140 38.1259 61.2185 0.0000 0.0000 0.0000
# 4 0.0000 0.0000 0.0000 21.3166 0.0000 0.0000
# 5 0.0000 0.0000 0.0000 0.0000 28.9752 0.0000
# 6 0.0000 0.0000 0.0000 0.0000 0.0000 19.3289
#
#
#
# Elastic Compliance Matrix: (Units=1/GPa)
#
#
# Indices 1 2 3 4 5 6 
#
# 1 0.039591 -0.003620 -0.018191 0.000000 0.000000 0.000000
# 2 -0.003620 0.016189 -0.008213 0.000000 0.000000 0.000000
# 3 -0.018191 -0.008213 0.030844 0.000000 0.000000 0.000000
# 4 0.000000 0.000000 0.000000 0.046912 0.000000 0.000000
# 5 0.000000 0.000000 0.000000 0.000000 0.034512 0.000000
# 6 0.000000 0.000000 0.000000 0.000000 0.000000 0.051736
#
#
# Mechanical properties :
#
#
# Convention : Reuss Voigt Hill
#
# Bulk Modulus (GPa) = 37.62701 42.27994 39.95348
# Shear Modulus (GPa) = 17.31954 20.25338 18.78646
#
# Velocity S-wave (km/s) = 3.25753 3.52264 3.39268
# Velocity P-wave (km/s) = 6.09937 6.51535 6.31079
#
# Compressibility (1/GPa) = 0.02657665
#
# Stress axis : x y z
#
# Youngs Moduli (GPa) = 25.25817 61.76941 32.42106
#
# Poissons Ratio (x) = 0.22358 0.58978
# Poissons Ratio (y) = 0.09142 0.26628
# Poissons Ratio (z) = 0.45948 0.50733
#
# Static dielectric constant tensor:
#      x y z
#    x 3.037480 0.000000 0.000000 
#    y 0.000000 2.959400 0.000000 
#    z 0.000000 0.000000 3.064400 
# 
# 
# High freq. dielectric constant tensor:
#      x y z
#    x 1.625030 0.000000 0.000000 
#    y 0.000000 1.604910 0.000000 
#    z 0.000000 0.000000 1.614980 
# 
# From -- ./inp_files/32331.got.cif
#   From: 2010.03.12/outbox.cif.g09.slc.cpg/sg62_17_cif.got.tgz:32331.got - 2010.04.10 19:12:36.
