data_PCOD8250501
_publ_section_title
;
Structure prediction by ZEFSAII (Michael W. Deem and Ramdas Pophale) SiO2 
 PCOD8250501
Probable space group: P N M A
;
_chemical_formula_sum "Si O2"
_cell_formula_units_Z 64
_cell_length_a 19.567443
_cell_length_b 8.731296
_cell_length_c 19.244058
_cell_angle_alpha 90.000000
_cell_angle_beta 90.000000
_cell_angle_gamma 90.000000
_cell_volume 3287.830698
_symmetry_space_group_name_H-M "P N M A"
_symmetry_group_IT_number 62
_symmetry_cell_setting 'orthorhombic'
loop_
_space_group_symop_operation_xyz
x,y,z
1/2-x,-y,1/2+z
1/2+x,1/2-y,1/2-z
-x,1/2+y,-z
-x,-y,-z
1/2+x,y,1/2-z
1/2-x,1/2+y,1/2+z
x,1/2-y,z
loop_
_atom_site_type_symbol
_atom_site_label
_atom_site_fract_x
_atom_site_fract_y
_atom_site_fract_z
Si Si1 0.546550 0.424701 0.096380
Si Si2 0.353259 0.069245 0.255877
Si Si3 0.344133 0.068464 0.542108
Si Si4 0.397142 0.424342 0.032328
Si Si5 0.002019 0.428835 0.729021
Si Si6 0.370735 0.931898 0.400825
Si Si7 0.713028 0.070830 0.871389
Si Si8 0.022576 0.571661 0.116352
O O1 0.570747 0.250000 0.103289
O O2 0.470503 0.436602 0.067406
O O3 0.549051 0.505664 0.171194
O O4 0.598969 0.513191 0.046269
O O5 0.354200 0.250000 0.262889
O O6 0.425536 0.013699 0.225662
O O7 0.336421 0.996883 0.330881
O O8 0.295217 0.018867 0.201194
O O9 0.346411 0.250000 0.532094
O O10 0.284900 0.020962 0.595263
O O11 0.415229 0.999265 0.572542
O O12 0.329462 0.991035 0.467614
O O13 0.370518 0.250000 0.031784
O O14 0.346179 0.530577 0.074591
O O15 0.016148 0.250000 0.716880
O O16 0.965208 0.460364 0.802254
O O17 0.368975 0.750000 0.395955
O O18 0.448890 0.995512 0.406293
O O19 0.710453 0.250000 0.855452
O O20 0.022249 0.750000 0.101140
#
# Coordination Sequence:
#
# PCOD8250501 Si02
#       8
#     8   8   8   8   8   8   8   8
#     4  10  19  31  50  78 110 144 183 229 278 328
#     4  11  21  35  56  81 109 144 184 227 273 326
#     4  10  21  38  58  82 113 148 183 224 276 332
#     4  10  20  33  51  75 106 145 185 229 277 326
#     4  10  18  31  54  82 112 143 180 228 280 332
#     4  10  20  36  60  87 112 141 182 231 279 329
#     4  11  22  36  56  80 111 149 188 228 274 333
#     4   8  17  34  56  83 112 142 180 227 279 330
#
# _framework density 19.465722
#
# number of rings (size 3 to 8) (size 9 to 14) (size 15 to 20)
#    0.000    2.000    1.250    4.125    0.000    2.000 
#    0.000    4.375    0.000    4.500    0.000    0.000 
#    0.000    0.000    0.000    0.000    0.000    0.000 
#
# Total GULP energy -793693.567351 kJ/mol
# GULP energy per Si atom -12401.461990 kJ/mol
# Density = 1.942142 g / cm^3
# Si number density = 19.465722 Si / 1000 Ang^3
#
#
#
# Elastic Constant Matrix: (Units=GPa)
#
#
# Indices 1 2 3 4 5 6 
#
# 1 53.3242 27.8769 44.0474 0.0000 0.0000 0.0000
# 2 27.8769 84.0784 46.8478 0.0000 0.0000 0.0000
# 3 44.0474 46.8478 144.7896 0.0000 0.0000 0.0000
# 4 0.0000 0.0000 0.0000 34.2960 0.0000 0.0000
# 5 0.0000 0.0000 0.0000 0.0000 22.7306 0.0000
# 6 0.0000 0.0000 0.0000 0.0000 0.0000 17.6274
#
#
#
# Elastic Compliance Matrix: (Units=1/GPa)
#
#
# Indices 1 2 3 4 5 6 
#
# 1 0.026860 -0.005310 -0.006453 0.000000 0.000000 0.000000
# 2 -0.005310 0.015559 -0.003419 0.000000 0.000000 0.000000
# 3 -0.006453 -0.003419 0.009976 0.000000 0.000000 0.000000
# 4 0.000000 0.000000 0.000000 0.029158 0.000000 0.000000
# 5 0.000000 0.000000 0.000000 0.000000 0.043994 0.000000
# 6 0.000000 0.000000 0.000000 0.000000 0.000000 0.056730
#
#
# Mechanical properties :
#
#
# Convention : Reuss Voigt Hill
#
# Bulk Modulus (GPa) = 45.39087 57.74850 51.56968
# Shear Modulus (GPa) = 22.72897 25.82546 24.27721
#
# Velocity S-wave (km/s) = 3.42078 3.64636 3.53537
# Velocity P-wave (km/s) = 6.24270 6.88906 6.57383
#
# Compressibility (1/GPa) = 0.02203086
#
# Stress axis : x y z
#
# Youngs Moduli (GPa) = 37.23074 64.27058 100.24126
#
# Poissons Ratio (x) = 0.34127 0.64686
# Poissons Ratio (y) = 0.19769 0.34272
# Poissons Ratio (z) = 0.24025 0.21974
#
# Static dielectric constant tensor:
#      x y z
#    x 3.432800 0.000000 0.000000 
#    y 0.000000 3.471050 0.000000 
#    z 0.000000 0.000000 3.755130 
# 
# 
# High freq. dielectric constant tensor:
#      x y z
#    x 1.722290 0.000000 0.000000 
#    y 0.000000 1.756530 0.000000 
#    z 0.000000 0.000000 1.773440 
# 
# From -- ./inp_files/27758.got.cif
#   From: 2010.03.12/outbox.cif.g09.slc.cpg/sg62_14_cif.got.tgz:27758.got - 2010.04.10 19:12:36.
