data_PCOD8250044
_publ_section_title
;
Structure prediction by ZEFSAII (Michael W. Deem and Ramdas Pophale) SiO2 
 PCOD8250044
Probable space group: P N M A
;
_chemical_formula_sum "Si O2"
_cell_formula_units_Z 64
_cell_length_a 18.157270
_cell_length_b 15.195563
_cell_length_c 11.701121
_cell_angle_alpha 90.000000
_cell_angle_beta 90.000000
_cell_angle_gamma 90.000000
_cell_volume 3228.455595
_symmetry_space_group_name_H-M "P N M A"
_symmetry_group_IT_number 62
_symmetry_cell_setting 'orthorhombic'
loop_
_space_group_symop_operation_xyz
x,y,z
1/2-x,-y,1/2+z
1/2+x,1/2-y,1/2-z
-x,1/2+y,-z
-x,-y,-z
1/2+x,y,1/2-z
1/2-x,1/2+y,1/2+z
x,1/2-y,z
loop_
_atom_site_type_symbol
_atom_site_label
_atom_site_fract_x
_atom_site_fract_y
_atom_site_fract_z
Si Si1 0.454360 0.576481 0.943553
Si Si2 0.517396 0.846262 0.359727
Si Si3 0.167214 0.467485 0.601507
Si Si4 0.417706 0.988211 0.703071
Si Si5 0.816260 0.976270 0.995104
Si Si6 0.941057 0.095759 0.100875
Si Si7 0.847561 0.647139 0.183415
Si Si8 0.908691 0.153896 0.345052
O O1 0.411375 0.548380 0.829252
O O2 0.512035 0.652867 0.911120
O O3 0.500000 0.500000 0.000000
O O4 0.390709 0.596861 0.035480
O O5 0.534678 0.750000 0.313216
O O6 0.528147 0.846579 0.496753
O O7 0.434180 0.871407 0.326362
O O8 0.578227 0.905596 0.294606
O O9 0.238700 0.475721 0.522534
O O10 0.185305 0.414825 0.716730
O O11 0.138975 0.567930 0.622587
O O12 0.349060 0.952446 0.630002
O O13 0.494258 0.969977 0.637701
O O14 0.807855 0.885970 0.066946
O O15 0.869377 0.041640 0.063842
O O16 0.921484 0.156155 0.208919
O O17 0.828945 0.750000 0.202721
O O18 0.872933 0.250000 0.376260
#
# Coordination Sequence:
#
# PCOD8250044 Si02
#       8
#     8   8   8   8   8   8   8   8
#     4   9  20  37  57  83 120 160 202 245 303 368
#     4  10  17  29  55  88 117 147 194 253 300 346
#     4  11  24  40  61  87 128 167 207 244 323 375
#     4  10  18  34  58  87 118 154 207 247 299 365
#     4  11  21  37  64  84 119 167 200 257 310 369
#     4  10  17  35  58  87 119 151 205 243 311 355
#     4  11  22  40  63  90 120 162 208 255 306 371
#     4  10  20  37  63  89 121 159 207 257 308 373
#
# _framework density 19.823720000000002
#
# number of rings (size 3 to 8) (size 9 to 14) (size 15 to 20)
#    0.000    1.750    3.750    2.625    1.750    1.000 
#    0.000    6.875    0.000    3.000    0.000    0.000 
#    0.000    0.000    0.000    0.000    0.000    0.000 
#
# Total GULP energy -793051.144480 kJ/mol
# GULP energy per Si atom -12391.424132 kJ/mol
# Density = 1.977860 g / cm^3
# Si number density = 19.823720 Si / 1000 Ang^3
#
#
#
# Elastic Constant Matrix: (Units=GPa)
#
#
# Indices 1 2 3 4 5 6 
#
# 1 69.7223 23.1118 18.2896 0.0000 0.0000 0.0000
# 2 23.1118 98.7276 18.4581 0.0000 0.0000 0.0000
# 3 18.2896 18.4581 58.8086 0.0000 0.0000 0.0000
# 4 0.0000 0.0000 0.0000 12.1114 0.0000 0.0000
# 5 0.0000 0.0000 0.0000 0.0000 21.9671 0.0000
# 6 0.0000 0.0000 0.0000 0.0000 0.0000 18.3142
#
#
#
# Elastic Compliance Matrix: (Units=1/GPa)
#
#
# Indices 1 2 3 4 5 6 
#
# 1 0.016451 -0.003075 -0.004151 0.000000 0.000000 0.000000
# 2 -0.003075 0.011335 -0.002601 0.000000 0.000000 0.000000
# 3 -0.004151 -0.002601 0.019112 0.000000 0.000000 0.000000
# 4 0.000000 0.000000 0.000000 0.082567 0.000000 0.000000
# 5 0.000000 0.000000 0.000000 0.000000 0.045523 0.000000
# 6 0.000000 0.000000 0.000000 0.000000 0.000000 0.054603
#
#
# Mechanical properties :
#
#
# Convention : Reuss Voigt Hill
#
# Bulk Modulus (GPa) = 36.70700 38.55306 37.63003
# Shear Modulus (GPa) = 19.35544 21.63848 20.49696
#
# Velocity S-wave (km/s) = 3.12809 3.30744 3.21902
# Velocity P-wave (km/s) = 5.62170 5.83744 5.73059
#
# Compressibility (1/GPa) = 0.02724276
#
# Stress axis : x y z
#
# Youngs Moduli (GPa) = 60.78715 88.22168 52.32365
#
# Poissons Ratio (x) = 0.27128 0.21720
# Poissons Ratio (y) = 0.18692 0.13611
# Poissons Ratio (z) = 0.25233 0.22950
#
# Static dielectric constant tensor:
#      x y z
#    x 3.421380 0.000000 0.000000 
#    y 0.000000 3.478710 0.000000 
#    z 0.000000 0.000000 3.760100 
# 
# 
# High freq. dielectric constant tensor:
#      x y z
#    x 1.748710 0.000000 0.000000 
#    y 0.000000 1.757320 0.000000 
#    z 0.000000 0.000000 1.782100 
# 
# From -- ./inp_files/14362.got.cif
#   From: 2010.03.12/outbox.cif.g09.slc.cpg/sg62_8_cif.got.tgz:14362.got - 2010.04.10 19:12:36.
