data_PCOD8250701
_publ_section_title
;
Structure prediction by ZEFSAII (Michael W. Deem and Ramdas Pophale) SiO2 
 PCOD8250701
Probable space group: P N M A
;
_chemical_formula_sum "Si O2"
_cell_formula_units_Z 64
_cell_length_a 30.750440
_cell_length_b 8.892574
_cell_length_c 11.904265
_cell_angle_alpha 90.000000
_cell_angle_beta 90.000000
_cell_angle_gamma 90.000000
_cell_volume 3255.227969
_symmetry_space_group_name_H-M "P N M A"
_symmetry_group_IT_number 62
_symmetry_cell_setting 'orthorhombic'
loop_
_space_group_symop_operation_xyz
x,y,z
1/2-x,-y,1/2+z
1/2+x,1/2-y,1/2-z
-x,1/2+y,-z
-x,-y,-z
1/2+x,y,1/2-z
1/2-x,1/2+y,1/2+z
x,1/2-y,z
loop_
_atom_site_type_symbol
_atom_site_label
_atom_site_fract_x
_atom_site_fract_y
_atom_site_fract_z
Si Si1 0.449201 0.924177 0.250745
Si Si2 0.955443 0.424148 0.720547
Si Si3 0.707262 0.071950 0.225492
Si Si4 0.568778 0.426988 0.001796
Si Si5 0.799865 0.571056 0.261166
Si Si6 0.871232 0.073468 0.854541
Si Si7 0.127066 0.574467 0.884045
Si Si8 0.334646 0.572552 0.003249
O O1 0.435173 0.750000 0.262508
O O2 0.499321 0.951063 0.288144
O O3 0.446152 0.976447 0.121571
O O4 0.417598 0.022443 0.326837
O O5 0.948765 0.250000 0.696984
O O6 0.960392 0.500607 0.598862
O O7 0.914996 0.486518 0.793161
O O8 0.712558 0.250000 0.238027
O O9 0.751618 0.989716 0.251802
O O10 0.669980 0.017383 0.309660
O O11 0.696148 0.023515 0.098446
O O12 0.565795 0.250000 0.016515
O O13 0.617432 0.490314 0.020566
O O14 0.799240 0.750000 0.255880
O O15 0.830899 0.510919 0.163221
O O16 0.817197 0.507279 0.379709
O O17 0.863850 0.250000 0.833551
O O18 0.876601 0.036818 0.985110
O O19 0.133548 0.750000 0.861965
O O20 0.337206 0.750000 0.014350
#
# Coordination Sequence:
#
# PCOD8250701 Si02
#       8
#     8   8   8   8   8   8   8   8
#     4  10  21  38  60  86 119 155 194 243 299 353
#     4  10  21  37  59  88 118 153 197 243 292 354
#     4  11  23  40  62  91 119 152 198 240 285 354
#     4  10  18  35  59  86 120 154 187 234 298 354
#     4  11  23  42  64  88 120 157 192 239 301 352
#     4  10  23  42  59  82 120 159 195 245 301 344
#     4  11  24  41  60  84 117 157 201 247 292 346
#     4   9  19  37  61  85 118 154 185 234 296 345
#
# _framework density 19.660681
#
# number of rings (size 3 to 8) (size 9 to 14) (size 15 to 20)
#    0.000    1.750    2.500    1.500    1.750    2.500 
#    0.000    1.875    0.000    0.000    0.000    0.000 
#    0.000    0.000    0.000    0.000    0.000    0.000 
#
# Total GULP energy -793673.992366 kJ/mol
# GULP energy per Si atom -12401.156131 kJ/mol
# Density = 1.961593 g / cm^3
# Si number density = 19.660681 Si / 1000 Ang^3
#
#
#
# Elastic Constant Matrix: (Units=GPa)
#
#
# Indices 1 2 3 4 5 6 
#
# 1 118.7817 35.4330 42.0323 0.0000 0.0000 0.0000
# 2 35.4330 57.9206 44.7240 0.0000 0.0000 0.0000
# 3 42.0323 44.7240 113.2707 0.0000 0.0000 0.0000
# 4 0.0000 0.0000 0.0000 28.1747 0.0000 0.0000
# 5 0.0000 0.0000 0.0000 0.0000 25.7019 0.0000
# 6 0.0000 0.0000 0.0000 0.0000 0.0000 12.6001
#
#
#
# Elastic Compliance Matrix: (Units=1/GPa)
#
#
# Indices 1 2 3 4 5 6 
#
# 1 0.010596 -0.004958 -0.001975 0.000000 0.000000 0.000000
# 2 -0.004958 0.027157 -0.008883 0.000000 0.000000 0.000000
# 3 -0.001975 -0.008883 0.013069 0.000000 0.000000 0.000000
# 4 0.000000 0.000000 0.000000 0.035493 0.000000 0.000000
# 5 0.000000 0.000000 0.000000 0.000000 0.038908 0.000000
# 6 0.000000 0.000000 0.000000 0.000000 0.000000 0.079364
#
#
# Mechanical properties :
#
#
# Convention : Reuss Voigt Hill
#
# Bulk Modulus (GPa) = 52.10681 59.37239 55.73960
# Shear Modulus (GPa) = 20.60883 24.48093 22.54488
#
# Velocity S-wave (km/s) = 3.24114 3.53253 3.38997
# Velocity P-wave (km/s) = 6.36924 6.84854 6.61323
#
# Compressibility (1/GPa) = 0.01919135
#
# Stress axis : x y z
#
# Youngs Moduli (GPa) = 94.37137 36.82295 76.51965
#
# Poissons Ratio (x) = 0.18256 0.15110
# Poissons Ratio (y) = 0.46786 0.67973
# Poissons Ratio (z) = 0.18635 0.32710
#
# Static dielectric constant tensor:
#      x y z
#    x 3.765400 0.000000 0.000000 
#    y 0.000000 3.415940 0.000000 
#    z 0.000000 0.000000 3.703070 
# 
# 
# High freq. dielectric constant tensor:
#      x y z
#    x 1.783810 0.000000 0.000000 
#    y 0.000000 1.751800 0.000000 
#    z 0.000000 0.000000 1.769400 
# 
# From -- ./inp_files/15827.got.cif
#   From: 2010.03.12/outbox.cif.g09.slc.cpg/sg62_8_cif.got.tgz:15827.got - 2010.04.10 19:12:36.
