data_PCOD8250048
_publ_section_title
;
Structure prediction by ZEFSAII (Michael W. Deem and Ramdas Pophale) SiO2 
 PCOD8250048
Probable space group: P N M A
;
_chemical_formula_sum "Si O2"
_cell_formula_units_Z 64
_cell_length_a 30.215209
_cell_length_b 9.035689
_cell_length_c 14.266733
_cell_angle_alpha 90.000000
_cell_angle_beta 90.000000
_cell_angle_gamma 90.000000
_cell_volume 3895.035414
_symmetry_space_group_name_H-M "P N M A"
_symmetry_group_IT_number 62
_symmetry_cell_setting 'orthorhombic'
loop_
_space_group_symop_operation_xyz
x,y,z
1/2-x,-y,1/2+z
1/2+x,1/2-y,1/2-z
-x,1/2+y,-z
-x,-y,-z
1/2+x,y,1/2-z
1/2-x,1/2+y,1/2+z
x,1/2-y,z
loop_
_atom_site_type_symbol
_atom_site_label
_atom_site_fract_x
_atom_site_fract_y
_atom_site_fract_z
Si Si1 0.542520 0.576653 0.109263
Si Si2 0.130992 0.583436 0.290004
Si Si3 0.632195 0.076248 0.855807
Si Si4 0.546856 0.577266 0.891669
Si Si5 0.716571 0.426148 0.736792
Si Si6 0.801752 0.575764 0.830585
Si Si7 0.226911 0.076393 0.970737
Si Si8 0.324314 0.417771 0.984230
O O1 0.533175 0.750000 0.120010
O O2 0.583214 0.525888 0.175079
O O3 0.499768 0.487359 0.143520
O O4 0.553918 0.540002 0.001421
O O5 0.126821 0.750000 0.250420
O O6 0.151348 0.478573 0.210252
O O7 0.165251 0.580733 0.375036
O O8 0.625125 0.250000 0.850058
O O9 0.671788 0.021868 0.788412
O O10 0.585724 0.998223 0.830203
O O11 0.643238 0.026842 0.961267
O O12 0.547496 0.750000 0.871518
O O13 0.722438 0.250000 0.743357
O O14 0.759724 0.498072 0.783026
O O15 0.710469 0.484849 0.629646
O O16 0.796564 0.750000 0.814754
O O17 0.804526 0.535681 0.941739
O O18 0.232090 0.250000 0.958381
O O19 0.275410 0.015337 0.996511
O O20 0.329621 0.250000 0.023903
#
# Coordination Sequence:
#
# PCOD8250048 Si02
#       8
#     8   8   8   8   8   8   8   8
#     4   9  18  32  49  70  95 128 164 193 231 288
#     4  10  19  33  50  68  96 134 163 190 235 292
#     4  11  21  30  47  73  98 126 166 207 236 280
#     4  10  19  32  49  69  98 130 158 194 243 292
#     4  10  20  35  50  66  93 132 168 197 238 288
#     4  11  21  31  48  73  96 123 164 207 239 277
#     4   9  18  33  49  64  93 132 164 197 238 284
#     4  10  17  30  49  66  94 134 166 191 236 289
#
# _framework density 16.431172
#
# number of rings (size 3 to 8) (size 9 to 14) (size 15 to 20)
#    0.000    2.000    3.750    1.125    0.000    2.000 
#    0.000    1.250    0.000    0.000    0.000    0.875 
#    0.000    0.000    0.000    0.000    0.000    0.000 
#
# Total GULP energy -793387.408655 kJ/mol
# GULP energy per Si atom -12396.678260 kJ/mol
# Density = 1.639377 g / cm^3
# Si number density = 16.431172 Si / 1000 Ang^3
#
#
#
# Elastic Constant Matrix: (Units=GPa)
#
#
# Indices 1 2 3 4 5 6 
#
# 1 104.3909 39.1967 29.6318 0.0000 0.0000 0.0000
# 2 39.1967 48.7290 22.7094 0.0000 0.0000 0.0000
# 3 29.6318 22.7094 65.5281 0.0000 0.0000 0.0000
# 4 0.0000 0.0000 0.0000 16.8668 0.0000 0.0000
# 5 0.0000 0.0000 0.0000 0.0000 25.4432 0.0000
# 6 0.0000 0.0000 0.0000 0.0000 0.0000 29.6039
#
#
#
# Elastic Compliance Matrix: (Units=1/GPa)
#
#
# Indices 1 2 3 4 5 6 
#
# 1 0.014182 -0.010041 -0.002933 0.000000 0.000000 0.000000
# 2 -0.010041 0.031583 -0.006405 0.000000 0.000000 0.000000
# 3 -0.002933 -0.006405 0.018807 0.000000 0.000000 0.000000
# 4 0.000000 0.000000 0.000000 0.059288 0.000000 0.000000
# 5 0.000000 0.000000 0.000000 0.000000 0.039303 0.000000
# 6 0.000000 0.000000 0.000000 0.000000 0.000000 0.033779
#
#
# Mechanical properties :
#
#
# Convention : Reuss Voigt Hill
#
# Bulk Modulus (GPa) = 38.73907 44.63597 41.68752
# Shear Modulus (GPa) = 20.46615 22.85680 21.66147
#
# Velocity S-wave (km/s) = 3.53309 3.73374 3.63480
# Velocity P-wave (km/s) = 6.34597 6.76847 6.56062
#
# Compressibility (1/GPa) = 0.02581373
#
# Stress axis : x y z
#
# Youngs Moduli (GPa) = 70.51111 31.66239 53.17209
#
# Poissons Ratio (x) = 0.31791 0.15598
# Poissons Ratio (y) = 0.70799 0.34057
# Poissons Ratio (z) = 0.20684 0.20280
#
# Static dielectric constant tensor:
#      x y z
#    x 3.198320 0.000000 0.000000 
#    y 0.000000 3.020040 0.000000 
#    z 0.000000 0.000000 3.038360 
# 
# 
# High freq. dielectric constant tensor:
#      x y z
#    x 1.630750 0.000000 0.000000 
#    y 0.000000 1.625570 0.000000 
#    z 0.000000 0.000000 1.602120 
# 
# From -- ./inp_files/21247.got.cif
#   From: 2010.03.12/outbox.cif.g09.slc.cpg/sg62_11_cif.got.tgz:21247.got - 2010.04.10 19:12:36.
