data_PCOD8250114
_publ_section_title
;
Structure prediction by ZEFSAII (Michael W. Deem and Ramdas Pophale) SiO2 
 PCOD8250114
Probable space group: P N M A
;
_chemical_formula_sum "Si O2"
_cell_formula_units_Z 56
_cell_length_a 17.626185
_cell_length_b 9.131294
_cell_length_c 22.077372
_cell_angle_alpha 90.000000
_cell_angle_beta 90.000000
_cell_angle_gamma 90.000000
_cell_volume 3553.350315
_symmetry_space_group_name_H-M "P N M A"
_symmetry_group_IT_number 62
_symmetry_cell_setting 'orthorhombic'
loop_
_space_group_symop_operation_xyz
x,y,z
1/2-x,-y,1/2+z
1/2+x,1/2-y,1/2-z
-x,1/2+y,-z
-x,-y,-z
1/2+x,y,1/2-z
1/2-x,1/2+y,1/2+z
x,1/2-y,z
loop_
_atom_site_type_symbol
_atom_site_label
_atom_site_fract_x
_atom_site_fract_y
_atom_site_fract_z
Si Si1 0.865249 0.576805 0.650821
Si Si2 0.247823 0.087743 0.182864
Si Si3 0.564114 0.419166 0.710868
Si Si4 0.502540 0.424011 0.064266
Si Si5 0.914352 0.922139 0.780544
Si Si6 0.888214 0.580294 0.348262
Si Si7 0.705026 0.913246 0.678087
O O1 0.861969 0.750000 0.659040
O O2 0.917313 0.530130 0.594482
O O3 0.900983 0.513162 0.712867
O O4 0.777955 0.523309 0.640639
O O5 0.261070 0.250000 0.155150
O O6 0.159082 0.043600 0.177543
O O7 0.268261 0.092113 0.253043
O O8 0.300399 0.970824 0.148125
O O9 0.557412 0.250000 0.695760
O O10 0.486513 0.496823 0.690803
O O11 0.579357 0.449244 0.781551
O O12 0.632548 0.482604 0.670063
O O13 0.494919 0.250000 0.057747
O O14 0.434263 0.482589 0.104850
O O15 0.500000 0.500000 0.000000
O O16 0.931657 0.750000 0.778461
O O17 0.893164 0.750000 0.366570
O O18 0.682668 0.750000 0.656052
#
# Coordination Sequence:
#
# PCOD8250114 Si02
#       7
#     8   8   8   8   8   8   8
#     4   8  15  28  45  60  77 108 147 183 213 248
#     4   8  15  26  42  61  80 107 144 179 211 252
#     4  10  18  25  37  62  91 115 140 173 214 256
#     4  11  21  33  48  64  85 112 150 190 224 257
#     4   9  15  26  43  62  83 113 149 176 207 255
#     4  10  19  30  42  59  85 115 146 178 219 261
#     4   8  14  26  42  58  77 107 145 175 206 252
#
# _framework density 15.759774999999999
#
# number of rings (size 3 to 8) (size 9 to 14) (size 15 to 20)
#    0.000    2.857    1.429    3.000    0.000    1.714 
#    0.000    3.571    0.000    0.000    0.000    0.000 
#    0.000    1.143    0.000    3.429    0.000    4.571 
#
# Total GULP energy -694083.116539 kJ/mol
# GULP energy per Si atom -12394.341367 kJ/mol
# Density = 1.572390 g / cm^3
# Si number density = 15.759775 Si / 1000 Ang^3
#
#
#
# Elastic Constant Matrix: (Units=GPa)
#
#
# Indices 1 2 3 4 5 6 
#
# 1 147.2551 63.8121 29.0883 0.0000 0.0000 0.0000
# 2 63.8121 79.1199 26.6026 0.0000 0.0000 0.0000
# 3 29.0883 26.6026 36.7849 0.0000 0.0000 0.0000
# 4 0.0000 0.0000 0.0000 16.8157 0.0000 0.0000
# 5 0.0000 0.0000 0.0000 0.0000 12.7881 0.0000
# 6 0.0000 0.0000 0.0000 0.0000 0.0000 20.2689
#
#
#
# Elastic Compliance Matrix: (Units=1/GPa)
#
#
# Indices 1 2 3 4 5 6 
#
# 1 0.010673 -0.007624 -0.002926 0.000000 0.000000 0.000000
# 2 -0.007624 0.022146 -0.009987 0.000000 0.000000 0.000000
# 3 -0.002926 -0.009987 0.036721 0.000000 0.000000 0.000000
# 4 0.000000 0.000000 0.000000 0.059468 0.000000 0.000000
# 5 0.000000 0.000000 0.000000 0.000000 0.078198 0.000000
# 6 0.000000 0.000000 0.000000 0.000000 0.000000 0.049337
#
#
# Mechanical properties :
#
#
# Convention : Reuss Voigt Hill
#
# Bulk Modulus (GPa) = 35.12954 55.79619 45.46287
# Shear Modulus (GPa) = 16.28107 19.55168 17.91637
#
# Velocity S-wave (km/s) = 3.21764 3.52605 3.37537
# Velocity P-wave (km/s) = 6.01193 7.21515 6.64085
#
# Compressibility (1/GPa) = 0.02846607
#
# Stress axis : x y z
#
# Youngs Moduli (GPa) = 93.69660 45.15506 27.23208
#
# Poissons Ratio (x) = 0.34426 0.07968
# Poissons Ratio (y) = 0.71434 0.27197
# Poissons Ratio (z) = 0.27416 0.45096
#
# Static dielectric constant tensor:
#      x y z
#    x 3.387760 0.000000 0.000000 
#    y 0.000000 2.933140 0.000000 
#    z 0.000000 0.000000 2.572630 
# 
# 
# High freq. dielectric constant tensor:
#      x y z
#    x 1.622060 0.000000 0.000000 
#    y 0.000000 1.599720 0.000000 
#    z 0.000000 0.000000 1.533210 
# 
# From -- ./inp_files/27506.got.cif
#   From: 2010.03.12/outbox.cif.g09.slc.cpg/sg62_14_cif.got.tgz:27506.got - 2010.04.10 19:12:36.
