data_PCOD8250488
_publ_section_title
;
Structure prediction by ZEFSAII (Michael W. Deem and Ramdas Pophale) SiO2 
 PCOD8250488
Probable space group: P N M A
;
_chemical_formula_sum "Si O2"
_cell_formula_units_Z 64
_cell_length_a 24.829911
_cell_length_b 8.996032
_cell_length_c 15.386841
_cell_angle_alpha 90.000000
_cell_angle_beta 90.000000
_cell_angle_gamma 90.000000
_cell_volume 3436.969044
_symmetry_space_group_name_H-M "P N M A"
_symmetry_group_IT_number 62
_symmetry_cell_setting 'orthorhombic'
loop_
_space_group_symop_operation_xyz
x,y,z
1/2-x,-y,1/2+z
1/2+x,1/2-y,1/2-z
-x,1/2+y,-z
-x,-y,-z
1/2+x,y,1/2-z
1/2-x,1/2+y,1/2+z
x,1/2-y,z
loop_
_atom_site_type_symbol
_atom_site_label
_atom_site_fract_x
_atom_site_fract_y
_atom_site_fract_z
Si Si1 0.650826 0.425699 0.702706
Si Si2 0.053315 0.076358 0.675094
Si Si3 0.667511 0.425791 0.510552
Si Si4 0.608604 0.075682 0.003137
Si Si5 0.941331 0.573143 0.684447
Si Si6 0.213202 0.925932 0.454098
Si Si7 0.239562 0.421486 0.281033
Si Si8 0.638327 0.421304 0.329242
O O1 0.661051 0.250000 0.707655
O O2 0.599708 0.475011 0.758497
O O3 0.641971 0.477881 0.602367
O O4 0.703432 0.504375 0.742131
O O5 0.041341 0.250000 0.685015
O O6 0.069989 0.035944 0.577048
O O7 0.000792 0.986094 0.701158
O O8 0.664786 0.250000 0.503941
O O9 0.729872 0.475288 0.504968
O O10 0.635225 0.492387 0.426934
O O11 0.621178 0.250000 0.006936
O O12 0.664805 0.990447 0.987894
O O13 0.580281 0.017458 0.091060
O O14 0.941835 0.750000 0.685267
O O15 0.903312 0.505114 0.760895
O O16 0.207981 0.750000 0.446527
O O17 0.208815 0.996630 0.358871
O O18 0.248611 0.250000 0.306024
O O19 0.200445 0.438407 0.198897
O O20 0.621872 0.250000 0.333272
#
# Coordination Sequence:
#
# PCOD8250488 Si02
#       8
#     8   8   8   8   8   8   8   8
#     4   9  19  36  53  75 107 140 176 218 265 315
#     4  10  22  37  54  75 106 144 178 222 274 315
#     4   8  16  31  51  74 104 138 172 208 255 313
#     4  10  20  35  52  75 108 142 174 216 267 317
#     4  10  20  36  55  75 102 135 180 226 263 314
#     4  10  19  31  51  79 110 140 173 211 257 318
#     4  10  18  31  53  77 107 140 173 214 262 312
#     4   9  17  31  52  77 103 135 173 216 260 304
#
# _framework density 18.621058000000001
#
# number of rings (size 3 to 8) (size 9 to 14) (size 15 to 20)
#    0.000    2.500    1.250    1.875    1.750    1.500 
#    0.000    0.625    0.000    4.500    0.000    0.000 
#    0.000    0.000    0.000    0.000    0.000    0.000 
#
# Total GULP energy -793372.881048 kJ/mol
# GULP energy per Si atom -12396.451266 kJ/mol
# Density = 1.857868 g / cm^3
# Si number density = 18.621058 Si / 1000 Ang^3
#
#
#
# Elastic Constant Matrix: (Units=GPa)
#
#
# Indices 1 2 3 4 5 6 
#
# 1 118.3472 26.5376 62.0677 0.0000 0.0000 0.0000
# 2 26.5376 35.3114 19.4961 0.0000 0.0000 0.0000
# 3 62.0677 19.4961 106.2086 0.0000 0.0000 0.0000
# 4 0.0000 0.0000 0.0000 13.3470 0.0000 0.0000
# 5 0.0000 0.0000 0.0000 0.0000 25.7136 0.0000
# 6 0.0000 0.0000 0.0000 0.0000 0.0000 32.1770
#
#
#
# Elastic Compliance Matrix: (Units=1/GPa)
#
#
# Indices 1 2 3 4 5 6 
#
# 1 0.013360 -0.006376 -0.006637 0.000000 0.000000 0.000000
# 2 -0.006376 0.034556 -0.002617 0.000000 0.000000 0.000000
# 3 -0.006637 -0.002617 0.013775 0.000000 0.000000 0.000000
# 4 0.000000 0.000000 0.000000 0.074923 0.000000 0.000000
# 5 0.000000 0.000000 0.000000 0.000000 0.038890 0.000000
# 6 0.000000 0.000000 0.000000 0.000000 0.000000 0.031078
#
#
# Mechanical properties :
#
#
# Convention : Reuss Voigt Hill
#
# Bulk Modulus (GPa) = 32.86211 52.89668 42.87940
# Shear Modulus (GPa) = 20.16234 24.36524 22.26379
#
# Velocity S-wave (km/s) = 3.29412 3.62121 3.46153
# Velocity P-wave (km/s) = 5.67049 6.77885 6.24929
#
# Compressibility (1/GPa) = 0.03043018
#
# Stress axis : x y z
#
# Youngs Moduli (GPa) = 74.84768 28.93827 72.59703
#
# Poissons Ratio (x) = 0.18452 0.48185
# Poissons Ratio (y) = 0.47724 0.18999
# Poissons Ratio (z) = 0.49679 0.07573
#
# Static dielectric constant tensor:
#      x y z
#    x 3.365390 0.000000 0.000000 
#    y 0.000000 3.149320 0.000000 
#    z 0.000000 0.000000 3.756910 
# 
# 
# High freq. dielectric constant tensor:
#      x y z
#    x 1.715180 0.000000 0.000000 
#    y 0.000000 1.693630 0.000000 
#    z 0.000000 0.000000 1.728750 
# 
# From -- ./inp_files/20911.got.cif
#   From: 2010.03.12/outbox.cif.g09.slc.cpg/sg62_11_cif.got.tgz:20911.got - 2010.04.10 19:12:36.
