data_PCOD8250977
_publ_section_title
;
Structure prediction by ZEFSAII (Michael W. Deem and Ramdas Pophale) SiO2 
 PCOD8250977
Probable space group: P N M A
;
_chemical_formula_sum "Si O2"
_cell_formula_units_Z 48
_cell_length_a 18.141000
_cell_length_b 8.979930
_cell_length_c 16.540624
_cell_angle_alpha 90.000000
_cell_angle_beta 90.000000
_cell_angle_gamma 90.000000
_cell_volume 2694.548866
_symmetry_space_group_name_H-M "P N M A"
_symmetry_group_IT_number 62
_symmetry_cell_setting 'orthorhombic'
loop_
_space_group_symop_operation_xyz
x,y,z
1/2-x,-y,1/2+z
1/2+x,1/2-y,1/2-z
-x,1/2+y,-z
-x,-y,-z
1/2+x,y,1/2-z
1/2-x,1/2+y,1/2+z
x,1/2-y,z
loop_
_atom_site_type_symbol
_atom_site_label
_atom_site_fract_x
_atom_site_fract_y
_atom_site_fract_z
Si Si1 0.298476 0.416346 0.580399
Si Si2 0.801931 0.586195 0.576562
Si Si3 0.421452 0.927146 0.486883
Si Si4 0.326561 0.076994 0.160978
Si Si5 0.577771 0.576215 0.990834
Si Si6 0.341086 0.423448 0.341928
O O1 0.323441 0.250000 0.606082
O O2 0.247693 0.409806 0.502547
O O3 0.369585 0.516052 0.559831
O O4 0.250571 0.489500 0.652005
O O5 0.835471 0.750000 0.593766
O O6 0.869252 0.472144 0.565129
O O7 0.746171 0.537057 0.647973
O O8 0.426903 0.750000 0.490596
O O9 0.500000 0.000000 0.500000
O O10 0.391502 0.975206 0.398904
O O11 0.307780 0.250000 0.149749
O O12 0.386503 0.026254 0.094449
O O13 0.361482 0.044014 0.248835
O O14 0.565557 0.750000 0.995944
O O15 0.500000 0.500000 0.000000
O O16 0.354011 0.250000 0.365073
#
# Coordination Sequence:
#
# PCOD8250977 Si02
#       6
#     8   8   8   8   8   8
#     4   9  17  31  51  74  99 128 164 204 246 296
#     4   8  15  29  49  70  93 123 158 196 239 289
#     4  11  21  34  53  76 103 135 172 211 256 309
#     4   9  18  33  53  76 101 132 169 209 253 302
#     4  10  19  31  49  72  99 131 167 203 242 292
#     4   9  18  34  54  76 102 131 166 209 256 304
#
# _framework density 17.813742999999999
#
# number of rings (size 3 to 8) (size 9 to 14) (size 15 to 20)
#    0.000    2.667    0.000    3.500    0.000    5.333 
#    0.000    1.667    0.000    4.000    0.000    0.000 
#    0.000    0.000    0.000    0.000    0.000    0.000 
#
# Total GULP energy -595023.685350 kJ/mol
# GULP energy per Si atom -12396.326778 kJ/mol
# Density = 1.777320 g / cm^3
# Si number density = 17.813743 Si / 1000 Ang^3
#
#
#
# Elastic Constant Matrix: (Units=GPa)
#
#
# Indices 1 2 3 4 5 6 
#
# 1 128.2913 71.5084 40.4185 0.0000 0.0000 0.0000
# 2 71.5084 118.4425 38.4824 0.0000 0.0000 0.0000
# 3 40.4185 38.4824 68.2113 0.0000 0.0000 0.0000
# 4 0.0000 0.0000 0.0000 22.6875 0.0000 0.0000
# 5 0.0000 0.0000 0.0000 0.0000 17.3418 0.0000
# 6 0.0000 0.0000 0.0000 0.0000 0.0000 35.4961
#
#
#
# Elastic Compliance Matrix: (Units=1/GPa)
#
#
# Indices 1 2 3 4 5 6 
#
# 1 0.012529 -0.006308 -0.003865 0.000000 0.000000 0.000000
# 2 -0.006308 0.013514 -0.003886 0.000000 0.000000 0.000000
# 3 -0.003865 -0.003886 0.019143 0.000000 0.000000 0.000000
# 4 0.000000 0.000000 0.000000 0.044077 0.000000 0.000000
# 5 0.000000 0.000000 0.000000 0.000000 0.057664 0.000000
# 6 0.000000 0.000000 0.000000 0.000000 0.000000 0.028172
#
#
# Mechanical properties :
#
#
# Convention : Reuss Voigt Hill
#
# Bulk Modulus (GPa) = 58.59314 68.41820 63.50567
# Shear Modulus (GPa) = 23.93413 26.07414 25.00414
#
# Velocity S-wave (km/s) = 3.66946 3.83000 3.75059
# Velocity P-wave (km/s) = 7.13560 7.61902 7.38127
#
# Compressibility (1/GPa) = 0.01706684
#
# Stress axis : x y z
#
# Youngs Moduli (GPa) = 79.81744 73.99659 52.23861
#
# Poissons Ratio (x) = 0.46679 0.20190
# Poissons Ratio (y) = 0.50351 0.20301
# Poissons Ratio (z) = 0.30849 0.28757
#
# Static dielectric constant tensor:
#      x y z
#    x 3.340030 0.000000 0.000000 
#    y 0.000000 3.475780 0.000000 
#    z 0.000000 0.000000 3.364420 
# 
# 
# High freq. dielectric constant tensor:
#      x y z
#    x 1.679830 0.000000 0.000000 
#    y 0.000000 1.694880 0.000000 
#    z 0.000000 0.000000 1.667220 
# 
# From -- ./inp_files/24183.got.cif
#   From: 2010.03.12/outbox.cif.g09.slc.cpg/sg62_13_cif.got.tgz:24183.got - 2010.04.10 19:12:36.
