data_PCOD8250839
_publ_section_title
;
Structure prediction by ZEFSAII (Michael W. Deem and Ramdas Pophale) SiO2 
 PCOD8250839
Probable space group: P N M A
;
_chemical_formula_sum "Si O2"
_cell_formula_units_Z 64
_cell_length_a 18.689878
_cell_length_b 9.283039
_cell_length_c 23.293607
_cell_angle_alpha 90.000000
_cell_angle_beta 90.000000
_cell_angle_gamma 90.000000
_cell_volume 4041.414408
_symmetry_space_group_name_H-M "P N M A"
_symmetry_group_IT_number 62
_symmetry_cell_setting 'orthorhombic'
loop_
_space_group_symop_operation_xyz
x,y,z
1/2-x,-y,1/2+z
1/2+x,1/2-y,1/2-z
-x,1/2+y,-z
-x,-y,-z
1/2+x,y,1/2-z
1/2-x,1/2+y,1/2+z
x,1/2-y,z
loop_
_atom_site_type_symbol
_atom_site_label
_atom_site_fract_x
_atom_site_fract_y
_atom_site_fract_z
Si Si1 0.268865 0.417098 0.168803
Si Si2 0.502795 0.415915 0.754248
Si Si3 0.502093 0.080046 0.884587
Si Si4 0.349372 0.417265 0.933898
Si Si5 0.157932 0.918166 0.234902
Si Si6 0.134023 0.585869 0.775322
Si Si7 0.773534 0.918825 0.660077
Si Si8 0.633825 0.583912 0.935010
O O1 0.246948 0.250000 0.175099
O O2 0.199017 0.514530 0.180254
O O3 0.328997 0.457846 0.215373
O O4 0.299727 0.454620 0.106334
O O5 0.523423 0.250000 0.755944
O O6 0.502409 0.477136 0.819242
O O7 0.426277 0.440588 0.724486
O O8 0.562547 0.493700 0.715779
O O9 0.512467 0.250000 0.887249
O O10 0.427805 0.034042 0.913642
O O11 0.564938 0.009552 0.920921
O O12 0.336123 0.250000 0.919210
O O13 0.290224 0.513833 0.901867
O O14 0.340148 0.449317 0.000995
O O15 0.176989 0.750000 0.241796
O O16 0.178889 0.999746 0.292948
O O17 0.109435 0.750000 0.773804
O O18 0.189462 0.556866 0.827075
O O19 0.792644 0.750000 0.662020
O O20 0.611634 0.750000 0.927356
#
# Coordination Sequence:
#
# PCOD8250839 Si02
#       8
#     8   8   8   8   8   8   8   8
#     4   9  18  32  46  68  95 122 159 197 232 278
#     4  10  19  30  46  70  96 124 156 192 232 281
#     4  10  19  31  44  66  99 129 165 199 225 272
#     4  10  20  34  49  67  95 131 165 198 235 275
#     4  10  19  32  49  69  95 124 156 195 239 284
#     4   9  18  31  47  67  93 122 155 193 236 283
#     4  10  20  33  48  69  94 122 159 200 236 278
#     4  10  20  33  49  68  95 130 166 200 233 274
#
# _framework density 15.836040000000001
#
# number of rings (size 3 to 8) (size 9 to 14) (size 15 to 20)
#    0.000    2.250    2.500    1.875    0.000    5.000 
#    0.000    0.000    0.000    0.000    0.000    0.875 
#    0.000    0.000    0.000    0.000    0.000    0.000 
#
# Total GULP energy -793690.993308 kJ/mol
# GULP energy per Si atom -12401.421770 kJ/mol
# Density = 1.580000 g / cm^3
# Si number density = 15.836040 Si / 1000 Ang^3
#
#
#
# Elastic Constant Matrix: (Units=GPa)
#
#
# Indices 1 2 3 4 5 6 
#
# 1 99.4526 56.4836 52.9276 0.0000 0.0000 0.0000
# 2 56.4836 69.5782 38.6536 0.0000 0.0000 0.0000
# 3 52.9276 38.6536 87.7751 0.0000 0.0000 0.0000
# 4 0.0000 0.0000 0.0000 23.2150 0.0000 0.0000
# 5 0.0000 0.0000 0.0000 0.0000 22.6536 0.0000
# 6 0.0000 0.0000 0.0000 0.0000 0.0000 29.9670
#
#
#
# Elastic Compliance Matrix: (Units=1/GPa)
#
#
# Indices 1 2 3 4 5 6 
#
# 1 0.021461 -0.013547 -0.006975 0.000000 0.000000 0.000000
# 2 -0.013547 0.027579 -0.003976 0.000000 0.000000 0.000000
# 3 -0.006975 -0.003976 0.017350 0.000000 0.000000 0.000000
# 4 0.000000 0.000000 0.000000 0.043076 0.000000 0.000000
# 5 0.000000 0.000000 0.000000 0.000000 0.044143 0.000000
# 6 0.000000 0.000000 0.000000 0.000000 0.000000 0.033370
#
#
# Mechanical properties :
#
#
# Convention : Reuss Voigt Hill
#
# Bulk Modulus (GPa) = 57.49484 61.43729 59.46606
# Shear Modulus (GPa) = 20.68057 22.41653 21.54855
#
# Velocity S-wave (km/s) = 3.61767 3.76645 3.69281
# Velocity P-wave (km/s) = 7.33725 7.60230 7.47095
#
# Compressibility (1/GPa) = 0.01739286
#
# Stress axis : x y z
#
# Youngs Moduli (GPa) = 46.59570 36.25965 57.63821
#
# Poissons Ratio (x) = 0.49122 0.40203
# Poissons Ratio (y) = 0.63124 0.22917
# Poissons Ratio (z) = 0.32501 0.14417
#
# Static dielectric constant tensor:
#      x y z
#    x 2.946000 0.000000 0.000000 
#    y 0.000000 3.038120 0.000000 
#    z 0.000000 0.000000 2.933830 
# 
# 
# High freq. dielectric constant tensor:
#      x y z
#    x 1.598620 0.000000 0.000000 
#    y 0.000000 1.613770 0.000000 
#    z 0.000000 0.000000 1.584360 
# 
# From -- ./inp_files/30044.got.cif
#   From: 2010.03.12/outbox.cif.g09.slc.cpg/sg62_16_cif.got.tgz:30044.got - 2010.04.10 19:12:36.
