data_PCOD8250489
_publ_section_title
;
Structure prediction by ZEFSAII (Michael W. Deem and Ramdas Pophale) SiO2 
 PCOD8250489
Probable space group: P N M A
;
_chemical_formula_sum "Si O2"
_cell_formula_units_Z 64
_cell_length_a 20.850619
_cell_length_b 8.965458
_cell_length_c 19.195103
_cell_angle_alpha 90.000000
_cell_angle_beta 90.000000
_cell_angle_gamma 90.000000
_cell_volume 3588.243277
_symmetry_space_group_name_H-M "P N M A"
_symmetry_group_IT_number 62
_symmetry_cell_setting 'orthorhombic'
loop_
_space_group_symop_operation_xyz
x,y,z
1/2-x,-y,1/2+z
1/2+x,1/2-y,1/2-z
-x,1/2+y,-z
-x,-y,-z
1/2+x,y,1/2-z
1/2-x,1/2+y,1/2+z
x,1/2-y,z
loop_
_atom_site_type_symbol
_atom_site_label
_atom_site_fract_x
_atom_site_fract_y
_atom_site_fract_z
Si Si1 0.130511 0.572935 0.331723
Si Si2 0.185528 0.425545 0.459967
Si Si3 0.500318 0.079573 0.323982
Si Si4 0.632087 0.574842 0.324103
Si Si5 0.057193 0.425383 0.541979
Si Si6 0.940385 0.077017 0.035972
Si Si7 0.505872 0.574764 0.831758
Si Si8 0.187758 0.927117 0.034992
O O1 0.122536 0.750000 0.338931
O O2 0.182511 0.511453 0.386259
O O3 0.153617 0.525949 0.253661
O O4 0.063388 0.494242 0.348798
O O5 0.190753 0.250000 0.445001
O O6 0.124228 0.465005 0.506469
O O7 0.247111 0.489681 0.501283
O O8 0.523500 0.250000 0.324852
O O9 0.444589 0.050337 0.380564
O O10 0.473350 0.039299 0.247508
O O11 0.562029 0.983818 0.343482
O O12 0.625983 0.750000 0.327550
O O13 0.681692 0.519725 0.383977
O O14 0.045474 0.250000 0.546179
O O15 0.000000 0.500000 0.500000
O O16 0.058349 0.495531 0.619398
O O17 0.944472 0.250000 0.016815
O O18 0.873082 0.010664 0.008687
O O19 0.000000 0.000000 0.000000
O O20 0.502742 0.750000 0.848158
O O21 0.189901 0.750000 0.031003
#
# Coordination Sequence:
#
# PCOD8250489 Si02
#       8
#     8   8   8   8   8   8   8   8
#     4  10  19  31  51  77 103 130 168 215 259 303
#     4  10  21  36  53  73 101 139 176 209 253 311
#     4   9  18  30  48  77 107 133 165 211 261 305
#     4   9  17  31  52  76 100 132 171 210 253 304
#     4  11  21  33  52  76 101 131 173 219 261 305
#     4  10  18  31  53  78 104 133 170 212 255 303
#     4  10  19  32  50  74 105 136 168 209 261 315
#     4   9  18  34  54  75 102 138 175 208 249 310
#
# _framework density 17.836026
#
# number of rings (size 3 to 8) (size 9 to 14) (size 15 to 20)
#    0.000    2.250    2.500    1.125    0.000    1.500 
#    0.000    2.500    0.000    0.000    0.000    0.000 
#    0.000    0.000    0.000    0.000    0.000    0.000 
#
# Total GULP energy -793421.708874 kJ/mol
# GULP energy per Si atom -12397.214201 kJ/mol
# Density = 1.779543 g / cm^3
# Si number density = 17.836026 Si / 1000 Ang^3
#
#
#
# Elastic Constant Matrix: (Units=GPa)
#
#
# Indices 1 2 3 4 5 6 
#
# 1 115.2716 34.6048 77.3635 0.0000 0.0000 0.0000
# 2 34.6048 44.8126 40.8617 0.0000 0.0000 0.0000
# 3 77.3635 40.8617 156.3117 0.0000 0.0000 0.0000
# 4 0.0000 0.0000 0.0000 24.4630 0.0000 0.0000
# 5 0.0000 0.0000 0.0000 0.0000 30.2174 0.0000
# 6 0.0000 0.0000 0.0000 0.0000 0.0000 18.4705
#
#
#
# Elastic Compliance Matrix: (Units=1/GPa)
#
#
# Indices 1 2 3 4 5 6 
#
# 1 0.014100 -0.005941 -0.005425 0.000000 0.000000 0.000000
# 2 -0.005941 0.031802 -0.005373 0.000000 0.000000 0.000000
# 3 -0.005425 -0.005373 0.010487 0.000000 0.000000 0.000000
# 4 0.000000 0.000000 0.000000 0.040878 0.000000 0.000000
# 5 0.000000 0.000000 0.000000 0.000000 0.033094 0.000000
# 6 0.000000 0.000000 0.000000 0.000000 0.000000 0.054141
#
#
# Mechanical properties :
#
#
# Convention : Reuss Voigt Hill
#
# Bulk Modulus (GPa) = 43.64840 69.11733 56.38286
# Shear Modulus (GPa) = 22.16143 25.53457 23.84800
#
# Velocity S-wave (km/s) = 3.52875 3.78779 3.66056
# Velocity P-wave (km/s) = 6.41311 7.61351 7.03894
#
# Compressibility (1/GPa) = 0.02291035
#
# Stress axis : x y z
#
# Youngs Moduli (GPa) = 70.92252 31.44436 95.35374
#
# Poissons Ratio (x) = 0.18681 0.51733
# Poissons Ratio (y) = 0.42135 0.51234
# Poissons Ratio (z) = 0.38478 0.16895
#
# Static dielectric constant tensor:
#      x y z
#    x 3.213070 0.000000 0.000000 
#    y 0.000000 3.230410 0.000000 
#    z 0.000000 0.000000 3.979610 
# 
# 
# High freq. dielectric constant tensor:
#      x y z
#    x 1.655780 0.000000 0.000000 
#    y 0.000000 1.680660 0.000000 
#    z 0.000000 0.000000 1.712670 
# 
# From -- ./inp_files/27939.got.cif
#   From: 2010.03.12/outbox.cif.g09.slc.cpg/sg62_14_cif.got.tgz:27939.got - 2010.04.10 19:12:36.
