data_PCOD8250543
_publ_section_title
;
Structure prediction by ZEFSAII (Michael W. Deem and Ramdas Pophale) SiO2 
 PCOD8250543
Probable space group: P N M A
;
_chemical_formula_sum "Si O2"
_cell_formula_units_Z 64
_cell_length_a 13.877952
_cell_length_b 10.969100
_cell_length_c 22.818192
_cell_angle_alpha 90.000000
_cell_angle_beta 90.000000
_cell_angle_gamma 90.000000
_cell_volume 3473.582410
_symmetry_space_group_name_H-M "P N M A"
_symmetry_group_IT_number 62
_symmetry_cell_setting 'orthorhombic'
loop_
_space_group_symop_operation_xyz
x,y,z
1/2-x,-y,1/2+z
1/2+x,1/2-y,1/2-z
-x,1/2+y,-z
-x,-y,-z
1/2+x,y,1/2-z
1/2-x,1/2+y,1/2+z
x,1/2-y,z
loop_
_atom_site_type_symbol
_atom_site_label
_atom_site_fract_x
_atom_site_fract_y
_atom_site_fract_z
Si Si1 0.308810 0.884579 0.645126
Si Si2 0.295095 0.458598 0.032361
Si Si3 0.441228 0.890381 0.104566
Si Si4 0.331496 0.891315 0.338959
Si Si5 0.615615 0.615748 0.493369
Si Si6 0.848825 0.385923 0.590978
Si Si7 0.497930 0.024455 0.401706
Si Si8 0.707432 0.389377 0.796742
O O1 0.293372 0.750000 0.675239
O O2 0.245592 0.878820 0.585776
O O3 0.421777 0.896679 0.631544
O O4 0.280545 0.003376 0.683575
O O5 0.379590 0.545934 0.054244
O O6 0.208128 0.531828 0.003485
O O7 0.335675 0.378502 0.979223
O O8 0.449315 0.750000 0.085799
O O9 0.548692 0.949681 0.106817
O O10 0.392023 0.906030 0.167949
O O11 0.347293 0.750000 0.355603
O O12 0.240861 0.948430 0.375094
O O13 0.427258 0.965178 0.354328
O O14 0.313348 0.909398 0.270720
O O15 0.653979 0.750000 0.481185
O O16 0.559407 0.612871 0.554671
O O17 0.545958 0.582314 0.439750
O O18 0.853587 0.250000 0.616485
O O19 0.747938 0.250000 0.808041
#
# Coordination Sequence:
#
# PCOD8250543 Si02
#       8
#     8   8   8   8   8   8   8   8
#     4  10  21  36  56  81 111 146 184 225 275 335
#     4  10  18  32  52  75 106 142 179 218 269 333
#     4   9  18  32  51  76 103 137 177 227 276 322
#     4  10  20  35  55  80 108 142 183 232 279 325
#     4  10  19  31  49  76 109 142 177 222 273 330
#     4  10  19  31  50  77 107 135 174 224 277 326
#     4  10  20  33  51  79 108 142 180 222 272 335
#     4   9  20  38  59  81 106 140 188 235 278 327
#
# _framework density 18.424782
#
# number of rings (size 3 to 8) (size 9 to 14) (size 15 to 20)
#    0.000    2.250    1.250    1.875    0.000    4.500 
#    0.000    3.750    0.000    0.750    0.000    0.000 
#    0.000    0.000    0.000    0.000    0.000    0.000 
#
# Total GULP energy -793238.587559 kJ/mol
# GULP energy per Si atom -12394.352931 kJ/mol
# Density = 1.838285 g / cm^3
# Si number density = 18.424782 Si / 1000 Ang^3
#
#
#
# Elastic Constant Matrix: (Units=GPa)
#
#
# Indices 1 2 3 4 5 6 
#
# 1 113.9412 32.0331 36.7676 0.0000 0.0000 0.0000
# 2 32.0331 92.0600 24.9187 0.0000 0.0000 0.0000
# 3 36.7676 24.9187 91.7675 0.0000 0.0000 0.0000
# 4 0.0000 0.0000 0.0000 22.1607 0.0000 0.0000
# 5 0.0000 0.0000 0.0000 0.0000 22.9736 0.0000
# 6 0.0000 0.0000 0.0000 0.0000 0.0000 13.9073
#
#
#
# Elastic Compliance Matrix: (Units=1/GPa)
#
#
# Indices 1 2 3 4 5 6 
#
# 1 0.010694 -0.002765 -0.003534 0.000000 0.000000 0.000000
# 2 -0.002765 0.012439 -0.002270 0.000000 0.000000 0.000000
# 3 -0.003534 -0.002270 0.012929 0.000000 0.000000 0.000000
# 4 0.000000 0.000000 0.000000 0.045125 0.000000 0.000000
# 5 0.000000 0.000000 0.000000 0.000000 0.043528 0.000000
# 6 0.000000 0.000000 0.000000 0.000000 0.000000 0.071905
#
#
# Mechanical properties :
#
#
# Convention : Reuss Voigt Hill
#
# Bulk Modulus (GPa) = 52.83943 53.91194 53.37569
# Shear Modulus (GPa) = 22.72045 25.41159 24.06602
#
# Velocity S-wave (km/s) = 3.51543 3.71780 3.61803
# Velocity P-wave (km/s) = 6.72446 6.91039 6.81806
#
# Compressibility (1/GPa) = 0.01892526
#
# Stress axis : x y z
#
# Youngs Moduli (GPa) = 93.50993 80.39315 77.34284
#
# Poissons Ratio (x) = 0.22225 0.27333
# Poissons Ratio (y) = 0.25851 0.17557
# Poissons Ratio (z) = 0.33046 0.18250
#
# Static dielectric constant tensor:
#      x y z
#    x 3.584320 0.000000 0.000000 
#    y 0.000000 3.217590 0.000000 
#    z 0.000000 0.000000 3.205850 
# 
# 
# High freq. dielectric constant tensor:
#      x y z
#    x 1.723050 0.000000 0.000000 
#    y 0.000000 1.696050 0.000000 
#    z 0.000000 0.000000 1.702330 
# 
# From -- ./inp_files/29474.got.cif
#   From: 2010.03.12/outbox.cif.g09.slc.cpg/sg62_15_cif.got.tgz:29474.got - 2010.04.10 19:12:36.
