data_PCOD8250030
_publ_section_title
;
Structure prediction by ZEFSAII (Michael W. Deem and Ramdas Pophale) SiO2 
 PCOD8250030
Probable space group: P N M A
;
_chemical_formula_sum "Si O2"
_cell_formula_units_Z 64
_cell_length_a 14.492665
_cell_length_b 9.092661
_cell_length_c 29.900862
_cell_angle_alpha 90.000000
_cell_angle_beta 90.000000
_cell_angle_gamma 90.000000
_cell_volume 3940.242598
_symmetry_space_group_name_H-M "P N M A"
_symmetry_group_IT_number 62
_symmetry_cell_setting 'orthorhombic'
loop_
_space_group_symop_operation_xyz
x,y,z
1/2-x,-y,1/2+z
1/2+x,1/2-y,1/2-z
-x,1/2+y,-z
-x,-y,-z
1/2+x,y,1/2-z
1/2-x,1/2+y,1/2+z
x,1/2-y,z
loop_
_atom_site_type_symbol
_atom_site_label
_atom_site_fract_x
_atom_site_fract_y
_atom_site_fract_z
Si Si1 0.325356 0.076599 0.367078
Si Si2 0.299291 0.925466 0.787884
Si Si3 0.334456 0.081306 0.635721
Si Si4 0.188008 0.419819 0.708234
Si Si5 0.889790 0.420655 0.040025
Si Si6 0.492841 0.085944 0.219994
Si Si7 0.005972 0.414606 0.177022
Si Si8 0.102984 0.421097 0.049605
O O1 0.332486 0.250000 0.361200
O O2 0.241533 0.020976 0.335975
O O3 0.318789 0.035802 0.419764
O O4 0.421664 0.011193 0.349507
O O5 0.295077 0.750000 0.781165
O O6 0.405115 0.979810 0.788704
O O7 0.242584 0.994632 0.747067
O O8 0.356710 0.250000 0.625178
O O9 0.236315 0.062148 0.659946
O O10 0.407251 0.019596 0.671391
O O11 0.338495 0.993077 0.589402
O O12 0.182908 0.250000 0.722691
O O13 0.085365 0.481477 0.699550
O O14 0.881356 0.250000 0.027302
O O15 0.994446 0.455889 0.055773
O O16 0.860867 0.514718 0.997275
O O17 0.484439 0.250000 0.199149
O O18 0.474484 0.094584 0.272349
O O19 0.030461 0.250000 0.158961
O O20 0.124120 0.250000 0.049565
#
# Coordination Sequence:
#
# PCOD8250030 Si02
#       8
#     8   8   8   8   8   8   8   8
#     4   9  16  29  48  71  97 127 162 195 236 289
#     4  10  19  33  53  74  96 128 171 209 241 286
#     4  11  22  33  46  69  99 133 168 202 244 292
#     4  11  23  34  47  70 101 134 167 204 248 295
#     4   9  17  30  47  69  99 129 155 192 244 296
#     4  10  20  33  51  71  96 131 170 210 244 280
#     4  10  17  29  49  71  96 129 166 203 240 282
#     4  10  19  31  48  70  95 127 165 201 240 290
#
# _framework density 16.242656
#
# number of rings (size 3 to 8) (size 9 to 14) (size 15 to 20)
#    0.000    2.000    3.750    1.125    0.000    3.000 
#    0.000    0.625    0.000    0.000    0.000    0.875 
#    0.000    0.000    0.000    0.000    0.000    0.000 
#
# Total GULP energy -793356.866080 kJ/mol
# GULP energy per Si atom -12396.201033 kJ/mol
# Density = 1.620569 g / cm^3
# Si number density = 16.242656 Si / 1000 Ang^3
#
#
#
# Elastic Constant Matrix: (Units=GPa)
#
#
# Indices 1 2 3 4 5 6 
#
# 1 88.5073 37.0613 38.5249 0.0000 0.0000 0.0000
# 2 37.0613 69.7807 42.3270 0.0000 0.0000 0.0000
# 3 38.5249 42.3270 97.8678 0.0000 0.0000 0.0000
# 4 0.0000 0.0000 0.0000 21.4007 0.0000 0.0000
# 5 0.0000 0.0000 0.0000 0.0000 22.8714 0.0000
# 6 0.0000 0.0000 0.0000 0.0000 0.0000 18.2972
#
#
#
# Elastic Compliance Matrix: (Units=1/GPa)
#
#
# Indices 1 2 3 4 5 6 
#
# 1 0.015324 -0.006073 -0.003406 0.000000 0.000000 0.000000
# 2 -0.006073 0.021834 -0.007052 0.000000 0.000000 0.000000
# 3 -0.003406 -0.007052 0.014609 0.000000 0.000000 0.000000
# 4 0.000000 0.000000 0.000000 0.046727 0.000000 0.000000
# 5 0.000000 0.000000 0.000000 0.000000 0.043723 0.000000
# 6 0.000000 0.000000 0.000000 0.000000 0.000000 0.054653
#
#
# Mechanical properties :
#
#
# Convention : Reuss Voigt Hill
#
# Bulk Modulus (GPa) = 53.46348 54.66469 54.06409
# Shear Modulus (GPa) = 21.17155 21.73004 21.45079
#
# Velocity S-wave (km/s) = 3.61425 3.66161 3.63801
# Velocity P-wave (km/s) = 7.09958 7.18364 7.14173
#
# Compressibility (1/GPa) = 0.01870436
#
# Stress axis : x y z
#
# Youngs Moduli (GPa) = 65.25776 45.80059 68.45301
#
# Poissons Ratio (x) = 0.27814 0.23313
# Poissons Ratio (y) = 0.39630 0.48276
# Poissons Ratio (z) = 0.22224 0.32300
#
# Static dielectric constant tensor:
#      x y z
#    x 3.000620 0.000000 0.000000 
#    y 0.000000 3.033330 0.000000 
#    z 0.000000 0.000000 3.083900 
# 
# 
# High freq. dielectric constant tensor:
#      x y z
#    x 1.598760 0.000000 0.000000 
#    y 0.000000 1.617050 0.000000 
#    z 0.000000 0.000000 1.618680 
# 
# From -- ./inp_files/32707.got.cif
#   From: 2010.03.12/outbox.cif.g09.slc.cpg/sg62_17_cif.got.tgz:32707.got - 2010.04.10 19:12:36.
