data_PCOD8250625
_publ_section_title
;
Structure prediction by ZEFSAII (Michael W. Deem and Ramdas Pophale) SiO2 
 PCOD8250625
Probable space group: P N M A
;
_chemical_formula_sum "Si O2"
_cell_formula_units_Z 56
_cell_length_a 14.895188
_cell_length_b 9.338308
_cell_length_c 21.519980
_cell_angle_alpha 90.000000
_cell_angle_beta 90.000000
_cell_angle_gamma 90.000000
_cell_volume 2993.339980
_symmetry_space_group_name_H-M "P N M A"
_symmetry_group_IT_number 62
_symmetry_cell_setting 'orthorhombic'
loop_
_space_group_symop_operation_xyz
x,y,z
1/2-x,-y,1/2+z
1/2+x,1/2-y,1/2-z
-x,1/2+y,-z
-x,-y,-z
1/2+x,y,1/2-z
1/2-x,1/2+y,1/2+z
x,1/2-y,z
loop_
_atom_site_type_symbol
_atom_site_label
_atom_site_fract_x
_atom_site_fract_y
_atom_site_fract_z
Si Si1 0.995720 0.906879 0.906888
Si Si2 0.221316 0.586348 0.465835
Si Si3 0.124037 0.919950 0.798814
Si Si4 0.878999 0.407161 0.979706
Si Si5 0.013710 0.582085 0.683378
Si Si6 0.056748 0.912311 0.548323
Si Si7 0.815747 0.918365 0.655595
O O1 0.961282 0.750000 0.883367
O O2 0.067157 0.972669 0.858343
O O3 0.038446 0.884029 0.974179
O O4 0.912211 0.015874 0.915935
O O5 0.241779 0.750000 0.446412
O O6 0.311107 0.506660 0.483683
O O7 0.159522 0.581945 0.526964
O O8 0.175102 0.505038 0.408429
O O9 0.122838 0.750000 0.796164
O O10 0.227927 0.971125 0.805648
O O11 0.075534 0.986681 0.737759
O O12 0.838421 0.250000 0.963062
O O13 0.031220 0.750000 0.684042
O O14 0.907304 0.550059 0.694184
O O15 0.046820 0.519804 0.617121
O O16 0.019711 0.750000 0.548790
O O17 0.000000 0.000000 0.500000
O O18 0.807344 0.750000 0.639471
#
# Coordination Sequence:
#
# PCOD8250625 Si02
#       7
#     8   8   8   8   8   8   8
#     4   9  17  31  51  76 105 134 172 222 269 312
#     4  11  21  32  51  80 109 139 175 223 272 318
#     4   9  17  32  53  80 107 135 179 225 267 319
#     4  10  19  32  51  76 106 142 178 217 263 319
#     4   9  18  33  54  80 107 136 176 227 274 320
#     4  10  20  34  54  80 107 135 172 222 276 323
#     4  10  18  33  57  79 101 140 182 217 266 327
#
# _framework density 18.708200000000001
#
# number of rings (size 3 to 8) (size 9 to 14) (size 15 to 20)
#    0.000    2.286    2.857    0.857    0.000    1.143 
#    2.571    0.000    0.000    3.429    0.000    0.000 
#    0.000    0.000    0.000    0.000    0.000    0.000 
#
# Total GULP energy -694019.861440 kJ/mol
# GULP energy per Si atom -12393.211811 kJ/mol
# Density = 1.866562 g / cm^3
# Si number density = 18.708200 Si / 1000 Ang^3
#
#
#
# Elastic Constant Matrix: (Units=GPa)
#
#
# Indices 1 2 3 4 5 6 
#
# 1 78.6408 28.4511 49.8669 0.0000 0.0000 0.0000
# 2 28.4511 69.0126 22.0532 0.0000 0.0000 0.0000
# 3 49.8669 22.0532 107.9477 0.0000 0.0000 0.0000
# 4 0.0000 0.0000 0.0000 18.7409 0.0000 0.0000
# 5 0.0000 0.0000 0.0000 0.0000 35.4762 0.0000
# 6 0.0000 0.0000 0.0000 0.0000 0.0000 20.3552
#
#
#
# Elastic Compliance Matrix: (Units=1/GPa)
#
#
# Indices 1 2 3 4 5 6 
#
# 1 0.019828 -0.005614 -0.008013 0.000000 0.000000 0.000000
# 2 -0.005614 0.017092 -0.000898 0.000000 0.000000 0.000000
# 3 -0.008013 -0.000898 0.013149 0.000000 0.000000 0.000000
# 4 0.000000 0.000000 0.000000 0.053359 0.000000 0.000000
# 5 0.000000 0.000000 0.000000 0.000000 0.028188 0.000000
# 6 0.000000 0.000000 0.000000 0.000000 0.000000 0.049128
#
#
# Mechanical properties :
#
#
# Convention : Reuss Voigt Hill
#
# Bulk Modulus (GPa) = 47.57727 50.70484 49.14106
# Shear Modulus (GPa) = 23.06283 25.26312 24.16297
#
# Velocity S-wave (km/s) = 3.51489 3.67873 3.59774
# Velocity P-wave (km/s) = 6.47758 6.72354 6.60170
#
# Compressibility (1/GPa) = 0.02101844
#
# Stress axis : x y z
#
# Youngs Moduli (GPa) = 50.43372 58.50853 76.05243
#
# Poissons Ratio (x) = 0.32845 0.60939
# Poissons Ratio (y) = 0.28312 0.06833
# Poissons Ratio (z) = 0.40411 0.05256
#
# Static dielectric constant tensor:
#      x y z
#    x 3.523250 0.000000 0.000000 
#    y 0.000000 3.461730 0.000000 
#    z 0.000000 0.000000 3.609030 
# 
# 
# High freq. dielectric constant tensor:
#      x y z
#    x 1.725760 0.000000 0.000000 
#    y 0.000000 1.697620 0.000000 
#    z 0.000000 0.000000 1.709390 
# 
# From -- ./inp_files/27268.got.cif
#   From: 2010.03.12/outbox.cif.g09.slc.cpg/sg62_14_cif.got.tgz:27268.got - 2010.04.10 19:12:36.
