data_PCOD8250199
_publ_section_title
;
Structure prediction by ZEFSAII (Michael W. Deem and Ramdas Pophale) SiO2 
 PCOD8250199
Probable space group: P N M A
;
_chemical_formula_sum "Si O2"
_cell_formula_units_Z 64
_cell_length_a 27.537208
_cell_length_b 9.992130
_cell_length_c 13.702837
_cell_angle_alpha 90.000000
_cell_angle_beta 90.000000
_cell_angle_gamma 90.000000
_cell_volume 3770.409078
_symmetry_space_group_name_H-M "P N M A"
_symmetry_group_IT_number 62
_symmetry_cell_setting 'orthorhombic'
loop_
_space_group_symop_operation_xyz
x,y,z
1/2-x,-y,1/2+z
1/2+x,1/2-y,1/2-z
-x,1/2+y,-z
-x,-y,-z
1/2+x,y,1/2-z
1/2-x,1/2+y,1/2+z
x,1/2-y,z
loop_
_atom_site_type_symbol
_atom_site_label
_atom_site_fract_x
_atom_site_fract_y
_atom_site_fract_z
Si Si1 0.505148 0.905957 0.093929
Si Si2 0.738204 0.967668 0.929758
Si Si3 0.235260 0.394475 0.861105
Si Si4 0.652719 0.106260 0.014209
Si Si5 0.173190 0.902200 0.749510
Si Si6 0.905110 0.898982 0.322812
Si Si7 0.313019 0.100978 0.697149
Si Si8 0.389610 0.405121 0.838551
O O1 0.505718 0.750000 0.060453
O O2 0.462417 0.932571 0.172396
O O3 0.554126 0.944453 0.152598
O O4 0.500000 0.000000 0.000000
O O5 0.706263 0.891459 0.847883
O O6 0.705414 0.093863 0.962298
O O7 0.790523 0.006643 0.885326
O O8 0.750419 0.882974 0.025353
O O9 0.211111 0.250000 0.833992
O O10 0.199914 0.518401 0.836898
O O11 0.283199 0.412803 0.797313
O O12 0.652137 0.250000 0.068775
O O13 0.610627 0.103695 0.934824
O O14 0.643567 0.986738 0.087157
O O15 0.161472 0.750000 0.782778
O O16 0.123109 0.983396 0.733415
O O17 0.896243 0.750000 0.276460
O O18 0.310893 0.250000 0.654277
O O19 0.368586 0.064291 0.729063
O O20 0.381272 0.250000 0.864369
#
# Coordination Sequence:
#
# PCOD8250199 Si02
#       8
#     8   8   8   8   8   8   8   8
#     4  10  19  30  47  71  97 129 168 205 245 303
#     4  10  19  32  48  71  98 133 169 202 241 291
#     4  10  19  33  51  69  97 133 165 200 247 293
#     4  10  18  28  45  66  93 128 163 198 237 281
#     4  10  21  33  49  75 100 125 167 210 243 289
#     4   9  18  32  46  65  96 130 161 197 246 296
#     4   9  18  32  47  68  98 133 166 200 242 290
#     4  10  19  31  47  69  97 130 166 202 241 290
#
# _framework density 16.974284999999998
#
# number of rings (size 3 to 8) (size 9 to 14) (size 15 to 20)
#    0.000    2.250    2.500    1.125    0.000    6.500 
#    0.000    0.625    0.000    0.000    0.000    0.875 
#    0.000    0.000    0.000    0.000    0.000    0.000 
#
# Total GULP energy -792861.709066 kJ/mol
# GULP energy per Si atom -12388.464204 kJ/mol
# Density = 1.693565 g / cm^3
# Si number density = 16.974285 Si / 1000 Ang^3
#
#
#
# Elastic Constant Matrix: (Units=GPa)
#
#
# Indices 1 2 3 4 5 6 
#
# 1 83.5705 43.0188 21.3578 0.0000 0.0000 0.0000
# 2 43.0188 98.6352 18.6856 0.0000 0.0000 0.0000
# 3 21.3578 18.6856 47.4117 0.0000 0.0000 0.0000
# 4 0.0000 0.0000 0.0000 12.2127 0.0000 0.0000
# 5 0.0000 0.0000 0.0000 0.0000 25.4109 0.0000
# 6 0.0000 0.0000 0.0000 0.0000 0.0000 19.1688
#
#
#
# Elastic Compliance Matrix: (Units=1/GPa)
#
#
# Indices 1 2 3 4 5 6 
#
# 1 0.016439 -0.006232 -0.004949 0.000000 0.000000 0.000000
# 2 -0.006232 0.013319 -0.002442 0.000000 0.000000 0.000000
# 3 -0.004949 -0.002442 0.024284 0.000000 0.000000 0.000000
# 4 0.000000 0.000000 0.000000 0.081882 0.000000 0.000000
# 5 0.000000 0.000000 0.000000 0.000000 0.039353 0.000000
# 6 0.000000 0.000000 0.000000 0.000000 0.000000 0.052168
#
#
# Mechanical properties :
#
#
# Convention : Reuss Voigt Hill
#
# Bulk Modulus (GPa) = 37.31979 43.97133 40.64556
# Shear Modulus (GPa) = 18.96652 21.12882 20.04767
#
# Velocity S-wave (km/s) = 3.34633 3.53194 3.44039
# Velocity P-wave (km/s) = 6.07983 6.52638 6.30706
#
# Compressibility (1/GPa) = 0.02679544
#
# Stress axis : x y z
#
# Youngs Moduli (GPa) = 60.83171 75.08069 41.17996
#
# Poissons Ratio (x) = 0.46791 0.20381
# Poissons Ratio (y) = 0.37911 0.10055
# Poissons Ratio (z) = 0.30106 0.18333
#
# Static dielectric constant tensor:
#      x y z
#    x 3.307860 0.000000 0.000000 
#    y 0.000000 3.201720 0.000000 
#    z 0.000000 0.000000 2.857180 
# 
# 
# High freq. dielectric constant tensor:
#      x y z
#    x 1.647000 0.000000 0.000000 
#    y 0.000000 1.659590 0.000000 
#    z 0.000000 0.000000 1.610900 
# 
# From -- ./inp_files/21229.got.cif
#   From: 2010.03.12/outbox.cif.g09.slc.cpg/sg62_11_cif.got.tgz:21229.got - 2010.04.10 19:12:36.
