data_PCOD8250945
_publ_section_title
;
Structure prediction by ZEFSAII (Michael W. Deem and Ramdas Pophale) SiO2 
 PCOD8250945
Probable space group: P N M A
;
_chemical_formula_sum "Si O2"
_cell_formula_units_Z 64
_cell_length_a 27.311111
_cell_length_b 9.401653
_cell_length_c 14.610567
_cell_angle_alpha 90.000000
_cell_angle_beta 90.000000
_cell_angle_gamma 90.000000
_cell_volume 3751.549279
_symmetry_space_group_name_H-M "P N M A"
_symmetry_group_IT_number 62
_symmetry_cell_setting 'orthorhombic'
loop_
_space_group_symop_operation_xyz
x,y,z
1/2-x,-y,1/2+z
1/2+x,1/2-y,1/2-z
-x,1/2+y,-z
-x,-y,-z
1/2+x,y,1/2-z
1/2-x,1/2+y,1/2+z
x,1/2-y,z
loop_
_atom_site_type_symbol
_atom_site_label
_atom_site_fract_x
_atom_site_fract_y
_atom_site_fract_z
Si Si1 0.281567 0.417555 0.098014
Si Si2 0.634050 0.087521 0.205491
Si Si3 0.634775 0.581275 0.770736
Si Si4 0.052907 0.915879 0.399340
Si Si5 0.670172 0.084717 0.401067
Si Si6 0.278833 0.910921 0.924532
Si Si7 0.544121 0.915750 0.889876
Si Si8 0.166476 0.584573 0.922839
O O1 0.287155 0.250000 0.086472
O O2 0.316907 0.476702 0.177601
O O3 0.225915 0.463064 0.119942
O O4 0.299137 0.486698 0.003223
O O5 0.616185 0.250000 0.190632
O O6 0.636880 0.050719 0.313075
O O7 0.688539 0.067474 0.165555
O O8 0.597502 0.979911 0.157295
O O9 0.636672 0.750000 0.774073
O O10 0.585929 0.527369 0.821273
O O11 0.635447 0.530467 0.665069
O O12 0.048205 0.750000 0.376643
O O13 0.062431 0.942364 0.506729
O O14 0.003597 0.993095 0.367217
O O15 0.668723 0.250000 0.426048
O O16 0.648617 0.999655 0.487559
O O17 0.282543 0.750000 0.961098
O O18 0.223027 0.947791 0.899139
O O19 0.531978 0.750000 0.874284
O O20 0.157390 0.750000 0.941905
#
# Coordination Sequence:
#
# PCOD8250945 Si02
#       8
#     8   8   8   8   8   8   8   8
#     4   9  16  28  46  68  96 127 157 188 223 270
#     4  10  19  31  48  68  93 127 161 190 226 275
#     4   9  16  28  49  71  90 120 159 189 220 271
#     4  10  20  33  50  73  97 119 148 189 234 277
#     4   9  18  31  46  66  94 128 161 191 226 268
#     4   9  17  28  43  67  97 125 154 188 226 267
#     4   9  18  33  51  71  96 123 149 181 228 284
#     4   9  17  30  47  67  93 124 157 193 227 261
#
# _framework density 17.059616999999999
#
# number of rings (size 3 to 8) (size 9 to 14) (size 15 to 20)
#    0.000    2.750    0.000    1.875    0.000    5.500 
#    0.000    1.875    0.000    6.750    0.000    0.000 
#    0.000    0.000    0.000    0.000    0.000    0.000 
#
# Total GULP energy -793545.439787 kJ/mol
# GULP energy per Si atom -12399.147497 kJ/mol
# Density = 1.702079 g / cm^3
# Si number density = 17.059617 Si / 1000 Ang^3
#
#
#
# Elastic Constant Matrix: (Units=GPa)
#
#
# Indices 1 2 3 4 5 6 
#
# 1 71.4176 35.4046 47.6725 0.0000 0.0000 0.0000
# 2 35.4046 53.2905 42.5979 0.0000 0.0000 0.0000
# 3 47.6725 42.5979 109.5986 0.0000 0.0000 0.0000
# 4 0.0000 0.0000 0.0000 25.7875 0.0000 0.0000
# 5 0.0000 0.0000 0.0000 0.0000 26.4978 0.0000
# 6 0.0000 0.0000 0.0000 0.0000 0.0000 22.5845
#
#
#
# Elastic Compliance Matrix: (Units=1/GPa)
#
#
# Indices 1 2 3 4 5 6 
#
# 1 0.023294 -0.010702 -0.005973 0.000000 0.000000 0.000000
# 2 -0.010702 0.032139 -0.007837 0.000000 0.000000 0.000000
# 3 -0.005973 -0.007837 0.014768 0.000000 0.000000 0.000000
# 4 0.000000 0.000000 0.000000 0.038778 0.000000 0.000000
# 5 0.000000 0.000000 0.000000 0.000000 0.037739 0.000000
# 6 0.000000 0.000000 0.000000 0.000000 0.000000 0.044278
#
#
# Mechanical properties :
#
#
# Convention : Reuss Voigt Hill
#
# Bulk Modulus (GPa) = 47.21611 53.96186 50.58899
# Shear Modulus (GPa) = 20.23639 22.21610 21.22624
#
# Velocity S-wave (km/s) = 3.44789 3.61260 3.53120
# Velocity P-wave (km/s) = 6.60210 7.00723 6.80768
#
# Compressibility (1/GPa) = 0.02117921
#
# Stress axis : x y z
#
# Youngs Moduli (GPa) = 42.92865 31.11473 67.71287
#
# Poissons Ratio (x) = 0.33297 0.40446
# Poissons Ratio (y) = 0.45940 0.53064
# Poissons Ratio (z) = 0.25642 0.24384
#
# Static dielectric constant tensor:
#      x y z
#    x 3.071260 0.000000 0.000000 
#    y 0.000000 3.087220 0.000000 
#    z 0.000000 0.000000 3.274230 
# 
# 
# High freq. dielectric constant tensor:
#      x y z
#    x 1.638660 0.000000 0.000000 
#    y 0.000000 1.643920 0.000000 
#    z 0.000000 0.000000 1.656590 
# 
# From -- ./inp_files/21275.got.cif
#   From: 2010.03.12/outbox.cif.g09.slc.cpg/sg62_11_cif.got.tgz:21275.got - 2010.04.10 19:12:36.
