data_PCOD8250408
_publ_section_title
;
Structure prediction by ZEFSAII (Michael W. Deem and Ramdas Pophale) SiO2 
 PCOD8250408
Probable space group: P N M A
;
_chemical_formula_sum "Si O2"
_cell_formula_units_Z 64
_cell_length_a 29.287196
_cell_length_b 9.155240
_cell_length_c 12.222487
_cell_angle_alpha 90.000000
_cell_angle_beta 90.000000
_cell_angle_gamma 90.000000
_cell_volume 3277.231430
_symmetry_space_group_name_H-M "P N M A"
_symmetry_group_IT_number 62
_symmetry_cell_setting 'orthorhombic'
loop_
_space_group_symop_operation_xyz
x,y,z
1/2-x,-y,1/2+z
1/2+x,1/2-y,1/2-z
-x,1/2+y,-z
-x,-y,-z
1/2+x,y,1/2-z
1/2-x,1/2+y,1/2+z
x,1/2-y,z
loop_
_atom_site_type_symbol
_atom_site_label
_atom_site_fract_x
_atom_site_fract_y
_atom_site_fract_z
Si Si1 0.022955 0.421021 0.250411
Si Si2 0.678196 0.577743 0.981788
Si Si3 0.619009 0.077636 0.148195
Si Si4 0.833673 0.576440 0.259153
Si Si5 0.723611 0.421566 0.551777
Si Si6 0.566427 0.423078 0.470329
Si Si7 0.841566 0.576643 0.871747
Si Si8 0.437520 0.578188 0.287372
O O1 0.013920 0.250000 0.256017
O O2 0.066193 0.461890 0.326512
O O3 0.032718 0.474762 0.125935
O O4 0.976437 0.502575 0.288530
O O5 0.671409 0.750000 0.968067
O O6 0.685707 0.505628 0.864288
O O7 0.634000 0.508523 0.039977
O O8 0.722912 0.539676 0.054951
O O9 0.624206 0.250000 0.127488
O O10 0.652016 0.021366 0.247007
O O11 0.828382 0.750000 0.273164
O O12 0.803639 0.516330 0.156816
O O13 0.886651 0.531561 0.246440
O O14 0.715144 0.250000 0.552054
O O15 0.703372 0.481292 0.435315
O O16 0.568549 0.250000 0.472136
O O17 0.616751 0.482996 0.444461
O O18 0.552621 0.480565 0.589619
O O19 0.843371 0.750000 0.864611
O O20 0.443476 0.750000 0.276288
#
# Coordination Sequence:
#
# PCOD8250408 Si02
#       8
#     8   8   8   8   8   8   8   8
#     4   9  18  31  51  80 112 145 183 226 273 327
#     4  11  24  38  56  83 113 143 182 235 285 320
#     4   9  19  36  58  80 107 149 192 224 265 330
#     4  10  21  39  60  81 110 148 189 225 267 335
#     4   9  18  34  56  82 110 141 178 223 275 329
#     4   8  13  25  46  76 110 141 174 213 262 322
#     4   8  13  27  53  80 105 138 179 218 257 316
#     4  10  18  30  53  81 108 144 185 225 272 327
#
# _framework density 19.528680000000001
#
# number of rings (size 3 to 8) (size 9 to 14) (size 15 to 20)
#    0.000    2.750    1.250    2.250    1.750    1.000 
#    0.000    1.250    0.000    1.500    0.000    0.000 
#    0.000    0.000    0.000    0.000    0.000    0.000 
#
# Total GULP energy -793010.529484 kJ/mol
# GULP energy per Si atom -12390.789523 kJ/mol
# Density = 1.948423 g / cm^3
# Si number density = 19.528680 Si / 1000 Ang^3
#
#
#
# Elastic Constant Matrix: (Units=GPa)
#
#
# Indices 1 2 3 4 5 6 
#
# 1 106.2371 34.7653 33.2230 0.0000 0.0000 0.0000
# 2 34.7653 33.6722 22.7365 0.0000 0.0000 0.0000
# 3 33.2230 22.7365 76.7160 0.0000 0.0000 0.0000
# 4 0.0000 0.0000 0.0000 20.9785 0.0000 0.0000
# 5 0.0000 0.0000 0.0000 0.0000 18.9604 0.0000
# 6 0.0000 0.0000 0.0000 0.0000 0.0000 25.4057
#
#
#
# Elastic Compliance Matrix: (Units=1/GPa)
#
#
# Indices 1 2 3 4 5 6 
#
# 1 0.014536 -0.013449 -0.002309 0.000000 0.000000 0.000000
# 2 -0.013449 0.049571 -0.008867 0.000000 0.000000 0.000000
# 3 -0.002309 -0.008867 0.016663 0.000000 0.000000 0.000000
# 4 0.000000 0.000000 0.000000 0.047668 0.000000 0.000000
# 5 0.000000 0.000000 0.000000 0.000000 0.052742 0.000000
# 6 0.000000 0.000000 0.000000 0.000000 0.000000 0.039361
#
#
# Mechanical properties :
#
#
# Convention : Reuss Voigt Hill
#
# Bulk Modulus (GPa) = 31.72626 44.23054 37.97840
# Shear Modulus (GPa) = 17.83819 21.46228 19.65024
#
# Velocity S-wave (km/s) = 3.02559 3.31873 3.17555
# Velocity P-wave (km/s) = 5.33731 6.11421 5.73892
#
# Compressibility (1/GPa) = 0.03151963
#
# Stress axis : x y z
#
# Youngs Moduli (GPa) = 68.79454 20.17321 60.01269
#
# Poissons Ratio (x) = 0.27130 0.13858
# Poissons Ratio (y) = 0.92519 0.53215
# Poissons Ratio (z) = 0.15886 0.17888
#
# Static dielectric constant tensor:
#      x y z
#    x 3.650190 0.000000 0.000000 
#    y 0.000000 3.020080 0.000000 
#    z 0.000000 0.000000 3.568850 
# 
# 
# High freq. dielectric constant tensor:
#      x y z
#    x 1.770520 0.000000 0.000000 
#    y 0.000000 1.712020 0.000000 
#    z 0.000000 0.000000 1.751480 
# 
# From -- ./inp_files/15782.got.cif
#   From: 2010.03.12/outbox.cif.g09.slc.cpg/sg62_8_cif.got.tgz:15782.got - 2010.04.10 19:12:36.
