data_PCOD8250634
_publ_section_title
;
Structure prediction by ZEFSAII (Michael W. Deem and Ramdas Pophale) SiO2 
 PCOD8250634
Probable space group: P N M A
;
_chemical_formula_sum "Si O2"
_cell_formula_units_Z 64
_cell_length_a 19.086218
_cell_length_b 18.341737
_cell_length_c 9.526056
_cell_angle_alpha 90.000000
_cell_angle_beta 90.000000
_cell_angle_gamma 90.000000
_cell_volume 3334.828252
_symmetry_space_group_name_H-M "P N M A"
_symmetry_group_IT_number 62
_symmetry_cell_setting 'orthorhombic'
loop_
_space_group_symop_operation_xyz
x,y,z
1/2-x,-y,1/2+z
1/2+x,1/2-y,1/2-z
-x,1/2+y,-z
-x,-y,-z
1/2+x,y,1/2-z
1/2-x,1/2+y,1/2+z
x,1/2-y,z
loop_
_atom_site_type_symbol
_atom_site_label
_atom_site_fract_x
_atom_site_fract_y
_atom_site_fract_z
Si Si1 0.232618 0.665192 0.494197
Si Si2 0.751813 0.165241 0.832200
Si Si3 0.118993 0.912717 0.067475
Si Si4 0.878047 0.574642 0.292915
Si Si5 0.866619 0.579653 0.962289
Si Si6 0.601663 0.579408 0.912355
Si Si7 0.992348 0.415331 0.175999
Si Si8 0.972514 0.068033 0.694650
O O1 0.242631 0.750000 0.522806
O O2 0.228843 0.647623 0.328945
O O3 0.296334 0.624286 0.573285
O O4 0.160188 0.639637 0.562506
O O5 0.739239 0.250000 0.858466
O O6 0.811845 0.137301 0.938743
O O7 0.680638 0.122631 0.869723
O O8 0.076905 0.883786 0.205304
O O9 0.143676 0.996393 0.086603
O O10 0.069960 0.902529 0.934006
O O11 0.865787 0.489514 0.329883
O O12 0.953527 0.604961 0.347536
O O13 0.878197 0.585487 0.126988
O O14 0.933636 0.616416 0.880869
O O15 0.538633 0.617532 0.821700
O O16 0.569493 0.546845 0.055361
O O17 0.005136 0.500601 0.205069
#
# Coordination Sequence:
#
# PCOD8250634 Si02
#       8
#     8   8   8   8   8   8   8   8
#     4  10  22  39  54  77 116 156 193 227 276 345
#     4  10  22  37  54  79 114 154 192 234 277 333
#     4  11  17  35  58  84 114 139 186 236 283 335
#     4  10  18  34  56  84 113 142 189 233 282 336
#     4  10  18  34  59  84 110 147 184 234 287 331
#     4  11  20  35  58  89 113 147 189 231 286 337
#     4  10  19  33  59  88 117 141 177 244 290 326
#     4  10  18  33  57  87 114 140 180 235 285 333
#
# _framework density 19.191393000000001
#
# number of rings (size 3 to 8) (size 9 to 14) (size 15 to 20)
#    0.000    1.750    5.000    3.000    0.000    0.000 
#    0.000    4.375    0.000    0.000    0.000    0.875 
#    0.000    0.000    0.000    0.000    0.000    0.000 
#
# Total GULP energy -793100.277992 kJ/mol
# GULP energy per Si atom -12392.191844 kJ/mol
# Density = 1.914771 g / cm^3
# Si number density = 19.191393 Si / 1000 Ang^3
#
#
#
# Elastic Constant Matrix: (Units=GPa)
#
#
# Indices 1 2 3 4 5 6 
#
# 1 130.1761 34.4738 34.0301 0.0000 0.0000 0.0000
# 2 34.4738 50.2952 9.4083 0.0000 0.0000 0.0000
# 3 34.0301 9.4083 71.9011 0.0000 0.0000 0.0000
# 4 0.0000 0.0000 0.0000 18.6347 0.0000 0.0000
# 5 0.0000 0.0000 0.0000 0.0000 28.8432 0.0000
# 6 0.0000 0.0000 0.0000 0.0000 0.0000 8.0790
#
#
#
# Elastic Compliance Matrix: (Units=1/GPa)
#
#
# Indices 1 2 3 4 5 6 
#
# 1 0.010449 -0.006394 -0.004109 0.000000 0.000000 0.000000
# 2 -0.006394 0.024294 -0.000153 0.000000 0.000000 0.000000
# 3 -0.004109 -0.000153 0.015873 0.000000 0.000000 0.000000
# 4 0.000000 0.000000 0.000000 0.053663 0.000000 0.000000
# 5 0.000000 0.000000 0.000000 0.000000 0.034670 0.000000
# 6 0.000000 0.000000 0.000000 0.000000 0.000000 0.123778
#
#
# Mechanical properties :
#
#
# Convention : Reuss Voigt Hill
#
# Bulk Modulus (GPa) = 34.12405 45.35522 39.73963
# Shear Modulus (GPa) = 17.01803 22.74206 19.88004
#
# Velocity S-wave (km/s) = 2.98107 3.44614 3.22201
# Velocity P-wave (km/s) = 5.44688 6.28641 5.88164
#
# Compressibility (1/GPa) = 0.02930485
#
# Stress axis : x y z
#
# Youngs Moduli (GPa) = 95.70105 41.16321 63.00131
#
# Poissons Ratio (x) = 0.26318 0.25887
# Poissons Ratio (y) = 0.61187 0.00963
# Poissons Ratio (z) = 0.39323 0.00629
#
# Static dielectric constant tensor:
#      x y z
#    x 4.036980 0.000000 0.000000 
#    y 0.000000 3.074940 0.000000 
#    z 0.000000 0.000000 3.492540 
# 
# 
# High freq. dielectric constant tensor:
#      x y z
#    x 1.769390 0.000000 0.000000 
#    y 0.000000 1.694000 0.000000 
#    z 0.000000 0.000000 1.741000 
# 
# From -- ./inp_files/8131.got.cif
#   From: 2010.03.12/outbox.cif.g09.slc.cpg/sg62_5_cif.got.tgz:8131.got - 2010.04.10 19:12:36.
