data_PCOD8250833
_publ_section_title
;
Structure prediction by ZEFSAII (Michael W. Deem and Ramdas Pophale) SiO2 
 PCOD8250833
Probable space group: P N M A
;
_chemical_formula_sum "Si O2"
_cell_formula_units_Z 48
_cell_length_a 18.207401
_cell_length_b 9.372314
_cell_length_c 16.720334
_cell_angle_alpha 90.000000
_cell_angle_beta 90.000000
_cell_angle_gamma 90.000000
_cell_volume 2853.249409
_symmetry_space_group_name_H-M "P N M A"
_symmetry_group_IT_number 62
_symmetry_cell_setting 'orthorhombic'
loop_
_space_group_symop_operation_xyz
x,y,z
1/2-x,-y,1/2+z
1/2+x,1/2-y,1/2-z
-x,1/2+y,-z
-x,-y,-z
1/2+x,y,1/2-z
1/2-x,1/2+y,1/2+z
x,1/2-y,z
loop_
_atom_site_type_symbol
_atom_site_label
_atom_site_fract_x
_atom_site_fract_y
_atom_site_fract_z
Si Si1 0.288877 0.406218 0.579915
Si Si2 0.806102 0.591154 0.578673
Si Si3 0.426010 0.081233 0.482289
Si Si4 0.327987 0.083837 0.157352
Si Si5 0.576275 0.580928 0.994930
Si Si6 0.333536 0.418839 0.334628
O O1 0.292800 0.250000 0.620299
O O2 0.240414 0.396404 0.501212
O O3 0.370176 0.457012 0.554512
O O4 0.251279 0.513486 0.641800
O O5 0.836927 0.750000 0.600527
O O6 0.872602 0.479859 0.566252
O O7 0.750209 0.530110 0.646224
O O8 0.440474 0.250000 0.478103
O O9 0.392926 0.021815 0.398142
O O10 0.500000 0.000000 0.500000
O O11 0.312136 0.250000 0.156215
O O12 0.388752 0.042942 0.091470
O O13 0.356123 0.033795 0.244930
O O14 0.565875 0.750000 0.006497
O O15 0.500000 0.500000 0.000000
O O16 0.332585 0.250000 0.344910
#
# Coordination Sequence:
#
# PCOD8250833 Si02
#       6
#     8   8   8   8   8   8
#     4   8  15  28  45  65  89 116 144 177 222 269
#     4   8  14  28  49  66  83 113 149 182 220 267
#     4   9  17  30  48  68  92 122 152 183 221 268
#     4   9  17  30  49  70  88 112 152 195 227 261
#     4  10  19  30  46  68  94 122 152 186 222 266
#     4   8  15  30  50  69  89 115 150 191 231 267
#
# _framework density 16.822925999999999
#
# number of rings (size 3 to 8) (size 9 to 14) (size 15 to 20)
#    0.000    3.333    0.000    2.500    0.000    1.333 
#    0.000    5.833    0.000    8.000    0.000    0.000 
#    0.000    0.000    0.000    0.000    0.000    0.000 
#
# Total GULP energy -594780.057795 kJ/mol
# GULP energy per Si atom -12391.251204 kJ/mol
# Density = 1.678464 g / cm^3
# Si number density = 16.822926 Si / 1000 Ang^3
#
#
#
# Elastic Constant Matrix: (Units=GPa)
#
#
# Indices 1 2 3 4 5 6 
#
# 1 134.6679 58.8240 51.2589 0.0000 0.0000 0.0000
# 2 58.8240 62.0354 35.7968 0.0000 0.0000 0.0000
# 3 51.2589 35.7968 89.7296 0.0000 0.0000 0.0000
# 4 0.0000 0.0000 0.0000 18.0235 0.0000 0.0000
# 5 0.0000 0.0000 0.0000 0.0000 18.1585 0.0000
# 6 0.0000 0.0000 0.0000 0.0000 0.0000 32.1254
#
#
#
# Elastic Compliance Matrix: (Units=1/GPa)
#
#
# Indices 1 2 3 4 5 6 
#
# 1 0.013414 -0.010779 -0.003363 0.000000 0.000000 0.000000
# 2 -0.010779 0.029602 -0.005652 0.000000 0.000000 0.000000
# 3 -0.003363 -0.005652 0.015320 0.000000 0.000000 0.000000
# 4 0.000000 0.000000 0.000000 0.055483 0.000000 0.000000
# 5 0.000000 0.000000 0.000000 0.000000 0.055071 0.000000
# 6 0.000000 0.000000 0.000000 0.000000 0.000000 0.031128
#
#
# Mechanical properties :
#
#
# Convention : Reuss Voigt Hill
#
# Bulk Modulus (GPa) = 53.33540 64.24359 58.78949
# Shear Modulus (GPa) = 20.33712 23.03169 21.68441
#
# Velocity S-wave (km/s) = 3.48069 3.70410 3.59413
# Velocity P-wave (km/s) = 6.92289 7.52096 7.22811
#
# Compressibility (1/GPa) = 0.01874927
#
# Stress axis : x y z
#
# Youngs Moduli (GPa) = 74.54849 33.78097 65.27301
#
# Poissons Ratio (x) = 0.36414 0.21949
# Poissons Ratio (y) = 0.80358 0.36891
# Poissons Ratio (z) = 0.25068 0.19092
#
# Static dielectric constant tensor:
#      x y z
#    x 3.197900 0.000000 0.000000 
#    y 0.000000 3.350270 0.000000 
#    z 0.000000 0.000000 3.366230 
# 
# 
# High freq. dielectric constant tensor:
#      x y z
#    x 1.640880 0.000000 0.000000 
#    y 0.000000 1.633520 0.000000 
#    z 0.000000 0.000000 1.631000 
# 
# From -- ./inp_files/24223.got.cif
#   From: 2010.03.12/outbox.cif.g09.slc.cpg/sg62_13_cif.got.tgz:24223.got - 2010.04.10 19:12:36.
