data_PCOD8250237
_publ_section_title
;
Structure prediction by ZEFSAII (Michael W. Deem and Ramdas Pophale) SiO2 
 PCOD8250237
Probable space group: P N M A
;
_chemical_formula_sum "Si O2"
_cell_formula_units_Z 56
_cell_length_a 22.035332
_cell_length_b 9.379757
_cell_length_c 14.007413
_cell_angle_alpha 90.000000
_cell_angle_beta 90.000000
_cell_angle_gamma 90.000000
_cell_volume 2895.136998
_symmetry_space_group_name_H-M "P N M A"
_symmetry_group_IT_number 62
_symmetry_cell_setting 'orthorhombic'
loop_
_space_group_symop_operation_xyz
x,y,z
1/2-x,-y,1/2+z
1/2+x,1/2-y,1/2-z
-x,1/2+y,-z
-x,-y,-z
1/2+x,y,1/2-z
1/2-x,1/2+y,1/2+z
x,1/2-y,z
loop_
_atom_site_type_symbol
_atom_site_label
_atom_site_fract_x
_atom_site_fract_y
_atom_site_fract_z
Si Si1 0.479668 0.081084 0.594105
Si Si2 0.424967 0.587293 0.906003
Si Si3 0.823607 0.411774 0.688832
Si Si4 0.753973 0.412510 0.505239
Si Si5 0.839613 0.411856 0.899073
Si Si6 0.533569 0.589151 0.764570
Si Si7 0.618647 0.915888 0.924231
O O1 0.490518 0.250000 0.584176
O O2 0.409574 0.042444 0.612795
O O3 0.500000 0.000000 0.500000
O O4 0.519914 0.023906 0.682099
O O5 0.407313 0.750000 0.927258
O O6 0.376199 0.521936 0.833937
O O7 0.489175 0.575118 0.854508
O O8 0.425809 0.502575 0.005493
O O9 0.848624 0.250000 0.675929
O O10 0.766785 0.435844 0.618022
O O11 0.804633 0.436105 0.798675
O O12 0.739492 0.250000 0.481184
O O13 0.693639 0.498641 0.480309
O O14 0.811936 0.465160 0.442931
O O15 0.836169 0.250000 0.933482
O O16 0.531081 0.750000 0.721697
O O17 0.599398 0.557778 0.813565
O O18 0.612037 0.750000 0.951636
#
# Coordination Sequence:
#
# PCOD8250237 Si02
#       7
#     8   8   8   8   8   8   8
#     4  11  24  42  63  85 111 148 192 241 291 342
#     4  10  18  28  51  86 114 143 185 230 272 328
#     4   9  18  36  57  78 109 149 188 229 286 346
#     4   9  19  35  57  83 113 149 189 233 280 336
#     4  10  21  39  62  83 110 148 188 235 286 339
#     4  10  20  35  56  83 116 151 187 230 279 334
#     4   9  19  35  53  79 120 157 181 222 283 341
#
# _framework density 19.342780000000001
#
# number of rings (size 3 to 8) (size 9 to 14) (size 15 to 20)
#    0.000    2.286    1.429    2.143    0.000    5.143 
#    2.571    0.000    0.000    0.000    0.000    0.000 
#    0.000    0.000    0.000    0.000    0.000    0.000 
#
# Total GULP energy -694255.104679 kJ/mol
# GULP energy per Si atom -12397.412584 kJ/mol
# Density = 1.929875 g / cm^3
# Si number density = 19.342780 Si / 1000 Ang^3
#
#
#
# Elastic Constant Matrix: (Units=GPa)
#
#
# Indices 1 2 3 4 5 6 
#
# 1 39.8830 27.0359 32.9702 0.0000 0.0000 0.0000
# 2 27.0359 85.7240 48.0141 0.0000 0.0000 0.0000
# 3 32.9702 48.0141 98.4546 0.0000 0.0000 0.0000
# 4 0.0000 0.0000 0.0000 34.9010 0.0000 0.0000
# 5 0.0000 0.0000 0.0000 0.0000 27.1367 0.0000
# 6 0.0000 0.0000 0.0000 0.0000 0.0000 28.1760
#
#
#
# Elastic Compliance Matrix: (Units=1/GPa)
#
#
# Indices 1 2 3 4 5 6 
#
# 1 0.037154 -0.006534 -0.009256 0.000000 0.000000 0.000000
# 2 -0.006534 0.017198 -0.006199 0.000000 0.000000 0.000000
# 3 -0.009256 -0.006199 0.016280 0.000000 0.000000 0.000000
# 4 0.000000 0.000000 0.000000 0.028652 0.000000 0.000000
# 5 0.000000 0.000000 0.000000 0.000000 0.036850 0.000000
# 6 0.000000 0.000000 0.000000 0.000000 0.000000 0.035491
#
#
# Mechanical properties :
#
#
# Convention : Reuss Voigt Hill
#
# Bulk Modulus (GPa) = 37.51686 48.90021 43.20853
# Shear Modulus (GPa) = 22.27298 25.77885 24.02592
#
# Velocity S-wave (km/s) = 3.39704 3.65463 3.52819
# Velocity P-wave (km/s) = 5.90122 6.56842 6.24374
#
# Compressibility (1/GPa) = 0.02665468
#
# Stress axis : x y z
#
# Youngs Moduli (GPa) = 26.91521 58.14602 61.42632
#
# Poissons Ratio (x) = 0.37990 0.56854
# Poissons Ratio (y) = 0.17585 0.38079
# Poissons Ratio (z) = 0.24912 0.36046
#
# Static dielectric constant tensor:
#      x y z
#    x 3.403360 0.000000 0.000000 
#    y 0.000000 3.566240 0.000000 
#    z 0.000000 0.000000 3.536500 
# 
# 
# High freq. dielectric constant tensor:
#      x y z
#    x 1.732930 0.000000 0.000000 
#    y 0.000000 1.753410 0.000000 
#    z 0.000000 0.000000 1.750740 
# 
# From -- ./inp_files/20318.got.cif
#   From: 2010.03.12/outbox.cif.g09.slc.cpg/sg62_11_cif.got.tgz:20318.got - 2010.04.10 19:12:36.
