data_PCOD8250373
_publ_section_title
;
Structure prediction by ZEFSAII (Michael W. Deem and Ramdas Pophale) SiO2 
 PCOD8250373
Probable space group: P N M A
;
_chemical_formula_sum "Si O2"
_cell_formula_units_Z 64
_cell_length_a 23.259967
_cell_length_b 8.822550
_cell_length_c 19.255613
_cell_angle_alpha 90.000000
_cell_angle_beta 90.000000
_cell_angle_gamma 90.000000
_cell_volume 3951.487127
_symmetry_space_group_name_H-M "P N M A"
_symmetry_group_IT_number 62
_symmetry_cell_setting 'orthorhombic'
loop_
_space_group_symop_operation_xyz
x,y,z
1/2-x,-y,1/2+z
1/2+x,1/2-y,1/2-z
-x,1/2+y,-z
-x,-y,-z
1/2+x,y,1/2-z
1/2-x,1/2+y,1/2+z
x,1/2-y,z
loop_
_atom_site_type_symbol
_atom_site_label
_atom_site_fract_x
_atom_site_fract_y
_atom_site_fract_z
Si Si1 0.775056 0.929398 0.146989
Si Si2 0.115077 0.928642 0.506154
Si Si3 0.254566 0.070182 0.002029
Si Si4 0.433538 0.074282 0.858080
Si Si5 0.340579 0.070485 0.234316
Si Si6 0.933912 0.926947 0.356521
Si Si7 0.333359 0.928360 0.781957
Si Si8 0.730482 0.071842 0.349809
O O1 0.779660 0.750000 0.155852
O O2 0.780320 0.981589 0.066332
O O3 0.826902 0.008104 0.188690
O O4 0.712406 0.981852 0.171937
O O5 0.113081 0.750000 0.520142
O O6 0.180053 0.990024 0.500298
O O7 0.081869 0.974873 0.436242
O O8 0.083553 0.009260 0.569202
O O9 0.257060 0.250000 0.002583
O O10 0.223449 0.005561 0.071979
O O11 0.418671 0.250000 0.847072
O O12 0.499500 0.037467 0.843347
O O13 0.397154 0.977562 0.802694
O O14 0.344149 0.250000 0.237874
O O15 0.289972 0.011768 0.183484
O O16 0.400354 0.005516 0.206656
O O17 0.920898 0.750000 0.355482
O O18 0.323908 0.750000 0.793644
O O19 0.322721 0.971063 0.700479
O O20 0.736517 0.250000 0.356178
#
# Coordination Sequence:
#
# PCOD8250373 Si02
#       8
#     8   8   8   8   8   8   8   8
#     4  10  18  30  50  72  97 126 159 198 241 290
#     4  10  18  32  49  66  95 136 168 194 235 287
#     4   9  15  27  49  71  94 129 160 185 234 294
#     4  10  21  35  48  65  96 133 169 203 243 290
#     4  10  19  33  50  68  95 129 162 199 241 289
#     4  11  22  33  47  70  96 127 168 210 243 282
#     4  10  19  30  47  70  95 125 165 206 241 282
#     4   8  15  28  46  68  91 119 156 193 233 284
#
# _framework density 16.196434
#
# number of rings (size 3 to 8) (size 9 to 14) (size 15 to 20)
#    0.000    2.250    2.500    2.625    0.000    1.500 
#    0.000    0.000    0.000    0.000    0.000    0.875 
#    0.000    0.000    0.000    0.000    0.000    0.000 
#
# Total GULP energy -793397.976325 kJ/mol
# GULP energy per Si atom -12396.843380 kJ/mol
# Density = 1.615957 g / cm^3
# Si number density = 16.196434 Si / 1000 Ang^3
#
#
#
# Elastic Constant Matrix: (Units=GPa)
#
#
# Indices 1 2 3 4 5 6 
#
# 1 83.8404 35.9211 61.6439 0.0000 0.0000 0.0000
# 2 35.9211 53.2391 39.4676 0.0000 0.0000 0.0000
# 3 61.6439 39.4676 139.5572 0.0000 0.0000 0.0000
# 4 0.0000 0.0000 0.0000 22.1461 0.0000 0.0000
# 5 0.0000 0.0000 0.0000 0.0000 26.5393 0.0000
# 6 0.0000 0.0000 0.0000 0.0000 0.0000 22.4441
#
#
#
# Elastic Compliance Matrix: (Units=1/GPa)
#
#
# Indices 1 2 3 4 5 6 
#
# 1 0.020623 -0.009061 -0.006547 0.000000 0.000000 0.000000
# 2 -0.009061 0.027747 -0.003844 0.000000 0.000000 0.000000
# 3 -0.006547 -0.003844 0.011145 0.000000 0.000000 0.000000
# 4 0.000000 0.000000 0.000000 0.045155 0.000000 0.000000
# 5 0.000000 0.000000 0.000000 0.000000 0.037680 0.000000
# 6 0.000000 0.000000 0.000000 0.000000 0.000000 0.044555
#
#
# Mechanical properties :
#
#
# Convention : Reuss Voigt Hill
#
# Bulk Modulus (GPa) = 48.52167 61.18907 54.85537
# Shear Modulus (GPa) = 21.48869 23.53285 22.51077
#
# Velocity S-wave (km/s) = 3.64642 3.81591 3.73213
# Velocity P-wave (km/s) = 6.91026 7.56811 7.24666
#
# Compressibility (1/GPa) = 0.02060935
#
# Stress axis : x y z
#
# Youngs Moduli (GPa) = 48.48848 36.03979 89.72926
#
# Poissons Ratio (x) = 0.32657 0.58745
# Poissons Ratio (y) = 0.43938 0.34496
# Poissons Ratio (z) = 0.31745 0.13855
#
# Static dielectric constant tensor:
#      x y z
#    x 2.931310 0.000000 0.000000 
#    y 0.000000 2.938760 0.000000 
#    z 0.000000 0.000000 3.441520 
# 
# 
# High freq. dielectric constant tensor:
#      x y z
#    x 1.594980 0.000000 0.000000 
#    y 0.000000 1.613400 0.000000 
#    z 0.000000 0.000000 1.625610 
# 
# From -- ./inp_files/24916.got.cif
#   From: 2010.03.12/outbox.cif.g09.slc.cpg/sg62_13_cif.got.tgz:24916.got - 2010.04.10 19:12:36.
