data_PCOD8250730
_publ_section_title
;
Structure prediction by ZEFSAII (Michael W. Deem and Ramdas Pophale) SiO2 
 PCOD8250730
Probable space group: P N M A
;
_chemical_formula_sum "Si O2"
_cell_formula_units_Z 56
_cell_length_a 14.846494
_cell_length_b 14.012211
_cell_length_c 13.188115
_cell_angle_alpha 90.000000
_cell_angle_beta 90.000000
_cell_angle_gamma 90.000000
_cell_volume 2743.552664
_symmetry_space_group_name_H-M "P N M A"
_symmetry_group_IT_number 62
_symmetry_cell_setting 'orthorhombic'
loop_
_space_group_symop_operation_xyz
x,y,z
1/2-x,-y,1/2+z
1/2+x,1/2-y,1/2-z
-x,1/2+y,-z
-x,-y,-z
1/2+x,y,1/2-z
1/2-x,1/2+y,1/2+z
x,1/2-y,z
loop_
_atom_site_type_symbol
_atom_site_label
_atom_site_fract_x
_atom_site_fract_y
_atom_site_fract_z
Si Si1 0.716410 0.469096 0.642206
Si Si2 0.467594 0.958373 0.247115
Si Si3 0.748711 0.361331 0.005705
Si Si4 0.232835 0.138770 0.059063
Si Si5 0.926624 0.351811 0.358902
Si Si6 0.458861 0.899535 0.030061
Si Si7 0.843134 0.032531 0.831592
O O1 0.622019 0.438188 0.690139
O O2 0.707402 0.575576 0.595298
O O3 0.740545 0.390052 0.558287
O O4 0.796302 0.469349 0.722757
O O5 0.469567 0.885882 0.151102
O O6 0.552817 0.938898 0.318352
O O7 0.472148 0.068616 0.210901
O O8 0.761570 0.250000 0.030635
O O9 0.644894 0.390043 0.999111
O O10 0.796894 0.386492 0.900059
O O11 0.206848 0.250000 0.069530
O O12 0.326898 0.113120 0.112762
O O13 0.160163 0.071912 0.115420
O O14 0.922338 0.250000 0.300460
O O15 0.982739 0.328014 0.461953
O O16 0.500000 0.000000 0.000000
#
# Coordination Sequence:
#
# PCOD8250730 Si02
#       7
#     8   8   8   8   8   8   8
#     4  11  21  41  62  88 120 165 209 255 310 371
#     4  11  21  36  63  86 115 166 206 245 308 374
#     4  11  24  40  61  91 129 166 206 259 313 369
#     4  10  22  39  60  88 125 162 201 257 313 367
#     4  10  19  35  59  90 118 147 202 266 312 356
#     4  10  18  37  60  88 117 152 203 262 312 355
#     4  11  22  41  62  87 125 162 206 254 313 369
#
# _framework density 20.411491000000002
#
# number of rings (size 3 to 8) (size 9 to 14) (size 15 to 20)
#    0.000    1.429    2.857    5.571    0.000    4.571 
#    0.000    3.571    0.000    0.000    0.000    0.000 
#    0.000    0.000    0.000    0.000    0.000    0.000 
#
# Total GULP energy -694256.723826 kJ/mol
# GULP energy per Si atom -12397.441497 kJ/mol
# Density = 2.036503 g / cm^3
# Si number density = 20.411491 Si / 1000 Ang^3
#
#
#
# Elastic Constant Matrix: (Units=GPa)
#
#
# Indices 1 2 3 4 5 6 
#
# 1 68.3014 10.6233 -3.7078 0.0000 0.0000 0.0000
# 2 10.6233 57.7337 -7.3721 0.0000 0.0000 0.0000
# 3 -3.7078 -7.3721 46.7381 0.0000 0.0000 0.0000
# 4 0.0000 0.0000 0.0000 15.3714 0.0000 0.0000
# 5 0.0000 0.0000 0.0000 0.0000 37.4771 0.0000
# 6 0.0000 0.0000 0.0000 0.0000 0.0000 16.1827
#
#
#
# Elastic Compliance Matrix: (Units=1/GPa)
#
#
# Indices 1 2 3 4 5 6 
#
# 1 0.015100 -0.002679 0.000775 0.000000 0.000000 0.000000
# 2 -0.002679 0.018152 0.002651 0.000000 0.000000 0.000000
# 3 0.000775 0.002651 0.021875 0.000000 0.000000 0.000000
# 4 0.000000 0.000000 0.000000 0.065056 0.000000 0.000000
# 5 0.000000 0.000000 0.000000 0.000000 0.026683 0.000000
# 6 0.000000 0.000000 0.000000 0.000000 0.000000 0.061794
#
#
# Mechanical properties :
#
#
# Convention : Reuss Voigt Hill
#
# Bulk Modulus (GPa) = 17.66143 19.09556 18.37849
# Shear Modulus (GPa) = 22.11985 25.35491 23.73738
#
# Velocity S-wave (km/s) = 3.29553 3.52829 3.41389
# Velocity P-wave (km/s) = 4.81167 5.09648 4.95612
#
# Compressibility (1/GPa) = 0.05662055
#
# Stress axis : x y z
#
# Youngs Moduli (GPa) = 66.22596 55.08916 45.71342
#
# Poissons Ratio (x) = 0.14761 -0.03544
# Poissons Ratio (y) = 0.17745 -0.12117
# Poissons Ratio (z) = -0.05134 -0.14602
#
# Static dielectric constant tensor:
#      x y z
#    x 3.535050 0.000000 0.000000 
#    y 0.000000 3.713030 0.000000 
#    z 0.000000 0.000000 3.580920 
# 
# 
# High freq. dielectric constant tensor:
#      x y z
#    x 1.797320 0.000000 0.000000 
#    y 0.000000 1.791130 0.000000 
#    z 0.000000 0.000000 1.797680 
# 
# From -- ./inp_files/13377.got.cif
#   From: 2010.03.12/outbox.cif.g09.slc.cpg/sg62_7_cif.got.tgz:13377.got - 2010.04.10 19:12:36.
