data_PCOD8250514
_publ_section_title
;
Structure prediction by ZEFSAII (Michael W. Deem and Ramdas Pophale) SiO2 
 PCOD8250514
Probable space group: P N M A
;
_chemical_formula_sum "Si O2"
_cell_formula_units_Z 56
_cell_length_a 10.448664
_cell_length_b 13.383366
_cell_length_c 20.463679
_cell_angle_alpha 90.000000
_cell_angle_beta 90.000000
_cell_angle_gamma 90.000000
_cell_volume 2861.605971
_symmetry_space_group_name_H-M "P N M A"
_symmetry_group_IT_number 62
_symmetry_cell_setting 'orthorhombic'
loop_
_space_group_symop_operation_xyz
x,y,z
1/2-x,-y,1/2+z
1/2+x,1/2-y,1/2-z
-x,1/2+y,-z
-x,-y,-z
1/2+x,y,1/2-z
1/2-x,1/2+y,1/2+z
x,1/2-y,z
loop_
_atom_site_type_symbol
_atom_site_label
_atom_site_fract_x
_atom_site_fract_y
_atom_site_fract_z
Si Si1 0.379817 0.510757 0.836520
Si Si2 0.168619 0.861243 0.771883
Si Si3 0.151235 0.478376 0.080499
Si Si4 0.177019 0.362539 0.879800
Si Si5 0.476628 0.363144 0.504631
Si Si6 0.516736 0.968946 0.295438
Si Si7 0.614646 0.635417 0.877092
O O1 0.298263 0.596981 0.802198
O O2 0.297289 0.438326 0.883167
O O3 0.436447 0.441922 0.777616
O O4 0.486988 0.567714 0.878941
O O5 0.149869 0.750000 0.798386
O O6 0.179681 0.863445 0.693724
O O7 0.045625 0.921634 0.794936
O O8 0.284323 0.418495 0.074362
O O9 0.144498 0.570889 0.028840
O O10 0.133327 0.525040 0.152953
O O11 0.031485 0.404539 0.063918
O O12 0.228623 0.250000 0.872590
O O13 0.093914 0.375059 0.944775
O O14 0.088335 0.387172 0.816994
O O15 0.429235 0.250000 0.496898
O O16 0.587252 0.750000 0.900216
#
# Coordination Sequence:
#
# PCOD8250514 Si02
#       7
#     8   8   8   8   8   8   8
#     4  10  18  32  48  70 106 135 165 207 253 308
#     4   9  17  28  44  69 104 136 160 196 251 311
#     4  10  18  33  54  76 101 132 169 214 258 299
#     4   9  19  35  52  69  95 134 175 212 253 297
#     4   9  19  35  55  76  99 131 173 217 257 297
#     4   9  18  30  49  74 101 127 165 212 254 304
#     4  10  19  29  47  75 103 134 166 199 250 311
#
# _framework density 19.569431000000002
#
# number of rings (size 3 to 8) (size 9 to 14) (size 15 to 20)
#    0.000    2.571    1.429    0.857    0.000    2.286 
#    0.000    1.429    0.000    0.857    0.000    0.000 
#    0.000    0.000    0.000    0.000    0.000    0.000 
#
# Total GULP energy -694184.958144 kJ/mol
# GULP energy per Si atom -12396.159967 kJ/mol
# Density = 1.952489 g / cm^3
# Si number density = 19.569431 Si / 1000 Ang^3
#
#
#
# Elastic Constant Matrix: (Units=GPa)
#
#
# Indices 1 2 3 4 5 6 
#
# 1 61.8424 25.3695 0.4369 0.0000 0.0000 0.0000
# 2 25.3695 121.3305 6.3350 0.0000 0.0000 0.0000
# 3 0.4369 6.3350 29.2611 0.0000 0.0000 0.0000
# 4 0.0000 0.0000 0.0000 19.8496 0.0000 0.0000
# 5 0.0000 0.0000 0.0000 0.0000 21.3905 0.0000
# 6 0.0000 0.0000 0.0000 0.0000 0.0000 28.6903
#
#
#
# Elastic Compliance Matrix: (Units=1/GPa)
#
#
# Indices 1 2 3 4 5 6 
#
# 1 0.017696 -0.003728 0.000543 0.000000 0.000000 0.000000
# 2 -0.003728 0.009122 -0.001919 0.000000 0.000000 0.000000
# 3 0.000543 -0.001919 0.034582 0.000000 0.000000 0.000000
# 4 0.000000 0.000000 0.000000 0.050379 0.000000 0.000000
# 5 0.000000 0.000000 0.000000 0.000000 0.046750 0.000000
# 6 0.000000 0.000000 0.000000 0.000000 0.000000 0.034855
#
#
# Mechanical properties :
#
#
# Convention : Reuss Voigt Hill
#
# Bulk Modulus (GPa) = 19.53475 30.74629 25.14052
# Shear Modulus (GPa) = 22.65965 26.00557 24.33261
#
# Velocity S-wave (km/s) = 3.40650 3.64935 3.53001
# Velocity P-wave (km/s) = 5.04740 5.78813 5.43041
#
# Compressibility (1/GPa) = 0.05119083
#
# Stress axis : x y z
#
# Youngs Moduli (GPa) = 56.51048 109.62799 28.91636
#
# Poissons Ratio (x) = 0.40874 -0.01570
# Poissons Ratio (y) = 0.21070 0.05550
# Poissons Ratio (z) = -0.03069 0.21040
#
# Static dielectric constant tensor:
#      x y z
#    x 3.399020 0.000000 0.000000 
#    y 0.000000 3.638650 0.000000 
#    z 0.000000 0.000000 3.473670 
# 
# 
# High freq. dielectric constant tensor:
#      x y z
#    x 1.741340 0.000000 0.000000 
#    y 0.000000 1.759740 0.000000 
#    z 0.000000 0.000000 1.742810 
# 
# From -- ./inp_files/29395.got.cif
#   From: 2010.03.12/outbox.cif.g09.slc.cpg/sg62_15_cif.got.tgz:29395.got - 2010.04.10 19:12:36.
