data_PCOD8250492
_publ_section_title
;
Structure prediction by ZEFSAII (Michael W. Deem and Ramdas Pophale) SiO2 
 PCOD8250492
Probable space group: P N M A
;
_chemical_formula_sum "Si O2"
_cell_formula_units_Z 56
_cell_length_a 15.235024
_cell_length_b 9.003606
_cell_length_c 21.064112
_cell_angle_alpha 90.000000
_cell_angle_beta 90.000000
_cell_angle_gamma 90.000000
_cell_volume 2889.367476
_symmetry_space_group_name_H-M "P N M A"
_symmetry_group_IT_number 62
_symmetry_cell_setting 'orthorhombic'
loop_
_space_group_symop_operation_xyz
x,y,z
1/2-x,-y,1/2+z
1/2+x,1/2-y,1/2-z
-x,1/2+y,-z
-x,-y,-z
1/2+x,y,1/2-z
1/2-x,1/2+y,1/2+z
x,1/2-y,z
loop_
_atom_site_type_symbol
_atom_site_label
_atom_site_fract_x
_atom_site_fract_y
_atom_site_fract_z
Si Si1 0.184428 0.572797 0.767033
Si Si2 0.511256 0.082521 0.271203
Si Si3 0.677708 0.074162 0.337586
Si Si4 0.949693 0.914987 0.631701
Si Si5 0.249171 0.924779 0.528242
Si Si6 0.565904 0.076330 0.951991
Si Si7 0.254795 0.578200 0.902698
O O1 0.183854 0.750000 0.762115
O O2 0.244638 0.510002 0.708756
O O3 0.220661 0.518131 0.835185
O O4 0.084663 0.506427 0.763452
O O5 0.492016 0.250000 0.293600
O O6 0.580846 0.007521 0.320085
O O7 0.566930 0.078584 0.206358
O O8 0.675904 0.250000 0.326661
O O9 0.690062 0.034645 0.411596
O O10 0.984059 0.750000 0.612937
O O11 0.859572 0.946664 0.594252
O O12 0.023879 0.037227 0.616282
O O13 0.234924 0.750000 0.521591
O O14 0.159567 0.004888 0.543436
O O15 0.288103 0.987895 0.461737
O O16 0.572862 0.250000 0.963938
O O17 0.500000 0.000000 0.000000
O O18 0.229781 0.750000 0.910963
#
# Coordination Sequence:
#
# PCOD8250492 Si02
#       7
#     8   8   8   8   8   8   8
#     4   9  16  29  51  78 106 140 182 228 273 317
#     4   9  16  29  53  82 109 136 180 235 274 311
#     4   9  17  31  51  80 110 137 178 229 276 318
#     4  10  18  31  53  79 106 138 173 221 274 320
#     4  11  22  35  53  77 109 145 181 223 272 325
#     4  12  23  34  50  75 108 140 175 215 265 328
#     4  10  19  32  52  77 108 141 177 220 269 324
#
# _framework density 19.381404
#
# number of rings (size 3 to 8) (size 9 to 14) (size 15 to 20)
#    0.000    2.000    2.857    2.571    0.000    2.286 
#    0.000    0.714    0.000    6.000    0.000    0.000 
#    0.000    0.000    0.000    0.000    0.000    0.000 
#
# Total GULP energy -693890.145445 kJ/mol
# GULP energy per Si atom -12390.895454 kJ/mol
# Density = 1.933729 g / cm^3
# Si number density = 19.381404 Si / 1000 Ang^3
#
#
#
# Elastic Constant Matrix: (Units=GPa)
#
#
# Indices 1 2 3 4 5 6 
#
# 1 67.8790 8.1827 22.6150 0.0000 0.0000 0.0000
# 2 8.1827 43.6926 31.2188 0.0000 0.0000 0.0000
# 3 22.6150 31.2188 113.1998 0.0000 0.0000 0.0000
# 4 0.0000 0.0000 0.0000 25.4025 0.0000 0.0000
# 5 0.0000 0.0000 0.0000 0.0000 29.9222 0.0000
# 6 0.0000 0.0000 0.0000 0.0000 0.0000 11.8525
#
#
#
# Elastic Compliance Matrix: (Units=1/GPa)
#
#
# Indices 1 2 3 4 5 6 
#
# 1 0.015810 -0.000877 -0.002917 0.000000 0.000000 0.000000
# 2 -0.000877 0.028553 -0.007699 0.000000 0.000000 0.000000
# 3 -0.002917 -0.007699 0.011540 0.000000 0.000000 0.000000
# 4 0.000000 0.000000 0.000000 0.039366 0.000000 0.000000
# 5 0.000000 0.000000 0.000000 0.000000 0.033420 0.000000
# 6 0.000000 0.000000 0.000000 0.000000 0.000000 0.084370
#
#
# Mechanical properties :
#
#
# Convention : Reuss Voigt Hill
#
# Bulk Modulus (GPa) = 30.37970 38.75604 34.56787
# Shear Modulus (GPa) = 20.24162 24.28577 22.26370
#
# Velocity S-wave (km/s) = 3.23520 3.54368 3.39295
# Velocity P-wave (km/s) = 5.44647 6.06494 5.76400
#
# Compressibility (1/GPa) = 0.03291672
#
# Stress axis : x y z
#
# Youngs Moduli (GPa) = 63.25308 35.02316 86.65572
#
# Poissons Ratio (x) = 0.03071 0.25274
# Poissons Ratio (y) = 0.05546 0.66718
# Poissons Ratio (z) = 0.18448 0.26965
#
# Static dielectric constant tensor:
#      x y z
#    x 3.935480 0.000000 0.000000 
#    y 0.000000 3.442350 0.000000 
#    z 0.000000 0.000000 3.832450 
# 
# 
# High freq. dielectric constant tensor:
#      x y z
#    x 1.745530 0.000000 0.000000 
#    y 0.000000 1.695950 0.000000 
#    z 0.000000 0.000000 1.768490 
# 
# From -- ./inp_files/27226.got.cif
#   From: 2010.03.12/outbox.cif.g09.slc.cpg/sg62_14_cif.got.tgz:27226.got - 2010.04.10 19:12:36.
