data_PCOD8250919
_publ_section_title
;
Structure prediction by ZEFSAII (Michael W. Deem and Ramdas Pophale) SiO2 
 PCOD8250919
Probable space group: P N M A
;
_chemical_formula_sum "Si O2"
_cell_formula_units_Z 56
_cell_length_a 14.835632
_cell_length_b 9.534553
_cell_length_c 21.206465
_cell_angle_alpha 90.000000
_cell_angle_beta 90.000000
_cell_angle_gamma 90.000000
_cell_volume 2999.678217
_symmetry_space_group_name_H-M "P N M A"
_symmetry_group_IT_number 62
_symmetry_cell_setting 'orthorhombic'
loop_
_space_group_symop_operation_xyz
x,y,z
1/2-x,-y,1/2+z
1/2+x,1/2-y,1/2-z
-x,1/2+y,-z
-x,-y,-z
1/2+x,y,1/2-z
1/2-x,1/2+y,1/2+z
x,1/2-y,z
loop_
_atom_site_type_symbol
_atom_site_label
_atom_site_fract_x
_atom_site_fract_y
_atom_site_fract_z
Si Si1 0.528911 0.405324 0.087400
Si Si2 0.538617 0.900119 0.448929
Si Si3 0.213672 0.598465 0.977357
Si Si4 0.994446 0.581631 0.190155
Si Si5 0.366992 0.408712 0.007326
Si Si6 0.317595 0.084742 0.333774
Si Si7 0.617910 0.089973 0.218061
O O1 0.559299 0.250000 0.063735
O O2 0.422546 0.423230 0.072617
O O3 0.548223 0.420835 0.160506
O O4 0.580721 0.526209 0.051409
O O5 0.487726 0.750000 0.451470
O O6 0.640248 0.878745 0.469455
O O7 0.529030 0.960252 0.379125
O O8 0.500000 0.000000 0.500000
O O9 0.261107 0.750000 0.964844
O O10 0.182222 0.543009 0.908309
O O11 0.274692 0.489330 0.014270
O O12 0.986418 0.750000 0.201341
O O13 0.896604 0.506509 0.200221
O O14 0.074819 0.518312 0.232702
O O15 0.345706 0.250000 0.989761
O O16 0.339095 0.250000 0.325371
O O17 0.220009 0.047418 0.302858
O O18 0.618832 0.250000 0.244211
#
# Coordination Sequence:
#
# PCOD8250919 Si02
#       7
#     8   8   8   8   8   8   8
#     4   9  18  35  55  79 113 150 191 235 279 337
#     4  10  21  37  59  85 114 147 183 233 291 345
#     4  10  19  35  58  82 113 149 187 229 280 345
#     4  11  24  40  59  88 122 150 186 245 303 348
#     4  10  19  30  52  85 116 145 184 237 288 333
#     4  10  20  38  65  87 107 151 202 237 280 345
#     4  10  21  40  63  83 112 158 206 241 278 346
#
# _framework density 18.668669000000001
#
# number of rings (size 3 to 8) (size 9 to 14) (size 15 to 20)
#    0.000    2.000    2.857    0.857    0.000    3.429 
#    2.571    0.000    0.000    0.000    0.000    0.000 
#    0.000    0.000    0.000    0.000    0.000    0.000 
#
# Total GULP energy -693766.886615 kJ/mol
# GULP energy per Si atom -12388.694404 kJ/mol
# Density = 1.862618 g / cm^3
# Si number density = 18.668669 Si / 1000 Ang^3
#
#
#
# Elastic Constant Matrix: (Units=GPa)
#
#
# Indices 1 2 3 4 5 6 
#
# 1 97.9674 58.2476 47.2268 0.0000 0.0000 0.0000
# 2 58.2476 107.7267 43.7954 0.0000 0.0000 0.0000
# 3 47.2268 43.7954 85.3654 0.0000 0.0000 0.0000
# 4 0.0000 0.0000 0.0000 28.5203 0.0000 0.0000
# 5 0.0000 0.0000 0.0000 0.0000 30.2650 0.0000
# 6 0.0000 0.0000 0.0000 0.0000 0.0000 32.7750
#
#
#
# Elastic Compliance Matrix: (Units=1/GPa)
#
#
# Indices 1 2 3 4 5 6 
#
# 1 0.017163 -0.006848 -0.005982 0.000000 0.000000 0.000000
# 2 -0.006848 0.014461 -0.003631 0.000000 0.000000 0.000000
# 3 -0.005982 -0.003631 0.016886 0.000000 0.000000 0.000000
# 4 0.000000 0.000000 0.000000 0.035063 0.000000 0.000000
# 5 0.000000 0.000000 0.000000 0.000000 0.033041 0.000000
# 6 0.000000 0.000000 0.000000 0.000000 0.000000 0.030511
#
#
# Mechanical properties :
#
#
# Convention : Reuss Voigt Hill
#
# Bulk Modulus (GPa) = 64.14511 65.51101 64.82806
# Shear Modulus (GPa) = 26.99163 27.76472 27.37817
#
# Velocity S-wave (km/s) = 3.80653 3.86065 3.83369
# Velocity P-wave (km/s) = 7.33170 7.41893 7.37544
#
# Compressibility (1/GPa) = 0.01558965
#
# Stress axis : x y z
#
# Youngs Moduli (GPa) = 58.26640 69.14933 59.21978
#
# Poissons Ratio (x) = 0.47353 0.35423
# Poissons Ratio (y) = 0.39901 0.21501
# Poissons Ratio (z) = 0.34853 0.25106
#
# Static dielectric constant tensor:
#      x y z
#    x 3.497040 0.000000 0.000000 
#    y 0.000000 4.143570 0.000000 
#    z 0.000000 0.000000 3.151030 
# 
# 
# High freq. dielectric constant tensor:
#      x y z
#    x 1.725240 0.000000 0.000000 
#    y 0.000000 1.733950 0.000000 
#    z 0.000000 0.000000 1.705470 
# 
# From -- ./inp_files/27298.got.cif
#   From: 2010.03.12/outbox.cif.g09.slc.cpg/sg62_14_cif.got.tgz:27298.got - 2010.04.10 19:12:36.
