data_PCOD8250466
_publ_section_title
;
Structure prediction by ZEFSAII (Michael W. Deem and Ramdas Pophale) SiO2 
 PCOD8250466
Probable space group: P N M A
;
_chemical_formula_sum "Si O2"
_cell_formula_units_Z 64
_cell_length_a 18.617809
_cell_length_b 16.554011
_cell_length_c 11.838487
_cell_angle_alpha 90.000000
_cell_angle_beta 90.000000
_cell_angle_gamma 90.000000
_cell_volume 3648.614768
_symmetry_space_group_name_H-M "P N M A"
_symmetry_group_IT_number 62
_symmetry_cell_setting 'orthorhombic'
loop_
_space_group_symop_operation_xyz
x,y,z
1/2-x,-y,1/2+z
1/2+x,1/2-y,1/2-z
-x,1/2+y,-z
-x,-y,-z
1/2+x,y,1/2-z
1/2-x,1/2+y,1/2+z
x,1/2-y,z
loop_
_atom_site_type_symbol
_atom_site_label
_atom_site_fract_x
_atom_site_fract_y
_atom_site_fract_z
Si Si1 0.860667 0.160743 0.788032
Si Si2 0.069914 0.965284 0.856439
Si Si3 0.668317 0.431709 0.776002
Si Si4 0.241237 0.843484 0.405297
Si Si5 0.227243 0.160946 0.544880
Si Si6 0.412002 0.997981 0.615057
Si Si7 0.308809 0.158010 0.334015
Si Si8 0.762907 0.921030 0.857590
O O1 0.898055 0.250000 0.801788
O O2 0.835851 0.148530 0.657893
O O3 0.788458 0.160589 0.860645
O O4 0.911397 0.087589 0.828448
O O5 0.113429 0.884057 0.826562
O O6 0.092385 0.033078 0.764741
O O7 0.091112 0.993945 0.980928
O O8 0.984647 0.952639 0.845968
O O9 0.695335 0.373951 0.675765
O O10 0.659994 0.385087 0.896545
O O11 0.724550 0.502597 0.801598
O O12 0.256736 0.750000 0.437624
O O13 0.239018 0.900295 0.515590
O O14 0.200558 0.250000 0.512495
O O15 0.260092 0.117740 0.433925
O O16 0.347505 0.939574 0.652485
O O17 0.325450 0.250000 0.366070
O O18 0.261762 0.154036 0.220079
#
# Coordination Sequence:
#
# PCOD8250466 Si02
#       8
#     8   8   8   8   8   8   8   8
#     4   9  17  31  53  74 101 139 175 220 267 315
#     4  10  21  32  51  77 110 144 166 213 273 325
#     4  10  18  31  52  76 101 136 172 218 267 309
#     4  10  19  32  50  79 107 134 174 226 276 308
#     4   9  16  29  52  76  97 129 177 222 259 303
#     4  11  19  33  51  78 110 138 177 212 266 325
#     4  10  20  35  54  77 103 139 181 218 265 321
#     4  11  20  31  55  78 105 134 178 224 262 312
#
# _framework density 17.540904000000001
#
# number of rings (size 3 to 8) (size 9 to 14) (size 15 to 20)
#    0.000    2.000    5.000    1.500    1.750    0.000 
#    0.000    2.500    0.000    6.750    0.000    3.500 
#    0.000    0.000    0.000    0.000    0.000    0.000 
#
# Total GULP energy -793012.821838 kJ/mol
# GULP energy per Si atom -12390.825341 kJ/mol
# Density = 1.750098 g / cm^3
# Si number density = 17.540904 Si / 1000 Ang^3
#
#
#
# Elastic Constant Matrix: (Units=GPa)
#
#
# Indices 1 2 3 4 5 6 
#
# 1 75.6046 25.3142 31.3645 0.0000 0.0000 0.0000
# 2 25.3142 70.8663 24.9696 0.0000 0.0000 0.0000
# 3 31.3645 24.9696 81.7835 0.0000 0.0000 0.0000
# 4 0.0000 0.0000 0.0000 24.1728 0.0000 0.0000
# 5 0.0000 0.0000 0.0000 0.0000 19.8976 0.0000
# 6 0.0000 0.0000 0.0000 0.0000 0.0000 17.0585
#
#
#
# Elastic Compliance Matrix: (Units=1/GPa)
#
#
# Indices 1 2 3 4 5 6 
#
# 1 0.016762 -0.004171 -0.005155 0.000000 0.000000 0.000000
# 2 -0.004171 0.016850 -0.003545 0.000000 0.000000 0.000000
# 3 -0.005155 -0.003545 0.015287 0.000000 0.000000 0.000000
# 4 0.000000 0.000000 0.000000 0.041369 0.000000 0.000000
# 5 0.000000 0.000000 0.000000 0.000000 0.050257 0.000000
# 6 0.000000 0.000000 0.000000 0.000000 0.000000 0.058622
#
#
# Mechanical properties :
#
#
# Convention : Reuss Voigt Hill
#
# Bulk Modulus (GPa) = 43.18383 43.50567 43.34475
# Shear Modulus (GPa) = 21.49548 21.99951 21.74750
#
# Velocity S-wave (km/s) = 3.50444 3.54529 3.52492
# Velocity P-wave (km/s) = 6.40681 6.45097 6.42893
#
# Compressibility (1/GPa) = 0.02315682
#
# Stress axis : x y z
#
# Youngs Moduli (GPa) = 59.65951 59.34676 65.41691
#
# Poissons Ratio (x) = 0.24755 0.33721
# Poissons Ratio (y) = 0.24885 0.23189
# Poissons Ratio (z) = 0.30753 0.21038
#
# Static dielectric constant tensor:
#      x y z
#    x 2.966090 0.000000 0.000000 
#    y 0.000000 3.565050 0.000000 
#    z 0.000000 0.000000 3.529890 
# 
# 
# High freq. dielectric constant tensor:
#      x y z
#    x 1.629690 0.000000 0.000000 
#    y 0.000000 1.683200 0.000000 
#    z 0.000000 0.000000 1.683400 
# 
# From -- ./inp_files/14448.got.cif
#   From: 2010.03.12/outbox.cif.g09.slc.cpg/sg62_8_cif.got.tgz:14448.got - 2010.04.10 19:12:36.
