data_PCOD8250551
_publ_section_title
;
Structure prediction by ZEFSAII (Michael W. Deem and Ramdas Pophale) SiO2 
 PCOD8250551
Probable space group: P N M A
;
_chemical_formula_sum "Si O2"
_cell_formula_units_Z 64
_cell_length_a 24.941073
_cell_length_b 8.994676
_cell_length_c 15.345585
_cell_angle_alpha 90.000000
_cell_angle_beta 90.000000
_cell_angle_gamma 90.000000
_cell_volume 3442.580518
_symmetry_space_group_name_H-M "P N M A"
_symmetry_group_IT_number 62
_symmetry_cell_setting 'orthorhombic'
loop_
_space_group_symop_operation_xyz
x,y,z
1/2-x,-y,1/2+z
1/2+x,1/2-y,1/2-z
-x,1/2+y,-z
-x,-y,-z
1/2+x,y,1/2-z
1/2-x,1/2+y,1/2+z
x,1/2-y,z
loop_
_atom_site_type_symbol
_atom_site_label
_atom_site_fract_x
_atom_site_fract_y
_atom_site_fract_z
Si Si1 0.445532 0.072173 0.179652
Si Si2 0.235912 0.076548 0.282825
Si Si3 0.778770 0.074716 0.537242
Si Si4 0.603749 0.574557 0.999284
Si Si5 0.442457 0.426255 0.818236
Si Si6 0.148409 0.578674 0.184143
Si Si7 0.172290 0.922002 0.995706
Si Si8 0.356157 0.076917 0.308926
O O1 0.447562 0.250000 0.180743
O O2 0.402887 0.006318 0.249736
O O3 0.502406 0.005789 0.205412
O O4 0.428599 0.012595 0.083855
O O5 0.226142 0.250000 0.299469
O O6 0.298602 0.044442 0.264578
O O7 0.215666 0.984360 0.365148
O O8 0.200926 0.020278 0.201954
O O9 0.770424 0.250000 0.539745
O O10 0.833873 0.030328 0.488555
O O11 0.728920 0.002186 0.487377
O O12 0.598886 0.750000 0.003737
O O13 0.578820 0.511050 0.089093
O O14 0.450814 0.250000 0.819749
O O15 0.401522 0.474536 0.741991
O O16 0.161967 0.750000 0.204675
O O17 0.135151 0.556775 0.081110
O O18 0.185937 0.750000 0.978238
O O19 0.143365 0.986868 0.908603
O O20 0.368030 0.250000 0.312622
#
# Coordination Sequence:
#
# PCOD8250551 Si02
#       8
#     8   8   8   8   8   8   8   8
#     4  10  20  35  55  76  99 138 182 223 264 313
#     4  10  19  32  53  80 109 140 177 219 265 320
#     4  10  18  32  53  78 110 145 174 210 265 325
#     4   9  18  32  52  75 105 140 174 208 262 325
#     4  10  20  37  53  73 105 140 177 221 270 322
#     4  10  20  35  55  76 107 145 179 217 272 324
#     4   9  19  35  53  77 108 144 179 219 267 321
#     4   8  17  34  53  74 105 137 172 217 268 316
#
# _framework density 18.590703999999999
#
# number of rings (size 3 to 8) (size 9 to 14) (size 15 to 20)
#    0.000    2.500    1.250    1.875    1.750    1.000 
#    0.000    5.000    0.000    0.000    0.000    0.000 
#    0.000    0.000    0.000    0.000    0.000    0.000 
#
# Total GULP energy -793370.858572 kJ/mol
# GULP energy per Si atom -12396.419665 kJ/mol
# Density = 1.854839 g / cm^3
# Si number density = 18.590704 Si / 1000 Ang^3
#
#
#
# Elastic Constant Matrix: (Units=GPa)
#
#
# Indices 1 2 3 4 5 6 
#
# 1 131.3812 31.2893 82.9868 0.0000 0.0000 0.0000
# 2 31.2893 35.0287 21.4800 0.0000 0.0000 0.0000
# 3 82.9868 21.4800 123.6787 0.0000 0.0000 0.0000
# 4 0.0000 0.0000 0.0000 17.0824 0.0000 0.0000
# 5 0.0000 0.0000 0.0000 0.0000 29.1838 0.0000
# 6 0.0000 0.0000 0.0000 0.0000 0.0000 29.2824
#
#
#
# Elastic Compliance Matrix: (Units=1/GPa)
#
#
# Indices 1 2 3 4 5 6 
#
# 1 0.015015 -0.008097 -0.008669 0.000000 0.000000 0.000000
# 2 -0.008097 0.036317 -0.000875 0.000000 0.000000 0.000000
# 3 -0.008669 -0.000875 0.014054 0.000000 0.000000 0.000000
# 4 0.000000 0.000000 0.000000 0.058540 0.000000 0.000000
# 5 0.000000 0.000000 0.000000 0.000000 0.034266 0.000000
# 6 0.000000 0.000000 0.000000 0.000000 0.000000 0.034150
#
#
# Mechanical properties :
#
#
# Convention : Reuss Voigt Hill
#
# Bulk Modulus (GPa) = 33.21617 62.40009 47.80813
# Shear Modulus (GPa) = 21.03869 25.39855 23.21862
#
# Velocity S-wave (km/s) = 3.36769 3.70022 3.53786
# Velocity P-wave (km/s) = 5.74697 7.20372 6.51618
#
# Compressibility (1/GPa) = 0.03010582
#
# Stress axis : x y z
#
# Youngs Moduli (GPa) = 66.59805 27.53561 71.15341
#
# Poissons Ratio (x) = 0.22294 0.61683
# Poissons Ratio (y) = 0.53922 0.06223
# Poissons Ratio (z) = 0.57734 0.02408
#
# Static dielectric constant tensor:
#      x y z
#    x 3.389800 0.000000 0.000000 
#    y 0.000000 3.134240 0.000000 
#    z 0.000000 0.000000 3.657400 
# 
# 
# High freq. dielectric constant tensor:
#      x y z
#    x 1.712690 0.000000 0.000000 
#    y 0.000000 1.693270 0.000000 
#    z 0.000000 0.000000 1.727390 
# 
# From -- ./inp_files/20763.got.cif
#   From: 2010.03.12/outbox.cif.g09.slc.cpg/sg62_11_cif.got.tgz:20763.got - 2010.04.10 19:12:36.
