data_PCOD8250426
_publ_section_title
;
Structure prediction by ZEFSAII (Michael W. Deem and Ramdas Pophale) SiO2 
 PCOD8250426
Probable space group: P N M A
;
_chemical_formula_sum "Si O2"
_cell_formula_units_Z 64
_cell_length_a 9.971325
_cell_length_b 13.765657
_cell_length_c 28.140237
_cell_angle_alpha 90.000000
_cell_angle_beta 90.000000
_cell_angle_gamma 90.000000
_cell_volume 3862.580703
_symmetry_space_group_name_H-M "P N M A"
_symmetry_group_IT_number 62
_symmetry_cell_setting 'orthorhombic'
loop_
_space_group_symop_operation_xyz
x,y,z
1/2-x,-y,1/2+z
1/2+x,1/2-y,1/2-z
-x,1/2+y,-z
-x,-y,-z
1/2+x,y,1/2-z
1/2-x,1/2+y,1/2+z
x,1/2-y,z
loop_
_atom_site_type_symbol
_atom_site_label
_atom_site_fract_x
_atom_site_fract_y
_atom_site_fract_z
Si Si1 0.491478 0.949359 0.074610
Si Si2 0.751322 0.634000 0.117762
Si Si3 0.142020 0.863682 0.202356
Si Si4 0.194009 0.542607 0.103575
Si Si5 0.974308 0.864501 0.044587
Si Si6 0.343298 0.637426 0.280323
Si Si7 0.661333 0.141251 0.450487
Si Si8 0.963727 0.141490 0.475613
O O1 0.606886 0.913025 0.109263
O O2 0.351566 0.935692 0.101845
O O3 0.518524 0.062759 0.062049
O O4 0.482756 0.883870 0.027645
O O5 0.739024 0.750000 0.115893
O O6 0.857817 0.594453 0.079205
O O7 0.799246 0.594426 0.168954
O O8 0.161737 0.750000 0.189411
O O9 0.138646 0.924660 0.154129
O O10 0.257496 0.906784 0.236692
O O11 0.000430 0.880461 0.228802
O O12 0.162307 0.428279 0.095461
O O13 0.119499 0.598112 0.060660
O O14 0.972913 0.750000 0.049173
O O15 0.947286 0.894359 0.989718
O O16 0.307055 0.750000 0.281265
O O17 0.629853 0.250000 0.432284
O O18 0.802982 0.137416 0.477731
O O19 0.012999 0.250000 0.461306
#
# Coordination Sequence:
#
# PCOD8250426 Si02
#       8
#     8   8   8   8   8   8   8   8
#     4  10  20  29  47  73  92 126 169 196 232 280
#     4  10  18  31  50  68  94 133 163 186 229 289
#     4  10  20  34  49  71 100 127 156 193 242 293
#     4  11  21  31  48  74 101 125 160 213 243 276
#     4  10  18  31  49  69 100 135 162 191 237 290
#     4   9  19  33  49  69  96 127 155 188 234 289
#     4   9  18  33  51  69  93 134 173 199 237 290
#     4   9  17  32  47  65  98 130 161 201 235 274
#
# _framework density 16.569234000000002
#
# number of rings (size 3 to 8) (size 9 to 14) (size 15 to 20)
#    0.000    2.250    2.500    1.125    1.750    2.000 
#    0.000    0.000    0.000    0.000    0.000    1.750 
#    0.000    0.000    0.000    0.000    0.000    0.000 
#
# Total GULP energy -793493.109700 kJ/mol
# GULP energy per Si atom -12398.329839 kJ/mol
# Density = 1.653152 g / cm^3
# Si number density = 16.569234 Si / 1000 Ang^3
#
#
#
# Elastic Constant Matrix: (Units=GPa)
#
#
# Indices 1 2 3 4 5 6 
#
# 1 73.9148 23.3206 27.6413 0.0000 0.0000 0.0000
# 2 23.3206 54.4053 34.6995 0.0000 0.0000 0.0000
# 3 27.6413 34.6995 67.9507 0.0000 0.0000 0.0000
# 4 0.0000 0.0000 0.0000 18.4501 0.0000 0.0000
# 5 0.0000 0.0000 0.0000 0.0000 28.0972 0.0000
# 6 0.0000 0.0000 0.0000 0.0000 0.0000 16.5712
#
#
#
# Elastic Compliance Matrix: (Units=1/GPa)
#
#
# Indices 1 2 3 4 5 6 
#
# 1 0.016567 -0.004157 -0.004616 0.000000 0.000000 0.000000
# 2 -0.004157 0.028302 -0.012761 0.000000 0.000000 0.000000
# 3 -0.004616 -0.012761 0.023111 0.000000 0.000000 0.000000
# 4 0.000000 0.000000 0.000000 0.054200 0.000000 0.000000
# 5 0.000000 0.000000 0.000000 0.000000 0.035591 0.000000
# 6 0.000000 0.000000 0.000000 0.000000 0.000000 0.060346
#
#
# Mechanical properties :
#
#
# Convention : Reuss Voigt Hill
#
# Bulk Modulus (GPa) = 40.14435 40.84371 40.49403
# Shear Modulus (GPa) = 18.55361 19.99767 19.27564
#
# Velocity S-wave (km/s) = 3.34992 3.47784 3.41448
# Velocity P-wave (km/s) = 6.26446 6.38991 6.32750
#
# Compressibility (1/GPa) = 0.02491010
#
# Stress axis : x y z
#
# Youngs Moduli (GPa) = 60.36097 35.33369 43.26923
#
# Poissons Ratio (x) = 0.14688 0.19975
# Poissons Ratio (y) = 0.25092 0.55218
# Poissons Ratio (z) = 0.27865 0.45091
#
# Static dielectric constant tensor:
#      x y z
#    x 3.178660 0.000000 0.000000 
#    y 0.000000 3.045550 0.000000 
#    z 0.000000 0.000000 3.025450 
# 
# 
# High freq. dielectric constant tensor:
#      x y z
#    x 1.644700 0.000000 0.000000 
#    y 0.000000 1.609980 0.000000 
#    z 0.000000 0.000000 1.619980 
# 
# From -- ./inp_files/32325.got.cif
#   From: 2010.03.12/outbox.cif.g09.slc.cpg/sg62_17_cif.got.tgz:32325.got - 2010.04.10 19:12:36.
