data_PCOD8250431
_publ_section_title
;
Structure prediction by ZEFSAII (Michael W. Deem and Ramdas Pophale) SiO2 
 PCOD8250431
Probable space group: P N M A
;
_chemical_formula_sum "Si O2"
_cell_formula_units_Z 56
_cell_length_a 19.073318
_cell_length_b 9.257023
_cell_length_c 19.097221
_cell_angle_alpha 90.000000
_cell_angle_beta 90.000000
_cell_angle_gamma 90.000000
_cell_volume 3371.846273
_symmetry_space_group_name_H-M "P N M A"
_symmetry_group_IT_number 62
_symmetry_cell_setting 'orthorhombic'
loop_
_space_group_symop_operation_xyz
x,y,z
1/2-x,-y,1/2+z
1/2+x,1/2-y,1/2-z
-x,1/2+y,-z
-x,-y,-z
1/2+x,y,1/2-z
1/2-x,1/2+y,1/2+z
x,1/2-y,z
loop_
_atom_site_type_symbol
_atom_site_label
_atom_site_fract_x
_atom_site_fract_y
_atom_site_fract_z
Si Si1 0.734979 0.914334 0.852790
Si Si2 0.848837 0.581584 0.736376
Si Si3 0.549250 0.580226 0.445740
Si Si4 0.620391 0.918274 0.740750
Si Si5 0.792715 0.079268 0.976429
Si Si6 0.480715 0.079327 0.713328
Si Si7 0.733509 0.921204 0.631369
O O1 0.740258 0.750000 0.878009
O O2 0.799465 0.951760 0.802223
O O3 0.661861 0.941511 0.813270
O O4 0.738301 0.014608 0.920885
O O5 0.869511 0.750000 0.733640
O O6 0.917614 0.484954 0.741170
O O7 0.807314 0.532916 0.666173
O O8 0.500000 0.500000 0.500000
O O9 0.541359 0.750000 0.458326
O O10 0.628675 0.529099 0.458616
O O11 0.527203 0.534788 0.367727
O O12 0.601146 0.750000 0.730222
O O13 0.667779 0.978140 0.676758
O O14 0.551261 0.013589 0.744476
O O15 0.785607 0.250000 0.973583
O O16 0.771840 0.018204 0.052824
O O17 0.480988 0.250000 0.722924
O O18 0.728374 0.750000 0.633446
#
# Coordination Sequence:
#
# PCOD8250431 Si02
#       7
#     8   8   8   8   8   8   8
#     4   9  18  32  51  74  96 125 170 209 240 291
#     4   9  17  32  52  71  93 129 171 205 238 289
#     4  10  21  32  45  70 104 138 165 192 237 297
#     4   9  18  34  53  71  96 132 170 205 240 289
#     4  10  18  31  50  72 101 132 159 200 253 295
#     4  11  21  32  47  74 104 129 162 204 249 295
#     4   8  16  31  52  74  95 126 171 206 237 291
#
# _framework density 16.608112999999999
#
# number of rings (size 3 to 8) (size 9 to 14) (size 15 to 20)
#    0.000    2.571    1.429    3.000    0.000    3.429 
#    0.000    3.571    0.000    0.857    0.000    0.000 
#    0.000    0.000    0.000    0.000    0.000    0.000 
#
# Total GULP energy -694403.034341 kJ/mol
# GULP energy per Si atom -12400.054185 kJ/mol
# Density = 1.657031 g / cm^3
# Si number density = 16.608113 Si / 1000 Ang^3
#
#
#
# Elastic Constant Matrix: (Units=GPa)
#
#
# Indices 1 2 3 4 5 6 
#
# 1 120.6693 48.3441 58.7745 0.0000 0.0000 0.0000
# 2 48.3441 48.9967 37.1007 0.0000 0.0000 0.0000
# 3 58.7745 37.1007 93.0670 0.0000 0.0000 0.0000
# 4 0.0000 0.0000 0.0000 26.2857 0.0000 0.0000
# 5 0.0000 0.0000 0.0000 0.0000 24.7291 0.0000
# 6 0.0000 0.0000 0.0000 0.0000 0.0000 22.0585
#
#
#
# Elastic Compliance Matrix: (Units=1/GPa)
#
#
# Indices 1 2 3 4 5 6 
#
# 1 0.015289 -0.011136 -0.005216 0.000000 0.000000 0.000000
# 2 -0.011136 0.037344 -0.007855 0.000000 0.000000 0.000000
# 3 -0.005216 -0.007855 0.017170 0.000000 0.000000 0.000000
# 4 0.000000 0.000000 0.000000 0.038043 0.000000 0.000000
# 5 0.000000 0.000000 0.000000 0.000000 0.040438 0.000000
# 6 0.000000 0.000000 0.000000 0.000000 0.000000 0.045334
#
#
# Mechanical properties :
#
#
# Convention : Reuss Voigt Hill
#
# Bulk Modulus (GPa) = 46.74936 61.24130 53.99533
# Shear Modulus (GPa) = 20.06714 22.51557 21.29136
#
# Velocity S-wave (km/s) = 3.47979 3.68597 3.58437
# Velocity P-wave (km/s) = 6.65995 7.42089 7.05069
#
# Compressibility (1/GPa) = 0.02139067
#
# Stress axis : x y z
#
# Youngs Moduli (GPa) = 65.40583 26.77773 58.23943
#
# Poissons Ratio (x) = 0.29819 0.30380
# Poissons Ratio (y) = 0.72833 0.45745
# Poissons Ratio (z) = 0.34118 0.21033
#
# Static dielectric constant tensor:
#      x y z
#    x 3.066240 0.000000 0.000000 
#    y 0.000000 2.914860 0.000000 
#    z 0.000000 0.000000 3.245530 
# 
# 
# High freq. dielectric constant tensor:
#      x y z
#    x 1.634380 0.000000 0.000000 
#    y 0.000000 1.624810 0.000000 
#    z 0.000000 0.000000 1.633680 
# 
# From -- ./inp_files/27509.got.cif
#   From: 2010.03.12/outbox.cif.g09.slc.cpg/sg62_14_cif.got.tgz:27509.got - 2010.04.10 19:12:36.
