data_PCOD8250446
_publ_section_title
;
Structure prediction by ZEFSAII (Michael W. Deem and Ramdas Pophale) SiO2 
 PCOD8250446
Probable space group: P N M A
;
_chemical_formula_sum "Si O2"
_cell_formula_units_Z 64
_cell_length_a 19.579932
_cell_length_b 9.396840
_cell_length_c 20.787104
_cell_angle_alpha 90.000000
_cell_angle_beta 90.000000
_cell_angle_gamma 90.000000
_cell_volume 3824.608626
_symmetry_space_group_name_H-M "P N M A"
_symmetry_group_IT_number 62
_symmetry_cell_setting 'orthorhombic'
loop_
_space_group_symop_operation_xyz
x,y,z
1/2-x,-y,1/2+z
1/2+x,1/2-y,1/2-z
-x,1/2+y,-z
-x,-y,-z
1/2+x,y,1/2-z
1/2-x,1/2+y,1/2+z
x,1/2-y,z
loop_
_atom_site_type_symbol
_atom_site_label
_atom_site_fract_x
_atom_site_fract_y
_atom_site_fract_z
Si Si1 0.925365 0.088284 0.864039
Si Si2 0.576592 0.586181 0.757535
Si Si3 0.303736 0.082342 0.429092
Si Si4 0.713308 0.587269 0.427373
Si Si5 0.285891 0.582543 0.811793
Si Si6 0.578305 0.416772 0.628089
Si Si7 0.715448 0.585345 0.818071
Si Si8 0.574622 0.085133 0.237400
O O1 0.923471 0.250000 0.839240
O O2 0.867437 0.058431 0.916938
O O3 0.999998 0.054971 0.893413
O O4 0.908944 0.991411 0.803589
O O5 0.579266 0.750000 0.732974
O O6 0.591844 0.483672 0.698059
O O7 0.633822 0.561403 0.811720
O O8 0.501860 0.550379 0.787991
O O9 0.319198 0.250000 0.421654
O O10 0.270756 0.049742 0.498538
O O11 0.251351 0.021920 0.375142
O O12 0.374298 0.996123 0.423342
O O13 0.731384 0.750000 0.412041
O O14 0.760567 0.493738 0.381780
O O15 0.274983 0.750000 0.812897
O O16 0.251865 0.523018 0.746100
O O17 0.366569 0.540276 0.813797
O O18 0.595919 0.250000 0.630519
O O19 0.733977 0.750000 0.826776
O O20 0.582617 0.250000 0.253178
#
# Coordination Sequence:
#
# PCOD8250446 Si02
#       8
#     8   8   8   8   8   8   8   8
#     4   9  18  31  44  66  99 127 155 192 235 280
#     4   9  17  30  49  72  97 124 155 193 240 288
#     4  10  20  35  50  67  97 132 164 199 238 283
#     4  10  21  34  49  69  96 132 165 195 238 289
#     4   9  16  29  50  73  93 119 159 202 237 273
#     4  10  19  30  46  69  98 128 158 195 234 278
#     4  10  18  31  51  73  96 122 156 202 241 275
#     4   9  16  28  49  73  92 119 159 195 235 284
#
# _framework density 16.733739
#
# number of rings (size 3 to 8) (size 9 to 14) (size 15 to 20)
#    0.000    2.500    2.500    0.375    0.000    2.000 
#    0.000    0.625    0.000    0.750    0.000    0.000 
#    0.000    0.000    0.000    0.000    0.000    0.000 
#
# Total GULP energy -793308.104798 kJ/mol
# GULP energy per Si atom -12395.439137 kJ/mol
# Density = 1.669565 g / cm^3
# Si number density = 16.733739 Si / 1000 Ang^3
#
#
#
# Elastic Constant Matrix: (Units=GPa)
#
#
# Indices 1 2 3 4 5 6 
#
# 1 108.6331 34.5148 59.8681 0.0000 0.0000 0.0000
# 2 34.5148 49.6768 37.1405 0.0000 0.0000 0.0000
# 3 59.8681 37.1405 101.0986 0.0000 0.0000 0.0000
# 4 0.0000 0.0000 0.0000 21.9241 0.0000 0.0000
# 5 0.0000 0.0000 0.0000 0.0000 22.5352 0.0000
# 6 0.0000 0.0000 0.0000 0.0000 0.0000 19.7671
#
#
#
# Elastic Compliance Matrix: (Units=1/GPa)
#
#
# Indices 1 2 3 4 5 6 
#
# 1 0.014529 -0.005049 -0.006749 0.000000 0.000000 0.000000
# 2 -0.005049 0.029507 -0.007850 0.000000 0.000000 0.000000
# 3 -0.006749 -0.007850 0.016772 0.000000 0.000000 0.000000
# 4 0.000000 0.000000 0.000000 0.045612 0.000000 0.000000
# 5 0.000000 0.000000 0.000000 0.000000 0.044375 0.000000
# 6 0.000000 0.000000 0.000000 0.000000 0.000000 0.050589
#
#
# Mechanical properties :
#
#
# Convention : Reuss Voigt Hill
#
# Bulk Modulus (GPa) = 46.48564 58.05059 52.26812
# Shear Modulus (GPa) = 20.17354 21.37098 20.77226
#
# Velocity S-wave (km/s) = 3.47589 3.57756 3.52709
# Velocity P-wave (km/s) = 6.62940 7.19939 6.92027
#
# Compressibility (1/GPa) = 0.02151202
#
# Stress axis : x y z
#
# Youngs Moduli (GPa) = 68.82971 33.89013 59.62404
#
# Poissons Ratio (x) = 0.17110 0.40239
# Poissons Ratio (y) = 0.34750 0.46807
# Poissons Ratio (z) = 0.46452 0.26605
#
# Static dielectric constant tensor:
#      x y z
#    x 3.453270 0.000000 0.000000 
#    y 0.000000 3.065760 0.000000 
#    z 0.000000 0.000000 2.922300 
# 
# 
# High freq. dielectric constant tensor:
#      x y z
#    x 1.654920 0.000000 0.000000 
#    y 0.000000 1.633510 0.000000 
#    z 0.000000 0.000000 1.611100 
# 
# From -- ./inp_files/24726.got.cif
#   From: 2010.03.12/outbox.cif.g09.slc.cpg/sg62_13_cif.got.tgz:24726.got - 2010.04.10 19:12:36.
