data_PCOD8250156
_publ_section_title
;
Structure prediction by ZEFSAII (Michael W. Deem and Ramdas Pophale) SiO2 
 PCOD8250156
Probable space group: P N M A
;
_chemical_formula_sum "Si O2"
_cell_formula_units_Z 64
_cell_length_a 9.097723
_cell_length_b 26.045156
_cell_length_c 18.378939
_cell_angle_alpha 90.000000
_cell_angle_beta 90.000000
_cell_angle_gamma 90.000000
_cell_volume 4354.919274
_symmetry_space_group_name_H-M "P N M A"
_symmetry_group_IT_number 62
_symmetry_cell_setting 'orthorhombic'
loop_
_space_group_symop_operation_xyz
x,y,z
1/2-x,-y,1/2+z
1/2+x,1/2-y,1/2-z
-x,1/2+y,-z
-x,-y,-z
1/2+x,y,1/2-z
1/2-x,1/2+y,1/2+z
x,1/2-y,z
loop_
_atom_site_type_symbol
_atom_site_label
_atom_site_fract_x
_atom_site_fract_y
_atom_site_fract_z
Si Si1 0.674449 0.993453 0.173897
Si Si2 0.674084 0.006549 0.825745
Si Si3 0.661817 0.945626 0.960748
Si Si4 0.328843 0.595763 0.412885
Si Si5 0.661413 0.445538 0.038844
Si Si6 0.828447 0.404177 0.912476
Si Si7 0.169908 0.807363 0.177706
Si Si8 0.829125 0.807357 0.177080
O O1 0.750589 0.006078 0.249720
O O2 0.500228 0.985576 0.183365
O O3 0.740200 0.941529 0.140427
O O4 0.709374 0.042526 0.121893
O O5 0.740281 0.058455 0.859068
O O6 0.709322 0.957413 0.877591
O O7 0.500274 0.919689 0.963223
O O8 0.776717 0.909401 0.003128
O O9 0.654263 0.000133 0.999543
O O10 0.500184 0.581978 0.407820
O O11 0.295136 0.654066 0.389006
O O12 0.775735 0.409109 0.996409
O O13 0.795091 0.345916 0.888278
O O14 0.223021 0.750000 0.155474
O O15 0.248906 0.826773 0.250480
O O16 0.999379 0.807634 0.196389
O O17 0.776414 0.750000 0.154608
#
# Coordination Sequence:
#
# PCOD8250156 Si02
#       8
#     8   8   8   8   8   8   8   8
#     4  10  19  29  41  58  81 107 133 163 197 233
#     4  10  19  29  41  58  81 107 133 163 197 233
#     4   8  16  29  41  55  78 105 130 160 197 233
#     4  10  18  27  42  60  78 105 137 166 196 232
#     4   8  16  29  41  55  78 105 130 160 197 233
#     4  10  18  27  42  60  78 105 137 166 196 232
#     4   9  18  30  41  56  79 105 134 167 199 229
#     4   9  18  30  41  56  79 105 134 167 199 229
#
# _framework density 14.696023
#
# number of rings (size 3 to 8) (size 9 to 14) (size 15 to 20)
#    0.000    2.750    0.000    3.750    0.000    9.500 
#    0.000    0.000    0.000    0.000    0.000    0.000 
#    0.000    1.000    0.000    2.250    0.000    3.500 
#
# Total GULP energy -793256.427726 kJ/mol
# GULP energy per Si atom -12394.631683 kJ/mol
# Density = 1.466257 g / cm^3
# Si number density = 14.696023 Si / 1000 Ang^3
#
#
#
# Elastic Constant Matrix: (Units=GPa)
#
#
# Indices 1 2 3 4 5 6 
#
# 1 81.3651 41.5552 55.4846 0.0000 0.0000 0.0000
# 2 41.5552 64.1081 46.5881 0.0000 0.0000 0.0000
# 3 55.4846 46.5881 111.3960 0.0000 0.0000 0.0000
# 4 0.0000 0.0000 0.0000 20.2239 0.0000 0.0000
# 5 0.0000 0.0000 0.0000 0.0000 27.6972 0.0000
# 6 0.0000 0.0000 0.0000 0.0000 0.0000 17.0009
#
#
#
# Elastic Compliance Matrix: (Units=1/GPa)
#
#
# Indices 1 2 3 4 5 6 
#
# 1 0.021653 -0.008904 -0.007061 0.000000 0.000000 0.000000
# 2 -0.008904 0.026071 -0.006468 0.000000 0.000000 0.000000
# 3 -0.007061 -0.006468 0.015199 0.000000 0.000000 0.000000
# 4 0.000000 0.000000 0.000000 0.049446 0.000000 0.000000
# 5 0.000000 0.000000 0.000000 0.000000 0.036105 0.000000
# 6 0.000000 0.000000 0.000000 0.000000 0.000000 0.058820
#
#
# Mechanical properties :
#
#
# Convention : Reuss Voigt Hill
#
# Bulk Modulus (GPa) = 55.38365 60.45833 57.92099
# Shear Modulus (GPa) = 19.36628 20.53383 19.95006
#
# Velocity S-wave (km/s) = 3.63408 3.74202 3.68844
# Velocity P-wave (km/s) = 7.44155 7.73943 7.59195
#
# Compressibility (1/GPa) = 0.01805587
#
# Stress axis : x y z
#
# Youngs Moduli (GPa) = 46.18302 38.35666 65.79291
#
# Poissons Ratio (x) = 0.34154 0.46457
# Poissons Ratio (y) = 0.41122 0.42558
# Poissons Ratio (z) = 0.32610 0.24811
#
# Static dielectric constant tensor:
#      x y z
#    x 2.985540 0.000000 0.000000 
#    y 0.000000 2.757040 0.000000 
#    z 0.000000 0.000000 3.140870 
# 
# 
# High freq. dielectric constant tensor:
#      x y z
#    x 1.575480 0.000000 0.000000 
#    y 0.000000 1.523930 0.000000 
#    z 0.000000 0.000000 1.553470 
# 
# From -- ./inp_files/22664.got.cif
#   From: 2010.03.12/outbox.cif.g09.slc.cpg/sg62_12_cif.got.tgz:22664.got - 2010.04.10 19:12:36.
