data_PCOD8250547
_publ_section_title
;
Structure prediction by ZEFSAII (Michael W. Deem and Ramdas Pophale) SiO2 
 PCOD8250547
Probable space group: P N M A
;
_chemical_formula_sum "Si O2"
_cell_formula_units_Z 56
_cell_length_a 19.273427
_cell_length_b 8.567820
_cell_length_c 19.318803
_cell_angle_alpha 90.000000
_cell_angle_beta 90.000000
_cell_angle_gamma 90.000000
_cell_volume 3190.138152
_symmetry_space_group_name_H-M "P N M A"
_symmetry_group_IT_number 62
_symmetry_cell_setting 'orthorhombic'
loop_
_space_group_symop_operation_xyz
x,y,z
1/2-x,-y,1/2+z
1/2+x,1/2-y,1/2-z
-x,1/2+y,-z
-x,-y,-z
1/2+x,y,1/2-z
1/2-x,1/2+y,1/2+z
x,1/2-y,z
loop_
_atom_site_type_symbol
_atom_site_label
_atom_site_fract_x
_atom_site_fract_y
_atom_site_fract_z
Si Si1 0.947533 0.064836 0.944219
Si Si2 0.372740 0.433477 0.252975
Si Si3 0.264348 0.567580 0.158644
Si Si4 0.982614 0.432666 0.790478
Si Si5 0.654659 0.067208 0.239382
Si Si6 0.266227 0.434687 0.367190
Si Si7 0.296389 0.433659 0.517172
O O1 0.947884 0.250000 0.945965
O O2 0.969467 0.005515 0.868240
O O3 0.871385 0.997848 0.961643
O O4 0.000000 0.000000 0.000000
O O5 0.363810 0.250000 0.242947
O O6 0.340018 0.517517 0.185625
O O7 0.452691 0.476874 0.258403
O O8 0.331372 0.493157 0.321075
O O9 0.250587 0.750000 0.171831
O O10 0.204318 0.470773 0.196367
O O11 0.259506 0.527609 0.076890
O O12 0.998084 0.250000 0.788976
O O13 0.916129 0.470275 0.743357
O O14 0.637493 0.250000 0.239880
O O15 0.693980 0.015100 0.168815
O O16 0.269337 0.250000 0.371188
O O17 0.271507 0.508566 0.444134
O O18 0.304194 0.250000 0.507347
#
# Coordination Sequence:
#
# PCOD8250547 Si02
#       7
#     8   8   8   8   8   8   8
#     4  10  20  32  47  73 106 140 171 201 249 311
#     4  10  20  34  52  75 103 135 172 215 258 306
#     4  10  18  32  53  75 101 134 171 213 256 307
#     4  11  21  34  51  74 103 137 175 213 257 309
#     4  10  19  32  51  75 102 135 175 215 255 302
#     4   8  16  30  50  74 100 131 168 207 252 305
#     4   9  16  30  50  72 101 134 166 203 253 305
#
# _framework density 17.554098
#
# number of rings (size 3 to 8) (size 9 to 14) (size 15 to 20)
#    0.000    2.286    1.429    3.429    0.000    2.286 
#    0.000    0.000    0.000   11.143    0.000    0.000 
#    0.000    0.000    0.000    0.000    0.000    0.000 
#
# Total GULP energy -694337.669967 kJ/mol
# GULP energy per Si atom -12398.886964 kJ/mol
# Density = 1.751414 g / cm^3
# Si number density = 17.554098 Si / 1000 Ang^3
#
#
#
# Elastic Constant Matrix: (Units=GPa)
#
#
# Indices 1 2 3 4 5 6 
#
# 1 112.6233 6.8574 65.0051 0.0000 0.0000 0.0000
# 2 6.8574 27.0363 16.8600 0.0000 0.0000 0.0000
# 3 65.0051 16.8600 111.2354 0.0000 0.0000 0.0000
# 4 0.0000 0.0000 0.0000 19.0243 0.0000 0.0000
# 5 0.0000 0.0000 0.0000 0.0000 28.6867 0.0000
# 6 0.0000 0.0000 0.0000 0.0000 0.0000 26.6778
#
#
#
# Elastic Compliance Matrix: (Units=1/GPa)
#
#
# Indices 1 2 3 4 5 6 
#
# 1 0.013465 0.001648 -0.008118 0.000000 0.000000 0.000000
# 2 0.001648 0.041050 -0.007185 0.000000 0.000000 0.000000
# 3 -0.008118 -0.007185 0.014823 0.000000 0.000000 0.000000
# 4 0.000000 0.000000 0.000000 0.052564 0.000000 0.000000
# 5 0.000000 0.000000 0.000000 0.000000 0.034859 0.000000
# 6 0.000000 0.000000 0.000000 0.000000 0.000000 0.037484
#
#
# Mechanical properties :
#
#
# Convention : Reuss Voigt Hill
#
# Bulk Modulus (GPa) = 23.79446 47.59333 35.69390
# Shear Modulus (GPa) = 21.22549 25.68927 23.45738
#
# Velocity S-wave (km/s) = 3.48105 3.82964 3.65950
# Velocity P-wave (km/s) = 5.45356 6.83565 6.18334
#
# Compressibility (1/GPa) = 0.04202659
#
# Stress axis : x y z
#
# Youngs Moduli (GPa) = 74.26828 24.36064 67.46158
#
# Poissons Ratio (x) = -0.04013 0.54768
# Poissons Ratio (y) = -0.12236 0.48469
# Poissons Ratio (z) = 0.60294 0.17502
#
# Static dielectric constant tensor:
#      x y z
#    x 3.233000 0.000000 0.000000 
#    y 0.000000 3.074580 0.000000 
#    z 0.000000 0.000000 3.516910 
# 
# 
# High freq. dielectric constant tensor:
#      x y z
#    x 1.671290 0.000000 0.000000 
#    y 0.000000 1.662970 0.000000 
#    z 0.000000 0.000000 1.672180 
# 
# From -- ./inp_files/27577.got.cif
#   From: 2010.03.12/outbox.cif.g09.slc.cpg/sg62_14_cif.got.tgz:27577.got - 2010.04.10 19:12:36.
