data_PCOD8250538
_publ_section_title
;
Structure prediction by ZEFSAII (Michael W. Deem and Ramdas Pophale) SiO2 
 PCOD8250538
Probable space group: P N M A
;
_chemical_formula_sum "Si O2"
_cell_formula_units_Z 48
_cell_length_a 13.630789
_cell_length_b 12.174221
_cell_length_c 16.928965
_cell_angle_alpha 90.000000
_cell_angle_beta 90.000000
_cell_angle_gamma 90.000000
_cell_volume 2809.264192
_symmetry_space_group_name_H-M "P N M A"
_symmetry_group_IT_number 62
_symmetry_cell_setting 'orthorhombic'
loop_
_space_group_symop_operation_xyz
x,y,z
1/2-x,-y,1/2+z
1/2+x,1/2-y,1/2-z
-x,1/2+y,-z
-x,-y,-z
1/2+x,y,1/2-z
1/2-x,1/2+y,1/2+z
x,1/2-y,z
loop_
_atom_site_type_symbol
_atom_site_label
_atom_site_fract_x
_atom_site_fract_y
_atom_site_fract_z
Si Si1 0.585913 0.028101 0.267503
Si Si2 0.735899 0.373081 0.156658
Si Si3 0.982326 0.122224 0.897211
Si Si4 0.354251 0.020357 0.471567
Si Si5 0.216688 0.375427 0.107905
Si Si6 0.890613 0.128216 0.286392
O O1 0.665767 0.034732 0.197016
O O2 0.621741 0.114656 0.334389
O O3 0.484558 0.052819 0.224057
O O4 0.574148 0.912975 0.315768
O O5 0.687214 0.250000 0.153164
O O6 0.766614 0.413604 0.070169
O O7 0.837240 0.363498 0.202969
O O8 0.011273 0.250000 0.890541
O O9 0.915382 0.105515 0.974800
O O10 0.078014 0.045069 0.908435
O O11 0.299756 0.932861 0.525577
O O12 0.234207 0.250000 0.089113
O O13 0.314643 0.423833 0.149927
O O14 0.923948 0.250000 0.313286
#
# Coordination Sequence:
#
# PCOD8250538 Si02
#       6
#     8   8   8   8   8   8
#     4  10  18  32  52  73 101 129 169 210 252 295
#     4  10  19  31  51  78 101 128 169 211 255 300
#     4  10  20  33  51  75 103 136 171 209 260 304
#     4  10  19  33  50  74 105 133 167 214 254 298
#     4   9  18  30  49  75 101 131 168 209 254 301
#     4   9  16  29  49  73  99 127 164 210 254 292
#
# _framework density 17.086323
#
# number of rings (size 3 to 8) (size 9 to 14) (size 15 to 20)
#    0.000    2.333    1.667    3.500    0.000    0.000 
#    0.000    2.500    0.000    1.000    0.000    0.000 
#    0.000    0.000    0.000    0.000    0.000    0.000 
#
# Total GULP energy -594749.870496 kJ/mol
# GULP energy per Si atom -12390.622302 kJ/mol
# Density = 1.704743 g / cm^3
# Si number density = 17.086323 Si / 1000 Ang^3
#
#
#
# Elastic Constant Matrix: (Units=GPa)
#
#
# Indices 1 2 3 4 5 6 
#
# 1 75.6764 27.9612 35.8043 0.0000 0.0000 0.0000
# 2 27.9612 70.7471 25.9552 0.0000 0.0000 0.0000
# 3 35.8043 25.9552 71.0884 0.0000 0.0000 0.0000
# 4 0.0000 0.0000 0.0000 20.0106 0.0000 0.0000
# 5 0.0000 0.0000 0.0000 0.0000 31.1908 0.0000
# 6 0.0000 0.0000 0.0000 0.0000 0.0000 19.2635
#
#
#
# Elastic Compliance Matrix: (Units=1/GPa)
#
#
# Indices 1 2 3 4 5 6 
#
# 1 0.018510 -0.004498 -0.007680 0.000000 0.000000 0.000000
# 2 -0.004498 0.017414 -0.004093 0.000000 0.000000 0.000000
# 3 -0.007680 -0.004093 0.019430 0.000000 0.000000 0.000000
# 4 0.000000 0.000000 0.000000 0.049974 0.000000 0.000000
# 5 0.000000 0.000000 0.000000 0.000000 0.032061 0.000000
# 6 0.000000 0.000000 0.000000 0.000000 0.000000 0.051912
#
#
# Mechanical properties :
#
#
# Convention : Reuss Voigt Hill
#
# Bulk Modulus (GPa) = 43.83745 44.10590 43.97168
# Shear Modulus (GPa) = 21.79169 22.61238 22.20203
#
# Velocity S-wave (km/s) = 3.57513 3.64183 3.60864
# Velocity P-wave (km/s) = 6.53867 6.59951 6.56916
#
# Compressibility (1/GPa) = 0.02281155
#
# Stress axis : x y z
#
# Youngs Moduli (GPa) = 54.02529 57.42495 51.46787
#
# Poissons Ratio (x) = 0.25829 0.39530
# Poissons Ratio (y) = 0.24300 0.21064
# Poissons Ratio (z) = 0.41494 0.23502
#
# Static dielectric constant tensor:
#      x y z
#    x 3.119460 0.000000 0.000000 
#    y 0.000000 3.042900 0.000000 
#    z 0.000000 0.000000 3.139500 
# 
# 
# High freq. dielectric constant tensor:
#      x y z
#    x 1.649580 0.000000 0.000000 
#    y 0.000000 1.635650 0.000000 
#    z 0.000000 0.000000 1.648820 
# 
# From -- ./inp_files/18887.got.cif
#   From: 2010.03.12/outbox.cif.g09.slc.cpg/sg62_10_cif.got.tgz:18887.got - 2010.04.10 19:12:36.
