data_PCOD8250234
_publ_section_title
;
Structure prediction by ZEFSAII (Michael W. Deem and Ramdas Pophale) SiO2 
 PCOD8250234
Probable space group: P N M A
;
_chemical_formula_sum "Si O2"
_cell_formula_units_Z 64
_cell_length_a 33.505516
_cell_length_b 8.849344
_cell_length_c 11.791265
_cell_angle_alpha 90.000000
_cell_angle_beta 90.000000
_cell_angle_gamma 90.000000
_cell_volume 3496.131733
_symmetry_space_group_name_H-M "P N M A"
_symmetry_group_IT_number 62
_symmetry_cell_setting 'orthorhombic'
loop_
_space_group_symop_operation_xyz
x,y,z
1/2-x,-y,1/2+z
1/2+x,1/2-y,1/2-z
-x,1/2+y,-z
-x,-y,-z
1/2+x,y,1/2-z
1/2-x,1/2+y,1/2+z
x,1/2-y,z
loop_
_atom_site_type_symbol
_atom_site_label
_atom_site_fract_x
_atom_site_fract_y
_atom_site_fract_z
Si Si1 0.032699 0.073350 0.853595
Si Si2 0.178614 0.927147 0.614668
Si Si3 0.046391 0.072704 0.110021
Si Si4 0.133817 0.423182 0.168608
Si Si5 0.607170 0.576660 0.729452
Si Si6 0.170134 0.926523 0.959713
Si Si7 0.767897 0.570838 0.197534
Si Si8 0.811665 0.924185 0.625107
O O1 0.028591 0.250000 0.844610
O O2 0.066699 0.019981 0.765862
O O3 0.045351 0.018739 0.979306
O O4 0.989826 0.003558 0.820894
O O5 0.188501 0.750000 0.626250
O O6 0.134184 0.961354 0.661169
O O7 0.210849 0.018805 0.687234
O O8 0.180439 0.978213 0.485956
O O9 0.040500 0.250000 0.119435
O O10 0.088107 0.019661 0.164969
O O11 0.136243 0.250000 0.125724
O O12 0.149240 0.439195 0.296526
O O13 0.161347 0.524763 0.087644
O O14 0.594348 0.750000 0.727597
O O15 0.631888 0.534257 0.616846
O O16 0.180812 0.750000 0.953571
O O17 0.207896 0.019542 0.913841
O O18 0.762952 0.750000 0.197420
O O19 0.725070 0.491916 0.194868
O O20 0.803423 0.750000 0.593162
#
# Coordination Sequence:
#
# PCOD8250234 Si02
#       8
#     8   8   8   8   8   8   8   8
#     4  10  18  28  50  81 111 145 182 223 272 329
#     4  10  22  41  60  82 111 144 187 233 280 332
#     4   9  18  32  49  75 114 149 180 222 274 331
#     4  10  21  37  56  80 112 151 187 226 279 338
#     4   9  18  33  54  79 108 143 178 223 275 328
#     4  10  20  34  55  82 112 143 183 228 276 331
#     4  11  23  39  60  82 110 146 184 231 281 328
#     4  11  24  40  59  82 110 146 189 232 280 334
#
# _framework density 18.305947
#
# number of rings (size 3 to 8) (size 9 to 14) (size 15 to 20)
#    0.000    2.000    1.250    3.375    1.750    4.500 
#    0.000    0.000    0.000    0.750    0.000    0.000 
#    0.000    0.000    0.000    0.000    0.000    0.000 
#
# Total GULP energy -793801.428313 kJ/mol
# GULP energy per Si atom -12403.147317 kJ/mol
# Density = 1.826428 g / cm^3
# Si number density = 18.305947 Si / 1000 Ang^3
#
#
#
# Elastic Constant Matrix: (Units=GPa)
#
#
# Indices 1 2 3 4 5 6 
#
# 1 120.0211 32.3377 31.2467 0.0000 0.0000 0.0000
# 2 32.3377 54.9435 12.9201 0.0000 0.0000 0.0000
# 3 31.2467 12.9201 66.0282 0.0000 0.0000 0.0000
# 4 0.0000 0.0000 0.0000 26.2937 0.0000 0.0000
# 5 0.0000 0.0000 0.0000 0.0000 21.0879 0.0000
# 6 0.0000 0.0000 0.0000 0.0000 0.0000 30.8591
#
#
#
# Elastic Compliance Matrix: (Units=1/GPa)
#
#
# Indices 1 2 3 4 5 6 
#
# 1 0.010856 -0.005431 -0.004075 0.000000 0.000000 0.000000
# 2 -0.005431 0.021796 -0.001695 0.000000 0.000000 0.000000
# 3 -0.004075 -0.001695 0.017405 0.000000 0.000000 0.000000
# 4 0.000000 0.000000 0.000000 0.038032 0.000000 0.000000
# 5 0.000000 0.000000 0.000000 0.000000 0.047420 0.000000
# 6 0.000000 0.000000 0.000000 0.000000 0.000000 0.032405
#
#
# Mechanical properties :
#
#
# Convention : Reuss Voigt Hill
#
# Bulk Modulus (GPa) = 36.15921 43.77796 39.96859
# Shear Modulus (GPa) = 25.05837 26.61402 25.83620
#
# Velocity S-wave (km/s) = 3.70383 3.81707 3.76088
# Velocity P-wave (km/s) = 6.17145 6.58735 6.38279
#
# Compressibility (1/GPa) = 0.02765547
#
# Stress axis : x y z
#
# Youngs Moduli (GPa) = 92.11451 45.88064 57.45505
#
# Poissons Ratio (x) = 0.24919 0.23411
# Poissons Ratio (y) = 0.50030 0.09737
# Poissons Ratio (z) = 0.37534 0.07775
#
# Static dielectric constant tensor:
#      x y z
#    x 3.493970 0.000000 0.000000 
#    y 0.000000 3.366440 0.000000 
#    z 0.000000 0.000000 3.116450 
# 
# 
# High freq. dielectric constant tensor:
#      x y z
#    x 1.714710 0.000000 0.000000 
#    y 0.000000 1.717910 0.000000 
#    z 0.000000 0.000000 1.678950 
# 
# From -- ./inp_files/15751.got.cif
#   From: 2010.03.12/outbox.cif.g09.slc.cpg/sg62_8_cif.got.tgz:15751.got - 2010.04.10 19:12:36.
