data_PCOD8250223
_publ_section_title
;
Structure prediction by ZEFSAII (Michael W. Deem and Ramdas Pophale) SiO2 
 PCOD8250223
Probable space group: P N M A
;
_chemical_formula_sum "Si O2"
_cell_formula_units_Z 64
_cell_length_a 16.929109
_cell_length_b 9.102603
_cell_length_c 21.931203
_cell_angle_alpha 90.000000
_cell_angle_beta 90.000000
_cell_angle_gamma 90.000000
_cell_volume 3379.575538
_symmetry_space_group_name_H-M "P N M A"
_symmetry_group_IT_number 62
_symmetry_cell_setting 'orthorhombic'
loop_
_space_group_symop_operation_xyz
x,y,z
1/2-x,-y,1/2+z
1/2+x,1/2-y,1/2-z
-x,1/2+y,-z
-x,-y,-z
1/2+x,y,1/2-z
1/2-x,1/2+y,1/2+z
x,1/2-y,z
loop_
_atom_site_type_symbol
_atom_site_label
_atom_site_fract_x
_atom_site_fract_y
_atom_site_fract_z
Si Si1 0.456654 0.426020 0.627658
Si Si2 0.398442 0.583057 0.941107
Si Si3 0.822177 0.915417 0.430627
Si Si4 0.288396 0.422106 0.851016
Si Si5 0.524326 0.421844 0.870698
Si Si6 0.629455 0.077647 0.595868
Si Si7 0.918705 0.077433 0.739251
Si Si8 0.666006 0.424193 0.460141
O O1 0.450676 0.250000 0.623491
O O2 0.545293 0.486545 0.616234
O O3 0.429570 0.489394 0.693537
O O4 0.402715 0.497816 0.576852
O O5 0.403936 0.750000 0.918696
O O6 0.326448 0.505552 0.907178
O O7 0.480817 0.504213 0.926099
O O8 0.380545 0.572195 0.012254
O O9 0.787464 0.750000 0.424782
O O10 0.881019 0.951689 0.373656
O O11 0.750499 0.028736 0.432865
O O12 0.300737 0.250000 0.863188
O O13 0.195151 0.462787 0.852472
O O14 0.332064 0.466555 0.787722
O O15 0.506326 0.250000 0.878880
O O16 0.487913 0.478590 0.806387
O O17 0.619908 0.250000 0.590406
O O18 0.657122 0.019044 0.529662
O O19 0.926604 0.250000 0.746190
O O20 0.658211 0.250000 0.454224
#
# Coordination Sequence:
#
# PCOD8250223 Si02
#       8
#     8   8   8   8   8   8   8   8
#     4  10  20  37  56  79 106 135 173 226 275 312
#     4  10  18  28  47  78 110 141 174 214 267 315
#     4  10  20  33  50  77 111 141 175 221 267 311
#     4   9  16  32  54  77 104 141 180 217 258 314
#     4   9  18  33  52  76 105 140 178 215 259 317
#     4   9  18  33  56  80 103 134 178 220 262 314
#     4   8  16  32  55  79 103 134 175 216 262 310
#     4  11  22  36  54  78 105 143 179 216 272 325
#
# _framework density 18.937290999999998
#
# number of rings (size 3 to 8) (size 9 to 14) (size 15 to 20)
#    0.000    2.500    1.250    2.250    0.000    1.000 
#    2.250    3.750    0.000    0.000    0.000    0.000 
#    0.000    0.000    0.000    0.000    0.000    0.000 
#
# Total GULP energy -793212.961092 kJ/mol
# GULP energy per Si atom -12393.952517 kJ/mol
# Density = 1.889419 g / cm^3
# Si number density = 18.937291 Si / 1000 Ang^3
#
#
#
# Elastic Constant Matrix: (Units=GPa)
#
#
# Indices 1 2 3 4 5 6 
#
# 1 153.6581 35.9896 60.8175 0.0000 0.0000 0.0000
# 2 35.9896 45.3541 20.8481 0.0000 0.0000 0.0000
# 3 60.8175 20.8481 83.7228 0.0000 0.0000 0.0000
# 4 0.0000 0.0000 0.0000 17.5775 0.0000 0.0000
# 5 0.0000 0.0000 0.0000 0.0000 22.2663 0.0000
# 6 0.0000 0.0000 0.0000 0.0000 0.0000 25.3636
#
#
#
# Elastic Compliance Matrix: (Units=1/GPa)
#
#
# Indices 1 2 3 4 5 6 
#
# 1 0.010136 -0.005261 -0.006053 0.000000 0.000000 0.000000
# 2 -0.005261 0.027629 -0.003059 0.000000 0.000000 0.000000
# 3 -0.006053 -0.003059 0.017103 0.000000 0.000000 0.000000
# 4 0.000000 0.000000 0.000000 0.056891 0.000000 0.000000
# 5 0.000000 0.000000 0.000000 0.000000 0.044911 0.000000
# 6 0.000000 0.000000 0.000000 0.000000 0.000000 0.039427
#
#
# Mechanical properties :
#
#
# Convention : Reuss Voigt Hill
#
# Bulk Modulus (GPa) = 38.27979 57.56061 47.92020
# Shear Modulus (GPa) = 21.40886 24.04678 22.72782
#
# Velocity S-wave (km/s) = 3.36596 3.56731 3.46809
# Velocity P-wave (km/s) = 5.94677 6.88687 6.43401
#
# Compressibility (1/GPa) = 0.02612345
#
# Stress axis : x y z
#
# Youngs Moduli (GPa) = 98.66020 36.19363 58.47041
#
# Poissons Ratio (x) = 0.19040 0.35391
# Poissons Ratio (y) = 0.51902 0.17884
# Poissons Ratio (z) = 0.59717 0.11070
#
# Static dielectric constant tensor:
#      x y z
#    x 3.722720 0.000000 0.000000 
#    y 0.000000 3.215670 0.000000 
#    z 0.000000 0.000000 3.582710 
# 
# 
# High freq. dielectric constant tensor:
#      x y z
#    x 1.745330 0.000000 0.000000 
#    y 0.000000 1.704240 0.000000 
#    z 0.000000 0.000000 1.722830 
# 
# From -- ./inp_files/30065.got.cif
#   From: 2010.03.12/outbox.cif.g09.slc.cpg/sg62_16_cif.got.tgz:30065.got - 2010.04.10 19:12:36.
