data_PCOD8250343
_publ_section_title
;
Structure prediction by ZEFSAII (Michael W. Deem and Ramdas Pophale) SiO2 
 PCOD8250343
Probable space group: P N M A
;
_chemical_formula_sum "Si O2"
_cell_formula_units_Z 48
_cell_length_a 18.047369
_cell_length_b 17.938642
_cell_length_c 8.830710
_cell_angle_alpha 90.000000
_cell_angle_beta 90.000000
_cell_angle_gamma 90.000000
_cell_volume 2858.900783
_symmetry_space_group_name_H-M "P N M A"
_symmetry_group_IT_number 62
_symmetry_cell_setting 'orthorhombic'
loop_
_space_group_symop_operation_xyz
x,y,z
1/2-x,-y,1/2+z
1/2+x,1/2-y,1/2-z
-x,1/2+y,-z
-x,-y,-z
1/2+x,y,1/2-z
1/2-x,1/2+y,1/2+z
x,1/2-y,z
loop_
_atom_site_type_symbol
_atom_site_label
_atom_site_fract_x
_atom_site_fract_y
_atom_site_fract_z
Si Si1 0.317202 0.442505 0.261627
Si Si2 0.197383 0.335336 0.754095
Si Si3 0.204065 0.944458 0.114706
Si Si4 0.409289 0.045504 0.860562
Si Si5 0.195983 0.664260 0.513242
Si Si6 0.578958 0.451307 0.857777
O O1 0.301134 0.446516 0.436367
O O2 0.268438 0.500834 0.167388
O O3 0.401029 0.472574 0.234555
O O4 0.299920 0.361418 0.189723
O O5 0.179475 0.250000 0.718049
O O6 0.269224 0.360993 0.657104
O O7 0.223878 0.346596 0.929970
O O8 0.124709 0.381611 0.708690
O O9 0.127975 0.968906 0.196647
O O10 0.367358 0.114440 0.937181
O O11 0.493726 0.068966 0.832624
O O12 0.405041 0.970328 0.963965
O O13 0.171236 0.750000 0.506847
#
# Coordination Sequence:
#
# PCOD8250343 Si02
#       6
#     8   8   8   8   8   8
#     4  10  18  30  48  68  92 120 153 193 231 271
#     4   9  17  30  48  69  92 119 153 190 229 274
#     4  10  18  30  48  70  94 121 155 192 230 272
#     4   9  18  31  48  70  95 124 155 188 229 278
#     4   9  18  32  48  67  92 122 154 190 233 276
#     4   9  17  31  48  69  95 123 156 189 228 275
#
# _framework density 16.789667999999999
#
# number of rings (size 3 to 8) (size 9 to 14) (size 15 to 20)
#    0.000    2.667    0.000    5.000    0.000    2.000 
#    0.000    0.000    0.000    0.000    0.000    9.333 
#    0.000    0.000    0.000    0.000    0.000    0.000 
#
# Total GULP energy -594675.012179 kJ/mol
# GULP energy per Si atom -12389.062754 kJ/mol
# Density = 1.675145 g / cm^3
# Si number density = 16.789668 Si / 1000 Ang^3
#
#
#
# Elastic Constant Matrix: (Units=GPa)
#
#
# Indices 1 2 3 4 5 6 
#
# 1 100.0879 30.5247 27.9900 0.0000 0.0000 0.0000
# 2 30.5247 83.6729 16.7173 0.0000 0.0000 0.0000
# 3 27.9900 16.7173 103.6421 0.0000 0.0000 0.0000
# 4 0.0000 0.0000 0.0000 19.9546 0.0000 0.0000
# 5 0.0000 0.0000 0.0000 0.0000 20.5909 0.0000
# 6 0.0000 0.0000 0.0000 0.0000 0.0000 19.9754
#
#
#
# Elastic Compliance Matrix: (Units=1/GPa)
#
#
# Indices 1 2 3 4 5 6 
#
# 1 0.011880 -0.003816 -0.002593 0.000000 0.000000 0.000000
# 2 -0.003816 0.013575 -0.001159 0.000000 0.000000 0.000000
# 3 -0.002593 -0.001159 0.010536 0.000000 0.000000 0.000000
# 4 0.000000 0.000000 0.000000 0.050114 0.000000 0.000000
# 5 0.000000 0.000000 0.000000 0.000000 0.048565 0.000000
# 6 0.000000 0.000000 0.000000 0.000000 0.000000 0.050062
#
#
# Mechanical properties :
#
#
# Convention : Reuss Voigt Hill
#
# Bulk Modulus (GPa) = 47.94998 48.65190 48.30094
# Shear Modulus (GPa) = 24.17573 26.24889 25.21231
#
# Velocity S-wave (km/s) = 3.79874 3.95827 3.87932
# Velocity P-wave (km/s) = 6.91822 7.06617 6.99259
#
# Compressibility (1/GPa) = 0.02085507
#
# Stress axis : x y z
#
# Youngs Moduli (GPa) = 84.17423 73.66499 94.91455
#
# Poissons Ratio (x) = 0.28110 0.24610
# Poissons Ratio (y) = 0.32120 0.11001
# Poissons Ratio (z) = 0.21825 0.08538
#
# Static dielectric constant tensor:
#      x y z
#    x 3.168170 0.000000 0.000000 
#    y 0.000000 3.166740 0.000000 
#    z 0.000000 0.000000 3.254950 
# 
# 
# High freq. dielectric constant tensor:
#      x y z
#    x 1.638350 0.000000 0.000000 
#    y 0.000000 1.635070 0.000000 
#    z 0.000000 0.000000 1.645100 
# 
# From -- ./inp_files/7784.got.cif
#   From: 2010.03.12/outbox.cif.g09.slc.cpg/sg62_4_cif.got.tgz:7784.got - 2010.04.10 19:12:36.
