data_PCOD8250642
_publ_section_title
;
Structure prediction by ZEFSAII (Michael W. Deem and Ramdas Pophale) SiO2 
 PCOD8250642
Probable space group: P N M A
;
_chemical_formula_sum "Si O2"
_cell_formula_units_Z 64
_cell_length_a 15.296280
_cell_length_b 9.244352
_cell_length_c 23.789625
_cell_angle_alpha 90.000000
_cell_angle_beta 90.000000
_cell_angle_gamma 90.000000
_cell_volume 3363.952811
_symmetry_space_group_name_H-M "P N M A"
_symmetry_group_IT_number 62
_symmetry_cell_setting 'orthorhombic'
loop_
_space_group_symop_operation_xyz
x,y,z
1/2-x,-y,1/2+z
1/2+x,1/2-y,1/2-z
-x,1/2+y,-z
-x,-y,-z
1/2+x,y,1/2-z
1/2-x,1/2+y,1/2+z
x,1/2-y,z
loop_
_atom_site_type_symbol
_atom_site_label
_atom_site_fract_x
_atom_site_fract_y
_atom_site_fract_z
Si Si1 0.745792 0.578955 0.927030
Si Si2 0.343951 0.085748 0.755704
Si Si3 0.643003 0.417025 0.748959
Si Si4 0.388022 0.916901 0.866123
Si Si5 0.099104 0.582717 0.133129
Si Si6 0.415319 0.084188 0.146937
Si Si7 0.744172 0.921743 0.055018
Si Si8 0.904911 0.579075 0.127391
O O1 0.755566 0.750000 0.924573
O O2 0.830376 0.513506 0.897862
O O3 0.657900 0.525022 0.896093
O O4 0.740687 0.524956 0.991037
O O5 0.355469 0.250000 0.778120
O O6 0.244380 0.058964 0.737295
O O7 0.401610 0.057548 0.700321
O O8 0.371694 0.975278 0.803620
O O9 0.615767 0.250000 0.751387
O O10 0.585197 0.496625 0.795246
O O11 0.622286 0.485327 0.687948
O O12 0.359031 0.750000 0.867768
O O13 0.490098 0.934360 0.881604
O O14 0.335159 0.006230 0.911964
O O15 0.118805 0.750000 0.119548
O O16 0.003468 0.533769 0.110894
O O17 0.395891 0.250000 0.161862
O O18 0.733650 0.750000 0.060503
O O19 0.836584 0.976341 0.080666
O O20 0.898244 0.750000 0.132145
#
# Coordination Sequence:
#
# PCOD8250642 Si02
#       8
#     8   8   8   8   8   8   8   8
#     4  10  22  39  58  78 108 149 189 231 279 330
#     4  10  19  34  58  85 112 144 182 222 273 336
#     4  10  18  33  59  85 108 142 184 223 268 329
#     4  11  23  37  56  83 114 146 181 229 283 329
#     4  10  20  35  57  84 112 142 179 226 275 327
#     4  10  22  38  54  80 116 147 179 226 282 334
#     4  10  21  40  60  78 106 149 193 231 277 330
#     4   9  18  34  56  81 110 141 178 227 275 325
#
# _framework density 19.025237000000001
#
# number of rings (size 3 to 8) (size 9 to 14) (size 15 to 20)
#    0.000    2.000    2.500    1.125    0.000    4.500 
#    0.000    1.250    0.000    0.000    0.000    0.000 
#    0.000    0.000    0.000    0.000    0.000    0.000 
#
# Total GULP energy -793729.662212 kJ/mol
# GULP energy per Si atom -12402.025972 kJ/mol
# Density = 1.898193 g / cm^3
# Si number density = 19.025237 Si / 1000 Ang^3
#
#
#
# Elastic Constant Matrix: (Units=GPa)
#
#
# Indices 1 2 3 4 5 6 
#
# 1 103.8879 28.5879 48.0575 0.0000 0.0000 0.0000
# 2 28.5879 39.0316 34.4717 0.0000 0.0000 0.0000
# 3 48.0575 34.4717 115.7581 0.0000 0.0000 0.0000
# 4 0.0000 0.0000 0.0000 26.8717 0.0000 0.0000
# 5 0.0000 0.0000 0.0000 0.0000 13.9506 0.0000
# 6 0.0000 0.0000 0.0000 0.0000 0.0000 26.3909
#
#
#
# Elastic Compliance Matrix: (Units=1/GPa)
#
#
# Indices 1 2 3 4 5 6 
#
# 1 0.013012 -0.006458 -0.003479 0.000000 0.000000 0.000000
# 2 -0.006458 0.037968 -0.008626 0.000000 0.000000 0.000000
# 3 -0.003479 -0.008626 0.012652 0.000000 0.000000 0.000000
# 4 0.000000 0.000000 0.000000 0.037214 0.000000 0.000000
# 5 0.000000 0.000000 0.000000 0.000000 0.071682 0.000000
# 6 0.000000 0.000000 0.000000 0.000000 0.000000 0.037892
#
#
# Mechanical properties :
#
#
# Convention : Reuss Voigt Hill
#
# Bulk Modulus (GPa) = 37.72584 53.43465 45.58024
# Shear Modulus (GPa) = 19.50231 23.28000 21.39116
#
# Velocity S-wave (km/s) = 3.20515 3.50185 3.35678
# Velocity P-wave (km/s) = 5.79394 6.67066 6.24770
#
# Compressibility (1/GPa) = 0.02650703
#
# Stress axis : x y z
#
# Youngs Moduli (GPa) = 76.85100 26.33787 79.04141
#
# Poissons Ratio (x) = 0.17009 0.27498
# Poissons Ratio (y) = 0.49631 0.68177
# Poissons Ratio (z) = 0.26736 0.22718
#
# Static dielectric constant tensor:
#      x y z
#    x 3.655460 0.000000 0.000000 
#    y 0.000000 3.274470 0.000000 
#    z 0.000000 0.000000 3.504380 
# 
# 
# High freq. dielectric constant tensor:
#      x y z
#    x 1.755420 0.000000 0.000000 
#    y 0.000000 1.716930 0.000000 
#    z 0.000000 0.000000 1.735000 
# 
# From -- ./inp_files/29876.got.cif
#   From: 2010.03.12/outbox.cif.g09.slc.cpg/sg62_15_cif.got.tgz:29876.got - 2010.04.10 19:12:36.
