data_PCOD8250998
_publ_section_title
;
Structure prediction by ZEFSAII (Michael W. Deem and Ramdas Pophale) SiO2 
 PCOD8250998
Probable space group: P N M A
;
_chemical_formula_sum "Si O2"
_cell_formula_units_Z 56
_cell_length_a 21.740383
_cell_length_b 8.946801
_cell_length_c 15.408489
_cell_angle_alpha 90.000000
_cell_angle_beta 90.000000
_cell_angle_gamma 90.000000
_cell_volume 2997.057127
_symmetry_space_group_name_H-M "P N M A"
_symmetry_group_IT_number 62
_symmetry_cell_setting 'orthorhombic'
loop_
_space_group_symop_operation_xyz
x,y,z
1/2-x,-y,1/2+z
1/2+x,1/2-y,1/2-z
-x,1/2+y,-z
-x,-y,-z
1/2+x,y,1/2-z
1/2-x,1/2+y,1/2+z
x,1/2-y,z
loop_
_atom_site_type_symbol
_atom_site_label
_atom_site_fract_x
_atom_site_fract_y
_atom_site_fract_z
Si Si1 0.478522 0.918473 0.627786
Si Si2 0.316764 0.425829 0.049350
Si Si3 0.943059 0.581688 0.256223
Si Si4 0.713039 0.072975 0.586018
Si Si5 0.316061 0.073892 0.246294
Si Si6 0.596229 0.918870 0.505468
Si Si7 0.943357 0.917271 0.458285
O O1 0.459850 0.750000 0.653739
O O2 0.535870 0.918046 0.563537
O O3 0.496235 0.012568 0.712741
O O4 0.419510 0.997823 0.584550
O O5 0.327731 0.250000 0.046225
O O6 0.297436 0.472944 0.147904
O O7 0.379651 0.501937 0.019478
O O8 0.264730 0.478887 0.982409
O O9 0.930611 0.750000 0.221292
O O10 0.885396 0.477314 0.233926
O O11 0.956338 0.584242 0.357011
O O12 0.710014 0.250000 0.592561
O O13 0.727620 0.006364 0.682225
O O14 0.648400 0.010626 0.553981
O O15 0.311713 0.250000 0.260450
O O16 0.618565 0.750000 0.486556
O O17 0.939376 0.750000 0.495653
O O18 0.000000 0.000000 0.500000
#
# Coordination Sequence:
#
# PCOD8250998 Si02
#       7
#     8   8   8   8   8   8   8
#     4  10  19  31  49  76 108 142 179 218 264 311
#     4   9  21  39  58  81 111 145 183 225 272 329
#     4  10  19  32  53  80 108 139 180 224 268 323
#     4  11  21  35  56  81 110 146 184 226 275 326
#     4  10  19  34  55  79 106 141 184 227 270 324
#     4  10  20  32  49  75 109 145 179 216 261 314
#     4  10  21  37  59  84 108 139 178 225 276 323
#
# _framework density 18.684995000000001
#
# number of rings (size 3 to 8) (size 9 to 14) (size 15 to 20)
#    0.000    2.000    1.429    2.571    0.000    4.571 
#    0.000    1.429    0.000    3.429    0.000    0.000 
#    0.000    0.000    0.000    0.000    0.000    0.000 
#
# Total GULP energy -694404.050086 kJ/mol
# GULP energy per Si atom -12400.072323 kJ/mol
# Density = 1.864247 g / cm^3
# Si number density = 18.684995 Si / 1000 Ang^3
#
#
#
# Elastic Constant Matrix: (Units=GPa)
#
#
# Indices 1 2 3 4 5 6 
#
# 1 61.2668 35.9340 53.9000 0.0000 0.0000 0.0000
# 2 35.9340 95.8006 46.1747 0.0000 0.0000 0.0000
# 3 53.9000 46.1747 93.7413 0.0000 0.0000 0.0000
# 4 0.0000 0.0000 0.0000 32.6809 0.0000 0.0000
# 5 0.0000 0.0000 0.0000 0.0000 36.1460 0.0000
# 6 0.0000 0.0000 0.0000 0.0000 0.0000 26.4263
#
#
#
# Elastic Compliance Matrix: (Units=1/GPa)
#
#
# Indices 1 2 3 4 5 6 
#
# 1 0.034400 -0.004419 -0.017603 0.000000 0.000000 0.000000
# 2 -0.004419 0.014256 -0.004481 0.000000 0.000000 0.000000
# 3 -0.017603 -0.004481 0.022997 0.000000 0.000000 0.000000
# 4 0.000000 0.000000 0.000000 0.030599 0.000000 0.000000
# 5 0.000000 0.000000 0.000000 0.000000 0.027666 0.000000
# 6 0.000000 0.000000 0.000000 0.000000 0.000000 0.037841
#
#
# Mechanical properties :
#
#
# Convention : Reuss Voigt Hill
#
# Bulk Modulus (GPa) = 53.63018 58.09180 55.86099
# Shear Modulus (GPa) = 22.02835 26.70394 24.36614
#
# Velocity S-wave (km/s) = 3.43728 3.78453 3.61508
# Velocity P-wave (km/s) = 6.67217 7.08904 6.88376
#
# Compressibility (1/GPa) = 0.01864622
#
# Stress axis : x y z
#
# Youngs Moduli (GPa) = 29.06951 70.14725 43.48463
#
# Poissons Ratio (x) = 0.30996 0.76547
# Poissons Ratio (y) = 0.12845 0.19487
# Poissons Ratio (z) = 0.51172 0.31435
#
# Static dielectric constant tensor:
#      x y z
#    x 3.220500 0.000000 0.000000 
#    y 0.000000 3.716550 0.000000 
#    z 0.000000 0.000000 3.779440 
# 
# 
# High freq. dielectric constant tensor:
#      x y z
#    x 1.693980 0.000000 0.000000 
#    y 0.000000 1.742300 0.000000 
#    z 0.000000 0.000000 1.726410 
# 
# From -- ./inp_files/20285.got.cif
#   From: 2010.03.12/outbox.cif.g09.slc.cpg/sg62_11_cif.got.tgz:20285.got - 2010.04.10 19:12:36.
