data_PCOD8250670
_publ_section_title
;
Structure prediction by ZEFSAII (Michael W. Deem and Ramdas Pophale) SiO2 
 PCOD8250670
Probable space group: P N M A
;
_chemical_formula_sum "Si O2"
_cell_formula_units_Z 64
_cell_length_a 19.150038
_cell_length_b 8.905949
_cell_length_c 20.673206
_cell_angle_alpha 90.000000
_cell_angle_beta 90.000000
_cell_angle_gamma 90.000000
_cell_volume 3525.800022
_symmetry_space_group_name_H-M "P N M A"
_symmetry_group_IT_number 62
_symmetry_cell_setting 'orthorhombic'
loop_
_space_group_symop_operation_xyz
x,y,z
1/2-x,-y,1/2+z
1/2+x,1/2-y,1/2-z
-x,1/2+y,-z
-x,-y,-z
1/2+x,y,1/2-z
1/2-x,1/2+y,1/2+z
x,1/2-y,z
loop_
_atom_site_type_symbol
_atom_site_label
_atom_site_fract_x
_atom_site_fract_y
_atom_site_fract_z
Si Si1 0.816044 0.922638 0.240664
Si Si2 0.675207 0.425185 0.240537
Si Si3 0.538294 0.072495 0.689727
Si Si4 0.954673 0.428359 0.688584
Si Si5 0.326707 0.573146 0.610440
Si Si6 0.683282 0.077298 0.890624
Si Si7 0.537254 0.571044 0.438864
Si Si8 0.034065 0.072414 0.562175
O O1 0.795564 0.750000 0.227670
O O2 0.880942 0.974583 0.196465
O O3 0.836381 0.945192 0.315546
O O4 0.752790 0.028538 0.219832
O O5 0.665394 0.250000 0.231053
O O6 0.623879 0.510844 0.192015
O O7 0.661665 0.474004 0.314870
O O8 0.531733 0.250000 0.693380
O O9 0.495216 0.003632 0.749539
O O10 0.506769 0.012562 0.622797
O O11 0.953982 0.250000 0.689631
O O12 0.991646 0.488514 0.624054
O O13 0.333934 0.750000 0.599929
O O14 0.249401 0.522699 0.588234
O O15 0.383645 0.488512 0.566721
O O16 0.702360 0.250000 0.904406
O O17 0.615569 0.026120 0.931662
O O18 0.500000 0.500000 0.500000
O O19 0.538030 0.750000 0.444503
O O20 0.027490 0.250000 0.557494
O O21 0.000000 0.000000 0.500000
#
# Coordination Sequence:
#
# PCOD8250670 Si02
#       8
#     8   8   8   8   8   8   8   8
#     4   9  16  31  55  80 104 135 179 226 267 316
#     4  10  20  32  49  81 116 141 171 221 278 325
#     4   9  17  32  57  82 102 132 180 225 262 312
#     4  10  18  34  57  80 104 139 184 223 261 318
#     4  10  20  34  53  80 111 141 178 222 269 327
#     4   9  17  32  55  80 105 138 179 223 268 319
#     4  11  22  37  57  81 111 146 183 226 274 325
#     4  10  21  36  56  82 113 145 183 227 273 326
#
# _framework density 18.151909
#
# number of rings (size 3 to 8) (size 9 to 14) (size 15 to 20)
#    0.000    2.250    2.500    1.125    0.000    2.000 
#    0.000    3.125    0.000    1.500    0.000    0.000 
#    0.000    0.000    0.000    0.000    0.000    0.000 
#
# Total GULP energy -793656.046442 kJ/mol
# GULP energy per Si atom -12400.875726 kJ/mol
# Density = 1.811059 g / cm^3
# Si number density = 18.151909 Si / 1000 Ang^3
#
#
#
# Elastic Constant Matrix: (Units=GPa)
#
#
# Indices 1 2 3 4 5 6 
#
# 1 139.5714 38.6216 74.3043 0.0000 0.0000 0.0000
# 2 38.6216 47.7178 35.9164 0.0000 0.0000 0.0000
# 3 74.3043 35.9164 111.3330 0.0000 0.0000 0.0000
# 4 0.0000 0.0000 0.0000 25.5001 0.0000 0.0000
# 5 0.0000 0.0000 0.0000 0.0000 31.5900 0.0000
# 6 0.0000 0.0000 0.0000 0.0000 0.0000 24.8410
#
#
#
# Elastic Compliance Matrix: (Units=1/GPa)
#
#
# Indices 1 2 3 4 5 6 
#
# 1 0.011899 -0.004825 -0.006385 0.000000 0.000000 0.000000
# 2 -0.004825 0.029633 -0.006340 0.000000 0.000000 0.000000
# 3 -0.006385 -0.006340 0.015289 0.000000 0.000000 0.000000
# 4 0.000000 0.000000 0.000000 0.039216 0.000000 0.000000
# 5 0.000000 0.000000 0.000000 0.000000 0.031656 0.000000
# 6 0.000000 0.000000 0.000000 0.000000 0.000000 0.040256
#
#
# Mechanical properties :
#
#
# Convention : Reuss Voigt Hill
#
# Bulk Modulus (GPa) = 46.03624 66.25630 56.14627
# Shear Modulus (GPa) = 23.77688 26.37155 25.07421
#
# Velocity S-wave (km/s) = 3.62316 3.81573 3.72069
# Velocity P-wave (km/s) = 6.55132 7.48287 7.03253
#
# Compressibility (1/GPa) = 0.02172202
#
# Stress axis : x y z
#
# Youngs Moduli (GPa) = 84.03952 33.74564 65.40797
#
# Poissons Ratio (x) = 0.16282 0.41763
# Poissons Ratio (y) = 0.40549 0.41466
# Poissons Ratio (z) = 0.53659 0.21394
#
# Static dielectric constant tensor:
#      x y z
#    x 3.464370 0.000000 0.000000 
#    y 0.000000 3.127300 0.000000 
#    z 0.000000 0.000000 3.245980 
# 
# 
# High freq. dielectric constant tensor:
#      x y z
#    x 1.718470 0.000000 0.000000 
#    y 0.000000 1.688540 0.000000 
#    z 0.000000 0.000000 1.676670 
# 
# From -- ./inp_files/27710.got.cif
#   From: 2010.03.12/outbox.cif.g09.slc.cpg/sg62_14_cif.got.tgz:27710.got - 2010.04.10 19:12:36.
