data_PCOD8250636
_publ_section_title
;
Structure prediction by ZEFSAII (Michael W. Deem and Ramdas Pophale) SiO2 
 PCOD8250636
Probable space group: P N M A
;
_chemical_formula_sum "Si O2"
_cell_formula_units_Z 64
_cell_length_a 23.840776
_cell_length_b 8.896184
_cell_length_c 15.449523
_cell_angle_alpha 90.000000
_cell_angle_beta 90.000000
_cell_angle_gamma 90.000000
_cell_volume 3276.719151
_symmetry_space_group_name_H-M "P N M A"
_symmetry_group_IT_number 62
_symmetry_cell_setting 'orthorhombic'
loop_
_space_group_symop_operation_xyz
x,y,z
1/2-x,-y,1/2+z
1/2+x,1/2-y,1/2-z
-x,1/2+y,-z
-x,-y,-z
1/2+x,y,1/2-z
1/2-x,1/2+y,1/2+z
x,1/2-y,z
loop_
_atom_site_type_symbol
_atom_site_label
_atom_site_fract_x
_atom_site_fract_y
_atom_site_fract_z
Si Si1 0.933962 0.071864 0.743193
Si Si2 0.627847 0.071845 0.083919
Si Si3 0.872516 0.425337 0.406795
Si Si4 0.253312 0.928666 0.850815
Si Si5 0.142599 0.925480 0.099105
Si Si6 0.751707 0.072038 0.344022
Si Si7 0.134296 0.574016 0.908028
Si Si8 0.552819 0.926459 0.740711
O O1 0.930843 0.250000 0.733810
O O2 0.896883 0.013871 0.824351
O O3 0.912649 0.996030 0.655983
O O4 0.996792 0.022079 0.761298
O O5 0.623103 0.250000 0.089385
O O6 0.691626 0.013572 0.098486
O O7 0.606753 0.015624 0.990795
O O8 0.871034 0.250000 0.429309
O O9 0.811219 0.484799 0.379723
O O10 0.915312 0.459361 0.329808
O O11 0.252544 0.750000 0.851794
O O12 0.256592 0.989253 0.753021
O O13 0.196666 0.994820 0.893723
O O14 0.153857 0.750000 0.109681
O O15 0.202565 0.005767 0.097527
O O16 0.114028 0.960677 0.005903
O O17 0.748906 0.250000 0.345857
O O18 0.138794 0.750000 0.889293
O O19 0.090004 0.509602 0.839024
O O20 0.539366 0.750000 0.730442
#
# Coordination Sequence:
#
# PCOD8250636 Si02
#       8
#     8   8   8   8   8   8   8   8
#     4  11  24  40  56  80 116 151 187 241 293 328
#     4  11  22  37  61  87 113 150 193 230 274 341
#     4  10  21  37  59  87 117 146 182 232 288 333
#     4   9  16  30  56  86 113 143 181 223 268 328
#     4  10  21  36  57  85 117 151 186 229 283 334
#     4  10  18  33  58  86 117 149 182 225 277 337
#     4   9  17  34  59  85 112 146 187 226 272 335
#     4  10  21  39  62  82 105 148 197 234 273 335
#
# _framework density 19.531732000000002
#
# number of rings (size 3 to 8) (size 9 to 14) (size 15 to 20)
#    0.000    2.000    2.500    1.500    0.000    3.500 
#    0.000    0.625    0.000    1.500    0.000    0.000 
#    0.000    0.000    0.000    0.000    0.000    0.000 
#
# Total GULP energy -793661.750656 kJ/mol
# GULP energy per Si atom -12400.964854 kJ/mol
# Density = 1.948728 g / cm^3
# Si number density = 19.531732 Si / 1000 Ang^3
#
#
#
# Elastic Constant Matrix: (Units=GPa)
#
#
# Indices 1 2 3 4 5 6 
#
# 1 105.7011 22.4279 31.0096 0.0000 0.0000 0.0000
# 2 22.4279 34.8406 24.8139 0.0000 0.0000 0.0000
# 3 31.0096 24.8139 118.1052 0.0000 0.0000 0.0000
# 4 0.0000 0.0000 0.0000 19.3935 0.0000 0.0000
# 5 0.0000 0.0000 0.0000 0.0000 16.0933 0.0000
# 6 0.0000 0.0000 0.0000 0.0000 0.0000 27.1735
#
#
#
# Elastic Compliance Matrix: (Units=1/GPa)
#
#
# Indices 1 2 3 4 5 6 
#
# 1 0.011234 -0.006034 -0.001682 0.000000 0.000000 0.000000
# 2 -0.006034 0.036994 -0.006188 0.000000 0.000000 0.000000
# 3 -0.001682 -0.006188 0.010209 0.000000 0.000000 0.000000
# 4 0.000000 0.000000 0.000000 0.051564 0.000000 0.000000
# 5 0.000000 0.000000 0.000000 0.000000 0.062138 0.000000
# 6 0.000000 0.000000 0.000000 0.000000 0.000000 0.036801
#
#
# Mechanical properties :
#
#
# Convention : Reuss Voigt Hill
#
# Bulk Modulus (GPa) = 32.64910 46.12774 39.38842
# Shear Modulus (GPa) = 20.24650 24.55842 22.40246
#
# Velocity S-wave (km/s) = 3.22311 3.54977 3.39038
# Velocity P-wave (km/s) = 5.53204 6.36155 5.96124
#
# Compressibility (1/GPa) = 0.03062872
#
# Stress axis : x y z
#
# Youngs Moduli (GPa) = 89.01254 27.03170 97.95506
#
# Poissons Ratio (x) = 0.16311 0.16476
# Poissons Ratio (y) = 0.53710 0.60616
# Poissons Ratio (z) = 0.14971 0.16727
#
# Static dielectric constant tensor:
#      x y z
#    x 3.605870 0.000000 0.000000 
#    y 0.000000 3.183110 0.000000 
#    z 0.000000 0.000000 3.724750 
# 
# 
# High freq. dielectric constant tensor:
#      x y z
#    x 1.760860 0.000000 0.000000 
#    y 0.000000 1.727610 0.000000 
#    z 0.000000 0.000000 1.777530 
# 
# From -- ./inp_files/20945.got.cif
#   From: 2010.03.12/outbox.cif.g09.slc.cpg/sg62_11_cif.got.tgz:20945.got - 2010.04.10 19:12:36.
