data_PCOD8250511
_publ_section_title
;
Structure prediction by ZEFSAII (Michael W. Deem and Ramdas Pophale) SiO2 
 PCOD8250511
Probable space group: P N M A
;
_chemical_formula_sum "Si O2"
_cell_formula_units_Z 48
_cell_length_a 5.146214
_cell_length_b 23.523145
_cell_length_c 25.948379
_cell_angle_alpha 90.000000
_cell_angle_beta 90.000000
_cell_angle_gamma 90.000000
_cell_volume 3141.184604
_symmetry_space_group_name_H-M "P N M A"
_symmetry_group_IT_number 62
_symmetry_cell_setting 'orthorhombic'
loop_
_space_group_symop_operation_xyz
x,y,z
1/2-x,-y,1/2+z
1/2+x,1/2-y,1/2-z
-x,1/2+y,-z
-x,-y,-z
1/2+x,y,1/2-z
1/2-x,1/2+y,1/2+z
x,1/2-y,z
loop_
_atom_site_type_symbol
_atom_site_label
_atom_site_fract_x
_atom_site_fract_y
_atom_site_fract_z
Si Si1 0.349575 0.185744 0.850677
Si Si2 0.716811 0.986271 0.112329
Si Si3 0.654234 0.920913 0.216306
Si Si4 0.538097 0.081586 0.528622
Si Si5 0.844314 0.186122 0.917425
Si Si6 0.291819 0.524918 0.566317
O O1 0.401537 0.250000 0.831155
O O2 0.364030 0.144311 0.801926
O O3 0.568936 0.169135 0.892551
O O4 0.063322 0.180370 0.874002
O O5 0.651847 0.964044 0.168684
O O6 0.753386 0.931477 0.074459
O O7 0.485107 0.027271 0.093748
O O8 0.980819 0.023967 0.109997
O O9 0.411290 0.933826 0.251982
O O10 0.409266 0.143403 0.535851
O O11 0.673832 0.078548 0.472351
O O12 0.312996 0.032932 0.531572
O O13 0.836314 0.250000 0.940160
#
# Coordination Sequence:
#
# PCOD8250511 Si02
#       6
#     8   8   8   8   8   8
#     4  10  20  34  45  57  79 112 151 192 226 250
#     4  10  18  32  42  63  86 104 136 186 213 262
#     4  12  23  32  46  61  80 115 149 186 232 259
#     4   9  18  27  49  65  86 105 142 176 216 263
#     4  10  19  30  47  64  86 116 141 179 227 259
#     4   9  18  27  48  67  82 106 135 181 221 252
#
# _framework density 15.280859
#
# number of rings (size 3 to 8) (size 9 to 14) (size 15 to 20)
#    1.000    1.000    1.667    3.500    0.000    0.667 
#    0.000    0.000    0.000    0.000    0.000    0.000 
#    0.000    0.000    0.000    0.000    0.000   16.667 
#
# Total GULP energy -594931.592979 kJ/mol
# GULP energy per Si atom -12394.408187 kJ/mol
# Density = 1.524608 g / cm^3
# Si number density = 15.280859 Si / 1000 Ang^3
#
#
#
# Elastic Constant Matrix: (Units=GPa)
#
#
# Indices 1 2 3 4 5 6 
#
# 1 81.1066 11.3038 19.9461 0.0000 0.0000 0.0000
# 2 11.3038 34.8970 33.6478 0.0000 0.0000 0.0000
# 3 19.9461 33.6478 76.6816 0.0000 0.0000 0.0000
# 4 0.0000 0.0000 0.0000 30.1427 0.0000 0.0000
# 5 0.0000 0.0000 0.0000 0.0000 24.4008 0.0000
# 6 0.0000 0.0000 0.0000 0.0000 0.0000 13.4984
#
#
#
# Elastic Compliance Matrix: (Units=1/GPa)
#
#
# Indices 1 2 3 4 5 6 
#
# 1 0.013228 -0.001677 -0.002705 0.000000 0.000000 0.000000
# 2 -0.001677 0.049884 -0.021453 0.000000 0.000000 0.000000
# 3 -0.002705 -0.021453 0.023158 0.000000 0.000000 0.000000
# 4 0.000000 0.000000 0.000000 0.033176 0.000000 0.000000
# 5 0.000000 0.000000 0.000000 0.000000 0.040982 0.000000
# 6 0.000000 0.000000 0.000000 0.000000 0.000000 0.074083
#
#
# Mechanical properties :
#
#
# Convention : Reuss Voigt Hill
#
# Bulk Modulus (GPa) = 28.90089 35.83116 32.36602
# Shear Modulus (GPa) = 16.79466 22.12754 19.46110
#
# Velocity S-wave (km/s) = 3.31881 3.80946 3.57257
# Velocity P-wave (km/s) = 5.80002 6.54589 6.18421
#
# Compressibility (1/GPa) = 0.03460102
#
# Stress axis : x y z
#
# Youngs Moduli (GPa) = 75.59499 20.04662 43.18145
#
# Poissons Ratio (x) = 0.03361 0.11682
# Poissons Ratio (y) = 0.12674 0.92636
# Poissons Ratio (z) = 0.20450 0.43006
#
# Static dielectric constant tensor:
#      x y z
#    x 3.028360 0.000000 0.000000 
#    y 0.000000 2.713470 0.000000 
#    z 0.000000 0.000000 2.704480 
# 
# 
# High freq. dielectric constant tensor:
#      x y z
#    x 1.606450 0.000000 0.000000 
#    y 0.000000 1.543640 0.000000 
#    z 0.000000 0.000000 1.555180 
# 
# From -- ./inp_files/28366.got.cif
#   From: 2010.03.12/outbox.cif.g09.slc.cpg/sg62_15_cif.got.tgz:28366.got - 2010.04.10 19:12:36.
