data_PCOD8250566
_publ_section_title
;
Structure prediction by ZEFSAII (Michael W. Deem and Ramdas Pophale) SiO2 
 PCOD8250566
Probable space group: P N M A
;
_chemical_formula_sum "Si O2"
_cell_formula_units_Z 56
_cell_length_a 19.539789
_cell_length_b 8.854043
_cell_length_c 16.312482
_cell_angle_alpha 90.000000
_cell_angle_beta 90.000000
_cell_angle_gamma 90.000000
_cell_volume 2822.159414
_symmetry_space_group_name_H-M "P N M A"
_symmetry_group_IT_number 62
_symmetry_cell_setting 'orthorhombic'
loop_
_space_group_symop_operation_xyz
x,y,z
1/2-x,-y,1/2+z
1/2+x,1/2-y,1/2-z
-x,1/2+y,-z
-x,-y,-z
1/2+x,y,1/2-z
1/2-x,1/2+y,1/2+z
x,1/2-y,z
loop_
_atom_site_type_symbol
_atom_site_label
_atom_site_fract_x
_atom_site_fract_y
_atom_site_fract_z
Si Si1 0.894758 0.070122 0.717048
Si Si2 0.028829 0.914624 0.121404
Si Si3 0.380446 0.070769 0.203925
Si Si4 0.994702 0.930862 0.590400
Si Si5 0.169239 0.917284 0.037452
Si Si6 0.726080 0.073439 0.311414
Si Si7 0.601528 0.572711 0.616422
O O1 0.890396 0.250000 0.705363
O O2 0.943684 0.021129 0.791679
O O3 0.818304 0.011428 0.741189
O O4 0.925831 0.993186 0.635130
O O5 0.995903 0.750000 0.136192
O O6 0.089802 0.899383 0.057922
O O7 0.972391 0.024012 0.082418
O O8 0.384290 0.250000 0.205435
O O9 0.437375 0.012656 0.139351
O O10 0.303949 0.015937 0.184193
O O11 0.393604 0.999668 0.293489
O O12 0.990203 0.750000 0.585407
O O13 0.000000 0.000000 0.500000
O O14 0.204122 0.750000 0.045821
O O15 0.202373 0.040031 0.096029
O O16 0.165199 0.976664 0.942981
O O17 0.720174 0.250000 0.292661
O O18 0.605086 0.750000 0.623027
#
# Coordination Sequence:
#
# PCOD8250566 Si02
#       7
#     8   8   8   8   8   8   8
#     4  10  20  37  59  86 117 149 191 241 291 349
#     4   9  17  29  48  78 112 138 171 219 268 326
#     4   9  20  38  59  83 115 150 192 245 295 347
#     4  11  22  40  64  90 119 155 201 252 304 357
#     4   9  19  33  50  77 112 144 181 229 279 337
#     4  10  20  37  59  81 113 155 196 239 293 353
#     4  10  18  32  54  78 107 143 180 223 281 339
#
# _framework density 19.842960999999999
#
# number of rings (size 3 to 8) (size 9 to 14) (size 15 to 20)
#    0.000    2.286    1.429    2.571    0.000    2.857 
#    2.571    4.286    0.000    0.000    0.000    0.000 
#    0.000    0.000    0.000    0.000    0.000    0.000 
#
# Total GULP energy -693816.307291 kJ/mol
# GULP energy per Si atom -12389.576916 kJ/mol
# Density = 1.979780 g / cm^3
# Si number density = 19.842961 Si / 1000 Ang^3
#
#
#
# Elastic Constant Matrix: (Units=GPa)
#
#
# Indices 1 2 3 4 5 6 
#
# 1 102.3341 28.2605 40.0365 0.0000 0.0000 0.0000
# 2 28.2605 55.0836 29.3689 0.0000 0.0000 0.0000
# 3 40.0365 29.3689 114.9140 0.0000 0.0000 0.0000
# 4 0.0000 0.0000 0.0000 29.5132 0.0000 0.0000
# 5 0.0000 0.0000 0.0000 0.0000 13.4155 0.0000
# 6 0.0000 0.0000 0.0000 0.0000 0.0000 15.5713
#
#
#
# Elastic Compliance Matrix: (Units=1/GPa)
#
#
# Indices 1 2 3 4 5 6 
#
# 1 0.012262 -0.004646 -0.003085 0.000000 0.000000 0.000000
# 2 -0.004646 0.022779 -0.004203 0.000000 0.000000 0.000000
# 3 -0.003085 -0.004203 0.010851 0.000000 0.000000 0.000000
# 4 0.000000 0.000000 0.000000 0.033883 0.000000 0.000000
# 5 0.000000 0.000000 0.000000 0.000000 0.074541 0.000000
# 6 0.000000 0.000000 0.000000 0.000000 0.000000 0.064221
#
#
# Mechanical properties :
#
#
# Convention : Reuss Voigt Hill
#
# Bulk Modulus (GPa) = 45.40476 51.96263 48.68370
# Shear Modulus (GPa) = 20.02040 23.34437 21.68239
#
# Velocity S-wave (km/s) = 3.17983 3.43367 3.30919
# Velocity P-wave (km/s) = 6.03436 6.47796 6.26009
#
# Compressibility (1/GPa) = 0.02202412
#
# Stress axis : x y z
#
# Youngs Moduli (GPa) = 81.55382 43.90039 92.15747
#
# Poissons Ratio (x) = 0.20397 0.28427
# Poissons Ratio (y) = 0.37892 0.38733
# Poissons Ratio (z) = 0.25156 0.18451
#
# Static dielectric constant tensor:
#      x y z
#    x 3.567950 0.000000 0.000000 
#    y 0.000000 3.404790 0.000000 
#    z 0.000000 0.000000 3.924530 
# 
# 
# High freq. dielectric constant tensor:
#      x y z
#    x 1.757940 0.000000 0.000000 
#    y 0.000000 1.758160 0.000000 
#    z 0.000000 0.000000 1.780330 
# 
# From -- ./inp_files/20400.got.cif
#   From: 2010.03.12/outbox.cif.g09.slc.cpg/sg62_11_cif.got.tgz:20400.got - 2010.04.10 19:12:36.
