data_PCOD8250512
_publ_section_title
;
Structure prediction by ZEFSAII (Michael W. Deem and Ramdas Pophale) SiO2 
 PCOD8250512
Probable space group: P N M A
;
_chemical_formula_sum "Si O2"
_cell_formula_units_Z 52
_cell_length_a 5.223142
_cell_length_b 31.142122
_cell_length_c 15.230044
_cell_angle_alpha 90.000000
_cell_angle_beta 90.000000
_cell_angle_gamma 90.000000
_cell_volume 2477.314775
_symmetry_space_group_name_H-M "P N M A"
_symmetry_group_IT_number 62
_symmetry_cell_setting 'orthorhombic'
loop_
_space_group_symop_operation_xyz
x,y,z
1/2-x,-y,1/2+z
1/2+x,1/2-y,1/2-z
-x,1/2+y,-z
-x,-y,-z
1/2+x,y,1/2-z
1/2-x,1/2+y,1/2+z
x,1/2-y,z
loop_
_atom_site_type_symbol
_atom_site_label
_atom_site_fract_x
_atom_site_fract_y
_atom_site_fract_z
Si Si1 0.255134 0.117916 0.154480
Si Si2 0.749822 0.478453 0.389551
Si Si3 0.703781 0.385706 0.693079
Si Si4 0.693419 0.795637 0.194129
Si Si5 0.212166 0.750000 0.805953
Si Si6 0.755116 0.344528 0.148903
Si Si7 0.250651 0.471802 0.902733
O O1 0.254203 0.066550 0.162017
O O2 0.258730 0.140457 0.249595
O O3 0.506106 0.134741 0.102570
O O4 0.005095 0.135026 0.102496
O O5 0.494658 0.503920 0.362206
O O6 0.751938 0.471315 0.493053
O O7 0.998867 0.505570 0.361822
O O8 0.415782 0.389243 0.730007
O O9 0.747138 0.339861 0.641776
O O10 0.748076 0.422373 0.622589
O O11 0.399854 0.796625 0.226345
O O12 0.733712 0.750000 0.141933
O O13 0.423445 0.750000 0.729668
O O14 0.249610 0.793057 0.863011
#
# Coordination Sequence:
#
# PCOD8250512 Si02
#       7
#     8   8   8   8   4   8   8
#     4  10  18  32  45  71  96 127 162 218 240 294
#     4  10  21  37  55  66 100 137 184 201 241 303
#     4  10  19  33  50  77 107 123 158 207 256 294
#     4   8  14  25  44  69  96 122 148 180 233 296
#     4  12  16  30  48  70 104 142 156 212 250 308
#     4  10  19  30  48  75 104 123 173 203 257 292
#     4  10  21  38  52  73  95 139 173 207 244 308
#
# _framework density 20.990468
#
# number of rings (size 3 to 8) (size 9 to 14) (size 15 to 20)
#    0.000    2.154    3.077    1.846    0.000    0.000 
#   16.615    0.000    0.000    0.000    6.000    0.000 
#    4.615    0.000    0.000    0.000    0.000    0.000 
#
# Total GULP energy -644216.604322 kJ/mol
# GULP energy per Si atom -12388.780852 kJ/mol
# Density = 2.094269 g / cm^3
# Si number density = 20.990468 Si / 1000 Ang^3
#
#
#
# Elastic Constant Matrix: (Units=GPa)
#
#
# Indices 1 2 3 4 5 6 
#
# 1 179.2586 55.7715 4.0046 0.0000 0.0000 0.0000
# 2 55.7715 224.0990 14.0965 0.0000 0.0000 0.0000
# 3 4.0046 14.0965 4.7806 0.0000 0.0000 0.0000
# 4 0.0000 0.0000 0.0000 6.9318 0.0000 0.0000
# 5 0.0000 0.0000 0.0000 0.0000 3.8863 0.0000
# 6 0.0000 0.0000 0.0000 0.0000 0.0000 37.4387
#
#
#
# Elastic Compliance Matrix: (Units=1/GPa)
#
#
# Indices 1 2 3 4 5 6 
#
# 1 0.006049 -0.001457 -0.000771 0.000000 0.000000 0.000000
# 2 -0.001457 0.005829 -0.015969 0.000000 0.000000 0.000000
# 3 -0.000771 -0.015969 0.256913 0.000000 0.000000 0.000000
# 4 0.000000 0.000000 0.000000 0.144263 0.000000 0.000000
# 5 0.000000 0.000000 0.000000 0.000000 0.257311 0.000000
# 6 0.000000 0.000000 0.000000 0.000000 0.000000 0.026710
#
#
# Mechanical properties :
#
#
# Convention : Reuss Voigt Hill
#
# Bulk Modulus (GPa) = 4.30297 61.76483 33.03390
# Shear Modulus (GPa) = 6.16573 31.93574 19.05073
#
# Velocity S-wave (km/s) = 1.71574 3.90480 3.01589
# Velocity P-wave (km/s) = 2.44529 7.05826 5.28197
#
# Compressibility (1/GPa) = 0.23239786
#
# Stress axis : x y z
#
# Youngs Moduli (GPa) = 165.31542 171.54494 3.89237
#
# Poissons Ratio (x) = 0.24993 0.00300
# Poissons Ratio (y) = 0.24085 0.06216
# Poissons Ratio (z) = 0.12748 2.73935
#
# Static dielectric constant tensor:
#      x y z
#    x 6.337910 0.000000 0.000000 
#    y 0.000000 4.328690 0.000000 
#    z 0.000000 0.000000 2.847640 
# 
# 
# High freq. dielectric constant tensor:
#      x y z
#    x 1.861290 0.000000 0.000000 
#    y 0.000000 1.853630 0.000000 
#    z 0.000000 0.000000 1.721370 
# 
# From -- ./inp_files/21637.got.cif
#   From: 2010.03.12/outbox.cif.g09.slc.cpg/sg62_11_cif.got.tgz:21637.got - 2010.04.10 19:12:36.
