data_PCOD8250791
_publ_section_title
;
Structure prediction by ZEFSAII (Michael W. Deem and Ramdas Pophale) SiO2 
 PCOD8250791
Probable space group: P N M A
;
_chemical_formula_sum "Si O2"
_cell_formula_units_Z 44
_cell_length_a 5.157740
_cell_length_b 30.265772
_cell_length_c 16.452309
_cell_angle_alpha 90.000000
_cell_angle_beta 90.000000
_cell_angle_gamma 90.000000
_cell_volume 2568.254510
_symmetry_space_group_name_H-M "P N M A"
_symmetry_group_IT_number 62
_symmetry_cell_setting 'orthorhombic'
loop_
_space_group_symop_operation_xyz
x,y,z
1/2-x,-y,1/2+z
1/2+x,1/2-y,1/2-z
-x,1/2+y,-z
-x,-y,-z
1/2+x,y,1/2-z
1/2-x,1/2+y,1/2+z
x,1/2-y,z
loop_
_atom_site_type_symbol
_atom_site_label
_atom_site_fract_x
_atom_site_fract_y
_atom_site_fract_z
Si Si1 0.846192 0.938879 0.711381
Si Si2 0.051615 0.449169 0.477611
Si Si3 0.739794 0.537878 0.214558
Si Si4 0.119153 0.250000 0.798936
Si Si5 0.032619 0.345526 0.805151
Si Si6 0.073095 0.079006 0.936153
O O1 0.582723 0.914737 0.741204
O O2 0.880538 0.940228 0.615475
O O3 0.814283 0.988585 0.746621
O O4 0.290933 0.431739 0.530457
O O5 0.000000 0.500000 0.500000
O O6 0.793810 0.419588 0.494170
O O7 0.465176 0.562568 0.232027
O O8 0.825144 0.538617 0.120890
O O9 0.425768 0.250000 0.779355
O O10 0.051314 0.295975 0.844521
O O11 0.259638 0.353110 0.739388
O O12 0.066877 0.377016 0.882652
#
# Coordination Sequence:
#
# PCOD8250791 Si02
#       6
#     8   8   8   4   8   8
#     4  10  21  35  49  61  81 119 164 198 234 291
#     4  12  24  36  48  68  95 126 162 211 262 290
#     4  10  19  29  44  64  86 117 157 199 237 274
#     4   8  16  30  52  72 102 138 168 198 236 296
#     4  10  19  34  51  77 105 137 173 204 244 296
#     4  12  22  32  49  68  98 127 161 213 249 284
#
# _framework density 17.132259999999999
#
# number of rings (size 3 to 8) (size 9 to 14) (size 15 to 20)
#    0.000    1.455    1.818    4.909    5.091    0.000 
#    0.000    0.000    0.000    0.000    0.000    0.000 
#    0.000    0.000    0.000   16.364    0.000    0.000 
#
# Total GULP energy -545094.288429 kJ/mol
# GULP energy per Si atom -12388.506555 kJ/mol
# Density = 1.709327 g / cm^3
# Si number density = 17.132260 Si / 1000 Ang^3
#
#
#
# Elastic Constant Matrix: (Units=GPa)
#
#
# Indices 1 2 3 4 5 6 
#
# 1 137.7618 34.1794 36.1427 0.0000 0.0000 0.0000
# 2 34.1794 66.7789 24.4827 0.0000 0.0000 0.0000
# 3 36.1427 24.4827 83.5120 0.0000 0.0000 0.0000
# 4 0.0000 0.0000 0.0000 13.7949 0.0000 0.0000
# 5 0.0000 0.0000 0.0000 0.0000 37.0414 0.0000
# 6 0.0000 0.0000 0.0000 0.0000 0.0000 17.7243
#
#
#
# Elastic Compliance Matrix: (Units=1/GPa)
#
#
# Indices 1 2 3 4 5 6 
#
# 1 0.008866 -0.003508 -0.002809 0.000000 0.000000 0.000000
# 2 -0.003508 0.018166 -0.003807 0.000000 0.000000 0.000000
# 3 -0.002809 -0.003807 0.014306 0.000000 0.000000 0.000000
# 4 0.000000 0.000000 0.000000 0.072490 0.000000 0.000000
# 5 0.000000 0.000000 0.000000 0.000000 0.026997 0.000000
# 6 0.000000 0.000000 0.000000 0.000000 0.000000 0.056420
#
#
# Mechanical properties :
#
#
# Convention : Reuss Voigt Hill
#
# Bulk Modulus (GPa) = 47.41595 53.07361 50.24478
# Shear Modulus (GPa) = 22.26933 26.59531 24.43232
#
# Velocity S-wave (km/s) = 3.60925 3.94427 3.78047
# Velocity P-wave (km/s) = 6.71606 7.19646 6.96040
#
# Compressibility (1/GPa) = 0.02108995
#
# Stress axis : x y z
#
# Youngs Moduli (GPa) = 112.78794 55.04696 69.90048
#
# Poissons Ratio (x) = 0.19312 0.19633
# Poissons Ratio (y) = 0.39569 0.26614
# Poissons Ratio (z) = 0.31678 0.20958
#
# Static dielectric constant tensor:
#      x y z
#    x 3.924940 0.000000 0.000000 
#    y 0.000000 3.080970 0.000000 
#    z 0.000000 0.000000 3.024560 
# 
# 
# High freq. dielectric constant tensor:
#      x y z
#    x 1.706000 0.000000 0.000000 
#    y 0.000000 1.606670 0.000000 
#    z 0.000000 0.000000 1.635230 
# 
# From -- ./inp_files/16264.got.cif
#   From: 2010.03.12/outbox.cif.g09.slc.cpg/sg62_9_cif.got.tgz:16264.got - 2010.04.10 19:12:36.
