data_PCOD8250194
_publ_section_title
;
Structure prediction by ZEFSAII (Michael W. Deem and Ramdas Pophale) SiO2 
 PCOD8250194
Probable space group: P N M A
;
_chemical_formula_sum "Si O2"
_cell_formula_units_Z 56
_cell_length_a 21.101074
_cell_length_b 8.505864
_cell_length_c 18.505760
_cell_angle_alpha 90.000000
_cell_angle_beta 90.000000
_cell_angle_gamma 90.000000
_cell_volume 3321.466837
_symmetry_space_group_name_H-M "P N M A"
_symmetry_group_IT_number 62
_symmetry_cell_setting 'orthorhombic'
loop_
_space_group_symop_operation_xyz
x,y,z
1/2-x,-y,1/2+z
1/2+x,1/2-y,1/2-z
-x,1/2+y,-z
-x,-y,-z
1/2+x,y,1/2-z
1/2-x,1/2+y,1/2+z
x,1/2-y,z
loop_
_atom_site_type_symbol
_atom_site_label
_atom_site_fract_x
_atom_site_fract_y
_atom_site_fract_z
Si Si1 0.123876 0.936467 0.343921
Si Si2 0.746814 0.435537 0.584270
Si Si3 0.695220 0.932896 0.717621
Si Si4 0.998555 0.563302 0.419736
Si Si5 0.252246 0.067176 0.079099
Si Si6 0.372348 0.934497 0.158589
Si Si7 0.186598 0.931566 0.204107
O O1 0.123081 0.750000 0.348296
O O2 0.183721 0.996889 0.390929
O O3 0.130620 0.987005 0.258997
O O4 0.059202 0.006192 0.376560
O O5 0.739789 0.250000 0.593918
O O6 0.692478 0.521372 0.632745
O O7 0.735724 0.487129 0.501760
O O8 0.711099 0.750000 0.727849
O O9 0.632369 0.977521 0.763380
O O10 0.748928 0.043983 0.751559
O O11 0.000643 0.750000 0.422016
O O12 0.935623 0.502053 0.379955
O O13 0.000000 0.500000 0.500000
O O14 0.269421 0.250000 0.081916
O O15 0.312889 0.972044 0.107131
O O16 0.190830 0.031118 0.129763
O O17 0.376550 0.750000 0.172330
O O18 0.179085 0.750000 0.183126
#
# Coordination Sequence:
#
# PCOD8250194 Si02
#       7
#     8   8   8   8   8   8   8
#     4   8  15  29  45  60  83 117 150 175 207 254
#     4   9  17  29  45  64  88 116 142 175 220 264
#     4  10  18  28  44  63  85 113 146 183 219 259
#     4  10  20  32  46  65  89 119 153 183 212 251
#     4  10  18  28  45  67  91 117 144 179 222 265
#     4  10  19  30  44  63  90 121 151 182 215 256
#     4   9  16  28  45  62  85 115 145 179 218 261
#
# _framework density 16.860019999999999
#
# number of rings (size 3 to 8) (size 9 to 14) (size 15 to 20)
#    0.000    2.571    0.000    6.000    0.000    3.429 
#    0.000    5.000    0.000    0.000    0.000    1.000 
#    0.000    0.000    0.000    0.000    0.000    0.000 
#
# Total GULP energy -694002.715813 kJ/mol
# GULP energy per Si atom -12392.905640 kJ/mol
# Density = 1.682165 g / cm^3
# Si number density = 16.860020 Si / 1000 Ang^3
#
#
#
# Elastic Constant Matrix: (Units=GPa)
#
#
# Indices 1 2 3 4 5 6 
#
# 1 77.6755 15.4689 67.7355 0.0000 0.0000 0.0000
# 2 15.4689 35.1297 28.2583 0.0000 0.0000 0.0000
# 3 67.7355 28.2583 166.8764 0.0000 0.0000 0.0000
# 4 0.0000 0.0000 0.0000 29.1387 0.0000 0.0000
# 5 0.0000 0.0000 0.0000 0.0000 30.5140 0.0000
# 6 0.0000 0.0000 0.0000 0.0000 0.0000 12.1505
#
#
#
# Elastic Compliance Matrix: (Units=1/GPa)
#
#
# Indices 1 2 3 4 5 6 
#
# 1 0.020139 -0.002654 -0.007725 0.000000 0.000000 0.000000
# 2 -0.002654 0.033305 -0.004562 0.000000 0.000000 0.000000
# 3 -0.007725 -0.004562 0.009901 0.000000 0.000000 0.000000
# 4 0.000000 0.000000 0.000000 0.034319 0.000000 0.000000
# 5 0.000000 0.000000 0.000000 0.000000 0.032772 0.000000
# 6 0.000000 0.000000 0.000000 0.000000 0.000000 0.082301
#
#
# Mechanical properties :
#
#
# Convention : Reuss Voigt Hill
#
# Bulk Modulus (GPa) = 29.88516 55.84522 42.86519
# Shear Modulus (GPa) = 19.70267 25.57526 22.63897
#
# Velocity S-wave (km/s) = 3.42219 3.89899 3.66834
# Velocity P-wave (km/s) = 5.77747 7.31192 6.58951
#
# Compressibility (1/GPa) = 0.03346143
#
# Stress axis : x y z
#
# Youngs Moduli (GPa) = 49.65455 30.02589 101.00312
#
# Poissons Ratio (x) = 0.07969 0.78026
# Poissons Ratio (y) = 0.13178 0.46082
# Poissons Ratio (z) = 0.38359 0.13699
#
# Static dielectric constant tensor:
#      x y z
#    x 3.179080 0.000000 0.000000 
#    y 0.000000 3.004800 0.000000 
#    z 0.000000 0.000000 3.646940 
# 
# 
# High freq. dielectric constant tensor:
#      x y z
#    x 1.602750 0.000000 0.000000 
#    y 0.000000 1.643680 0.000000 
#    z 0.000000 0.000000 1.660080 
# 
# From -- ./inp_files/27847.got.cif
#   From: 2010.03.12/outbox.cif.g09.slc.cpg/sg62_14_cif.got.tgz:27847.got - 2010.04.10 19:12:36.
