data_PCOD8250361
_publ_section_title
;
Structure prediction by ZEFSAII (Michael W. Deem and Ramdas Pophale) SiO2 
 PCOD8250361
Probable space group: P N M A
;
_chemical_formula_sum "Si O2"
_cell_formula_units_Z 48
_cell_length_a 21.546850
_cell_length_b 17.423061
_cell_length_c 7.565006
_cell_angle_alpha 90.000000
_cell_angle_beta 90.000000
_cell_angle_gamma 90.000000
_cell_volume 2839.994652
_symmetry_space_group_name_H-M "P N M A"
_symmetry_group_IT_number 62
_symmetry_cell_setting 'orthorhombic'
loop_
_space_group_symop_operation_xyz
x,y,z
1/2-x,-y,1/2+z
1/2+x,1/2-y,1/2-z
-x,1/2+y,-z
-x,-y,-z
1/2+x,y,1/2-z
1/2-x,1/2+y,1/2+z
x,1/2-y,z
loop_
_atom_site_type_symbol
_atom_site_label
_atom_site_fract_x
_atom_site_fract_y
_atom_site_fract_z
Si Si1 0.679780 0.987610 0.293081
Si Si2 0.109760 0.664799 0.804100
Si Si3 0.389260 0.334715 0.703115
Si Si4 0.473106 0.383398 0.001165
Si Si5 0.821545 0.487715 0.200104
Si Si6 0.903967 0.957473 0.498754
O O1 0.661901 0.899135 0.248457
O O2 0.665736 0.008023 0.496246
O O3 0.751178 0.998521 0.250856
O O4 0.640579 0.045566 0.170308
O O5 0.139040 0.750000 0.779240
O O6 0.049611 0.657509 0.680044
O O7 0.161933 0.601361 0.756969
O O8 0.086268 0.652427 0.004097
O O9 0.358429 0.250000 0.722824
O O10 0.449073 0.337944 0.829652
O O11 0.445508 0.467661 0.991772
O O12 0.548395 0.385579 0.000073
O O13 0.863732 0.543815 0.319035
#
# Coordination Sequence:
#
# PCOD8250361 Si02
#       6
#     8   8   8   8   8   8
#     4  10  18  30  49  72 102 132 163 205 246 290
#     4   9  18  31  49  72  95 126 167 208 248 294
#     4   9  18  31  49  72  95 126 167 208 248 294
#     4   9  17  30  48  70  97 123 158 198 244 294
#     4  10  18  30  49  72 102 132 163 205 246 290
#     4   9  18  30  46  72  98 125 156 196 247 293
#
# _framework density 16.901440000000001
#
# number of rings (size 3 to 8) (size 9 to 14) (size 15 to 20)
#    0.000    2.667    1.667    0.500    0.000    1.333 
#    0.000    6.667    0.000    4.000    0.000    0.000 
#    0.000    0.000    0.000    0.000    0.000    0.000 
#
# Total GULP energy -594927.636729 kJ/mol
# GULP energy per Si atom -12394.325765 kJ/mol
# Density = 1.686297 g / cm^3
# Si number density = 16.901440 Si / 1000 Ang^3
#
#
#
# Elastic Constant Matrix: (Units=GPa)
#
#
# Indices 1 2 3 4 5 6 
#
# 1 105.6485 42.9443 42.3412 0.0000 0.0000 0.0000
# 2 42.9443 63.1995 34.3711 0.0000 0.0000 0.0000
# 3 42.3412 34.3711 109.2074 0.0000 0.0000 0.0000
# 4 0.0000 0.0000 0.0000 19.1523 0.0000 0.0000
# 5 0.0000 0.0000 0.0000 0.0000 25.9515 0.0000
# 6 0.0000 0.0000 0.0000 0.0000 0.0000 20.5344
#
#
#
# Elastic Compliance Matrix: (Units=1/GPa)
#
#
# Indices 1 2 3 4 5 6 
#
# 1 0.013796 -0.007801 -0.002894 0.000000 0.000000 0.000000
# 2 -0.007801 0.023501 -0.004372 0.000000 0.000000 0.000000
# 3 -0.002894 -0.004372 0.011655 0.000000 0.000000 0.000000
# 4 0.000000 0.000000 0.000000 0.052213 0.000000 0.000000
# 5 0.000000 0.000000 0.000000 0.000000 0.038533 0.000000
# 6 0.000000 0.000000 0.000000 0.000000 0.000000 0.048699
#
#
# Mechanical properties :
#
#
# Convention : Reuss Voigt Hill
#
# Bulk Modulus (GPa) = 53.13791 57.48540 55.31165
# Shear Modulus (GPa) = 22.24168 23.68759 22.96463
#
# Velocity S-wave (km/s) = 3.63156 3.74774 3.69011
# Velocity P-wave (km/s) = 7.00660 7.26728 7.13813
#
# Compressibility (1/GPa) = 0.01881896
#
# Stress axis : x y z
#
# Youngs Moduli (GPa) = 72.48533 42.55092 85.80074
#
# Poissons Ratio (x) = 0.33192 0.24829
# Poissons Ratio (y) = 0.56543 0.37514
# Poissons Ratio (z) = 0.20976 0.18604
#
# Static dielectric constant tensor:
#      x y z
#    x 3.168990 0.000000 0.000000 
#    y 0.000000 3.160200 0.000000 
#    z 0.000000 0.000000 3.523100 
# 
# 
# High freq. dielectric constant tensor:
#      x y z
#    x 1.629990 0.000000 0.000000 
#    y 0.000000 1.625480 0.000000 
#    z 0.000000 0.000000 1.673370 
# 
# From -- ./inp_files/7813.got.cif
#   From: 2010.03.12/outbox.cif.g09.slc.cpg/sg62_4_cif.got.tgz:7813.got - 2010.04.10 19:12:36.
