data_PCOD8250290
_publ_section_title
;
Structure prediction by ZEFSAII (Michael W. Deem and Ramdas Pophale) SiO2 
 PCOD8250290
Probable space group: P N M A
;
_chemical_formula_sum "Si O2"
_cell_formula_units_Z 64
_cell_length_a 29.882776
_cell_length_b 9.152404
_cell_length_c 14.294704
_cell_angle_alpha 90.000000
_cell_angle_beta 90.000000
_cell_angle_gamma 90.000000
_cell_volume 3909.590660
_symmetry_space_group_name_H-M "P N M A"
_symmetry_group_IT_number 62
_symmetry_cell_setting 'orthorhombic'
loop_
_space_group_symop_operation_xyz
x,y,z
1/2-x,-y,1/2+z
1/2+x,1/2-y,1/2-z
-x,1/2+y,-z
-x,-y,-z
1/2+x,y,1/2-z
1/2-x,1/2+y,1/2+z
x,1/2-y,z
loop_
_atom_site_type_symbol
_atom_site_label
_atom_site_fract_x
_atom_site_fract_y
_atom_site_fract_z
Si Si1 0.783314 0.576725 0.273231
Si Si2 0.727699 0.077687 0.985529
Si Si3 0.804082 0.423468 0.660672
Si Si4 0.868743 0.584608 0.162925
Si Si5 0.447904 0.418427 0.402633
Si Si6 0.548776 0.418322 0.404665
Si Si7 0.133530 0.417734 0.207351
Si Si8 0.315161 0.913036 0.518711
O O1 0.782527 0.750000 0.265515
O O2 0.783541 0.524606 0.380490
O O3 0.739340 0.518754 0.218600
O O4 0.828707 0.516361 0.225517
O O5 0.721862 0.250000 0.997586
O O6 0.778476 0.032819 0.007916
O O7 0.695502 0.994296 0.057616
O O8 0.804923 0.250000 0.652358
O O9 0.849542 0.477524 0.710209
O O10 0.878519 0.750000 0.194886
O O11 0.914588 0.493349 0.172473
O O12 0.855403 0.576243 0.054326
O O13 0.435113 0.250000 0.408752
O O14 0.498539 0.442846 0.366450
O O15 0.442054 0.483120 0.505771
O O16 0.556570 0.250000 0.435032
O O17 0.582821 0.460416 0.321186
O O18 0.136109 0.250000 0.240628
O O19 0.165669 0.446255 0.119917
O O20 0.293735 0.750000 0.513245
#
# Coordination Sequence:
#
# PCOD8250290 Si02
#       8
#     8   8   8   8   8   8   8   8
#     4   9  19  33  49  67  93 129 165 195 234 288
#     4  11  21  34  49  70  97 128 167 206 239 280
#     4  11  21  35  50  70  98 129 163 202 245 286
#     4  10  18  33  50  66  95 136 167 193 239 293
#     4  10  19  29  46  73 100 126 162 204 240 283
#     4   9  18  33  48  66  99 135 161 193 243 296
#     4  10  19  32  49  71  96 131 169 197 236 290
#     4  10  18  29  48  70  97 131 165 197 238 283
#
# _framework density 16.369999
#
# number of rings (size 3 to 8) (size 9 to 14) (size 15 to 20)
#    0.000    2.000    3.750    1.125    0.000    1.500 
#    0.000    1.250    0.000    0.000    0.000    0.875 
#    0.000    0.000    0.000    0.000    0.000    0.000 
#
# Total GULP energy -793542.775530 kJ/mol
# GULP energy per Si atom -12399.105868 kJ/mol
# Density = 1.633274 g / cm^3
# Si number density = 16.369999 Si / 1000 Ang^3
#
#
#
# Elastic Constant Matrix: (Units=GPa)
#
#
# Indices 1 2 3 4 5 6 
#
# 1 98.6053 37.7988 24.9214 0.0000 0.0000 0.0000
# 2 37.7988 65.2808 26.0226 0.0000 0.0000 0.0000
# 3 24.9214 26.0226 65.7717 0.0000 0.0000 0.0000
# 4 0.0000 0.0000 0.0000 22.3848 0.0000 0.0000
# 5 0.0000 0.0000 0.0000 0.0000 23.1391 0.0000
# 6 0.0000 0.0000 0.0000 0.0000 0.0000 27.5203
#
#
#
# Elastic Compliance Matrix: (Units=1/GPa)
#
#
# Indices 1 2 3 4 5 6 
#
# 1 0.013339 -0.006778 -0.002373 0.000000 0.000000 0.000000
# 2 -0.006778 0.021631 -0.005990 0.000000 0.000000 0.000000
# 3 -0.002373 -0.005990 0.018473 0.000000 0.000000 0.000000
# 4 0.000000 0.000000 0.000000 0.044673 0.000000 0.000000
# 5 0.000000 0.000000 0.000000 0.000000 0.043217 0.000000
# 6 0.000000 0.000000 0.000000 0.000000 0.000000 0.036337
#
#
# Mechanical properties :
#
#
# Convention : Reuss Voigt Hill
#
# Bulk Modulus (GPa) = 43.17428 45.23816 44.20622
# Shear Modulus (GPa) = 23.18336 24.00317 23.59327
#
# Velocity S-wave (km/s) = 3.76734 3.83337 3.80050
# Velocity P-wave (km/s) = 6.73462 6.87661 6.80598
#
# Compressibility (1/GPa) = 0.02316194
#
# Stress axis : x y z
#
# Youngs Moduli (GPa) = 74.96644 46.23052 54.13277
#
# Poissons Ratio (x) = 0.31334 0.12844
# Poissons Ratio (y) = 0.50811 0.32426
# Poissons Ratio (z) = 0.17787 0.27692
#
# Static dielectric constant tensor:
#      x y z
#    x 3.160860 0.000000 0.000000 
#    y 0.000000 3.035660 0.000000 
#    z 0.000000 0.000000 2.962910 
# 
# 
# High freq. dielectric constant tensor:
#      x y z
#    x 1.622350 0.000000 0.000000 
#    y 0.000000 1.625280 0.000000 
#    z 0.000000 0.000000 1.602660 
# 
# From -- ./inp_files/21209.got.cif
#   From: 2010.03.12/outbox.cif.g09.slc.cpg/sg62_11_cif.got.tgz:21209.got - 2010.04.10 19:12:36.
