data_PCOD8250041
_publ_section_title
;
Structure prediction by ZEFSAII (Michael W. Deem and Ramdas Pophale) SiO2 
 PCOD8250041
Probable space group: P N M A
;
_chemical_formula_sum "Si O2"
_cell_formula_units_Z 64
_cell_length_a 14.282129
_cell_length_b 14.088186
_cell_length_c 16.921035
_cell_angle_alpha 90.000000
_cell_angle_beta 90.000000
_cell_angle_gamma 90.000000
_cell_volume 3404.669436
_symmetry_space_group_name_H-M "P N M A"
_symmetry_group_IT_number 62
_symmetry_cell_setting 'orthorhombic'
loop_
_space_group_symop_operation_xyz
x,y,z
1/2-x,-y,1/2+z
1/2+x,1/2-y,1/2-z
-x,1/2+y,-z
-x,-y,-z
1/2+x,y,1/2-z
1/2-x,1/2+y,1/2+z
x,1/2-y,z
loop_
_atom_site_type_symbol
_atom_site_label
_atom_site_fract_x
_atom_site_fract_y
_atom_site_fract_z
Si Si1 0.581801 0.856647 0.117880
Si Si2 0.581811 0.454066 0.190251
Si Si3 0.297138 0.642924 0.378931
Si Si4 0.987382 0.144422 0.451595
Si Si5 0.297385 0.042010 0.291866
Si Si6 0.526478 0.638293 0.662776
Si Si7 0.874496 0.861181 0.959129
Si Si8 0.701307 0.642359 0.864187
O O1 0.558021 0.750000 0.148040
O O2 0.690366 0.860390 0.090532
O O3 0.566952 0.931429 0.189543
O O4 0.514071 0.884755 0.044183
O O5 0.550549 0.421447 0.103098
O O6 0.690663 0.425170 0.196101
O O7 0.524470 0.409662 0.262106
O O8 0.324302 0.750000 0.351755
O O9 0.310962 0.570795 0.305740
O O10 0.364057 0.604428 0.450273
O O11 0.028418 0.250000 0.442250
O O12 0.879470 0.142591 0.427875
O O13 0.368269 0.099890 0.349079
O O14 0.329518 0.070078 0.204304
O O15 0.526434 0.750000 0.679661
O O16 0.474000 0.613463 0.580405
O O17 0.855108 0.750000 0.961730
O O18 0.793991 0.903335 0.902787
O O19 0.717800 0.750000 0.831124
#
# Coordination Sequence:
#
# PCOD8250041 Si02
#       8
#     8   8   8   8   8   8   8   8
#     4   9  18  33  52  76 104 135 174 213 251 299
#     4  11  21  32  50  78 108 135 168 211 265 307
#     4   9  18  35  56  76  99 135 178 213 245 290
#     4  10  18  30  52  78 105 137 168 208 255 311
#     4  11  22  33  50  80 107 132 167 216 258 299
#     4  11  22  34  51  77 106 136 169 210 261 312
#     4   9  17  32  54  76 101 135 172 208 248 300
#     4  10  17  29  52  79 105 132 167 210 254 302
#
# _framework density 18.797713000000002
#
# number of rings (size 3 to 8) (size 9 to 14) (size 15 to 20)
#    0.000    2.000    3.750    1.125    0.000    2.000 
#    0.000    0.625    0.000    0.000    0.000    3.500 
#    0.000    0.000    0.000    0.000    0.000    0.000 
#
# Total GULP energy -793114.541087 kJ/mol
# GULP energy per Si atom -12392.414704 kJ/mol
# Density = 1.875493 g / cm^3
# Si number density = 18.797713 Si / 1000 Ang^3
#
#
#
# Elastic Constant Matrix: (Units=GPa)
#
#
# Indices 1 2 3 4 5 6 
#
# 1 63.1307 20.4313 3.8154 0.0000 0.0000 0.0000
# 2 20.4313 93.3893 40.4629 0.0000 0.0000 0.0000
# 3 3.8154 40.4629 47.0720 0.0000 0.0000 0.0000
# 4 0.0000 0.0000 0.0000 17.3670 0.0000 0.0000
# 5 0.0000 0.0000 0.0000 0.0000 16.9447 0.0000
# 6 0.0000 0.0000 0.0000 0.0000 0.0000 22.3339
#
#
#
# Elastic Compliance Matrix: (Units=1/GPa)
#
#
# Indices 1 2 3 4 5 6 
#
# 1 0.017300 -0.005063 0.002950 0.000000 0.000000 0.000000
# 2 -0.005063 0.018544 -0.015530 0.000000 0.000000 0.000000
# 3 0.002950 -0.015530 0.034355 0.000000 0.000000 0.000000
# 4 0.000000 0.000000 0.000000 0.057581 0.000000 0.000000
# 5 0.000000 0.000000 0.000000 0.000000 0.059016 0.000000
# 6 0.000000 0.000000 0.000000 0.000000 0.000000 0.044775
#
#
# Mechanical properties :
#
#
# Convention : Reuss Voigt Hill
#
# Bulk Modulus (GPa) = 28.64291 37.00126 32.82209
# Shear Modulus (GPa) = 17.95364 20.58793 19.27078
#
# Velocity S-wave (km/s) = 3.09382 3.31303 3.20530
# Velocity P-wave (km/s) = 5.29460 5.86187 5.58544
#
# Compressibility (1/GPa) = 0.03491265
#
# Stress axis : x y z
#
# Youngs Moduli (GPa) = 57.80195 53.92470 29.10809
#
# Poissons Ratio (x) = 0.27302 -0.08586
# Poissons Ratio (y) = 0.29265 0.45206
# Poissons Ratio (z) = -0.17051 0.83747
#
# Static dielectric constant tensor:
#      x y z
#    x 3.420930 0.000000 0.000000 
#    y 0.000000 3.477580 0.000000 
#    z 0.000000 0.000000 3.239310 
# 
# 
# High freq. dielectric constant tensor:
#      x y z
#    x 1.722130 0.000000 0.000000 
#    y 0.000000 1.721060 0.000000 
#    z 0.000000 0.000000 1.709550 
# 
# From -- ./inp_files/24038.got.cif
#   From: 2010.03.12/outbox.cif.g09.slc.cpg/sg62_13_cif.got.tgz:24038.got - 2010.04.10 19:12:36.
