data_PCOD8250470
_publ_section_title
;
Structure prediction by ZEFSAII (Michael W. Deem and Ramdas Pophale) SiO2 
 PCOD8250470
Probable space group: P N M A
;
_chemical_formula_sum "Si O2"
_cell_formula_units_Z 56
_cell_length_a 18.050121
_cell_length_b 8.920079
_cell_length_c 21.670354
_cell_angle_alpha 90.000000
_cell_angle_beta 90.000000
_cell_angle_gamma 90.000000
_cell_volume 3489.111306
_symmetry_space_group_name_H-M "P N M A"
_symmetry_group_IT_number 62
_symmetry_cell_setting 'orthorhombic'
loop_
_space_group_symop_operation_xyz
x,y,z
1/2-x,-y,1/2+z
1/2+x,1/2-y,1/2-z
-x,1/2+y,-z
-x,-y,-z
1/2+x,y,1/2-z
1/2-x,1/2+y,1/2+z
x,1/2-y,z
loop_
_atom_site_type_symbol
_atom_site_label
_atom_site_fract_x
_atom_site_fract_y
_atom_site_fract_z
Si Si1 0.450083 0.427269 0.693915
Si Si2 0.888578 0.915020 0.991357
Si Si3 0.814435 0.572914 0.870475
Si Si4 0.527157 0.072366 0.937398
Si Si5 0.497820 0.421091 0.183337
Si Si6 0.648966 0.919778 0.873260
Si Si7 0.534713 0.584499 0.589638
O O1 0.449234 0.250000 0.693521
O O2 0.369273 0.486366 0.674954
O O3 0.467301 0.485621 0.761713
O O4 0.514589 0.482193 0.647969
O O5 0.866011 0.750000 0.014761
O O6 0.828506 0.975674 0.941915
O O7 0.966301 0.907048 0.956368
O O8 0.894900 0.019420 0.051806
O O9 0.830033 0.750000 0.862867
O O10 0.730643 0.525698 0.853317
O O11 0.517864 0.250000 0.939193
O O12 0.478483 0.000870 0.881255
O O13 0.613782 0.026205 0.926556
O O14 0.500000 0.000000 0.000000
O O15 0.527175 0.250000 0.185099
O O16 0.407069 0.423886 0.185797
O O17 0.654638 0.750000 0.899461
O O18 0.555593 0.750000 0.613866
#
# Coordination Sequence:
#
# PCOD8250470 Si02
#       7
#     8   8   8   8   8   8   8
#     4  11  20  29  45  71  99 129 166 203 241 287
#     4   8  14  24  40  62  88 117 153 194 234 275
#     4   9  17  31  49  70  97 129 162 200 246 291
#     4  10  18  31  52  77 100 123 154 195 241 288
#     4   9  18  33  51  72  96 126 162 200 242 291
#     4   8  17  32  51  73  97 127 160 200 245 291
#     4   9  16  26  40  59  87 123 158 195 233 275
#
# _framework density 16.049931999999998
#
# number of rings (size 3 to 8) (size 9 to 14) (size 15 to 20)
#    0.857    2.000    0.000    3.857    0.000    4.000 
#    0.000    0.000    0.000    1.714    0.000    8.000 
#    0.000    0.000    0.000    0.000    0.000    0.000 
#
# Total GULP energy -693777.099903 kJ/mol
# GULP energy per Si atom -12388.876784 kJ/mol
# Density = 1.601340 g / cm^3
# Si number density = 16.049932 Si / 1000 Ang^3
#
#
#
# Elastic Constant Matrix: (Units=GPa)
#
#
# Indices 1 2 3 4 5 6 
#
# 1 62.7997 41.1222 41.9325 0.0000 0.0000 0.0000
# 2 41.1222 127.1934 61.6207 0.0000 0.0000 0.0000
# 3 41.9325 61.6207 108.5216 0.0000 0.0000 0.0000
# 4 0.0000 0.0000 0.0000 28.9028 0.0000 0.0000
# 5 0.0000 0.0000 0.0000 0.0000 16.8174 0.0000
# 6 0.0000 0.0000 0.0000 0.0000 0.0000 19.0083
#
#
#
# Elastic Compliance Matrix: (Units=1/GPa)
#
#
# Indices 1 2 3 4 5 6 
#
# 1 0.023070 -0.004332 -0.006455 0.000000 0.000000 0.000000
# 2 -0.004332 0.011659 -0.004946 0.000000 0.000000 0.000000
# 3 -0.006455 -0.004946 0.014517 0.000000 0.000000 0.000000
# 4 0.000000 0.000000 0.000000 0.034599 0.000000 0.000000
# 5 0.000000 0.000000 0.000000 0.000000 0.059462 0.000000
# 6 0.000000 0.000000 0.000000 0.000000 0.000000 0.052608
#
#
# Mechanical properties :
#
#
# Convention : Reuss Voigt Hill
#
# Bulk Modulus (GPa) = 56.23974 65.31839 60.77906
# Shear Modulus (GPa) = 21.43093 23.20167 22.31630
#
# Velocity S-wave (km/s) = 3.65809 3.80622 3.73289
# Velocity P-wave (km/s) = 7.27728 7.75253 7.51866
#
# Compressibility (1/GPa) = 0.01778102
#
# Stress axis : x y z
#
# Youngs Moduli (GPa) = 43.34657 85.77200 68.88256
#
# Poissons Ratio (x) = 0.37153 0.44461
# Poissons Ratio (y) = 0.18776 0.34072
# Poissons Ratio (z) = 0.27978 0.42426
#
# Static dielectric constant tensor:
#      x y z
#    x 2.856320 0.000000 0.000000 
#    y 0.000000 3.191400 0.000000 
#    z 0.000000 0.000000 2.912530 
# 
# 
# High freq. dielectric constant tensor:
#      x y z
#    x 1.579810 0.000000 0.000000 
#    y 0.000000 1.626970 0.000000 
#    z 0.000000 0.000000 1.598770 
# 
# From -- ./inp_files/27849.got.cif
#   From: 2010.03.12/outbox.cif.g09.slc.cpg/sg62_14_cif.got.tgz:27849.got - 2010.04.10 19:12:36.
