data_PCOD8250108
_publ_section_title
;
Structure prediction by ZEFSAII (Michael W. Deem and Ramdas Pophale) SiO2 
 PCOD8250108
Probable space group: P N M A
;
_chemical_formula_sum "Si O2"
_cell_formula_units_Z 48
_cell_length_a 17.244427
_cell_length_b 14.482673
_cell_length_c 9.716552
_cell_angle_alpha 90.000000
_cell_angle_beta 90.000000
_cell_angle_gamma 90.000000
_cell_volume 2426.664140
_symmetry_space_group_name_H-M "P N M A"
_symmetry_group_IT_number 62
_symmetry_cell_setting 'orthorhombic'
loop_
_space_group_symop_operation_xyz
x,y,z
1/2-x,-y,1/2+z
1/2+x,1/2-y,1/2-z
-x,1/2+y,-z
-x,-y,-z
1/2+x,y,1/2-z
1/2-x,1/2+y,1/2+z
x,1/2-y,z
loop_
_atom_site_type_symbol
_atom_site_label
_atom_site_fract_x
_atom_site_fract_y
_atom_site_fract_z
Si Si1 0.933348 0.562329 0.434036
Si Si2 0.463598 0.100621 0.486530
Si Si3 0.846033 0.996573 0.167855
Si Si4 0.123223 0.147443 0.062077
Si Si5 0.931713 0.149090 0.708040
Si Si6 0.833915 0.968076 0.675674
O O1 0.878430 0.512300 0.322269
O O2 0.874252 0.594326 0.555705
O O3 0.000000 0.500000 0.500000
O O4 0.982282 0.643034 0.360237
O O5 0.530606 0.161372 0.414877
O O6 0.440277 0.145804 0.628929
O O7 0.500000 0.000000 0.500000
O O8 0.387357 0.088062 0.393865
O O9 0.756366 0.019215 0.156475
O O10 0.861565 0.901604 0.084579
O O11 0.161504 0.250000 0.065902
O O12 0.156018 0.080781 0.178863
O O13 0.897653 0.250000 0.668237
O O14 0.872976 0.069076 0.662762
#
# Coordination Sequence:
#
# PCOD8250108 Si02
#       6
#     8   8   8   8   8   8
#     4  10  21  37  60  91 122 163 211 259 312 372
#     4  10  17  36  63  89 112 160 214 252 299 364
#     4  11  21  39  66  88 126 171 209 254 319 381
#     4  11  22  40  66  91 123 167 215 257 306 378
#     4  11  21  38  63  91 122 162 213 258 308 380
#     4  11  23  40  62  96 131 165 201 266 329 376
#
# _framework density 19.780242000000001
#
# number of rings (size 3 to 8) (size 9 to 14) (size 15 to 20)
#    0.000    1.333    6.667    2.500    0.000    1.333 
#    0.000    1.667    0.000    1.000    0.000    0.000 
#    0.000    0.000    0.000    0.000    0.000    0.000 
#
# Total GULP energy -594683.537277 kJ/mol
# GULP energy per Si atom -12389.240360 kJ/mol
# Density = 1.973522 g / cm^3
# Si number density = 19.780242 Si / 1000 Ang^3
#
#
#
# Elastic Constant Matrix: (Units=GPa)
#
#
# Indices 1 2 3 4 5 6 
#
# 1 139.7755 17.2746 31.7292 0.0000 0.0000 0.0000
# 2 17.2746 64.5942 20.5325 0.0000 0.0000 0.0000
# 3 31.7292 20.5325 89.1229 0.0000 0.0000 0.0000
# 4 0.0000 0.0000 0.0000 5.0449 0.0000 0.0000
# 5 0.0000 0.0000 0.0000 0.0000 24.2580 0.0000
# 6 0.0000 0.0000 0.0000 0.0000 0.0000 -13.3194
#
#
#
# Elastic Compliance Matrix: (Units=1/GPa)
#
#
# Indices 1 2 3 4 5 6 
#
# 1 0.007885 -0.001313 -0.002505 0.000000 0.000000 0.000000
# 2 -0.001313 0.016923 -0.003432 0.000000 0.000000 0.000000
# 3 -0.002505 -0.003432 0.012903 0.000000 0.000000 0.000000
# 4 0.000000 0.000000 0.000000 0.198221 0.000000 0.000000
# 5 0.000000 0.000000 0.000000 0.000000 0.041223 0.000000
# 6 0.000000 0.000000 0.000000 0.000000 0.000000 -0.075078
#
#
# Mechanical properties :
#
#
# Convention : Reuss Voigt Hill
#
# Bulk Modulus (GPa) = 43.07895 48.06279 45.57087
# Shear Modulus (GPa) = 22.29033 18.12712 20.20873
#
# Velocity S-wave (km/s) = 3.36057 3.03054 3.19981
# Velocity P-wave (km/s) = 6.07322 6.04952 6.06138
#
# Compressibility (1/GPa) = 0.02321320
#
# Stress axis : x y z
#
# Youngs Moduli (GPa) = 126.82071 59.09098 77.50263
#
# Poissons Ratio (x) = 0.07756 0.19413
# Poissons Ratio (y) = 0.16646 0.26595
# Poissons Ratio (z) = 0.31767 0.20277
#
# Static dielectric constant tensor:
#      x y z
#    x 3.974300 0.000000 0.000000 
#    y 0.000000 3.487840 0.000000 
#    z 0.000000 0.000000 4.154410 
# 
# 
# High freq. dielectric constant tensor:
#      x y z
#    x 1.774080 0.000000 0.000000 
#    y 0.000000 1.743330 0.000000 
#    z 0.000000 0.000000 1.778870 
# 
# From -- ./inp_files/7671.got.cif
#   From: 2010.03.12/outbox.cif.g09.slc.cpg/sg62_4_cif.got.tgz:7671.got - 2010.04.10 19:12:36.
