data_PCOD8250877
_publ_section_title
;
Structure prediction by ZEFSAII (Michael W. Deem and Ramdas Pophale) SiO2 
 PCOD8250877
Probable space group: P N M A
;
_chemical_formula_sum "Si O2"
_cell_formula_units_Z 56
_cell_length_a 18.673767
_cell_length_b 8.972913
_cell_length_c 18.230362
_cell_angle_alpha 90.000000
_cell_angle_beta 90.000000
_cell_angle_gamma 90.000000
_cell_volume 3054.644576
_symmetry_space_group_name_H-M "P N M A"
_symmetry_group_IT_number 62
_symmetry_cell_setting 'orthorhombic'
loop_
_space_group_symop_operation_xyz
x,y,z
1/2-x,-y,1/2+z
1/2+x,1/2-y,1/2-z
-x,1/2+y,-z
-x,-y,-z
1/2+x,y,1/2-z
1/2-x,1/2+y,1/2+z
x,1/2-y,z
loop_
_atom_site_type_symbol
_atom_site_label
_atom_site_fract_x
_atom_site_fract_y
_atom_site_fract_z
Si Si1 0.106405 0.077053 0.117345
Si Si2 0.347797 0.574767 0.454172
Si Si3 0.740528 0.585794 0.345267
Si Si4 0.290837 0.917335 0.988254
Si Si5 0.394564 0.924809 0.183096
Si Si6 0.961762 0.574939 0.163790
Si Si7 0.929381 0.072566 0.467882
O O1 0.094254 0.250000 0.128065
O O2 0.175474 0.028988 0.165584
O O3 0.118402 0.032980 0.032794
O O4 0.037744 0.994769 0.147409
O O5 0.333664 0.750000 0.448001
O O6 0.272019 0.493526 0.440790
O O7 0.402481 0.514434 0.393005
O O8 0.713085 0.750000 0.322270
O O9 0.766475 0.586914 0.428400
O O10 0.810795 0.540074 0.298462
O O11 0.305008 0.750000 0.958796
O O12 0.363119 0.014128 0.982915
O O13 0.402648 0.750000 0.162484
O O14 0.439883 0.969150 0.254127
O O15 0.422686 0.024615 0.116667
O O16 0.968639 0.750000 0.153729
O O17 0.932864 0.250000 0.473318
O O18 0.000000 0.000000 0.500000
#
# Coordination Sequence:
#
# PCOD8250877 Si02
#       7
#     8   8   8   8   8   8   8
#     4  10  19  30  48  75 104 134 176 220 256 300
#     4   9  18  32  50  75 105 140 179 217 257 305
#     4   8  15  30  51  70  91 123 165 208 253 305
#     4   9  17  31  52  77 102 130 166 208 253 303
#     4   9  19  36  55  76 101 134 175 215 259 314
#     4  10  20  34  52  74 106 143 176 212 260 314
#     4  11  21  35  57  81 105 134 170 216 264 311
#
# _framework density 18.332737999999999
#
# number of rings (size 3 to 8) (size 9 to 14) (size 15 to 20)
#    0.000    2.571    0.000    3.429    0.000    5.143 
#    0.000    1.429    0.000    6.857    0.000    0.000 
#    0.000    0.000    0.000    0.000    0.000    0.000 
#
# Total GULP energy -694314.089786 kJ/mol
# GULP energy per Si atom -12398.465889 kJ/mol
# Density = 1.829101 g / cm^3
# Si number density = 18.332738 Si / 1000 Ang^3
#
#
#
# Elastic Constant Matrix: (Units=GPa)
#
#
# Indices 1 2 3 4 5 6 
#
# 1 156.7917 58.4049 51.7980 0.0000 0.0000 0.0000
# 2 58.4049 74.1015 35.7257 0.0000 0.0000 0.0000
# 3 51.7980 35.7257 51.0423 0.0000 0.0000 0.0000
# 4 0.0000 0.0000 0.0000 20.1886 0.0000 0.0000
# 5 0.0000 0.0000 0.0000 0.0000 13.8950 0.0000
# 6 0.0000 0.0000 0.0000 0.0000 0.0000 36.3053
#
#
#
# Elastic Compliance Matrix: (Units=1/GPa)
#
#
# Indices 1 2 3 4 5 6 
#
# 1 0.010612 -0.004788 -0.007418 0.000000 0.000000 0.000000
# 2 -0.004788 0.022528 -0.010909 0.000000 0.000000 0.000000
# 3 -0.007418 -0.010909 0.034755 0.000000 0.000000 0.000000
# 4 0.000000 0.000000 0.000000 0.049533 0.000000 0.000000
# 5 0.000000 0.000000 0.000000 0.000000 0.071968 0.000000
# 6 0.000000 0.000000 0.000000 0.000000 0.000000 0.027544
#
#
# Mechanical properties :
#
#
# Convention : Reuss Voigt Hill
#
# Bulk Modulus (GPa) = 46.15734 63.75474 54.95604
# Shear Modulus (GPa) = 18.49163 23.14492 20.81827
#
# Velocity S-wave (km/s) = 3.17940 3.55701 3.37349
# Velocity P-wave (km/s) = 6.22176 7.19178 6.72428
#
# Compressibility (1/GPa) = 0.02166503
#
# Stress axis : x y z
#
# Youngs Moduli (GPa) = 94.23352 44.38890 28.77264
#
# Poissons Ratio (x) = 0.21252 0.21344
# Poissons Ratio (y) = 0.45116 0.31389
# Poissons Ratio (z) = 0.69903 0.48426
#
# Static dielectric constant tensor:
#      x y z
#    x 3.661220 0.000000 0.000000 
#    y 0.000000 3.433680 0.000000 
#    z 0.000000 0.000000 3.212160 
# 
# 
# High freq. dielectric constant tensor:
#      x y z
#    x 1.724770 0.000000 0.000000 
#    y 0.000000 1.711070 0.000000 
#    z 0.000000 0.000000 1.675020 
# 
# From -- ./inp_files/27558.got.cif
#   From: 2010.03.12/outbox.cif.g09.slc.cpg/sg62_14_cif.got.tgz:27558.got - 2010.04.10 19:12:36.
