data_PCOD8250292
_publ_section_title
;
Structure prediction by ZEFSAII (Michael W. Deem and Ramdas Pophale) SiO2 
 PCOD8250292
Probable space group: P N M A
;
_chemical_formula_sum "Si O2"
_cell_formula_units_Z 48
_cell_length_a 9.135369
_cell_length_b 16.143607
_cell_length_c 18.441813
_cell_angle_alpha 90.000000
_cell_angle_beta 90.000000
_cell_angle_gamma 90.000000
_cell_volume 2719.758137
_symmetry_space_group_name_H-M "P N M A"
_symmetry_group_IT_number 62
_symmetry_cell_setting 'orthorhombic'
loop_
_space_group_symop_operation_xyz
x,y,z
1/2-x,-y,1/2+z
1/2+x,1/2-y,1/2-z
-x,1/2+y,-z
-x,-y,-z
1/2+x,y,1/2-z
1/2-x,1/2+y,1/2+z
x,1/2-y,z
loop_
_atom_site_type_symbol
_atom_site_label
_atom_site_fract_x
_atom_site_fract_y
_atom_site_fract_z
Si Si1 0.636982 0.925957 0.199840
Si Si2 0.831614 0.497908 0.081377
Si Si3 0.372753 0.156978 0.324554
Si Si4 0.176626 0.347085 0.676916
Si Si5 0.170407 0.527226 0.082411
Si Si6 0.831198 0.585290 0.790635
O O1 0.737731 0.867418 0.249251
O O2 0.487148 0.881054 0.181553
O O3 0.722917 0.942570 0.125068
O O4 0.601700 0.011594 0.241279
O O5 0.823713 0.404396 0.111687
O O6 0.994757 0.534393 0.088648
O O7 0.779414 0.495230 0.998445
O O8 0.332139 0.250000 0.348326
O O9 0.297141 0.133805 0.248859
O O10 0.544902 0.151332 0.310045
O O11 0.172131 0.250000 0.664133
O O12 0.259161 0.386237 0.607533
O O13 0.231154 0.454954 0.135280
#
# Coordination Sequence:
#
# PCOD8250292 Si02
#       6
#     8   8   8   8   8   8
#     4  10  19  34  53  74  99 134 174 208 250 307
#     4   9  19  34  54  74  99 135 171 204 246 305
#     4  10  18  29  48  73  98 122 156 203 247 287
#     4  11  21  33  53  78 104 131 167 218 264 301
#     4   9  18  35  54  74  99 132 172 206 247 304
#     4   9  17  31  50  70  93 127 164 197 238 294
#
# _framework density 17.648629
#
# number of rings (size 3 to 8) (size 9 to 14) (size 15 to 20)
#    0.000    2.333    0.000    6.000    0.000    1.333 
#    0.000    0.833    0.000   14.000    0.000    0.000 
#    0.000    0.000    0.000    0.000    0.000    0.000 
#
# Total GULP energy -595239.857546 kJ/mol
# GULP energy per Si atom -12400.830366 kJ/mol
# Density = 1.760846 g / cm^3
# Si number density = 17.648629 Si / 1000 Ang^3
#
#
#
# Elastic Constant Matrix: (Units=GPa)
#
#
# Indices 1 2 3 4 5 6 
#
# 1 74.2731 42.9939 45.1118 0.0000 0.0000 0.0000
# 2 42.9939 95.7662 34.5046 0.0000 0.0000 0.0000
# 3 45.1118 34.5046 132.8657 0.0000 0.0000 0.0000
# 4 0.0000 0.0000 0.0000 14.1298 0.0000 0.0000
# 5 0.0000 0.0000 0.0000 0.0000 27.2883 0.0000
# 6 0.0000 0.0000 0.0000 0.0000 0.0000 20.7692
#
#
#
# Elastic Compliance Matrix: (Units=1/GPa)
#
#
# Indices 1 2 3 4 5 6 
#
# 1 0.020971 -0.007556 -0.005158 0.000000 0.000000 0.000000
# 2 -0.007556 0.014243 -0.001133 0.000000 0.000000 0.000000
# 3 -0.005158 -0.001133 0.009572 0.000000 0.000000 0.000000
# 4 0.000000 0.000000 0.000000 0.070773 0.000000 0.000000
# 5 0.000000 0.000000 0.000000 0.000000 0.036646 0.000000
# 6 0.000000 0.000000 0.000000 0.000000 0.000000 0.048148
#
#
# Mechanical properties :
#
#
# Convention : Reuss Voigt Hill
#
# Bulk Modulus (GPa) = 58.51146 60.90285 59.70716
# Shear Modulus (GPa) = 21.39099 24.45711 22.92405
#
# Velocity S-wave (km/s) = 3.48523 3.72664 3.60795
# Velocity P-wave (km/s) = 7.03002 7.28702 7.15967
#
# Compressibility (1/GPa) = 0.01709067
#
# Stress axis : x y z
#
# Youngs Moduli (GPa) = 47.68572 70.21100 104.47245
#
# Poissons Ratio (x) = 0.53054 0.53885
# Poissons Ratio (y) = 0.36033 0.11839
# Poissons Ratio (z) = 0.24595 0.07956
#
# Static dielectric constant tensor:
#      x y z
#    x 3.213480 0.000000 0.000000 
#    y 0.000000 3.178900 0.000000 
#    z 0.000000 0.000000 3.360570 
# 
# 
# High freq. dielectric constant tensor:
#      x y z
#    x 1.682230 0.000000 0.000000 
#    y 0.000000 1.671000 0.000000 
#    z 0.000000 0.000000 1.679360 
# 
# From -- ./inp_files/25856.got.cif
#   From: 2010.03.12/outbox.cif.g09.slc.cpg/sg62_13_cif.got.tgz:25856.got - 2010.04.10 19:12:36.
