data_PCOD8250419
_publ_section_title
;
Structure prediction by ZEFSAII (Michael W. Deem and Ramdas Pophale) SiO2 
 PCOD8250419
Probable space group: P N M A
;
_chemical_formula_sum "Si O2"
_cell_formula_units_Z 64
_cell_length_a 11.485964
_cell_length_b 13.252638
_cell_length_c 25.506247
_cell_angle_alpha 90.000000
_cell_angle_beta 90.000000
_cell_angle_gamma 90.000000
_cell_volume 3882.543650
_symmetry_space_group_name_H-M "P N M A"
_symmetry_group_IT_number 62
_symmetry_cell_setting 'orthorhombic'
loop_
_space_group_symop_operation_xyz
x,y,z
1/2-x,-y,1/2+z
1/2+x,1/2-y,1/2-z
-x,1/2+y,-z
-x,-y,-z
1/2+x,y,1/2-z
1/2-x,1/2+y,1/2+z
x,1/2-y,z
loop_
_atom_site_type_symbol
_atom_site_label
_atom_site_fract_x
_atom_site_fract_y
_atom_site_fract_z
Si Si1 0.081508 0.634983 0.321284
Si Si2 0.075854 0.862394 0.013790
Si Si3 0.327166 0.943790 0.471776
Si Si4 0.286243 0.135576 0.615345
Si Si5 0.334773 0.635771 0.359272
Si Si6 0.047366 0.047953 0.582364
Si Si7 0.948255 0.370043 0.795081
Si Si8 0.083635 0.634258 0.513009
O O1 0.034052 0.750000 0.328268
O O2 0.219813 0.634633 0.324535
O O3 0.052604 0.588728 0.264155
O O4 0.025031 0.562069 0.364442
O O5 0.100780 0.750000 0.992687
O O6 0.104584 0.870717 0.075592
O O7 0.940461 0.887880 0.005079
O O8 0.160798 0.936747 0.981977
O O9 0.314762 0.932183 0.409900
O O10 0.214539 0.899214 0.499961
O O11 0.239963 0.250000 0.620125
O O12 0.182366 0.066994 0.594447
O O13 0.334217 0.096131 0.671554
O O14 0.364752 0.750000 0.377676
O O15 0.436375 0.588835 0.323598
O O16 0.998506 0.123484 0.538005
O O17 0.034380 0.933665 0.560775
O O18 0.951087 0.250000 0.793219
O O19 0.082106 0.750000 0.531193
#
# Coordination Sequence:
#
# PCOD8250419 Si02
#       8
#     8   8   8   8   8   8   8   8
#     4  10  20  32  49  72 101 133 166 204 248 303
#     4  10  20  32  50  76 104 135 167 207 250 298
#     4  11  19  33  52  73 103 136 172 204 248 304
#     4  10  18  31  47  71 106 134 159 201 253 298
#     4  10  18  31  49  70  99 134 168 203 248 303
#     4  11  22  34  49  74 103 137 168 204 252 300
#     4   9  19  31  47  73 102 134 165 202 253 305
#     4  11  22  36  52  74 102 137 174 208 247 301
#
# _framework density 16.48404
#
# number of rings (size 3 to 8) (size 9 to 14) (size 15 to 20)
#    0.000    1.750    3.750    2.250    1.750    0.000 
#    0.000    0.000    0.000    0.000    0.000    1.750 
#    0.000    0.000    0.000    0.000    0.000    0.000 
#
# Total GULP energy -793586.447960 kJ/mol
# GULP energy per Si atom -12399.788249 kJ/mol
# Density = 1.644652 g / cm^3
# Si number density = 16.484040 Si / 1000 Ang^3
#
#
#
# Elastic Constant Matrix: (Units=GPa)
#
#
# Indices 1 2 3 4 5 6 
#
# 1 76.9637 25.4406 30.4649 0.0000 0.0000 0.0000
# 2 25.4406 89.4437 43.6963 0.0000 0.0000 0.0000
# 3 30.4649 43.6963 110.3503 0.0000 0.0000 0.0000
# 4 0.0000 0.0000 0.0000 20.4914 0.0000 0.0000
# 5 0.0000 0.0000 0.0000 0.0000 26.3134 0.0000
# 6 0.0000 0.0000 0.0000 0.0000 0.0000 19.5046
#
#
#
# Elastic Compliance Matrix: (Units=1/GPa)
#
#
# Indices 1 2 3 4 5 6 
#
# 1 0.015135 -0.002806 -0.003067 0.000000 0.000000 0.000000
# 2 -0.002806 0.014382 -0.004920 0.000000 0.000000 0.000000
# 3 -0.003067 -0.004920 0.011857 0.000000 0.000000 0.000000
# 4 0.000000 0.000000 0.000000 0.048801 0.000000 0.000000
# 5 0.000000 0.000000 0.000000 0.000000 0.038003 0.000000
# 6 0.000000 0.000000 0.000000 0.000000 0.000000 0.051270
#
#
# Mechanical properties :
#
#
# Convention : Reuss Voigt Hill
#
# Bulk Modulus (GPa) = 50.53919 52.88458 51.71188
# Shear Modulus (GPa) = 24.08112 25.07228 24.57670
#
# Velocity S-wave (km/s) = 3.82629 3.90424 3.86546
# Velocity P-wave (km/s) = 7.08849 7.24403 7.16668
#
# Compressibility (1/GPa) = 0.01978663
#
# Stress axis : x y z
#
# Youngs Moduli (GPa) = 66.07258 69.53051 84.33774
#
# Poissons Ratio (x) = 0.19514 0.25867
# Poissons Ratio (y) = 0.18543 0.41496
# Poissons Ratio (z) = 0.20265 0.34211
#
# Static dielectric constant tensor:
#      x y z
#    x 3.235030 0.000000 0.000000 
#    y 0.000000 2.891630 0.000000 
#    z 0.000000 0.000000 3.148010 
# 
# 
# High freq. dielectric constant tensor:
#      x y z
#    x 1.653050 0.000000 0.000000 
#    y 0.000000 1.590670 0.000000 
#    z 0.000000 0.000000 1.627070 
# 
# From -- ./inp_files/31216.got.cif
#   From: 2010.03.12/outbox.cif.g09.slc.cpg/sg62_16_cif.got.tgz:31216.got - 2010.04.10 19:12:36.
