data_PCOD8250121
_publ_section_title
;
Structure prediction by ZEFSAII (Michael W. Deem and Ramdas Pophale) SiO2 
 PCOD8250121
Probable space group: P N M A
;
_chemical_formula_sum "Si O2"
_cell_formula_units_Z 64
_cell_length_a 26.303184
_cell_length_b 8.820204
_cell_length_c 18.559085
_cell_angle_alpha 90.000000
_cell_angle_beta 90.000000
_cell_angle_gamma 90.000000
_cell_volume 4305.697489
_symmetry_space_group_name_H-M "P N M A"
_symmetry_group_IT_number 62
_symmetry_cell_setting 'orthorhombic'
loop_
_space_group_symop_operation_xyz
x,y,z
1/2-x,-y,1/2+z
1/2+x,1/2-y,1/2-z
-x,1/2+y,-z
-x,-y,-z
1/2+x,y,1/2-z
1/2-x,1/2+y,1/2+z
x,1/2-y,z
loop_
_atom_site_type_symbol
_atom_site_label
_atom_site_fract_x
_atom_site_fract_y
_atom_site_fract_z
Si Si1 0.200604 0.582007 0.782243
Si Si2 0.195319 0.084343 0.195668
Si Si3 0.148408 0.070392 0.333485
Si Si4 0.054959 0.425005 0.427315
Si Si5 0.756065 0.071789 0.594946
Si Si6 0.060690 0.925457 0.577092
Si Si7 0.257443 0.069813 0.069396
Si Si8 0.651381 0.071355 0.847382
O O1 0.178600 0.750000 0.797475
O O2 0.253308 0.594751 0.741146
O O3 0.210276 0.497468 0.857959
O O4 0.160968 0.489933 0.733169
O O5 0.173777 0.250000 0.176295
O O6 0.154930 0.005196 0.250705
O O7 0.210892 0.003935 0.120018
O O8 0.159625 0.250000 0.332710
O O9 0.091926 0.033395 0.360949
O O10 0.188777 0.994173 0.386504
O O11 0.061283 0.250000 0.450760
O O12 0.070346 0.528291 0.494550
O O13 0.997746 0.458037 0.401569
O O14 0.757517 0.250000 0.607706
O O15 0.744498 0.028854 0.512292
O O16 0.075169 0.750000 0.585881
O O17 0.094554 0.024803 0.630597
O O18 0.262733 0.250000 0.081937
O O19 0.310414 0.996024 0.093078
O O20 0.657364 0.250000 0.846827
#
# Coordination Sequence:
#
# PCOD8250121 Si02
#       8
#     8   8   8   8   8   8   8   8
#     4   9  17  30  44  57  78 107 136 167 206 245
#     4   7  12  24  40  55  73 100 130 159 193 234
#     4   9  16  27  42  57  76 106 141 172 203 238
#     4   9  18  30  43  60  80 105 142 181 209 240
#     4  10  18  26  39  61  85 108 137 168 196 236
#     4  10  19  30  42  57  81 110 138 172 214 252
#     4   9  17  28  41  59  84 112 138 164 200 244
#     4  11  20  29  43  61  81 107 142 176 205 245
#
# _framework density 14.864025
#
# number of rings (size 3 to 8) (size 9 to 14) (size 15 to 20)
#    0.000    2.750    0.000    4.500    0.000    4.000 
#    0.000    0.000    0.000    0.000    0.000    0.000 
#    0.000    1.000    0.000    1.750    0.000    2.500 
#
# Total GULP energy -793089.802596 kJ/mol
# GULP energy per Si atom -12392.028166 kJ/mol
# Density = 1.483019 g / cm^3
# Si number density = 14.864025 Si / 1000 Ang^3
#
#
#
# Elastic Constant Matrix: (Units=GPa)
#
#
# Indices 1 2 3 4 5 6 
#
# 1 72.7796 27.8498 56.5051 0.0000 0.0000 0.0000
# 2 27.8498 64.2634 41.8245 0.0000 0.0000 0.0000
# 3 56.5051 41.8245 119.0833 0.0000 0.0000 0.0000
# 4 0.0000 0.0000 0.0000 20.8583 0.0000 0.0000
# 5 0.0000 0.0000 0.0000 0.0000 25.7030 0.0000
# 6 0.0000 0.0000 0.0000 0.0000 0.0000 17.4904
#
#
#
# Elastic Compliance Matrix: (Units=1/GPa)
#
#
# Indices 1 2 3 4 5 6 
#
# 1 0.022384 -0.003614 -0.009352 0.000000 0.000000 0.000000
# 2 -0.003614 0.020755 -0.005575 0.000000 0.000000 0.000000
# 3 -0.009352 -0.005575 0.014793 0.000000 0.000000 0.000000
# 4 0.000000 0.000000 0.000000 0.047942 0.000000 0.000000
# 5 0.000000 0.000000 0.000000 0.000000 0.038906 0.000000
# 6 0.000000 0.000000 0.000000 0.000000 0.000000 0.057174
#
#
# Mechanical properties :
#
#
# Convention : Reuss Voigt Hill
#
# Bulk Modulus (GPa) = 47.95995 56.49834 52.22914
# Shear Modulus (GPa) = 20.32635 21.47347 20.89991
#
# Velocity S-wave (km/s) = 3.70197 3.80499 3.75383
# Velocity P-wave (km/s) = 7.11397 7.57605 7.34864
#
# Compressibility (1/GPa) = 0.02085073
#
# Stress axis : x y z
#
# Youngs Moduli (GPa) = 44.67553 48.18010 67.59994
#
# Poissons Ratio (x) = 0.17412 0.63218
# Poissons Ratio (y) = 0.16146 0.37686
# Poissons Ratio (z) = 0.41779 0.26860
#
# Static dielectric constant tensor:
#      x y z
#    x 2.780020 0.000000 0.000000 
#    y 0.000000 2.892710 0.000000 
#    z 0.000000 0.000000 3.105760 
# 
# 
# High freq. dielectric constant tensor:
#      x y z
#    x 1.534580 0.000000 0.000000 
#    y 0.000000 1.568310 0.000000 
#    z 0.000000 0.000000 1.562640 
# 
# From -- ./inp_files/28001.got.cif
#   From: 2010.03.12/outbox.cif.g09.slc.cpg/sg62_15_cif.got.tgz:28001.got - 2010.04.10 19:12:36.
