data_PCOD8250844
_publ_section_title
;
Structure prediction by ZEFSAII (Michael W. Deem and Ramdas Pophale) SiO2 
 PCOD8250844
Probable space group: P N M A
;
_chemical_formula_sum "Si O2"
_cell_formula_units_Z 64
_cell_length_a 20.013446
_cell_length_b 9.239628
_cell_length_c 20.156665
_cell_angle_alpha 90.000000
_cell_angle_beta 90.000000
_cell_angle_gamma 90.000000
_cell_volume 3727.305911
_symmetry_space_group_name_H-M "P N M A"
_symmetry_group_IT_number 62
_symmetry_cell_setting 'orthorhombic'
loop_
_space_group_symop_operation_xyz
x,y,z
1/2-x,-y,1/2+z
1/2+x,1/2-y,1/2-z
-x,1/2+y,-z
-x,-y,-z
1/2+x,y,1/2-z
1/2-x,1/2+y,1/2+z
x,1/2-y,z
loop_
_atom_site_type_symbol
_atom_site_label
_atom_site_fract_x
_atom_site_fract_y
_atom_site_fract_z
Si Si1 0.046262 0.915687 0.083989
Si Si2 0.587106 0.917869 0.559286
Si Si3 0.068939 0.421876 0.728741
Si Si4 0.425724 0.419080 0.728111
Si Si5 0.090936 0.918360 0.455518
Si Si6 0.827922 0.577867 0.161031
Si Si7 0.322764 0.422067 0.833492
Si Si8 0.940224 0.581652 0.418904
O O1 0.019205 0.750000 0.085182
O O2 0.089141 0.948032 0.150296
O O3 0.093212 0.941015 0.020186
O O4 0.983525 0.021837 0.084054
O O5 0.591726 0.750000 0.578653
O O6 0.646911 0.005310 0.593169
O O7 0.065750 0.250000 0.731598
O O8 0.127296 0.477756 0.777348
O O9 0.084016 0.472289 0.653492
O O10 0.997803 0.486567 0.752627
O O11 0.428505 0.250000 0.744346
O O12 0.366501 0.487620 0.772607
O O13 0.099238 0.750000 0.469902
O O14 0.145899 0.974763 0.403195
O O15 0.018618 0.953990 0.424965
O O16 0.102106 0.999173 0.525153
O O17 0.831485 0.750000 0.152532
O O18 0.752807 0.522069 0.173511
O O19 0.324219 0.250000 0.830774
O O20 0.926281 0.750000 0.428732
#
# Coordination Sequence:
#
# PCOD8250844 Si02
#       8
#     8   8   8   8   8   8   8   8
#     4   9  17  30  51  74  96 123 160 201 240 281
#     4  10  19  30  46  73 103 128 155 193 243 291
#     4   9  15  26  47  71  93 118 155 202 241 272
#     4   9  14  26  49  73  94 118 155 205 245 272
#     4   9  16  28  45  67  93 119 150 189 231 281
#     4  10  19  32  50  71  94 126 166 200 236 286
#     4   9  17  29  48  72  95 124 162 200 238 285
#     4   9  16  27  46  70  92 116 150 193 238 277
#
# _framework density 17.170577999999999
#
# number of rings (size 3 to 8) (size 9 to 14) (size 15 to 20)
#    0.000    2.750    2.500    0.375    0.000    0.500 
#    0.000    2.500    0.000    4.500    0.000    0.000 
#    0.000    0.000    0.000    0.000    0.000    0.000 
#
# Total GULP energy -793363.779464 kJ/mol
# GULP energy per Si atom -12396.309054 kJ/mol
# Density = 1.713150 g / cm^3
# Si number density = 17.170578 Si / 1000 Ang^3
#
#
#
# Elastic Constant Matrix: (Units=GPa)
#
#
# Indices 1 2 3 4 5 6 
#
# 1 121.3557 26.0162 81.9515 0.0000 0.0000 0.0000
# 2 26.0162 30.7346 33.1191 0.0000 0.0000 0.0000
# 3 81.9515 33.1191 162.2397 0.0000 0.0000 0.0000
# 4 0.0000 0.0000 0.0000 24.9624 0.0000 0.0000
# 5 0.0000 0.0000 0.0000 0.0000 27.6987 0.0000
# 6 0.0000 0.0000 0.0000 0.0000 0.0000 13.6771
#
#
#
# Elastic Compliance Matrix: (Units=1/GPa)
#
#
# Indices 1 2 3 4 5 6 
#
# 1 0.013095 -0.005073 -0.005579 0.000000 0.000000 0.000000
# 2 -0.005073 0.043677 -0.006354 0.000000 0.000000 0.000000
# 3 -0.005579 -0.006354 0.010279 0.000000 0.000000 0.000000
# 4 0.000000 0.000000 0.000000 0.040060 0.000000 0.000000
# 5 0.000000 0.000000 0.000000 0.000000 0.036103 0.000000
# 6 0.000000 0.000000 0.000000 0.000000 0.000000 0.073115
#
#
# Mechanical properties :
#
#
# Convention : Reuss Voigt Hill
#
# Bulk Modulus (GPa) = 30.26635 66.27819 48.27227
# Shear Modulus (GPa) = 19.13107 24.81719 21.97413
#
# Velocity S-wave (km/s) = 3.34155 3.80588 3.58125
# Velocity P-wave (km/s) = 5.70553 7.61555 6.72866
#
# Compressibility (1/GPa) = 0.03303999
#
# Stress axis : x y z
#
# Youngs Moduli (GPa) = 76.36241 22.89519 97.28580
#
# Poissons Ratio (x) = 0.11614 0.54279
# Poissons Ratio (y) = 0.38738 0.61813
# Poissons Ratio (z) = 0.42605 0.14547
#
# Static dielectric constant tensor:
#      x y z
#    x 3.147790 0.000000 0.000000 
#    y 0.000000 2.849620 0.000000 
#    z 0.000000 0.000000 3.506870 
# 
# 
# High freq. dielectric constant tensor:
#      x y z
#    x 1.636100 0.000000 0.000000 
#    y 0.000000 1.620210 0.000000 
#    z 0.000000 0.000000 1.680370 
# 
# From -- ./inp_files/27951.got.cif
#   From: 2010.03.12/outbox.cif.g09.slc.cpg/sg62_14_cif.got.tgz:27951.got - 2010.04.10 19:12:36.
