data_PCOD8250559
_publ_section_title
;
Structure prediction by ZEFSAII (Michael W. Deem and Ramdas Pophale) SiO2 
 PCOD8250559
Probable space group: P N M A
;
_chemical_formula_sum "Si O2"
_cell_formula_units_Z 64
_cell_length_a 13.135680
_cell_length_b 22.841461
_cell_length_c 11.556438
_cell_angle_alpha 90.000000
_cell_angle_beta 90.000000
_cell_angle_gamma 90.000000
_cell_volume 3467.371959
_symmetry_space_group_name_H-M "P N M A"
_symmetry_group_IT_number 62
_symmetry_cell_setting 'orthorhombic'
loop_
_space_group_symop_operation_xyz
x,y,z
1/2-x,-y,1/2+z
1/2+x,1/2-y,1/2-z
-x,1/2+y,-z
-x,-y,-z
1/2+x,y,1/2-z
1/2-x,1/2+y,1/2+z
x,1/2-y,z
loop_
_atom_site_type_symbol
_atom_site_label
_atom_site_fract_x
_atom_site_fract_y
_atom_site_fract_z
Si Si1 0.305350 0.532771 0.411371
Si Si2 0.485763 0.681835 0.595043
Si Si3 0.116108 0.981334 0.255840
Si Si4 0.929260 0.906815 0.270453
Si Si5 0.061169 0.814860 0.163807
Si Si6 0.178566 0.407569 0.153482
Si Si7 0.337756 0.403903 0.351316
Si Si8 0.769940 0.106830 0.901793
O O1 0.191846 0.527783 0.362492
O O2 0.369081 0.583341 0.348745
O O3 0.291960 0.553498 0.542276
O O4 0.365307 0.471628 0.383787
O O5 0.490487 0.750000 0.637645
O O6 0.505615 0.678970 0.458953
O O7 0.374845 0.654158 0.623057
O O8 0.566197 0.639614 0.659376
O O9 0.160724 0.947810 0.141876
O O10 0.005096 0.960488 0.295814
O O11 0.104190 0.050101 0.227331
O O12 0.848484 0.900122 0.372791
O O13 0.996961 0.848959 0.259966
O O14 0.065473 0.750000 0.210894
O O15 0.177952 0.836659 0.157216
O O16 0.279178 0.396342 0.230001
O O17 0.269309 0.384283 0.460464
#
# Coordination Sequence:
#
# PCOD8250559 Si02
#       8
#     8   8   8   8   8   8   8   8
#     4  10  19  33  54  82 111 135 177 217 268 332
#     4  10  21  37  56  78 103 142 194 231 258 310
#     4   9  19  32  52  82 110 139 169 213 274 329
#     4  10  18  32  54  76 108 142 167 216 276 321
#     4   9  18  32  52  77 100 133 186 231 262 309
#     4  11  20  35  57  82 108 145 180 223 270 323
#     4  10  21  36  54  81 112 144 179 220 275 327
#     4   9  18  33  51  75 108 142 171 214 270 330
#
# _framework density 18.457784
#
# number of rings (size 3 to 8) (size 9 to 14) (size 15 to 20)
#    0.000    2.250    2.500    0.750    0.000    2.000 
#    2.250    1.250    0.000    0.000    0.000    0.000 
#    0.000    0.000    0.000    0.000    0.000    0.000 
#
# Total GULP energy -793061.174115 kJ/mol
# GULP energy per Si atom -12391.580846 kJ/mol
# Density = 1.841577 g / cm^3
# Si number density = 18.457784 Si / 1000 Ang^3
#
#
#
# Elastic Constant Matrix: (Units=GPa)
#
#
# Indices 1 2 3 4 5 6 
#
# 1 68.0631 24.8293 27.0424 0.0000 0.0000 0.0000
# 2 24.8293 81.1718 21.2460 0.0000 0.0000 0.0000
# 3 27.0424 21.2460 57.5369 0.0000 0.0000 0.0000
# 4 0.0000 0.0000 0.0000 18.0891 0.0000 0.0000
# 5 0.0000 0.0000 0.0000 0.0000 17.6381 0.0000
# 6 0.0000 0.0000 0.0000 0.0000 0.0000 24.2834
#
#
#
# Elastic Compliance Matrix: (Units=1/GPa)
#
#
# Indices 1 2 3 4 5 6 
#
# 1 0.019103 -0.003867 -0.007550 0.000000 0.000000 0.000000
# 2 -0.003867 0.014420 -0.003507 0.000000 0.000000 0.000000
# 3 -0.007550 -0.003507 0.022224 0.000000 0.000000 0.000000
# 4 0.000000 0.000000 0.000000 0.055282 0.000000 0.000000
# 5 0.000000 0.000000 0.000000 0.000000 0.056695 0.000000
# 6 0.000000 0.000000 0.000000 0.000000 0.000000 0.041180
#
#
# Mechanical properties :
#
#
# Convention : Reuss Voigt Hill
#
# Bulk Modulus (GPa) = 38.61356 39.22301 38.91829
# Shear Modulus (GPa) = 20.21122 20.91238 20.56180
#
# Velocity S-wave (km/s) = 3.31266 3.36964 3.34127
# Velocity P-wave (km/s) = 5.96632 6.03618 6.00135
#
# Compressibility (1/GPa) = 0.02589764
#
# Stress axis : x y z
#
# Youngs Moduli (GPa) = 52.34824 69.34606 44.99641
#
# Poissons Ratio (x) = 0.26816 0.33974
# Poissons Ratio (y) = 0.20243 0.15782
# Poissons Ratio (z) = 0.39525 0.24322
#
# Static dielectric constant tensor:
#      x y z
#    x 3.239990 0.000000 0.000000 
#    y 0.000000 3.542500 0.000000 
#    z 0.000000 0.000000 3.179210 
# 
# 
# High freq. dielectric constant tensor:
#      x y z
#    x 1.706390 0.000000 0.000000 
#    y 0.000000 1.712440 0.000000 
#    z 0.000000 0.000000 1.696150 
# 
# From -- ./inp_files/12558.got.cif
#   From: 2010.03.12/outbox.cif.g09.slc.cpg/sg62_7_cif.got.tgz:12558.got - 2010.04.10 19:12:36.
