data_PCOD8250289
_publ_section_title
;
Structure prediction by ZEFSAII (Michael W. Deem and Ramdas Pophale) SiO2 
 PCOD8250289
Probable space group: P N M A
;
_chemical_formula_sum "Si O2"
_cell_formula_units_Z 64
_cell_length_a 30.391847
_cell_length_b 8.842181
_cell_length_c 14.438575
_cell_angle_alpha 90.000000
_cell_angle_beta 90.000000
_cell_angle_gamma 90.000000
_cell_volume 3880.081322
_symmetry_space_group_name_H-M "P N M A"
_symmetry_group_IT_number 62
_symmetry_cell_setting 'orthorhombic'
loop_
_space_group_symop_operation_xyz
x,y,z
1/2-x,-y,1/2+z
1/2+x,1/2-y,1/2-z
-x,1/2+y,-z
-x,-y,-z
1/2+x,y,1/2-z
1/2-x,1/2+y,1/2+z
x,1/2-y,z
loop_
_atom_site_type_symbol
_atom_site_label
_atom_site_fract_x
_atom_site_fract_y
_atom_site_fract_z
Si Si1 0.634710 0.418467 0.321533
Si Si2 0.049375 0.071561 0.094690
Si Si3 0.049681 0.926717 0.896466
Si Si4 0.629739 0.427702 0.691077
Si Si5 0.698535 0.929041 0.817974
Si Si6 0.284944 0.930061 0.790680
Si Si7 0.227988 0.426453 0.500029
Si Si8 0.316890 0.581102 0.489207
O O1 0.631256 0.250000 0.280921
O O2 0.584962 0.486581 0.327478
O O3 0.671123 0.502521 0.257450
O O4 0.649266 0.417674 0.427584
O O5 0.055916 0.250000 0.075684
O O6 0.000650 0.036925 0.132613
O O7 0.058637 0.986677 0.999099
O O8 0.059733 0.750000 0.895217
O O9 0.080652 0.007308 0.821005
O O10 0.626657 0.250000 0.706284
O O11 0.653462 0.502513 0.778708
O O12 0.657898 0.473556 0.601566
O O13 0.696277 0.750000 0.812509
O O14 0.740994 0.991880 0.760614
O O15 0.700654 0.980286 0.924600
O O16 0.284566 0.750000 0.778645
O O17 0.286264 0.979676 0.897404
O O18 0.219467 0.250000 0.515109
O O19 0.279300 0.461109 0.512017
O O20 0.296769 0.750000 0.475877
#
# Coordination Sequence:
#
# PCOD8250289 Si02
#       8
#     8   8   8   8   8   8   8   8
#     4   9  15  29  49  69  92 128 168 198 234 284
#     4   9  17  30  48  70  97 130 167 203 242 295
#     4  10  19  29  45  71 101 130 161 202 250 296
#     4  11  21  33  49  71  98 133 170 204 244 292
#     4  11  21  35  51  71  97 130 167 202 242 288
#     4   9  18  30  48  70  94 124 161 199 236 280
#     4  11  21  33  47  70  99 127 162 203 242 282
#     4  10  18  29  48  69  95 130 167 200 236 279
#
# _framework density 16.494499000000001
#
# number of rings (size 3 to 8) (size 9 to 14) (size 15 to 20)
#    0.000    2.000    3.750    1.500    0.000    1.000 
#    0.000    0.000    0.000    0.000    0.000    0.875 
#    0.000    0.000    0.000    0.000    0.000    0.000 
#
# Total GULP energy -793309.393114 kJ/mol
# GULP energy per Si atom -12395.459267 kJ/mol
# Density = 1.645696 g / cm^3
# Si number density = 16.494499 Si / 1000 Ang^3
#
#
#
# Elastic Constant Matrix: (Units=GPa)
#
#
# Indices 1 2 3 4 5 6 
#
# 1 119.5594 30.3781 39.9140 0.0000 0.0000 0.0000
# 2 30.3781 49.3095 18.7100 0.0000 0.0000 0.0000
# 3 39.9140 18.7100 70.9524 0.0000 0.0000 0.0000
# 4 0.0000 0.0000 0.0000 20.6830 0.0000 0.0000
# 5 0.0000 0.0000 0.0000 0.0000 26.1144 0.0000
# 6 0.0000 0.0000 0.0000 0.0000 0.0000 22.2144
#
#
#
# Elastic Compliance Matrix: (Units=1/GPa)
#
#
# Indices 1 2 3 4 5 6 
#
# 1 0.011335 -0.005071 -0.005039 0.000000 0.000000 0.000000
# 2 -0.005071 0.024804 -0.003688 0.000000 0.000000 0.000000
# 3 -0.005039 -0.003688 0.017901 0.000000 0.000000 0.000000
# 4 0.000000 0.000000 0.000000 0.048349 0.000000 0.000000
# 5 0.000000 0.000000 0.000000 0.000000 0.038293 0.000000
# 6 0.000000 0.000000 0.000000 0.000000 0.000000 0.045016
#
#
# Mechanical properties :
#
#
# Convention : Reuss Voigt Hill
#
# Bulk Modulus (GPa) = 37.81671 46.42507 42.12089
# Shear Modulus (GPa) = 22.51158 23.85697 23.18427
#
# Velocity S-wave (km/s) = 3.69832 3.80723 3.75317
# Velocity P-wave (km/s) = 6.41976 6.89446 6.66134
#
# Compressibility (1/GPa) = 0.02644334
#
# Stress axis : x y z
#
# Youngs Moduli (GPa) = 88.22406 40.31684 55.86209
#
# Poissons Ratio (x) = 0.20445 0.28150
# Poissons Ratio (y) = 0.44738 0.20602
# Poissons Ratio (z) = 0.44457 0.14869
#
# Static dielectric constant tensor:
#      x y z
#    x 3.305370 0.000000 0.000000 
#    y 0.000000 3.012210 0.000000 
#    z 0.000000 0.000000 3.004650 
# 
# 
# High freq. dielectric constant tensor:
#      x y z
#    x 1.633750 0.000000 0.000000 
#    y 0.000000 1.621330 0.000000 
#    z 0.000000 0.000000 1.607590 
# 
# From -- ./inp_files/21211.got.cif
#   From: 2010.03.12/outbox.cif.g09.slc.cpg/sg62_11_cif.got.tgz:21211.got - 2010.04.10 19:12:36.
