data_PCOD8250546
_publ_section_title
;
Structure prediction by ZEFSAII (Michael W. Deem and Ramdas Pophale) SiO2 
 PCOD8250546
Probable space group: P N M A
;
_chemical_formula_sum "Si O2"
_cell_formula_units_Z 48
_cell_length_a 8.085207
_cell_length_b 14.629429
_cell_length_c 20.698091
_cell_angle_alpha 90.000000
_cell_angle_beta 90.000000
_cell_angle_gamma 90.000000
_cell_volume 2448.210808
_symmetry_space_group_name_H-M "P N M A"
_symmetry_group_IT_number 62
_symmetry_cell_setting 'orthorhombic'
loop_
_space_group_symop_operation_xyz
x,y,z
1/2-x,-y,1/2+z
1/2+x,1/2-y,1/2-z
-x,1/2+y,-z
-x,-y,-z
1/2+x,y,1/2-z
1/2-x,1/2+y,1/2+z
x,1/2-y,z
loop_
_atom_site_type_symbol
_atom_site_label
_atom_site_fract_x
_atom_site_fract_y
_atom_site_fract_z
Si Si1 0.139187 0.542734 0.265188
Si Si2 0.615331 0.143069 0.949284
Si Si3 0.022593 0.856300 0.033930
Si Si4 0.859717 0.011941 0.347152
Si Si5 0.924326 0.854985 0.174366
Si Si6 0.699155 0.857868 0.962831
O O1 0.210434 0.489092 0.203681
O O2 0.266330 0.581184 0.317130
O O3 0.024007 0.472477 0.304416
O O4 0.041057 0.629982 0.236208
O O5 0.611756 0.250000 0.929712
O O6 0.788223 0.121276 0.988495
O O7 0.616703 0.084435 0.884080
O O8 0.455381 0.115975 0.991249
O O9 0.986767 0.750000 0.029506
O O10 0.010589 0.888302 0.108240
O O11 0.872982 0.899622 0.991113
O O12 0.831694 0.096457 0.394198
O O13 0.870459 0.750000 0.170104
O O14 0.706807 0.750000 0.952071
#
# Coordination Sequence:
#
# PCOD8250546 Si02
#       6
#     8   8   8   8   8   8
#     4  10  22  34  51  78 114 151 195 230 265 340
#     4  10  20  36  59  90 120 145 180 231 289 355
#     4   9  18  34  55  84 113 142 184 231 282 342
#     4  11  22  40  56  82 114 152 191 236 283 333
#     4  10  18  32  52  79 115 152 183 220 278 342
#     4  10  22  40  61  84 111 146 195 246 291 333
#
# _framework density 19.606155000000001
#
# number of rings (size 3 to 8) (size 9 to 14) (size 15 to 20)
#    0.000    2.000    1.667    2.000    0.000    5.333 
#    6.000    0.833    0.000    0.000    0.000    0.000 
#    0.000    0.000    0.000    0.000    0.000    0.000 
#
# Total GULP energy -594886.890006 kJ/mol
# GULP energy per Si atom -12393.476875 kJ/mol
# Density = 1.956153 g / cm^3
# Si number density = 19.606155 Si / 1000 Ang^3
#
#
#
# Elastic Constant Matrix: (Units=GPa)
#
#
# Indices 1 2 3 4 5 6 
#
# 1 144.5759 15.1015 49.5875 0.0000 0.0000 0.0000
# 2 15.1015 26.6964 17.6763 0.0000 0.0000 0.0000
# 3 49.5875 17.6763 85.1026 0.0000 0.0000 0.0000
# 4 0.0000 0.0000 0.0000 30.4486 0.0000 0.0000
# 5 0.0000 0.0000 0.0000 0.0000 29.8950 0.0000
# 6 0.0000 0.0000 0.0000 0.0000 0.0000 8.0430
#
#
#
# Elastic Compliance Matrix: (Units=1/GPa)
#
#
# Indices 1 2 3 4 5 6 
#
# 1 0.008720 -0.001819 -0.004703 0.000000 0.000000 0.000000
# 2 -0.001819 0.043810 -0.008040 0.000000 0.000000 0.000000
# 3 -0.004703 -0.008040 0.016161 0.000000 0.000000 0.000000
# 4 0.000000 0.000000 0.000000 0.032842 0.000000 0.000000
# 5 0.000000 0.000000 0.000000 0.000000 0.033450 0.000000
# 6 0.000000 0.000000 0.000000 0.000000 0.000000 0.124332
#
#
# Mechanical properties :
#
#
# Convention : Reuss Voigt Hill
#
# Bulk Modulus (GPa) = 25.27312 46.78949 36.03130
# Shear Modulus (GPa) = 16.57667 25.27795 20.92731
#
# Velocity S-wave (km/s) = 2.91087 3.59456 3.27063
# Velocity P-wave (km/s) = 4.92097 6.41438 5.71665
#
# Compressibility (1/GPa) = 0.03956773
#
# Stress axis : x y z
#
# Youngs Moduli (GPa) = 114.68085 22.82559 61.87762
#
# Poissons Ratio (x) = 0.04151 0.29102
# Poissons Ratio (y) = 0.20855 0.49750
# Poissons Ratio (z) = 0.53936 0.18352
#
# Static dielectric constant tensor:
#      x y z
#    x 4.078670 0.000000 0.000000 
#    y 0.000000 3.148600 0.000000 
#    z 0.000000 0.000000 3.460350 
# 
# 
# High freq. dielectric constant tensor:
#      x y z
#    x 1.789970 0.000000 0.000000 
#    y 0.000000 1.725820 0.000000 
#    z 0.000000 0.000000 1.753860 
# 
# From -- ./inp_files/22212.got.cif
#   From: 2010.03.12/outbox.cif.g09.slc.cpg/sg62_12_cif.got.tgz:22212.got - 2010.04.10 19:12:36.
