data_PCOD8250847
_publ_section_title
;
Structure prediction by ZEFSAII (Michael W. Deem and Ramdas Pophale) SiO2 
 PCOD8250847
Probable space group: P N M A
;
_chemical_formula_sum "Si O2"
_cell_formula_units_Z 48
_cell_length_a 19.184351
_cell_length_b 9.390588
_cell_length_c 15.511708
_cell_angle_alpha 90.000000
_cell_angle_beta 90.000000
_cell_angle_gamma 90.000000
_cell_volume 2794.470436
_symmetry_space_group_name_H-M "P N M A"
_symmetry_group_IT_number 62
_symmetry_cell_setting 'orthorhombic'
loop_
_space_group_symop_operation_xyz
x,y,z
1/2-x,-y,1/2+z
1/2+x,1/2-y,1/2-z
-x,1/2+y,-z
-x,-y,-z
1/2+x,y,1/2-z
1/2-x,1/2+y,1/2+z
x,1/2-y,z
loop_
_atom_site_type_symbol
_atom_site_label
_atom_site_fract_x
_atom_site_fract_y
_atom_site_fract_z
Si Si1 0.045850 0.418019 0.431383
Si Si2 0.538292 0.916496 0.424794
Si Si3 0.797055 0.580492 0.577909
Si Si4 0.798375 0.414783 0.925267
Si Si5 0.540352 0.407758 0.261819
Si Si6 0.794149 0.592140 0.764964
O O1 0.040806 0.250000 0.448428
O O2 0.125106 0.473813 0.442977
O O3 0.018039 0.454391 0.334780
O O4 0.000000 0.500000 0.500000
O O5 0.519168 0.750000 0.427847
O O6 0.620150 0.942976 0.438357
O O7 0.500000 0.000000 0.500000
O O8 0.513025 0.979502 0.332650
O O9 0.798605 0.750000 0.581664
O O10 0.742676 0.522469 0.507500
O O11 0.770979 0.527590 0.672263
O O12 0.781829 0.250000 0.912998
O O13 0.767400 0.491303 0.841040
O O14 0.510138 0.250000 0.283251
O O15 0.623016 0.399588 0.264519
O O16 0.762856 0.750000 0.779865
#
# Coordination Sequence:
#
# PCOD8250847 Si02
#       6
#     8   8   8   8   8   8
#     4   9  17  30  49  70  92 120 151 185 225 267
#     4  10  19  30  47  69  91 118 151 188 228 268
#     4   8  15  30  49  66  89 121 150 178 221 271
#     4   9  17  30  48  68  89 116 150 185 221 263
#     4   8  15  29  47  65  87 118 154 186 218 263
#     4   8  14  27  47  66  85 115 151 182 216 262
#
# _framework density 17.176779
#
# number of rings (size 3 to 8) (size 9 to 14) (size 15 to 20)
#    0.000    3.333    0.000    2.500    0.000    1.333 
#    0.000    5.833    0.000    6.000    0.000    0.000 
#    0.000    0.000    0.000    0.000    0.000    0.000 
#
# Total GULP energy -594886.217817 kJ/mol
# GULP energy per Si atom -12393.462871 kJ/mol
# Density = 1.713768 g / cm^3
# Si number density = 17.176779 Si / 1000 Ang^3
#
#
#
# Elastic Constant Matrix: (Units=GPa)
#
#
# Indices 1 2 3 4 5 6 
#
# 1 42.1985 33.1179 55.1596 0.0000 0.0000 0.0000
# 2 33.1179 78.1043 78.4800 0.0000 0.0000 0.0000
# 3 55.1596 78.4800 187.2000 0.0000 0.0000 0.0000
# 4 0.0000 0.0000 0.0000 35.4990 0.0000 0.0000
# 5 0.0000 0.0000 0.0000 0.0000 31.1212 0.0000
# 6 0.0000 0.0000 0.0000 0.0000 0.0000 13.5246
#
#
#
# Elastic Compliance Matrix: (Units=1/GPa)
#
#
# Indices 1 2 3 4 5 6 
#
# 1 0.042130 -0.009314 -0.008509 0.000000 0.000000 0.000000
# 2 -0.009314 0.024181 -0.007393 0.000000 0.000000 0.000000
# 3 -0.008509 -0.007393 0.010949 0.000000 0.000000 0.000000
# 4 0.000000 0.000000 0.000000 0.028170 0.000000 0.000000
# 5 0.000000 0.000000 0.000000 0.000000 0.032132 0.000000
# 6 0.000000 0.000000 0.000000 0.000000 0.000000 0.073940
#
#
# Mechanical properties :
#
#
# Convention : Reuss Voigt Hill
#
# Bulk Modulus (GPa) = 37.27523 71.22421 54.24972
# Shear Modulus (GPa) = 18.45857 25.41197 21.93527
#
# Velocity S-wave (km/s) = 3.28170 3.85052 3.57743
# Velocity P-wave (km/s) = 6.00895 7.83097 6.97967
#
# Compressibility (1/GPa) = 0.02682746
#
# Stress axis : x y z
#
# Youngs Moduli (GPa) = 23.73612 41.35394 91.33560
#
# Poissons Ratio (x) = 0.38516 0.77719
# Poissons Ratio (y) = 0.22107 0.67527
# Poissons Ratio (z) = 0.20197 0.30574
#
# Static dielectric constant tensor:
#      x y z
#    x 2.941690 0.000000 0.000000 
#    y 0.000000 3.185260 0.000000 
#    z 0.000000 0.000000 3.509210 
# 
# 
# High freq. dielectric constant tensor:
#      x y z
#    x 1.623250 0.000000 0.000000 
#    y 0.000000 1.646220 0.000000 
#    z 0.000000 0.000000 1.680410 
# 
# From -- ./inp_files/15143.got.cif
#   From: 2010.03.12/outbox.cif.g09.slc.cpg/sg62_8_cif.got.tgz:15143.got - 2010.04.10 19:12:36.
