data_PCOD8250781
_publ_section_title
;
Structure prediction by ZEFSAII (Michael W. Deem and Ramdas Pophale) SiO2 
 PCOD8250781
Probable space group: P N M A
;
_chemical_formula_sum "Si O2"
_cell_formula_units_Z 64
_cell_length_a 25.728475
_cell_length_b 8.952246
_cell_length_c 18.075757
_cell_angle_alpha 90.000000
_cell_angle_beta 90.000000
_cell_angle_gamma 90.000000
_cell_volume 4163.346404
_symmetry_space_group_name_H-M "P N M A"
_symmetry_group_IT_number 62
_symmetry_cell_setting 'orthorhombic'
loop_
_space_group_symop_operation_xyz
x,y,z
1/2-x,-y,1/2+z
1/2+x,1/2-y,1/2-z
-x,1/2+y,-z
-x,-y,-z
1/2+x,y,1/2-z
1/2-x,1/2+y,1/2+z
x,1/2-y,z
loop_
_atom_site_type_symbol
_atom_site_label
_atom_site_fract_x
_atom_site_fract_y
_atom_site_fract_z
Si Si1 0.801404 0.081252 0.299728
Si Si2 0.242886 0.576732 0.077833
Si Si3 0.198822 0.081399 0.298370
Si Si4 0.742371 0.424053 0.579437
Si Si5 0.641226 0.075943 0.676092
Si Si6 0.939508 0.422798 0.076813
Si Si7 0.141324 0.923146 0.175148
Si Si8 0.939068 0.922827 0.924766
O O1 0.818892 0.250000 0.317775
O O2 0.750168 0.079811 0.250567
O O3 0.790287 0.994004 0.375766
O O4 0.847125 0.997653 0.255592
O O5 0.254861 0.750000 0.065612
O O6 0.188814 0.551081 0.119488
O O7 0.238654 0.494892 0.000529
O O8 0.180273 0.250000 0.314228
O O9 0.210375 0.999378 0.375675
O O10 0.153659 0.993439 0.255168
O O11 0.754431 0.250000 0.572955
O O12 0.687989 0.454978 0.619633
O O13 0.631539 0.250000 0.688378
O O14 0.589384 0.001276 0.644521
O O15 0.923777 0.250000 0.073233
O O16 0.000308 0.446047 0.090591
O O17 0.921739 0.496858 0.000096
O O18 0.128796 0.750000 0.186147
O O19 0.090800 0.005173 0.143788
O O20 0.924030 0.750000 0.932371
#
# Coordination Sequence:
#
# PCOD8250781 Si02
#       8
#     8   8   8   8   8   8   8   8
#     4   9  17  29  44  61  83 111 142 176 213 253
#     4  10  19  29  42  62  87 114 145 178 213 254
#     4   9  17  29  44  61  83 111 142 176 213 253
#     4  10  19  29  42  62  87 114 145 178 213 254
#     4  10  19  30  45  63  85 114 146 179 215 256
#     4  10  20  32  45  62  85 113 146 183 219 254
#     4  10  19  30  45  63  85 114 146 179 215 256
#     4  10  20  32  45  62  85 113 146 183 219 254
#
# _framework density 15.372249
#
# number of rings (size 3 to 8) (size 9 to 14) (size 15 to 20)
#    0.000    2.250    0.000    3.750    0.000    9.500 
#    0.000    0.000    0.000    0.000    0.000    0.000 
#    0.000    1.000    0.000    3.750    0.000    5.750 
#
# Total GULP energy -793787.108351 kJ/mol
# GULP energy per Si atom -12402.923568 kJ/mol
# Density = 1.533726 g / cm^3
# Si number density = 15.372249 Si / 1000 Ang^3
#
#
#
# Elastic Constant Matrix: (Units=GPa)
#
#
# Indices 1 2 3 4 5 6 
#
# 1 41.6147 34.3117 15.8337 0.0000 0.0000 0.0000
# 2 34.3117 66.9205 29.6737 0.0000 0.0000 0.0000
# 3 15.8337 29.6737 45.8326 0.0000 0.0000 0.0000
# 4 0.0000 0.0000 0.0000 32.5742 0.0000 0.0000
# 5 0.0000 0.0000 0.0000 0.0000 25.8465 0.0000
# 6 0.0000 0.0000 0.0000 0.0000 0.0000 23.4737
#
#
#
# Elastic Compliance Matrix: (Units=1/GPa)
#
#
# Indices 1 2 3 4 5 6 
#
# 1 0.041648 -0.021004 -0.000789 0.000000 0.000000 0.000000
# 2 -0.021004 0.031553 -0.013172 0.000000 0.000000 0.000000
# 3 -0.000789 -0.013172 0.030620 0.000000 0.000000 0.000000
# 4 0.000000 0.000000 0.000000 0.030699 0.000000 0.000000
# 5 0.000000 0.000000 0.000000 0.000000 0.038690 0.000000
# 6 0.000000 0.000000 0.000000 0.000000 0.000000 0.042601
#
#
# Mechanical properties :
#
#
# Convention : Reuss Voigt Hill
#
# Bulk Modulus (GPa) = 29.50782 34.88955 32.19868
# Shear Modulus (GPa) = 16.83277 21.34879 19.09078
#
# Velocity S-wave (km/s) = 3.31268 3.73069 3.52788
# Velocity P-wave (km/s) = 5.81971 6.42675 6.13075
#
# Compressibility (1/GPa) = 0.03388933
#
# Stress axis : x y z
#
# Youngs Moduli (GPa) = 24.01052 31.69245 32.65880
#
# Poissons Ratio (x) = 0.66567 0.02578
# Poissons Ratio (y) = 0.50432 0.43020
# Poissons Ratio (z) = 0.01896 0.41747
#
# Static dielectric constant tensor:
#      x y z
#    x 2.709790 0.000000 0.000000 
#    y 0.000000 3.182030 0.000000 
#    z 0.000000 0.000000 2.897140 
# 
# 
# High freq. dielectric constant tensor:
#      x y z
#    x 1.552170 0.000000 0.000000 
#    y 0.000000 1.614530 0.000000 
#    z 0.000000 0.000000 1.576230 
# 
# From -- ./inp_files/22640.got.cif
#   From: 2010.03.12/outbox.cif.g09.slc.cpg/sg62_12_cif.got.tgz:22640.got - 2010.04.10 19:12:36.
