data_PCOD8250612
_publ_section_title
;
Structure prediction by ZEFSAII (Michael W. Deem and Ramdas Pophale) SiO2 
 PCOD8250612
Probable space group: P N M A
;
_chemical_formula_sum "Si O2"
_cell_formula_units_Z 64
_cell_length_a 18.670680
_cell_length_b 18.363658
_cell_length_c 9.953143
_cell_angle_alpha 90.000000
_cell_angle_beta 90.000000
_cell_angle_gamma 90.000000
_cell_volume 3412.554338
_symmetry_space_group_name_H-M "P N M A"
_symmetry_group_IT_number 62
_symmetry_cell_setting 'orthorhombic'
loop_
_space_group_symop_operation_xyz
x,y,z
1/2-x,-y,1/2+z
1/2+x,1/2-y,1/2-z
-x,1/2+y,-z
-x,-y,-z
1/2+x,y,1/2-z
1/2-x,1/2+y,1/2+z
x,1/2-y,z
loop_
_atom_site_type_symbol
_atom_site_label
_atom_site_fract_x
_atom_site_fract_y
_atom_site_fract_z
Si Si1 0.697932 0.590955 0.657295
Si Si2 0.860265 0.397750 0.432842
Si Si3 0.843571 0.562390 0.512740
Si Si4 0.621096 0.835620 0.417927
Si Si5 0.497903 0.551039 0.372401
Si Si6 0.285759 0.167995 0.834079
Si Si7 0.344229 0.573265 0.296591
Si Si8 0.989098 0.947137 0.621816
O O1 0.693645 0.620954 0.809715
O O2 0.778205 0.590742 0.602169
O O3 0.649518 0.641838 0.563662
O O4 0.665326 0.510731 0.666376
O O5 0.843439 0.475168 0.502495
O O6 0.845752 0.339179 0.549339
O O7 0.942193 0.392975 0.376239
O O8 0.840618 0.592798 0.361488
O O9 0.913603 0.593205 0.592507
O O10 0.601935 0.750000 0.415416
O O11 0.552047 0.882287 0.381373
O O12 0.681271 0.855651 0.308365
O O13 0.500000 0.500000 0.500000
O O14 0.422344 0.592269 0.352997
O O15 0.516576 0.496354 0.252747
O O16 0.258628 0.250000 0.826929
O O17 0.216951 0.119176 0.870711
O O18 0.000000 0.000000 0.500000
#
# Coordination Sequence:
#
# PCOD8250612 Si02
#       8
#     8   8   8   8   8   8   8   8
#     4  11  20  37  61  90 115 155 201 252 301 355
#     4  10  20  35  57  87 117 150 198 250 306 349
#     4  10  19  32  59  86 116 150 193 255 296 351
#     4  11  24  40  59  86 123 164 198 238 303 377
#     4  12  22  36  60  93 120 153 201 254 303 355
#     4  11  24  39  58  86 124 162 201 249 305 372
#     4  11  21  36  59  89 117 151 206 255 299 344
#     4  10  18  33  54  86 115 148 192 249 299 350
#
# _framework density 18.754280000000001
#
# number of rings (size 3 to 8) (size 9 to 14) (size 15 to 20)
#    0.000    1.250    7.500    1.500    0.000    2.000 
#    0.000    0.000    0.000    0.750    0.000    0.000 
#    0.000    0.000    0.000    0.000    0.000    0.000 
#
# Total GULP energy -793379.672332 kJ/mol
# GULP energy per Si atom -12396.557380 kJ/mol
# Density = 1.871159 g / cm^3
# Si number density = 18.754280 Si / 1000 Ang^3
#
#
#
# Elastic Constant Matrix: (Units=GPa)
#
#
# Indices 1 2 3 4 5 6 
#
# 1 131.4801 35.7788 41.3187 0.0000 0.0000 0.0000
# 2 35.7788 56.7625 32.3736 0.0000 0.0000 0.0000
# 3 41.3187 32.3736 116.8941 0.0000 0.0000 0.0000
# 4 0.0000 0.0000 0.0000 21.0601 0.0000 0.0000
# 5 0.0000 0.0000 0.0000 0.0000 33.4112 0.0000
# 6 0.0000 0.0000 0.0000 0.0000 0.0000 20.3822
#
#
#
# Elastic Compliance Matrix: (Units=1/GPa)
#
#
# Indices 1 2 3 4 5 6 
#
# 1 0.009571 -0.004873 -0.002033 0.000000 0.000000 0.000000
# 2 -0.004873 0.023403 -0.004759 0.000000 0.000000 0.000000
# 3 -0.002033 -0.004759 0.010592 0.000000 0.000000 0.000000
# 4 0.000000 0.000000 0.000000 0.047483 0.000000 0.000000
# 5 0.000000 0.000000 0.000000 0.000000 0.029930 0.000000
# 6 0.000000 0.000000 0.000000 0.000000 0.000000 0.049062
#
#
# Mechanical properties :
#
#
# Convention : Reuss Voigt Hill
#
# Bulk Modulus (GPa) = 49.42040 58.23098 53.82569
# Shear Modulus (GPa) = 24.98545 28.01508 26.50026
#
# Velocity S-wave (km/s) = 3.65396 3.86916 3.76310
# Velocity P-wave (km/s) = 6.64911 7.14684 6.90246
#
# Compressibility (1/GPa) = 0.02023456
#
# Stress axis : x y z
#
# Youngs Moduli (GPa) = 104.48466 42.72956 94.41528
#
# Poissons Ratio (x) = 0.20822 0.19199
# Poissons Ratio (y) = 0.50915 0.44932
# Poissons Ratio (z) = 0.21246 0.20335
#
# Static dielectric constant tensor:
#      x y z
#    x 4.174640 0.000000 0.000000 
#    y 0.000000 3.030900 0.000000 
#    z 0.000000 0.000000 3.620190 
# 
# 
# High freq. dielectric constant tensor:
#      x y z
#    x 1.740020 0.000000 0.000000 
#    y 0.000000 1.683650 0.000000 
#    z 0.000000 0.000000 1.742640 
# 
# From -- ./inp_files/8083.got.cif
#   From: 2010.03.12/outbox.cif.g09.slc.cpg/sg62_5_cif.got.tgz:8083.got - 2010.04.10 19:12:36.
