data_PCOD8250295
_publ_section_title
;
Structure prediction by ZEFSAII (Michael W. Deem and Ramdas Pophale) SiO2 
 PCOD8250295
Probable space group: P N M A
;
_chemical_formula_sum "Si O2"
_cell_formula_units_Z 64
_cell_length_a 15.430592
_cell_length_b 9.054965
_cell_length_c 24.745593
_cell_angle_alpha 90.000000
_cell_angle_beta 90.000000
_cell_angle_gamma 90.000000
_cell_volume 3457.540133
_symmetry_space_group_name_H-M "P N M A"
_symmetry_group_IT_number 62
_symmetry_cell_setting 'orthorhombic'
loop_
_space_group_symop_operation_xyz
x,y,z
1/2-x,-y,1/2+z
1/2+x,1/2-y,1/2-z
-x,1/2+y,-z
-x,-y,-z
1/2+x,y,1/2-z
1/2-x,1/2+y,1/2+z
x,1/2-y,z
loop_
_atom_site_type_symbol
_atom_site_label
_atom_site_fract_x
_atom_site_fract_y
_atom_site_fract_z
Si Si1 0.191495 0.422118 0.681637
Si Si2 0.960190 0.424308 0.607360
Si Si3 0.449761 0.578310 0.579809
Si Si4 0.487894 0.922977 0.225430
Si Si5 0.885704 0.077125 0.816472
Si Si6 0.869972 0.074180 0.423768
Si Si7 0.110528 0.077982 0.960019
Si Si8 0.698416 0.924607 0.037670
O O1 0.176423 0.250000 0.667994
O O2 0.113955 0.472968 0.722939
O O3 0.287438 0.449845 0.706169
O O4 0.184545 0.511770 0.626216
O O5 0.975299 0.250000 0.599274
O O6 0.868357 0.477257 0.583607
O O7 0.964359 0.469191 0.670153
O O8 0.033033 0.512143 0.574938
O O9 0.455294 0.750000 0.592511
O O10 0.393997 0.502184 0.626284
O O11 0.546438 0.512777 0.578284
O O12 0.403474 0.544623 0.523198
O O13 0.493531 0.750000 0.233736
O O14 0.543251 0.992526 0.274914
O O15 0.901307 0.250000 0.825533
O O16 0.871737 0.250000 0.419970
O O17 0.826176 0.014740 0.478621
O O18 0.096476 0.250000 0.947473
O O19 0.206386 0.020777 0.945184
O O20 0.699413 0.750000 0.033448
#
# Coordination Sequence:
#
# PCOD8250295 Si02
#       8
#     8   8   8   8   8   8   8   8
#     4   9  18  33  52  74 100 129 168 214 257 297
#     4   9  17  32  50  70 100 132 166 208 254 296
#     4  10  20  34  52  74 103 134 164 205 253 300
#     4   8  16  32  50  72  99 126 162 213 254 290
#     4  10  19  33  54  77  98 128 172 213 255 302
#     4  10  18  29  48  74 104 134 167 203 246 300
#     4   9  18  34  52  73 102 134 168 206 249 299
#     4   9  17  29  48  75 101 130 168 207 248 299
#
# _framework density 18.510269999999998
#
# number of rings (size 3 to 8) (size 9 to 14) (size 15 to 20)
#    0.000    2.750    0.000    2.625    0.000    2.000 
#    2.250    5.000    0.000    0.000    0.000    0.000 
#    0.000    0.000    0.000    0.000    0.000    0.000 
#
# Total GULP energy -793307.832294 kJ/mol
# GULP energy per Si atom -12395.434880 kJ/mol
# Density = 1.846814 g / cm^3
# Si number density = 18.510270 Si / 1000 Ang^3
#
#
#
# Elastic Constant Matrix: (Units=GPa)
#
#
# Indices 1 2 3 4 5 6 
#
# 1 150.2368 30.7611 47.6027 0.0000 0.0000 0.0000
# 2 30.7611 41.9947 19.8692 0.0000 0.0000 0.0000
# 3 47.6027 19.8692 54.0015 0.0000 0.0000 0.0000
# 4 0.0000 0.0000 0.0000 20.6398 0.0000 0.0000
# 5 0.0000 0.0000 0.0000 0.0000 28.1229 0.0000
# 6 0.0000 0.0000 0.0000 0.0000 0.0000 21.2132
#
#
#
# Elastic Compliance Matrix: (Units=1/GPa)
#
#
# Indices 1 2 3 4 5 6 
#
# 1 0.009688 -0.003700 -0.007179 0.000000 0.000000 0.000000
# 2 -0.003700 0.030245 -0.007867 0.000000 0.000000 0.000000
# 3 -0.007179 -0.007867 0.027741 0.000000 0.000000 0.000000
# 4 0.000000 0.000000 0.000000 0.048450 0.000000 0.000000
# 5 0.000000 0.000000 0.000000 0.000000 0.035558 0.000000
# 6 0.000000 0.000000 0.000000 0.000000 0.000000 0.047140
#
#
# Mechanical properties :
#
#
# Convention : Reuss Voigt Hill
#
# Bulk Modulus (GPa) = 33.13161 49.18877 41.16019
# Shear Modulus (GPa) = 20.29427 23.86186 22.07807
#
# Velocity S-wave (km/s) = 3.31475 3.59432 3.45736
# Velocity P-wave (km/s) = 5.70859 6.62246 6.18243
#
# Compressibility (1/GPa) = 0.03018266
#
# Stress axis : x y z
#
# Youngs Moduli (GPa) = 103.21574 33.06349 36.04799
#
# Poissons Ratio (x) = 0.12234 0.25879
# Poissons Ratio (y) = 0.38191 0.28357
# Poissons Ratio (z) = 0.74099 0.26010
#
# Static dielectric constant tensor:
#      x y z
#    x 3.838560 0.000000 0.000000 
#    y 0.000000 3.132140 0.000000 
#    z 0.000000 0.000000 3.324330 
# 
# 
# High freq. dielectric constant tensor:
#      x y z
#    x 1.733880 0.000000 0.000000 
#    y 0.000000 1.688060 0.000000 
#    z 0.000000 0.000000 1.700680 
# 
# From -- ./inp_files/29940.got.cif
#   From: 2010.03.12/outbox.cif.g09.slc.cpg/sg62_15_cif.got.tgz:29940.got - 2010.04.10 19:12:36.
