data_PCOD8250948
_publ_section_title
;
Structure prediction by ZEFSAII (Michael W. Deem and Ramdas Pophale) SiO2 
 PCOD8250948
Probable space group: P N M A
;
_chemical_formula_sum "Si O2"
_cell_formula_units_Z 48
_cell_length_a 24.037807
_cell_length_b 8.762880
_cell_length_c 13.656698
_cell_angle_alpha 90.000000
_cell_angle_beta 90.000000
_cell_angle_gamma 90.000000
_cell_volume 2876.652578
_symmetry_space_group_name_H-M "P N M A"
_symmetry_group_IT_number 62
_symmetry_cell_setting 'orthorhombic'
loop_
_space_group_symop_operation_xyz
x,y,z
1/2-x,-y,1/2+z
1/2+x,1/2-y,1/2-z
-x,1/2+y,-z
-x,-y,-z
1/2+x,y,1/2-z
1/2-x,1/2+y,1/2+z
x,1/2-y,z
loop_
_atom_site_type_symbol
_atom_site_label
_atom_site_fract_x
_atom_site_fract_y
_atom_site_fract_z
Si Si1 0.777382 0.568826 0.105359
Si Si2 0.770990 0.430303 0.899719
Si Si3 0.443356 0.069410 0.887078
Si Si4 0.556571 0.929116 0.890047
Si Si5 0.329840 0.430683 0.210161
Si Si6 0.833128 0.429533 0.709483
O O1 0.781138 0.750000 0.094833
O O2 0.821357 0.513332 0.186203
O O3 0.716115 0.512490 0.138229
O O4 0.792670 0.489442 0.003488
O O5 0.760391 0.250000 0.900739
O O6 0.713758 0.512917 0.871189
O O7 0.818770 0.474449 0.821084
O O8 0.444862 0.250000 0.879193
O O9 0.392248 0.999904 0.823334
O O10 0.501254 0.005224 0.844824
O O11 0.434375 0.014388 0.998645
O O12 0.547975 0.750000 0.887652
O O13 0.609128 0.979131 0.825849
O O14 0.323762 0.250000 0.222180
O O15 0.836363 0.250000 0.697447
#
# Coordination Sequence:
#
# PCOD8250948 Si02
#       6
#     8   8   8   8   8   8
#     4  10  19  32  49  70  97 125 156 193 235 281
#     4  10  19  31  48  71  97 124 157 193 233 280
#     4   9  16  29  48  67  90 122 155 185 226 279
#     4   9  18  30  45  68  96 123 151 189 235 276
#     4  10  19  32  49  69  96 127 157 191 234 279
#     4   8  16  30  47  67  92 122 152 187 231 277
#
# _framework density 16.686060999999999
#
# number of rings (size 3 to 8) (size 9 to 14) (size 15 to 20)
#    0.000    2.667    0.000    3.500    0.000    4.000 
#    0.000    8.333    0.000    1.000    0.000    0.000 
#    0.000    0.000    0.000    0.000    0.000    0.000 
#
# Total GULP energy -595137.945254 kJ/mol
# GULP energy per Si atom -12398.707193 kJ/mol
# Density = 1.664808 g / cm^3
# Si number density = 16.686061 Si / 1000 Ang^3
#
#
#
# Elastic Constant Matrix: (Units=GPa)
#
#
# Indices 1 2 3 4 5 6 
#
# 1 144.8728 28.0896 62.1374 0.0000 0.0000 0.0000
# 2 28.0896 27.4589 16.8200 0.0000 0.0000 0.0000
# 3 62.1374 16.8200 103.5452 0.0000 0.0000 0.0000
# 4 0.0000 0.0000 0.0000 27.0562 0.0000 0.0000
# 5 0.0000 0.0000 0.0000 0.0000 23.3366 0.0000
# 6 0.0000 0.0000 0.0000 0.0000 0.0000 25.6012
#
#
#
# Elastic Compliance Matrix: (Units=1/GPa)
#
#
# Indices 1 2 3 4 5 6 
#
# 1 0.010583 -0.007703 -0.005100 0.000000 0.000000 0.000000
# 2 -0.007703 0.046048 -0.002858 0.000000 0.000000 0.000000
# 3 -0.005100 -0.002858 0.013182 0.000000 0.000000 0.000000
# 4 0.000000 0.000000 0.000000 0.036960 0.000000 0.000000
# 5 0.000000 0.000000 0.000000 0.000000 0.042851 0.000000
# 6 0.000000 0.000000 0.000000 0.000000 0.000000 0.039061
#
#
# Mechanical properties :
#
#
# Convention : Reuss Voigt Hill
#
# Bulk Modulus (GPa) = 25.97853 54.44121 40.20987
# Shear Modulus (GPa) = 21.47418 26.45411 23.96414
#
# Velocity S-wave (km/s) = 3.59130 3.98603 3.79380
# Velocity P-wave (km/s) = 5.72708 7.34045 6.58337
#
# Compressibility (1/GPa) = 0.03849332
#
# Stress axis : x y z
#
# Youngs Moduli (GPa) = 94.48690 21.71638 75.85927
#
# Poissons Ratio (x) = 0.16727 0.38688
# Poissons Ratio (y) = 0.72779 0.21679
# Poissons Ratio (z) = 0.48188 0.06206
#
# Static dielectric constant tensor:
#      x y z
#    x 3.284870 0.000000 0.000000 
#    y 0.000000 3.013960 0.000000 
#    z 0.000000 0.000000 3.166070 
# 
# 
# High freq. dielectric constant tensor:
#      x y z
#    x 1.635660 0.000000 0.000000 
#    y 0.000000 1.637370 0.000000 
#    z 0.000000 0.000000 1.633360 
# 
# From -- ./inp_files/15116.got.cif
#   From: 2010.03.12/outbox.cif.g09.slc.cpg/sg62_8_cif.got.tgz:15116.got - 2010.04.10 19:12:36.
