data_PCOD8250209
_publ_section_title
;
Structure prediction by ZEFSAII (Michael W. Deem and Ramdas Pophale) SiO2 
 PCOD8250209
Probable space group: P N M A
;
_chemical_formula_sum "Si O2"
_cell_formula_units_Z 40
_cell_length_a 7.375345
_cell_length_b 23.670509
_cell_length_c 11.822188
_cell_angle_alpha 90.000000
_cell_angle_beta 90.000000
_cell_angle_gamma 90.000000
_cell_volume 2063.895949
_symmetry_space_group_name_H-M "P N M A"
_symmetry_group_IT_number 62
_symmetry_cell_setting 'orthorhombic'
loop_
_space_group_symop_operation_xyz
x,y,z
1/2-x,-y,1/2+z
1/2+x,1/2-y,1/2-z
-x,1/2+y,-z
-x,-y,-z
1/2+x,y,1/2-z
1/2-x,1/2+y,1/2+z
x,1/2-y,z
loop_
_atom_site_type_symbol
_atom_site_label
_atom_site_fract_x
_atom_site_fract_y
_atom_site_fract_z
Si Si1 0.989516 0.574385 0.882432
Si Si2 0.328708 0.923550 0.017325
Si Si3 0.892495 0.474606 0.348566
Si Si4 0.172291 0.186571 0.182523
Si Si5 0.062210 0.312796 0.425085
O O1 0.113782 0.568463 0.993911
O O2 0.091976 0.540417 0.782426
O O3 0.790649 0.549761 0.904494
O O4 0.975096 0.641106 0.857204
O O5 0.383038 0.857219 0.023503
O O6 0.433929 0.949316 0.910234
O O7 0.383763 0.957099 0.131548
O O8 0.100859 0.250000 0.154357
O O9 0.362013 0.174242 0.122099
O O10 0.198342 0.180887 0.318372
O O11 0.072417 0.250000 0.478036
#
# Coordination Sequence:
#
# PCOD8250209 Si02
#       5
#     8   8   8   8   8
#     4  12  19  36  53  72 106 139 170 206 258 294
#     4  11  22  34  51  74 104 134 173 207 247 305
#     4  11  22  34  50  75 103 136 170 211 248 297
#     4  10  18  28  46  72 101 134 167 195 245 312
#     4  10  18  30  47  70 102 134 164 205 249 301
#
# _framework density 19.380821999999998
#
# number of rings (size 3 to 8) (size 9 to 14) (size 15 to 20)
#    0.000    1.200    6.000    1.800    0.000    2.400 
#    0.000    0.000    0.000    0.000    0.000    1.400 
#    0.000    0.000    0.000    0.000    0.000    0.000 
#
# Total GULP energy -495785.493559 kJ/mol
# GULP energy per Si atom -12394.637339 kJ/mol
# Density = 1.933671 g / cm^3
# Si number density = 19.380822 Si / 1000 Ang^3
#
#
#
# Elastic Constant Matrix: (Units=GPa)
#
#
# Indices 1 2 3 4 5 6 
#
# 1 80.4563 28.0693 7.0657 0.0000 0.0000 0.0000
# 2 28.0693 137.4512 28.3187 0.0000 0.0000 0.0000
# 3 7.0657 28.3187 21.9025 0.0000 0.0000 0.0000
# 4 0.0000 0.0000 0.0000 28.6211 0.0000 0.0000
# 5 0.0000 0.0000 0.0000 0.0000 10.9855 0.0000
# 6 0.0000 0.0000 0.0000 0.0000 0.0000 21.9788
#
#
#
# Elastic Compliance Matrix: (Units=1/GPa)
#
#
# Indices 1 2 3 4 5 6 
#
# 1 0.013401 -0.002516 -0.001070 0.000000 0.000000 0.000000
# 2 -0.002516 0.010390 -0.012621 0.000000 0.000000 0.000000
# 3 -0.001070 -0.012621 0.062321 0.000000 0.000000 0.000000
# 4 0.000000 0.000000 0.000000 0.034939 0.000000 0.000000
# 5 0.000000 0.000000 0.000000 0.000000 0.091029 0.000000
# 6 0.000000 0.000000 0.000000 0.000000 0.000000 0.045498
#
#
# Mechanical properties :
#
#
# Convention : Reuss Voigt Hill
#
# Bulk Modulus (GPa) = 18.62318 40.74638 29.68478
# Shear Modulus (GPa) = 16.23951 24.07417 20.15684
#
# Velocity S-wave (km/s) = 2.89782 3.52826 3.22846
# Velocity P-wave (km/s) = 4.56360 6.13741 5.40806
#
# Compressibility (1/GPa) = 0.05369654
#
# Stress axis : x y z
#
# Youngs Moduli (GPa) = 74.62174 96.25095 16.04601
#
# Poissons Ratio (x) = 0.24219 0.01717
# Poissons Ratio (y) = 0.18777 0.20252
# Poissons Ratio (z) = 0.07983 1.21482
#
# Static dielectric constant tensor:
#      x y z
#    x 3.635320 0.000000 0.000000 
#    y 0.000000 3.973400 0.000000 
#    z 0.000000 0.000000 2.858210 
# 
# 
# High freq. dielectric constant tensor:
#      x y z
#    x 1.778210 0.000000 0.000000 
#    y 0.000000 1.771860 0.000000 
#    z 0.000000 0.000000 1.664780 
# 
# From -- ./inp_files/17046.got.cif
#   From: 2010.03.12/outbox.cif.g09.slc.cpg/sg62_9_cif.got.tgz:17046.got - 2010.04.10 19:12:36.
