data_PCOD8250265
_publ_section_title
;
Structure prediction by ZEFSAII (Michael W. Deem and Ramdas Pophale) SiO2 
 PCOD8250265
Probable space group: P N M A
;
_chemical_formula_sum "Si O2"
_cell_formula_units_Z 48
_cell_length_a 18.188068
_cell_length_b 8.421529
_cell_length_c 17.865309
_cell_angle_alpha 90.000000
_cell_angle_beta 90.000000
_cell_angle_gamma 90.000000
_cell_volume 2736.453357
_symmetry_space_group_name_H-M "P N M A"
_symmetry_group_IT_number 62
_symmetry_cell_setting 'orthorhombic'
loop_
_space_group_symop_operation_xyz
x,y,z
1/2-x,-y,1/2+z
1/2+x,1/2-y,1/2-z
-x,1/2+y,-z
-x,-y,-z
1/2+x,y,1/2-z
1/2-x,1/2+y,1/2+z
x,1/2-y,z
loop_
_atom_site_type_symbol
_atom_site_label
_atom_site_fract_x
_atom_site_fract_y
_atom_site_fract_z
Si Si1 0.804683 0.561809 0.082974
Si Si2 0.304162 0.932267 0.182663
Si Si3 0.579939 0.438379 0.704947
Si Si4 0.811623 0.565878 0.913766
Si Si5 0.202428 0.065643 0.305668
Si Si6 0.084506 0.563698 0.211849
O O1 0.794756 0.750000 0.086250
O O2 0.872093 0.498602 0.134473
O O3 0.728077 0.479960 0.110458
O O4 0.820099 0.505608 0.998539
O O5 0.306939 0.750000 0.157068
O O6 0.383289 0.990023 0.215149
O O7 0.272780 0.035132 0.113414
O O8 0.248673 0.950513 0.251878
O O9 0.579987 0.250000 0.699967
O O10 0.497580 0.506293 0.700424
O O11 0.830431 0.750000 0.905974
O O12 0.868850 0.469490 0.862988
O O13 0.217320 0.250000 0.288698
O O14 0.117888 0.023364 0.285667
O O15 0.081503 0.750000 0.227263
#
# Coordination Sequence:
#
# PCOD8250265 Si02
#       6
#     8   8   8   8   8   8
#     4   9  18  33  49  66  93 125 154 187 228 271
#     4   9  16  30  49  66  89 121 157 191 224 266
#     4   8  16  30  48  68  89 121 158 187 221 270
#     4  10  19  30  46  70  97 122 151 188 229 271
#     4  10  18  29  46  68  91 116 154 194 226 266
#     4  10  18  30  48  68  93 123 154 185 224 274
#
# _framework density 17.540953999999999
#
# number of rings (size 3 to 8) (size 9 to 14) (size 15 to 20)
#    0.000    2.667    0.000    6.000    0.000    2.000 
#    0.000    8.333    0.000    1.000    0.000    0.000 
#    0.000    0.000    0.000    0.000    0.000    0.000 
#
# Total GULP energy -594789.391180 kJ/mol
# GULP energy per Si atom -12391.445650 kJ/mol
# Density = 1.750103 g / cm^3
# Si number density = 17.540954 Si / 1000 Ang^3
#
#
#
# Elastic Constant Matrix: (Units=GPa)
#
#
# Indices 1 2 3 4 5 6 
#
# 1 119.2535 19.1541 73.6101 0.0000 0.0000 0.0000
# 2 19.1541 37.2917 15.2955 0.0000 0.0000 0.0000
# 3 73.6101 15.2955 62.4918 0.0000 0.0000 0.0000
# 4 0.0000 0.0000 0.0000 24.2040 0.0000 0.0000
# 5 0.0000 0.0000 0.0000 0.0000 20.3464 0.0000
# 6 0.0000 0.0000 0.0000 0.0000 0.0000 14.9642
#
#
#
# Elastic Compliance Matrix: (Units=1/GPa)
#
#
# Indices 1 2 3 4 5 6 
#
# 1 0.030761 -0.001043 -0.035979 0.000000 0.000000 0.000000
# 2 -0.001043 0.029843 -0.006076 0.000000 0.000000 0.000000
# 3 -0.035979 -0.006076 0.059870 0.000000 0.000000 0.000000
# 4 0.000000 0.000000 0.000000 0.041316 0.000000 0.000000
# 5 0.000000 0.000000 0.000000 0.000000 0.049149 0.000000
# 6 0.000000 0.000000 0.000000 0.000000 0.000000 0.066826
#
#
# Mechanical properties :
#
#
# Convention : Reuss Voigt Hill
#
# Bulk Modulus (GPa) = 29.17292 48.35070 38.76181
# Shear Modulus (GPa) = 13.31960 19.30141 16.31050
#
# Velocity S-wave (km/s) = 2.75861 3.32077 3.05266
# Velocity P-wave (km/s) = 5.17822 6.50597 5.87970
#
# Compressibility (1/GPa) = 0.03427836
#
# Stress axis : x y z
#
# Youngs Moduli (GPa) = 32.50839 33.50823 16.70297
#
# Poissons Ratio (x) = 0.03494 0.60096
# Poissons Ratio (y) = 0.03390 0.10149
# Poissons Ratio (z) = 1.16962 0.20360
#
# Static dielectric constant tensor:
#      x y z
#    x 3.647470 0.000000 0.000000 
#    y 0.000000 3.066810 0.000000 
#    z 0.000000 0.000000 3.375460 
# 
# 
# High freq. dielectric constant tensor:
#      x y z
#    x 1.664220 0.000000 0.000000 
#    y 0.000000 1.670770 0.000000 
#    z 0.000000 0.000000 1.658200 
# 
# From -- ./inp_files/24234.got.cif
#   From: 2010.03.12/outbox.cif.g09.slc.cpg/sg62_13_cif.got.tgz:24234.got - 2010.04.10 19:12:36.
