data_PCOD8250618
_publ_section_title
;
Structure prediction by ZEFSAII (Michael W. Deem and Ramdas Pophale) SiO2 
 PCOD8250618
Probable space group: P N M A
;
_chemical_formula_sum "Si O2"
_cell_formula_units_Z 64
_cell_length_a 19.496751
_cell_length_b 8.851860
_cell_length_c 20.709836
_cell_angle_alpha 90.000000
_cell_angle_beta 90.000000
_cell_angle_gamma 90.000000
_cell_volume 3574.155485
_symmetry_space_group_name_H-M "P N M A"
_symmetry_group_IT_number 62
_symmetry_cell_setting 'orthorhombic'
loop_
_space_group_symop_operation_xyz
x,y,z
1/2-x,-y,1/2+z
1/2+x,1/2-y,1/2-z
-x,1/2+y,-z
-x,-y,-z
1/2+x,y,1/2-z
1/2-x,1/2+y,1/2+z
x,1/2-y,z
loop_
_atom_site_type_symbol
_atom_site_label
_atom_site_fract_x
_atom_site_fract_y
_atom_site_fract_z
Si Si1 0.581137 0.922790 0.376299
Si Si2 0.698750 0.928107 0.566824
Si Si3 0.289368 0.071929 0.187865
Si Si4 0.565620 0.927699 0.765582
Si Si5 0.426392 0.925463 0.371414
Si Si6 0.209312 0.071581 0.312270
Si Si7 0.574648 0.926736 0.226749
Si Si8 0.292879 0.928017 0.564821
O O1 0.604241 0.750000 0.387308
O O2 0.502998 0.947513 0.399039
O O3 0.587858 0.967675 0.301297
O O4 0.628598 0.032674 0.418012
O O5 0.686654 0.750000 0.564990
O O6 0.750024 0.976241 0.623711
O O7 0.625815 0.010485 0.575761
O O8 0.730642 0.986234 0.499782
O O9 0.280021 0.250000 0.190959
O O10 0.369615 0.028461 0.189446
O O11 0.249690 0.004734 0.250183
O O12 0.256117 0.009778 0.121987
O O13 0.553240 0.750000 0.763258
O O14 0.583799 0.982127 0.694046
O O15 0.498517 0.006280 0.795155
O O16 0.412309 0.750000 0.356748
O O17 0.200800 0.250000 0.307809
O O18 0.134192 0.998416 0.316606
O O19 0.571887 0.750000 0.214862
O O20 0.285626 0.750000 0.554444
#
# Coordination Sequence:
#
# PCOD8250618 Si02
#       8
#     8   8   8   8   8   8   8   8
#     4   9  19  34  50  74 109 144 178 215 259 317
#     4  11  23  38  55  77 109 145 183 222 269 330
#     4   9  18  34  56  82 106 136 182 225 265 316
#     4  10  18  33  56  81 110 144 179 221 270 323
#     4  10  20  34  52  78 111 144 183 225 266 315
#     4  10  19  36  58  80 105 141 184 223 266 322
#     4  10  20  33  52  84 115 139 175 226 274 318
#     4  11  22  36  55  78 107 141 180 225 269 317
#
# _framework density 17.906328999999999
#
# number of rings (size 3 to 8) (size 9 to 14) (size 15 to 20)
#    0.000    2.000    2.500    2.625    0.000    4.000 
#    0.000    2.500    0.000    0.750    0.000    0.000 
#    0.000    0.000    0.000    0.000    0.000    0.000 
#
# Total GULP energy -793744.849899 kJ/mol
# GULP energy per Si atom -12402.263280 kJ/mol
# Density = 1.786557 g / cm^3
# Si number density = 17.906329 Si / 1000 Ang^3
#
#
#
# Elastic Constant Matrix: (Units=GPa)
#
#
# Indices 1 2 3 4 5 6 
#
# 1 123.6146 42.4665 68.3060 0.0000 0.0000 0.0000
# 2 42.4665 57.4009 33.9593 0.0000 0.0000 0.0000
# 3 68.3060 33.9593 105.4214 0.0000 0.0000 0.0000
# 4 0.0000 0.0000 0.0000 26.8621 0.0000 0.0000
# 5 0.0000 0.0000 0.0000 0.0000 24.1789 0.0000
# 6 0.0000 0.0000 0.0000 0.0000 0.0000 24.5394
#
#
#
# Elastic Compliance Matrix: (Units=1/GPa)
#
#
# Indices 1 2 3 4 5 6 
#
# 1 0.014216 -0.006261 -0.007194 0.000000 0.000000 0.000000
# 2 -0.006261 0.024281 -0.003765 0.000000 0.000000 0.000000
# 3 -0.007194 -0.003765 0.015360 0.000000 0.000000 0.000000
# 4 0.000000 0.000000 0.000000 0.037227 0.000000 0.000000
# 5 0.000000 0.000000 0.000000 0.000000 0.041358 0.000000
# 6 0.000000 0.000000 0.000000 0.000000 0.000000 0.040751
#
#
# Mechanical properties :
#
#
# Convention : Reuss Voigt Hill
#
# Bulk Modulus (GPa) = 51.50251 63.98891 57.74571
# Shear Modulus (GPa) = 23.35310 24.56310 23.95810
#
# Velocity S-wave (km/s) = 3.61526 3.70774 3.66179
# Velocity P-wave (km/s) = 6.80084 7.35817 7.08499
#
# Compressibility (1/GPa) = 0.01941653
#
# Stress axis : x y z
#
# Youngs Moduli (GPa) = 70.34434 41.18497 65.10538
#
# Poissons Ratio (x) = 0.25786 0.46837
# Poissons Ratio (y) = 0.44043 0.24511
# Poissons Ratio (z) = 0.50606 0.15505
#
# Static dielectric constant tensor:
#      x y z
#    x 3.426320 0.000000 0.000000 
#    y 0.000000 3.217220 0.000000 
#    z 0.000000 0.000000 3.204780 
# 
# 
# High freq. dielectric constant tensor:
#      x y z
#    x 1.696450 0.000000 0.000000 
#    y 0.000000 1.692470 0.000000 
#    z 0.000000 0.000000 1.667460 
# 
# From -- ./inp_files/24682.got.cif
#   From: 2010.03.12/outbox.cif.g09.slc.cpg/sg62_13_cif.got.tgz:24682.got - 2010.04.10 19:12:36.
