data_PCOD8250129
_publ_section_title
;
Structure prediction by ZEFSAII (Michael W. Deem and Ramdas Pophale) SiO2 
 PCOD8250129
Probable space group: P N M A
;
_chemical_formula_sum "Si O2"
_cell_formula_units_Z 64
_cell_length_a 18.649764
_cell_length_b 8.754865
_cell_length_c 26.534721
_cell_angle_alpha 90.000000
_cell_angle_beta 90.000000
_cell_angle_gamma 90.000000
_cell_volume 4332.487513
_symmetry_space_group_name_H-M "P N M A"
_symmetry_group_IT_number 62
_symmetry_cell_setting 'orthorhombic'
loop_
_space_group_symop_operation_xyz
x,y,z
1/2-x,-y,1/2+z
1/2+x,1/2-y,1/2-z
-x,1/2+y,-z
-x,-y,-z
1/2+x,y,1/2-z
1/2-x,1/2+y,1/2+z
x,1/2-y,z
loop_
_atom_site_type_symbol
_atom_site_label
_atom_site_fract_x
_atom_site_fract_y
_atom_site_fract_z
Si Si1 0.926261 0.072833 0.760163
Si Si2 0.662716 0.072548 0.647318
Si Si3 0.572598 0.069587 0.556445
Si Si4 0.788241 0.073202 0.709855
Si Si5 0.665492 0.569145 0.354800
Si Si6 0.578950 0.429281 0.442159
Si Si7 0.290029 0.071885 0.199242
Si Si8 0.915184 0.931711 0.248198
O O1 0.939850 0.250000 0.769566
O O2 0.874118 0.045137 0.711229
O O3 0.887927 0.007595 0.810558
O O4 0.003909 0.999432 0.749425
O O5 0.647564 0.250000 0.643513
O O6 0.633986 0.004594 0.594510
O O7 0.748457 0.039991 0.656237
O O8 0.618162 0.010503 0.695212
O O9 0.559396 0.250000 0.560851
O O10 0.596070 0.025964 0.500003
O O11 0.499666 0.987143 0.572662
O O12 0.772372 0.250000 0.725975
O O13 0.753211 0.960944 0.749881
O O14 0.669605 0.750000 0.353979
O O15 0.638107 0.512184 0.408539
O O16 0.745778 0.503970 0.346680
O O17 0.583456 0.250000 0.432828
O O18 0.296778 0.250000 0.188911
O O19 0.369864 0.001392 0.205240
O O20 0.912963 0.750000 0.253316
#
# Coordination Sequence:
#
# PCOD8250129 Si02
#       8
#     8   8   8   8   8   8   8   8
#     4   8  14  24  41  60  75  97 131 164 188 223
#     4   8  13  23  40  56  73 103 139 165 185 223
#     4   9  17  29  42  56  78 109 139 166 199 236
#     4   8  14  26  41  57  76 101 133 163 191 225
#     4  10  18  30  45  57  74 105 139 166 198 236
#     4  10  19  28  39  58  81 103 133 173 207 233
#     4  10  18  27  38  56  80 102 127 160 195 229
#     4   9  15  25  40  57  77 102 131 157 185 224
#
# _framework density 14.772114
#
# number of rings (size 3 to 8) (size 9 to 14) (size 15 to 20)
#    0.000    3.000    0.000    4.125    0.000    2.500 
#    0.000    8.125    0.000    0.000    0.000    0.000 
#    0.000    1.000    0.000    1.750    0.000    2.500 
#
# Total GULP energy -792879.115844 kJ/mol
# GULP energy per Si atom -12388.736185 kJ/mol
# Density = 1.473849 g / cm^3
# Si number density = 14.772114 Si / 1000 Ang^3
#
#
#
# Elastic Constant Matrix: (Units=GPa)
#
#
# Indices 1 2 3 4 5 6 
#
# 1 115.4750 22.2079 56.2819 0.0000 0.0000 0.0000
# 2 22.2079 41.1304 20.0655 0.0000 0.0000 0.0000
# 3 56.2819 20.0655 79.8729 0.0000 0.0000 0.0000
# 4 0.0000 0.0000 0.0000 16.1590 0.0000 0.0000
# 5 0.0000 0.0000 0.0000 0.0000 28.9514 0.0000
# 6 0.0000 0.0000 0.0000 0.0000 0.0000 13.6070
#
#
#
# Elastic Compliance Matrix: (Units=1/GPa)
#
#
# Indices 1 2 3 4 5 6 
#
# 1 0.013511 -0.003021 -0.008762 0.000000 0.000000 0.000000
# 2 -0.003021 0.028384 -0.005002 0.000000 0.000000 0.000000
# 3 -0.008762 -0.005002 0.019950 0.000000 0.000000 0.000000
# 4 0.000000 0.000000 0.000000 0.061885 0.000000 0.000000
# 5 0.000000 0.000000 0.000000 0.000000 0.034541 0.000000
# 6 0.000000 0.000000 0.000000 0.000000 0.000000 0.073491
#
#
# Mechanical properties :
#
#
# Convention : Reuss Voigt Hill
#
# Bulk Modulus (GPa) = 35.36478 48.17653 41.77065
# Shear Modulus (GPa) = 18.19785 20.93835 19.56810
#
# Velocity S-wave (km/s) = 3.51366 3.76895 3.64354
# Velocity P-wave (km/s) = 6.36029 7.18498 6.78518
#
# Compressibility (1/GPa) = 0.02827672
#
# Stress axis : x y z
#
# Youngs Moduli (GPa) = 74.01227 35.23079 50.12432
#
# Poissons Ratio (x) = 0.10643 0.43918
# Poissons Ratio (y) = 0.22358 0.25072
# Poissons Ratio (z) = 0.64848 0.17623
#
# Static dielectric constant tensor:
#      x y z
#    x 3.140590 0.000000 0.000000 
#    y 0.000000 2.665240 0.000000 
#    z 0.000000 0.000000 2.837580 
# 
# 
# High freq. dielectric constant tensor:
#      x y z
#    x 1.559950 0.000000 0.000000 
#    y 0.000000 1.549990 0.000000 
#    z 0.000000 0.000000 1.530080 
# 
# From -- ./inp_files/30089.got.cif
#   From: 2010.03.12/outbox.cif.g09.slc.cpg/sg62_16_cif.got.tgz:30089.got - 2010.04.10 19:12:36.
