data_PCOD8250365
_publ_section_title
;
Structure prediction by ZEFSAII (Michael W. Deem and Ramdas Pophale) SiO2 
 PCOD8250365
Probable space group: P N M A
;
_chemical_formula_sum "Si O2"
_cell_formula_units_Z 56
_cell_length_a 22.378520
_cell_length_b 9.566334
_cell_length_c 14.256024
_cell_angle_alpha 90.000000
_cell_angle_beta 90.000000
_cell_angle_gamma 90.000000
_cell_volume 3051.935274
_symmetry_space_group_name_H-M "P N M A"
_symmetry_group_IT_number 62
_symmetry_cell_setting 'orthorhombic'
loop_
_space_group_symop_operation_xyz
x,y,z
1/2-x,-y,1/2+z
1/2+x,1/2-y,1/2-z
-x,1/2+y,-z
-x,-y,-z
1/2+x,y,1/2-z
1/2-x,1/2+y,1/2+z
x,1/2-y,z
loop_
_atom_site_type_symbol
_atom_site_label
_atom_site_fract_x
_atom_site_fract_y
_atom_site_fract_z
Si Si1 0.658518 0.586125 0.374963
Si Si2 0.309962 0.593361 0.797731
Si Si3 0.937308 0.594225 0.606526
Si Si4 0.258885 0.915061 0.987696
Si Si5 0.029618 0.413690 0.718037
Si Si6 0.376401 0.914802 0.078338
Si Si7 0.477110 0.086095 0.587426
O O1 0.662407 0.750000 0.352974
O O2 0.692368 0.508056 0.291143
O O3 0.694032 0.546759 0.470648
O O4 0.590101 0.538205 0.386804
O O5 0.290189 0.750000 0.767136
O O6 0.376211 0.597845 0.836813
O O7 0.266369 0.531760 0.880181
O O8 0.965637 0.750000 0.605775
O O9 0.924077 0.539448 0.501347
O O10 0.980466 0.487030 0.655677
O O11 0.268546 0.750000 0.983391
O O12 0.310927 0.979745 0.056241
O O13 0.018707 0.250000 0.704280
O O14 0.095660 0.459008 0.679737
O O15 0.021451 0.452925 0.827011
O O16 0.369473 0.750000 0.073918
O O17 0.478649 0.250000 0.563088
O O18 0.500000 0.000000 0.500000
#
# Coordination Sequence:
#
# PCOD8250365 Si02
#       7
#     8   8   8   8   8   8   8
#     4  10  19  35  57  77  99 132 172 215 257 296
#     4   9  17  31  52  75  99 130 168 207 249 307
#     4   9  16  27  47  74  99 128 162 193 242 307
#     4   8  16  32  52  74 102 136 171 204 251 313
#     4  10  18  30  49  73 101 130 163 206 249 291
#     4   8  15  28  47  73 103 131 159 196 246 306
#     4  10  22  37  52  73 101 134 173 214 256 298
#
# _framework density 18.349014
#
# number of rings (size 3 to 8) (size 9 to 14) (size 15 to 20)
#    0.000    2.857    1.429    2.143    0.000    1.143 
#    2.571    0.714    0.000    1.714    0.000    0.000 
#    0.000    0.000    0.000    0.000    0.000    0.000 
#
# Total GULP energy -693899.935671 kJ/mol
# GULP energy per Si atom -12391.070280 kJ/mol
# Density = 1.830725 g / cm^3
# Si number density = 18.349014 Si / 1000 Ang^3
#
#
#
# Elastic Constant Matrix: (Units=GPa)
#
#
# Indices 1 2 3 4 5 6 
#
# 1 43.8818 20.3432 43.5255 0.0000 0.0000 0.0000
# 2 20.3432 32.5880 33.3280 0.0000 0.0000 0.0000
# 3 43.5255 33.3280 106.2054 0.0000 0.0000 0.0000
# 4 0.0000 0.0000 0.0000 24.8190 0.0000 0.0000
# 5 0.0000 0.0000 0.0000 0.0000 22.5726 0.0000
# 6 0.0000 0.0000 0.0000 0.0000 0.0000 15.1354
#
#
#
# Elastic Compliance Matrix: (Units=1/GPa)
#
#
# Indices 1 2 3 4 5 6 
#
# 1 0.041624 -0.012573 -0.013113 0.000000 0.000000 0.000000
# 2 -0.012573 0.048987 -0.010220 0.000000 0.000000 0.000000
# 3 -0.013113 -0.010220 0.017997 0.000000 0.000000 0.000000
# 4 0.000000 0.000000 0.000000 0.040292 0.000000 0.000000
# 5 0.000000 0.000000 0.000000 0.000000 0.044301 0.000000
# 6 0.000000 0.000000 0.000000 0.000000 0.000000 0.066070
#
#
# Mechanical properties :
#
#
# Convention : Reuss Voigt Hill
#
# Bulk Modulus (GPa) = 27.17701 41.89650 34.53676
# Shear Modulus (GPa) = 14.56256 18.20398 16.38327
#
# Velocity S-wave (km/s) = 2.82022 3.15317 2.99133
# Velocity P-wave (km/s) = 5.04462 6.01160 5.54921
#
# Compressibility (1/GPa) = 0.03679581
#
# Stress axis : x y z
#
# Youngs Moduli (GPa) = 24.02485 20.41374 55.56605
#
# Poissons Ratio (x) = 0.25667 0.72863
# Poissons Ratio (y) = 0.30207 0.56786
# Poissons Ratio (z) = 0.31503 0.20862
#
# Static dielectric constant tensor:
#      x y z
#    x 3.544380 0.000000 0.000000 
#    y 0.000000 3.200430 0.000000 
#    z 0.000000 0.000000 3.584560 
# 
# 
# High freq. dielectric constant tensor:
#      x y z
#    x 1.700900 0.000000 0.000000 
#    y 0.000000 1.676790 0.000000 
#    z 0.000000 0.000000 1.713530 
# 
# From -- ./inp_files/14770.got.cif
#   From: 2010.03.12/outbox.cif.g09.slc.cpg/sg62_8_cif.got.tgz:14770.got - 2010.04.10 19:12:36.
