data_PCOD8250682
_publ_section_title
;
Structure prediction by ZEFSAII (Michael W. Deem and Ramdas Pophale) SiO2 
 PCOD8250682
Probable space group: P N M A
;
_chemical_formula_sum "Si O2"
_cell_formula_units_Z 56
_cell_length_a 12.398038
_cell_length_b 14.724574
_cell_length_c 14.833774
_cell_angle_alpha 90.000000
_cell_angle_beta 90.000000
_cell_angle_gamma 90.000000
_cell_volume 2707.991895
_symmetry_space_group_name_H-M "P N M A"
_symmetry_group_IT_number 62
_symmetry_cell_setting 'orthorhombic'
loop_
_space_group_symop_operation_xyz
x,y,z
1/2-x,-y,1/2+z
1/2+x,1/2-y,1/2-z
-x,1/2+y,-z
-x,-y,-z
1/2+x,y,1/2-z
1/2-x,1/2+y,1/2+z
x,1/2-y,z
loop_
_atom_site_type_symbol
_atom_site_label
_atom_site_fract_x
_atom_site_fract_y
_atom_site_fract_z
Si Si1 0.251432 0.852696 0.847342
Si Si2 0.772952 0.848532 0.331270
Si Si3 0.681765 0.651379 0.142102
Si Si4 0.901330 0.573704 0.077780
Si Si5 0.944389 0.522253 0.595045
Si Si6 0.879056 0.108250 0.990959
Si Si7 0.387504 0.482157 0.238084
O O1 0.286425 0.750000 0.818546
O O2 0.345486 0.905504 0.903573
O O3 0.211434 0.911871 0.760222
O O4 0.148129 0.844994 0.913394
O O5 0.833729 0.750000 0.330692
O O6 0.689437 0.851504 0.249335
O O7 0.708172 0.855216 0.422673
O O8 0.853229 0.932319 0.323086
O O9 0.641221 0.750000 0.108650
O O10 0.798511 0.635451 0.097111
O O11 0.595264 0.577328 0.118543
O O12 0.936766 0.519004 0.168272
O O13 0.000770 0.635167 0.042887
O O14 0.871641 0.501214 0.999904
O O15 0.000000 0.500000 0.500000
O O16 0.023316 0.563158 0.672873
#
# Coordination Sequence:
#
# PCOD8250682 Si02
#       7
#     8   8   8   8   8   8   8
#     4  11  24  44  63  91 128 167 220 266 311 388
#     4  10  19  34  61  93 123 156 199 253 312 377
#     4  10  21  39  58  89 128 159 201 251 314 384
#     4   9  19  35  60  90 121 164 193 250 309 377
#     4  12  24  42  66  93 125 171 211 272 327 382
#     4  10  18  34  62  92 121 158 204 250 313 371
#     4  10  22  40  63  87 125 163 208 253 319 379
#
# _framework density 20.679528999999999
#
# number of rings (size 3 to 8) (size 9 to 14) (size 15 to 20)
#    0.000    1.714    4.286    2.143    0.000    2.857 
#    0.000    2.857    0.000    0.000    0.000    0.000 
#    0.000    0.000    0.000    0.000    0.000    0.000 
#
# Total GULP energy -693847.641864 kJ/mol
# GULP energy per Si atom -12390.136462 kJ/mol
# Density = 2.063246 g / cm^3
# Si number density = 20.679529 Si / 1000 Ang^3
#
#
#
# Elastic Constant Matrix: (Units=GPa)
#
#
# Indices 1 2 3 4 5 6 
#
# 1 72.4822 30.7605 35.7191 0.0000 0.0000 0.0000
# 2 30.7605 119.0248 24.8115 0.0000 0.0000 0.0000
# 3 35.7191 24.8115 62.6644 0.0000 0.0000 0.0000
# 4 0.0000 0.0000 0.0000 16.3155 0.0000 0.0000
# 5 0.0000 0.0000 0.0000 0.0000 35.4122 0.0000
# 6 0.0000 0.0000 0.0000 0.0000 0.0000 16.6638
#
#
#
# Elastic Compliance Matrix: (Units=1/GPa)
#
#
# Indices 1 2 3 4 5 6 
#
# 1 0.020164 -0.003068 -0.010279 0.000000 0.000000 0.000000
# 2 -0.003068 0.009624 -0.002062 0.000000 0.000000 0.000000
# 3 -0.010279 -0.002062 0.022633 0.000000 0.000000 0.000000
# 4 0.000000 0.000000 0.000000 0.061291 0.000000 0.000000
# 5 0.000000 0.000000 0.000000 0.000000 0.028239 0.000000
# 6 0.000000 0.000000 0.000000 0.000000 0.000000 0.060010
#
#
# Mechanical properties :
#
#
# Convention : Reuss Voigt Hill
#
# Bulk Modulus (GPa) = 46.28768 48.52818 47.40793
# Shear Modulus (GPa) = 20.83495 24.53698 22.68597
#
# Velocity S-wave (km/s) = 3.17758 3.44835 3.31573
# Velocity P-wave (km/s) = 5.99121 6.27475 6.13462
#
# Compressibility (1/GPa) = 0.02160402
#
# Stress axis : x y z
#
# Youngs Moduli (GPa) = 49.59318 103.90266 44.18275
#
# Poissons Ratio (x) = 0.31882 0.45414
# Poissons Ratio (y) = 0.15218 0.09109
# Poissons Ratio (z) = 0.50975 0.21421
#
# Static dielectric constant tensor:
#      x y z
#    x 3.648750 0.000000 0.000000 
#    y 0.000000 3.911880 0.000000 
#    z 0.000000 0.000000 3.377790 
# 
# 
# High freq. dielectric constant tensor:
#      x y z
#    x 1.795300 0.000000 0.000000 
#    y 0.000000 1.804850 0.000000 
#    z 0.000000 0.000000 1.804230 
# 
# From -- ./inp_files/18072.got.cif
#   From: 2010.03.12/outbox.cif.g09.slc.cpg/sg62_10_cif.got.tgz:18072.got - 2010.04.10 19:12:36.
