data_PCOD8250557
_publ_section_title
;
Structure prediction by ZEFSAII (Michael W. Deem and Ramdas Pophale) SiO2 
 PCOD8250557
Probable space group: P N M A
;
_chemical_formula_sum "Si O2"
_cell_formula_units_Z 56
_cell_length_a 19.229304
_cell_length_b 8.801027
_cell_length_c 17.659065
_cell_angle_alpha 90.000000
_cell_angle_beta 90.000000
_cell_angle_gamma 90.000000
_cell_volume 2988.578197
_symmetry_space_group_name_H-M "P N M A"
_symmetry_group_IT_number 62
_symmetry_cell_setting 'orthorhombic'
loop_
_space_group_symop_operation_xyz
x,y,z
1/2-x,-y,1/2+z
1/2+x,1/2-y,1/2-z
-x,1/2+y,-z
-x,-y,-z
1/2+x,y,1/2-z
1/2-x,1/2+y,1/2+z
x,1/2-y,z
loop_
_atom_site_type_symbol
_atom_site_label
_atom_site_fract_x
_atom_site_fract_y
_atom_site_fract_z
Si Si1 0.796347 0.079365 0.423886
Si Si2 0.442734 0.081203 0.598338
Si Si3 0.818406 0.931059 0.818736
Si Si4 0.218553 0.078900 0.924906
Si Si5 0.925164 0.068366 0.517937
Si Si6 0.576705 0.581230 0.578841
Si Si7 0.842990 0.572592 0.649306
O O1 0.818424 0.250000 0.404779
O O2 0.758310 0.008457 0.348845
O O3 0.735389 0.073461 0.486291
O O4 0.867838 0.003416 0.456570
O O5 0.444104 0.250000 0.634144
O O6 0.441307 0.093963 0.508634
O O7 0.375933 0.990864 0.624677
O O8 0.511577 0.990013 0.624043
O O9 0.816871 0.750000 0.822070
O O10 0.838642 0.988597 0.735287
O O11 0.231053 0.250000 0.894086
O O12 0.140530 0.030873 0.907513
O O13 0.267344 0.957708 0.884090
O O14 0.928021 0.250000 0.516310
O O15 0.901843 0.017518 0.602111
O O16 0.000000 0.000000 0.500000
O O17 0.592298 0.750000 0.611238
O O18 0.860939 0.750000 0.645620
#
# Coordination Sequence:
#
# PCOD8250557 Si02
#       7
#     8   8   8   8   8   8   8
#     4   8  16  31  54  79 101 133 177 221 270 320
#     4  10  20  31  48  76 107 140 176 220 265 314
#     4  10  19  35  55  77 107 144 181 223 273 333
#     4  10  18  32  54  76 104 139 177 225 267 314
#     4  10  20  37  60  84 109 143 188 239 283 331
#     4  10  19  31  49  75 105 138 177 219 263 316
#     4  10  21  35  55  81 110 142 179 225 279 336
#
# _framework density 18.738007
#
# number of rings (size 3 to 8) (size 9 to 14) (size 15 to 20)
#    0.000    2.286    1.429    3.000    0.000    2.286 
#    0.000    2.143    0.000    6.857    0.000    0.000 
#    0.000    0.000    0.000    0.000    0.000    0.000 
#
# Total GULP energy -693889.460155 kJ/mol
# GULP energy per Si atom -12390.883217 kJ/mol
# Density = 1.869536 g / cm^3
# Si number density = 18.738007 Si / 1000 Ang^3
#
#
#
# Elastic Constant Matrix: (Units=GPa)
#
#
# Indices 1 2 3 4 5 6 
#
# 1 146.5608 33.7895 46.6971 0.0000 0.0000 0.0000
# 2 33.7895 49.1706 28.4718 0.0000 0.0000 0.0000
# 3 46.6971 28.4718 71.4267 0.0000 0.0000 0.0000
# 4 0.0000 0.0000 0.0000 18.2558 0.0000 0.0000
# 5 0.0000 0.0000 0.0000 0.0000 15.0033 0.0000
# 6 0.0000 0.0000 0.0000 0.0000 0.0000 29.1187
#
#
#
# Elastic Compliance Matrix: (Units=1/GPa)
#
#
# Indices 1 2 3 4 5 6 
#
# 1 0.009096 -0.003650 -0.004492 0.000000 0.000000 0.000000
# 2 -0.003650 0.027904 -0.008737 0.000000 0.000000 0.000000
# 3 -0.004492 -0.008737 0.020420 0.000000 0.000000 0.000000
# 4 0.000000 0.000000 0.000000 0.054777 0.000000 0.000000
# 5 0.000000 0.000000 0.000000 0.000000 0.066652 0.000000
# 6 0.000000 0.000000 0.000000 0.000000 0.000000 0.034342
#
#
# Mechanical properties :
#
#
# Convention : Reuss Voigt Hill
#
# Bulk Modulus (GPa) = 42.26019 53.89720 48.07869
# Shear Modulus (GPa) = 19.62047 23.02220 21.32133
#
# Velocity S-wave (km/s) = 3.23939 3.50899 3.37689
# Velocity P-wave (km/s) = 6.04927 6.72632 6.39676
#
# Compressibility (1/GPa) = 0.02366293
#
# Stress axis : x y z
#
# Youngs Moduli (GPa) = 109.94243 35.83656 48.97213
#
# Poissons Ratio (x) = 0.13079 0.21997
# Poissons Ratio (y) = 0.40124 0.42788
# Poissons Ratio (z) = 0.49384 0.31311
#
# Static dielectric constant tensor:
#      x y z
#    x 3.539220 0.000000 0.000000 
#    y 0.000000 3.477660 0.000000 
#    z 0.000000 0.000000 3.406730 
# 
# 
# High freq. dielectric constant tensor:
#      x y z
#    x 1.732260 0.000000 0.000000 
#    y 0.000000 1.723160 0.000000 
#    z 0.000000 0.000000 1.695230 
# 
# From -- ./inp_files/27590.got.cif
#   From: 2010.03.12/outbox.cif.g09.slc.cpg/sg62_14_cif.got.tgz:27590.got - 2010.04.10 19:12:36.
