data_PCOD8250023
_publ_section_title
;
Structure prediction by ZEFSAII (Michael W. Deem and Ramdas Pophale) SiO2 
 PCOD8250023
Probable space group: P N M A
;
_chemical_formula_sum "Si O2"
_cell_formula_units_Z 48
_cell_length_a 8.944940
_cell_length_b 13.918897
_cell_length_c 24.706400
_cell_angle_alpha 90.000000
_cell_angle_beta 90.000000
_cell_angle_gamma 90.000000
_cell_volume 3076.038177
_symmetry_space_group_name_H-M "P N M A"
_symmetry_group_IT_number 62
_symmetry_cell_setting 'orthorhombic'
loop_
_space_group_symop_operation_xyz
x,y,z
1/2-x,-y,1/2+z
1/2+x,1/2-y,1/2-z
-x,1/2+y,-z
-x,-y,-z
1/2+x,y,1/2-z
1/2-x,1/2+y,1/2+z
x,1/2-y,z
loop_
_atom_site_type_symbol
_atom_site_label
_atom_site_fract_x
_atom_site_fract_y
_atom_site_fract_z
Si Si1 0.090231 0.640384 0.413421
Si Si2 0.598374 0.635462 0.301187
Si Si3 0.773412 0.540639 0.001067
Si Si4 0.254630 0.912493 0.093554
Si Si5 0.255486 0.636546 0.307500
Si Si6 0.072581 0.854419 0.999227
O O1 0.138030 0.750000 0.424098
O O2 0.129753 0.576943 0.466137
O O3 0.179493 0.596476 0.362163
O O4 0.914834 0.637420 0.402460
O O5 0.619242 0.750000 0.309251
O O6 0.689342 0.576356 0.346466
O O7 0.426477 0.603096 0.304017
O O8 0.663772 0.598870 0.244207
O O9 0.896491 0.624327 0.001870
O O10 0.729895 0.514839 0.938673
O O11 0.840656 0.443117 0.030080
O O12 0.137953 0.846038 0.060304
O O13 0.243714 0.750000 0.308028
O O14 0.096350 0.750000 0.970762
#
# Coordination Sequence:
#
# PCOD8250023 Si02
#       6
#     8   8   8   8   8   8
#     4  11  19  30  45  65  96 128 155 187 227 267
#     4  10  17  29  43  61  88 119 157 186 219 270
#     4   9  20  30  44  67  89 122 156 195 221 280
#     4  10  19  29  43  66  91 126 154 188 224 268
#     4   9  19  28  43  64  86 122 156 184 220 270
#     4   9  17  31  46  63  87 119 152 188 232 269
#
# _framework density 15.604488
#
# number of rings (size 3 to 8) (size 9 to 14) (size 15 to 20)
#    1.000    1.333    0.000    4.500    0.000    4.000 
#    0.000    0.000    0.000    0.000    0.000    0.000 
#    0.000    2.667    1.000    0.000    0.000    0.000 
#
# Total GULP energy -594750.398310 kJ/mol
# GULP energy per Si atom -12390.633298 kJ/mol
# Density = 1.556897 g / cm^3
# Si number density = 15.604488 Si / 1000 Ang^3
#
#
#
# Elastic Constant Matrix: (Units=GPa)
#
#
# Indices 1 2 3 4 5 6 
#
# 1 70.4714 17.0420 33.6344 0.0000 0.0000 0.0000
# 2 17.0420 56.1072 26.0627 0.0000 0.0000 0.0000
# 3 33.6344 26.0627 93.4745 0.0000 0.0000 0.0000
# 4 0.0000 0.0000 0.0000 20.9935 0.0000 0.0000
# 5 0.0000 0.0000 0.0000 0.0000 32.5873 0.0000
# 6 0.0000 0.0000 0.0000 0.0000 0.0000 13.3964
#
#
#
# Elastic Compliance Matrix: (Units=1/GPa)
#
#
# Indices 1 2 3 4 5 6 
#
# 1 0.017493 -0.002745 -0.005529 0.000000 0.000000 0.000000
# 2 -0.002745 0.020906 -0.004841 0.000000 0.000000 0.000000
# 3 -0.005529 -0.004841 0.014037 0.000000 0.000000 0.000000
# 4 0.000000 0.000000 0.000000 0.047634 0.000000 0.000000
# 5 0.000000 0.000000 0.000000 0.000000 0.030687 0.000000
# 6 0.000000 0.000000 0.000000 0.000000 0.000000 0.074647
#
#
# Mechanical properties :
#
#
# Convention : Reuss Voigt Hill
#
# Bulk Modulus (GPa) = 38.15996 41.50348 39.83172
# Shear Modulus (GPa) = 20.80138 22.94970 21.87554
#
# Velocity S-wave (km/s) = 3.65504 3.83915 3.74822
# Velocity P-wave (km/s) = 6.50538 6.80492 6.65684
#
# Compressibility (1/GPa) = 0.02620548
#
# Stress axis : x y z
#
# Youngs Moduli (GPa) = 57.16628 47.83406 71.23815
#
# Poissons Ratio (x) = 0.13130 0.39388
# Poissons Ratio (y) = 0.15692 0.34488
# Poissons Ratio (z) = 0.31607 0.23158
#
# Static dielectric constant tensor:
#      x y z
#    x 3.012650 0.000000 0.000000 
#    y 0.000000 2.608100 0.000000 
#    z 0.000000 0.000000 2.923680 
# 
# 
# High freq. dielectric constant tensor:
#      x y z
#    x 1.615770 0.000000 0.000000 
#    y 0.000000 1.550910 0.000000 
#    z 0.000000 0.000000 1.581170 
# 
# From -- ./inp_files/28873.got.cif
#   From: 2010.03.12/outbox.cif.g09.slc.cpg/sg62_15_cif.got.tgz:28873.got - 2010.04.10 19:12:36.
