data_PCOD8250432
_publ_section_title
;
Structure prediction by ZEFSAII (Michael W. Deem and Ramdas Pophale) SiO2 
 PCOD8250432
Probable space group: P N M A
;
_chemical_formula_sum "Si O2"
_cell_formula_units_Z 64
_cell_length_a 8.853923
_cell_length_b 13.395552
_cell_length_c 30.328423
_cell_angle_alpha 90.000000
_cell_angle_beta 90.000000
_cell_angle_gamma 90.000000
_cell_volume 3597.047593
_symmetry_space_group_name_H-M "P N M A"
_symmetry_group_IT_number 62
_symmetry_cell_setting 'orthorhombic'
loop_
_space_group_symop_operation_xyz
x,y,z
1/2-x,-y,1/2+z
1/2+x,1/2-y,1/2-z
-x,1/2+y,-z
-x,-y,-z
1/2+x,y,1/2-z
1/2-x,1/2+y,1/2+z
x,1/2-y,z
loop_
_atom_site_type_symbol
_atom_site_label
_atom_site_fract_x
_atom_site_fract_y
_atom_site_fract_z
Si Si1 0.073678 0.134801 0.464046
Si Si2 0.608359 0.631923 0.719214
Si Si3 0.061094 0.131128 0.305320
Si Si4 0.421504 0.633764 0.636668
Si Si5 0.110697 0.941518 0.941606
Si Si6 0.029009 0.637848 0.033811
Si Si7 0.602892 0.947948 0.888706
Si Si8 0.125121 0.138431 0.560626
O O1 0.124352 0.250000 0.462426
O O2 0.209753 0.069334 0.444382
O O3 0.038767 0.107394 0.515145
O O4 0.927944 0.115241 0.433520
O O5 0.618230 0.750000 0.717665
O O6 0.774077 0.589576 0.708032
O O7 0.556864 0.596887 0.767668
O O8 0.484341 0.596360 0.683744
O O9 0.059837 0.250000 0.311552
O O10 0.014880 0.080561 0.350972
O O11 0.377574 0.750000 0.638107
O O12 0.553161 0.614171 0.601762
O O13 0.273224 0.570884 0.626012
O O14 0.074870 0.059944 0.939543
O O15 0.024791 0.889637 0.982278
O O16 0.965064 0.750000 0.040369
O O17 0.197755 0.629783 0.051627
O O18 0.579628 0.064565 0.900016
O O19 0.080057 0.250000 0.575369
#
# Coordination Sequence:
#
# PCOD8250432 Si02
#       8
#     8   8   8   8   8   8   8   8
#     4  10  20  34  50  70 105 142 173 216 268 313
#     4   9  19  34  52  76 108 140 163 200 255 313
#     4  10  19  33  52  76 107 136 165 202 254 314
#     4  11  20  30  47  76 107 134 173 214 253 307
#     4  10  18  31  50  72  96 136 177 217 259 311
#     4   9  17  32  51  70  97 133 176 224 268 306
#     4  12  21  32  50  78 101 138 177 216 252 311
#     4   9  19  36  52  69  99 140 180 222 269 306
#
# _framework density 17.792369999999998
#
# number of rings (size 3 to 8) (size 9 to 14) (size 15 to 20)
#    0.000    2.000    1.250    4.875    0.000    3.000 
#    0.000    0.625    0.000    0.000    0.000    4.375 
#    0.000    0.000    0.000    0.000    0.000    0.000 
#
# Total GULP energy -793671.749560 kJ/mol
# GULP energy per Si atom -12401.121087 kJ/mol
# Density = 1.775187 g / cm^3
# Si number density = 17.792370 Si / 1000 Ang^3
#
#
#
# Elastic Constant Matrix: (Units=GPa)
#
#
# Indices 1 2 3 4 5 6 
#
# 1 69.2104 27.4947 35.0728 0.0000 0.0000 0.0000
# 2 27.4947 84.6219 45.8024 0.0000 0.0000 0.0000
# 3 35.0728 45.8024 100.8496 0.0000 0.0000 0.0000
# 4 0.0000 0.0000 0.0000 24.0233 0.0000 0.0000
# 5 0.0000 0.0000 0.0000 0.0000 28.8598 0.0000
# 6 0.0000 0.0000 0.0000 0.0000 0.0000 16.3131
#
#
#
# Elastic Compliance Matrix: (Units=1/GPa)
#
#
# Indices 1 2 3 4 5 6 
#
# 1 0.018209 -0.003300 -0.004834 0.000000 0.000000 0.000000
# 2 -0.003300 0.016267 -0.006240 0.000000 0.000000 0.000000
# 3 -0.004834 -0.006240 0.014431 0.000000 0.000000 0.000000
# 4 0.000000 0.000000 0.000000 0.041626 0.000000 0.000000
# 5 0.000000 0.000000 0.000000 0.000000 0.034650 0.000000
# 6 0.000000 0.000000 0.000000 0.000000 0.000000 0.061300
#
#
# Mechanical properties :
#
#
# Convention : Reuss Voigt Hill
#
# Bulk Modulus (GPa) = 49.60592 52.38018 50.99305
# Shear Modulus (GPa) = 22.52734 23.59337 23.06035
#
# Velocity S-wave (km/s) = 3.56212 3.64543 3.60402
# Velocity P-wave (km/s) = 6.69771 6.87186 6.78534
#
# Compressibility (1/GPa) = 0.02015888
#
# Stress axis : x y z
#
# Youngs Moduli (GPa) = 54.91701 61.47380 69.29526
#
# Poissons Ratio (x) = 0.20286 0.33497
# Poissons Ratio (y) = 0.18123 0.43242
# Poissons Ratio (z) = 0.26547 0.38361
#
# Static dielectric constant tensor:
#      x y z
#    x 3.252680 0.000000 0.000000 
#    y 0.000000 3.169880 0.000000 
#    z 0.000000 0.000000 3.360850 
# 
# 
# High freq. dielectric constant tensor:
#      x y z
#    x 1.688300 0.000000 0.000000 
#    y 0.000000 1.658810 0.000000 
#    z 0.000000 0.000000 1.680990 
# 
# From -- ./inp_files/32313.got.cif
#   From: 2010.03.12/outbox.cif.g09.slc.cpg/sg62_17_cif.got.tgz:32313.got - 2010.04.10 19:12:36.
