data_PCOD8250882
_publ_section_title
;
Structure prediction by ZEFSAII (Michael W. Deem and Ramdas Pophale) SiO2 
 PCOD8250882
Probable space group: P N M A
;
_chemical_formula_sum "Si O2"
_cell_formula_units_Z 56
_cell_length_a 12.145292
_cell_length_b 12.835868
_cell_length_c 19.671434
_cell_angle_alpha 90.000000
_cell_angle_beta 90.000000
_cell_angle_gamma 90.000000
_cell_volume 3066.685382
_symmetry_space_group_name_H-M "P N M A"
_symmetry_group_IT_number 62
_symmetry_cell_setting 'orthorhombic'
loop_
_space_group_symop_operation_xyz
x,y,z
1/2-x,-y,1/2+z
1/2+x,1/2-y,1/2-z
-x,1/2+y,-z
-x,-y,-z
1/2+x,y,1/2-z
1/2-x,1/2+y,1/2+z
x,1/2-y,z
loop_
_atom_site_type_symbol
_atom_site_label
_atom_site_fract_x
_atom_site_fract_y
_atom_site_fract_z
Si Si1 0.461553 0.634917 0.525752
Si Si2 0.995823 0.131045 0.315095
Si Si3 0.178354 0.942922 0.015068
Si Si4 0.786326 0.954314 0.621237
Si Si5 0.430052 0.129237 0.333005
Si Si6 0.118934 0.495987 0.581744
Si Si7 0.591482 0.873212 0.053330
O O1 0.411602 0.750000 0.523339
O O2 0.571153 0.630497 0.477594
O O3 0.367436 0.559155 0.498290
O O4 0.494356 0.600881 0.602408
O O5 0.961261 0.250000 0.327979
O O6 0.999752 0.106327 0.234784
O O7 0.902966 0.057821 0.348761
O O8 0.114943 0.112368 0.347352
O O9 0.253395 0.904673 0.951894
O O10 0.257480 0.945973 0.081498
O O11 0.678986 0.943921 0.669023
O O12 0.826406 0.073393 0.608774
O O13 0.393065 0.250000 0.337440
O O14 0.113500 0.580138 0.521005
O O15 0.033418 0.401660 0.573318
O O16 0.609138 0.750000 0.054374
#
# Coordination Sequence:
#
# PCOD8250882 Si02
#       7
#     8   8   8   8   8   8   8
#     4   9  18  32  49  70  96 126 164 206 242 289
#     4  10  19  30  48  76 106 134 162 192 242 312
#     4   9  18  31  46  68  97 127 162 200 247 292
#     4   9  18  32  48  68  98 133 164 201 245 289
#     4   9  18  32  50  73 101 132 162 195 243 302
#     4   9  18  29  45  73 102 126 154 200 251 292
#     4   9  17  30  48  70  96 128 166 201 240 294
#
# _framework density 18.260757999999999
#
# number of rings (size 3 to 8) (size 9 to 14) (size 15 to 20)
#    0.000    2.857    0.000    1.714    0.000    5.143 
#    0.000    6.429    0.000    3.429    0.000   12.000 
#    0.000    0.000    0.000    0.000    0.000    0.000 
#
# Total GULP energy -693953.715534 kJ/mol
# GULP energy per Si atom -12392.030635 kJ/mol
# Density = 1.821920 g / cm^3
# Si number density = 18.260758 Si / 1000 Ang^3
#
#
#
# Elastic Constant Matrix: (Units=GPa)
#
#
# Indices 1 2 3 4 5 6 
#
# 1 70.7710 4.3763 19.6167 0.0000 0.0000 0.0000
# 2 4.3763 63.6510 21.6165 0.0000 0.0000 0.0000
# 3 19.6167 21.6165 61.4042 0.0000 0.0000 0.0000
# 4 0.0000 0.0000 0.0000 22.5607 0.0000 0.0000
# 5 0.0000 0.0000 0.0000 0.0000 26.7219 0.0000
# 6 0.0000 0.0000 0.0000 0.0000 0.0000 15.8266
#
#
#
# Elastic Compliance Matrix: (Units=1/GPa)
#
#
# Indices 1 2 3 4 5 6 
#
# 1 0.015530 0.000701 -0.005208 0.000000 0.000000 0.000000
# 2 0.000701 0.017876 -0.006517 0.000000 0.000000 0.000000
# 3 -0.005208 -0.006517 0.020244 0.000000 0.000000 0.000000
# 4 0.000000 0.000000 0.000000 0.044325 0.000000 0.000000
# 5 0.000000 0.000000 0.000000 0.000000 0.037423 0.000000
# 6 0.000000 0.000000 0.000000 0.000000 0.000000 0.063185
#
#
# Mechanical properties :
#
#
# Convention : Reuss Voigt Hill
#
# Bulk Modulus (GPa) = 31.64414 31.89392 31.76903
# Shear Modulus (GPa) = 21.62968 23.03628 22.33298
#
# Velocity S-wave (km/s) = 3.44538 3.55564 3.50094
# Velocity P-wave (km/s) = 5.76144 5.86178 5.81183
#
# Compressibility (1/GPa) = 0.03160143
#
# Stress axis : x y z
#
# Youngs Moduli (GPa) = 64.38989 55.94206 49.39848
#
# Poissons Ratio (x) = -0.03921 0.25728
# Poissons Ratio (y) = -0.04514 0.32192
# Poissons Ratio (z) = 0.33536 0.36456
#
# Static dielectric constant tensor:
#      x y z
#    x 3.531980 0.000000 0.000000 
#    y 0.000000 3.208460 0.000000 
#    z 0.000000 0.000000 3.248490 
# 
# 
# High freq. dielectric constant tensor:
#      x y z
#    x 1.717120 0.000000 0.000000 
#    y 0.000000 1.687760 0.000000 
#    z 0.000000 0.000000 1.675910 
# 
# From -- ./inp_files/26602.got.cif
#   From: 2010.03.12/outbox.cif.g09.slc.cpg/sg62_14_cif.got.tgz:26602.got - 2010.04.10 19:12:36.
