data_PCOD8250293
_publ_section_title
;
Structure prediction by ZEFSAII (Michael W. Deem and Ramdas Pophale) SiO2 
 PCOD8250293
Probable space group: P N M A
;
_chemical_formula_sum "Si O2"
_cell_formula_units_Z 48
_cell_length_a 20.156069
_cell_length_b 9.236540
_cell_length_c 14.923109
_cell_angle_alpha 90.000000
_cell_angle_beta 90.000000
_cell_angle_gamma 90.000000
_cell_volume 2778.270086
_symmetry_space_group_name_H-M "P N M A"
_symmetry_group_IT_number 62
_symmetry_cell_setting 'orthorhombic'
loop_
_space_group_symop_operation_xyz
x,y,z
1/2-x,-y,1/2+z
1/2+x,1/2-y,1/2-z
-x,1/2+y,-z
-x,-y,-z
1/2+x,y,1/2-z
1/2-x,1/2+y,1/2+z
x,1/2-y,z
loop_
_atom_site_type_symbol
_atom_site_label
_atom_site_fract_x
_atom_site_fract_y
_atom_site_fract_z
Si Si1 0.333918 0.421384 0.687220
Si Si2 0.054415 0.419351 0.942683
Si Si3 0.813103 0.420831 0.613311
Si Si4 0.538869 0.921263 0.077459
Si Si5 0.696773 0.422095 0.487351
Si Si6 0.520777 0.580845 0.272863
O O1 0.327774 0.250000 0.670633
O O2 0.302955 0.468062 0.783167
O O3 0.294442 0.504856 0.609514
O O4 0.410261 0.477638 0.685023
O O5 0.045398 0.250000 0.960647
O O6 0.127795 0.471858 0.967240
O O7 0.040760 0.456565 0.837775
O O8 0.000000 0.500000 0.000000
O O9 0.810021 0.250000 0.610140
O O10 0.884292 0.471015 0.575351
O O11 0.754831 0.484466 0.551125
O O12 0.531482 0.750000 0.064444
O O13 0.507837 0.976841 0.172303
O O14 0.500000 0.000000 0.000000
O O15 0.700486 0.250000 0.476370
O O16 0.533014 0.750000 0.261914
#
# Coordination Sequence:
#
# PCOD8250293 Si02
#       6
#     8   8   8   8   8   8
#     4   9  16  31  53  69  89 129 167 191 230 289
#     4  10  18  29  48  73  99 125 156 196 237 282
#     4   8  17  34  51  68  96 133 163 188 236 298
#     4   9  17  33  54  71  93 126 162 199 237 281
#     4  10  19  31  49  73  99 126 158 200 243 281
#     4   8  15  29  48  68  94 126 156 189 233 285
#
# _framework density 17.276938000000001
#
# number of rings (size 3 to 8) (size 9 to 14) (size 15 to 20)
#    0.000    3.000    1.667    2.000    0.000    0.000 
#    3.000    5.833    0.000    0.000    0.000    0.000 
#    0.000    0.000    0.000    0.000    0.000    0.000 
#
# Total GULP energy -594886.088099 kJ/mol
# GULP energy per Si atom -12393.460169 kJ/mol
# Density = 1.723761 g / cm^3
# Si number density = 17.276938 Si / 1000 Ang^3
#
#
#
# Elastic Constant Matrix: (Units=GPa)
#
#
# Indices 1 2 3 4 5 6 
#
# 1 110.0410 28.8620 88.9415 0.0000 0.0000 0.0000
# 2 28.8620 26.1201 37.3168 0.0000 0.0000 0.0000
# 3 88.9415 37.3168 164.0633 0.0000 0.0000 0.0000
# 4 0.0000 0.0000 0.0000 29.4697 0.0000 0.0000
# 5 0.0000 0.0000 0.0000 0.0000 36.2945 0.0000
# 6 0.0000 0.0000 0.0000 0.0000 0.0000 18.4057
#
#
#
# Elastic Compliance Matrix: (Units=1/GPa)
#
#
# Indices 1 2 3 4 5 6 
#
# 1 0.017362 -0.008499 -0.007479 0.000000 0.000000 0.000000
# 2 -0.008499 0.060875 -0.009239 0.000000 0.000000 0.000000
# 3 -0.007479 -0.009239 0.012251 0.000000 0.000000 0.000000
# 4 0.000000 0.000000 0.000000 0.033933 0.000000 0.000000
# 5 0.000000 0.000000 0.000000 0.000000 0.027552 0.000000
# 6 0.000000 0.000000 0.000000 0.000000 0.000000 0.054331
#
#
# Mechanical properties :
#
#
# Convention : Reuss Voigt Hill
#
# Bulk Modulus (GPa) = 24.96627 67.82946 46.39787
# Shear Modulus (GPa) = 18.51241 26.50758 22.50999
#
# Velocity S-wave (km/s) = 3.27694 3.92123 3.61348
# Velocity P-wave (km/s) = 5.36655 7.73607 6.65757
#
# Compressibility (1/GPa) = 0.04005404
#
# Stress axis : x y z
#
# Youngs Moduli (GPa) = 57.59856 16.42707 81.62636
#
# Poissons Ratio (x) = 0.13962 0.61047
# Poissons Ratio (y) = 0.48955 0.75412
# Poissons Ratio (z) = 0.43077 0.15176
#
# Static dielectric constant tensor:
#      x y z
#    x 3.389590 0.000000 0.000000 
#    y 0.000000 2.834000 0.000000 
#    z 0.000000 0.000000 3.657640 
# 
# 
# High freq. dielectric constant tensor:
#      x y z
#    x 1.654790 0.000000 0.000000 
#    y 0.000000 1.628670 0.000000 
#    z 0.000000 0.000000 1.681150 
# 
# From -- ./inp_files/14131.got.cif
#   From: 2010.03.12/outbox.cif.g09.slc.cpg/sg62_8_cif.got.tgz:14131.got - 2010.04.10 19:12:36.
