data_PCOD8250695
_publ_section_title
;
Structure prediction by ZEFSAII (Michael W. Deem and Ramdas Pophale) SiO2 
 PCOD8250695
Probable space group: P N M A
;
_chemical_formula_sum "Si O2"
_cell_formula_units_Z 64
_cell_length_a 9.832996
_cell_length_b 9.310655
_cell_length_c 37.610084
_cell_angle_alpha 90.000000
_cell_angle_beta 90.000000
_cell_angle_gamma 90.000000
_cell_volume 3443.264621
_symmetry_space_group_name_H-M "P N M A"
_symmetry_group_IT_number 62
_symmetry_cell_setting 'orthorhombic'
loop_
_space_group_symop_operation_xyz
x,y,z
1/2-x,-y,1/2+z
1/2+x,1/2-y,1/2-z
-x,1/2+y,-z
-x,-y,-z
1/2+x,y,1/2-z
1/2-x,1/2+y,1/2+z
x,1/2-y,z
loop_
_atom_site_type_symbol
_atom_site_label
_atom_site_fract_x
_atom_site_fract_y
_atom_site_fract_z
Si Si1 0.966040 0.079689 0.392080
Si Si2 0.673539 0.082429 0.710629
Si Si3 0.510539 0.085106 0.397573
Si Si4 0.909053 0.081685 0.471580
Si Si5 0.594980 0.081615 0.473010
Si Si6 0.756347 0.583818 0.640511
Si Si7 0.634765 0.917515 0.275203
Si Si8 0.721528 0.080000 0.342242
O O1 0.969233 0.250000 0.394367
O O2 0.940895 0.021064 0.431971
O O3 0.850043 0.028356 0.365157
O O4 0.105605 0.018912 0.375615
O O5 0.674116 0.250000 0.701815
O O6 0.792836 0.042414 0.738185
O O7 0.524505 0.036740 0.725679
O O8 0.706472 0.999394 0.674842
O O9 0.556362 0.250000 0.399917
O O10 0.557068 0.014696 0.434494
O O11 0.350855 0.064870 0.391489
O O12 0.590205 0.021873 0.363700
O O13 0.942340 0.250000 0.473805
O O14 0.752360 0.051223 0.481105
O O15 0.000000 0.000000 0.500000
O O16 0.561156 0.250000 0.475027
O O17 0.500000 0.000000 0.500000
O O18 0.772278 0.750000 0.651383
O O19 0.650381 0.750000 0.283417
O O20 0.720475 0.002577 0.304558
O O21 0.721286 0.250000 0.335493
#
# Coordination Sequence:
#
# PCOD8250695 Si02
#       8
#     8   8   8   8   8   8   8   8
#     4   9  19  35  57  83 109 140 178 224 273 320
#     4  10  22  39  55  76 109 145 177 214 265 321
#     4   9  17  33  57  79 104 139 178 222 271 317
#     4  10  21  38  57  80 114 150 186 227 275 331
#     4  10  21  37  57  83 113 147 187 229 276 331
#     4  10  20  35  57  84 108 135 179 226 269 318
#     4  10  22  38  55  77 108 144 177 213 265 322
#     4  10  18  35  59  80 103 136 179 224 267 311
#
# _framework density 18.587012000000001
#
# number of rings (size 3 to 8) (size 9 to 14) (size 15 to 20)
#    0.000    2.250    2.500    0.000    3.500    1.000 
#    0.000    2.500    0.000    0.000    0.000    0.000 
#    0.000    0.000    0.000    0.000    0.000    0.000 
#
# Total GULP energy -793505.843244 kJ/mol
# GULP energy per Si atom -12398.528801 kJ/mol
# Density = 1.854471 g / cm^3
# Si number density = 18.587012 Si / 1000 Ang^3
#
#
#
# Elastic Constant Matrix: (Units=GPa)
#
#
# Indices 1 2 3 4 5 6 
#
# 1 132.5270 35.3655 56.5358 0.0000 0.0000 0.0000
# 2 35.3655 36.3307 41.9354 0.0000 0.0000 0.0000
# 3 56.5358 41.9354 113.4302 0.0000 0.0000 0.0000
# 4 0.0000 0.0000 0.0000 31.2663 0.0000 0.0000
# 5 0.0000 0.0000 0.0000 0.0000 38.3077 0.0000
# 6 0.0000 0.0000 0.0000 0.0000 0.0000 23.2965
#
#
#
# Elastic Compliance Matrix: (Units=1/GPa)
#
#
# Indices 1 2 3 4 5 6 
#
# 1 0.010604 -0.007364 -0.002563 0.000000 0.000000 0.000000
# 2 -0.007364 0.053129 -0.015971 0.000000 0.000000 0.000000
# 3 -0.002563 -0.015971 0.015998 0.000000 0.000000 0.000000
# 4 0.000000 0.000000 0.000000 0.031983 0.000000 0.000000
# 5 0.000000 0.000000 0.000000 0.000000 0.026104 0.000000
# 6 0.000000 0.000000 0.000000 0.000000 0.000000 0.042925
#
#
# Mechanical properties :
#
#
# Convention : Reuss Voigt Hill
#
# Bulk Modulus (GPa) = 35.79851 61.10681 48.45266
# Shear Modulus (GPa) = 20.67388 28.47085 24.57236
#
# Velocity S-wave (km/s) = 3.33870 3.91802 3.63990
# Velocity P-wave (km/s) = 5.84502 7.30857 6.61739
#
# Compressibility (1/GPa) = 0.02793412
#
# Stress axis : x y z
#
# Youngs Moduli (GPa) = 94.30332 18.82223 62.50837
#
# Poissons Ratio (x) = 0.13861 0.16019
# Poissons Ratio (y) = 0.69448 0.99833
# Poissons Ratio (z) = 0.24167 0.30061
#
# Static dielectric constant tensor:
#      x y z
#    x 3.689420 0.000000 0.000000 
#    y 0.000000 3.065970 0.000000 
#    z 0.000000 0.000000 3.507280 
# 
# 
# High freq. dielectric constant tensor:
#      x y z
#    x 1.738540 0.000000 0.000000 
#    y 0.000000 1.683580 0.000000 
#    z 0.000000 0.000000 1.729700 
# 
# From -- ./inp_files/32246.got.cif
#   From: 2010.03.12/outbox.cif.g09.slc.cpg/sg62_17_cif.got.tgz:32246.got - 2010.04.10 19:12:36.
