data_PCOD8250828
_publ_section_title
;
Structure prediction by ZEFSAII (Michael W. Deem and Ramdas Pophale) SiO2 
 PCOD8250828
Probable space group: P N M A
;
_chemical_formula_sum "Si O2"
_cell_formula_units_Z 56
_cell_length_a 18.298766
_cell_length_b 9.462535
_cell_length_c 18.644381
_cell_angle_alpha 90.000000
_cell_angle_beta 90.000000
_cell_angle_gamma 90.000000
_cell_volume 3228.325166
_symmetry_space_group_name_H-M "P N M A"
_symmetry_group_IT_number 62
_symmetry_cell_setting 'orthorhombic'
loop_
_space_group_symop_operation_xyz
x,y,z
1/2-x,-y,1/2+z
1/2+x,1/2-y,1/2-z
-x,1/2+y,-z
-x,-y,-z
1/2+x,y,1/2-z
1/2-x,1/2+y,1/2+z
x,1/2-y,z
loop_
_atom_site_type_symbol
_atom_site_label
_atom_site_fract_x
_atom_site_fract_y
_atom_site_fract_z
Si Si1 0.308748 0.916721 0.886558
Si Si2 0.345279 0.083404 0.448489
Si Si3 0.382256 0.412181 0.608405
Si Si4 0.464471 0.583896 0.935703
Si Si5 0.842990 0.593273 0.765319
Si Si6 0.489944 0.405940 0.219400
Si Si7 0.452351 0.585614 0.346713
O O1 0.318743 0.750000 0.878984
O O2 0.238247 0.958952 0.932338
O O3 0.381599 0.974568 0.925476
O O4 0.301124 0.972753 0.804118
O O5 0.359705 0.250000 0.436943
O O6 0.362118 0.035523 0.529175
O O7 0.396378 0.995289 0.396731
O O8 0.361505 0.250000 0.618799
O O9 0.332074 0.496208 0.664966
O O10 0.467757 0.439041 0.620379
O O11 0.464711 0.750000 0.953283
O O12 0.511965 0.551587 0.864285
O O13 0.500000 0.500000 0.000000
O O14 0.813700 0.750000 0.784383
O O15 0.927245 0.600413 0.744717
O O16 0.454657 0.250000 0.230332
O O17 0.446399 0.520716 0.266653
O O18 0.431892 0.750000 0.342777
#
# Coordination Sequence:
#
# PCOD8250828 Si02
#       7
#     8   8   8   8   8   8   8
#     4   8  16  32  51  69  91 124 162 193 230 285
#     4  10  19  32  49  67  94 131 161 187 231 290
#     4   9  18  30  46  70  96 124 157 192 232 277
#     4   9  17  31  52  75  96 121 158 202 243 284
#     4   8  14  28  50  68  83 112 154 194 227 266
#     4   8  15  29  48  68  90 119 154 187 227 284
#     4  10  19  30  45  69  98 123 156 201 238 270
#
# _framework density 17.346456
#
# number of rings (size 3 to 8) (size 9 to 14) (size 15 to 20)
#    0.000    3.143    0.000    2.571    0.000    1.714 
#    0.000    5.000    0.000    3.429    0.000    0.000 
#    0.000    0.000    0.000    0.000    0.000    0.000 
#
# Total GULP energy -694130.264675 kJ/mol
# GULP energy per Si atom -12395.183298 kJ/mol
# Density = 1.730697 g / cm^3
# Si number density = 17.346456 Si / 1000 Ang^3
#
#
#
# Elastic Constant Matrix: (Units=GPa)
#
#
# Indices 1 2 3 4 5 6 
#
# 1 57.0609 36.5580 59.3893 0.0000 0.0000 0.0000
# 2 36.5580 71.2295 72.0861 0.0000 0.0000 0.0000
# 3 59.3893 72.0861 163.5313 0.0000 0.0000 0.0000
# 4 0.0000 0.0000 0.0000 34.0753 0.0000 0.0000
# 5 0.0000 0.0000 0.0000 0.0000 14.0918 0.0000
# 6 0.0000 0.0000 0.0000 0.0000 0.0000 14.4064
#
#
#
# Elastic Compliance Matrix: (Units=1/GPa)
#
#
# Indices 1 2 3 4 5 6 
#
# 1 0.030523 -0.008029 -0.007545 0.000000 0.000000 0.000000
# 2 -0.008029 0.027459 -0.009188 0.000000 0.000000 0.000000
# 3 -0.007545 -0.009188 0.012905 0.000000 0.000000 0.000000
# 4 0.000000 0.000000 0.000000 0.029347 0.000000 0.000000
# 5 0.000000 0.000000 0.000000 0.000000 0.070963 0.000000
# 6 0.000000 0.000000 0.000000 0.000000 0.000000 0.069414
#
#
# Mechanical properties :
#
#
# Convention : Reuss Voigt Hill
#
# Bulk Modulus (GPa) = 46.81386 69.76538 58.28962
# Shear Modulus (GPa) = 16.82046 20.76725 18.79386
#
# Velocity S-wave (km/s) = 3.11734 3.46382 3.29514
# Velocity P-wave (km/s) = 6.32481 7.50357 6.93926
#
# Compressibility (1/GPa) = 0.02136119
#
# Stress axis : x y z
#
# Youngs Moduli (GPa) = 32.76242 36.41839 77.48655
#
# Poissons Ratio (x) = 0.29242 0.58467
# Poissons Ratio (y) = 0.26306 0.71195
# Poissons Ratio (z) = 0.24721 0.33461
#
# Static dielectric constant tensor:
#      x y z
#    x 3.090830 0.000000 0.000000 
#    y 0.000000 3.227340 0.000000 
#    z 0.000000 0.000000 3.581810 
# 
# 
# High freq. dielectric constant tensor:
#      x y z
#    x 1.639280 0.000000 0.000000 
#    y 0.000000 1.654270 0.000000 
#    z 0.000000 0.000000 1.680660 
# 
# From -- ./inp_files/24661.got.cif
#   From: 2010.03.12/outbox.cif.g09.slc.cpg/sg62_13_cif.got.tgz:24661.got - 2010.04.10 19:12:36.
