data_PCOD8250294
_publ_section_title
;
Structure prediction by ZEFSAII (Michael W. Deem and Ramdas Pophale) SiO2 
 PCOD8250294
Probable space group: P N M A
;
_chemical_formula_sum "Si O2"
_cell_formula_units_Z 64
_cell_length_a 23.172552
_cell_length_b 8.494833
_cell_length_c 19.228710
_cell_angle_alpha 90.000000
_cell_angle_beta 90.000000
_cell_angle_gamma 90.000000
_cell_volume 3785.113097
_symmetry_space_group_name_H-M "P N M A"
_symmetry_group_IT_number 62
_symmetry_cell_setting 'orthorhombic'
loop_
_space_group_symop_operation_xyz
x,y,z
1/2-x,-y,1/2+z
1/2+x,1/2-y,1/2-z
-x,1/2+y,-z
-x,-y,-z
1/2+x,y,1/2-z
1/2-x,1/2+y,1/2+z
x,1/2-y,z
loop_
_atom_site_type_symbol
_atom_site_label
_atom_site_fract_x
_atom_site_fract_y
_atom_site_fract_z
Si Si1 0.385292 0.066190 0.988988
Si Si2 0.153346 0.565770 0.263950
Si Si3 0.283131 0.566428 0.640697
Si Si4 0.943301 0.567734 0.646512
Si Si5 0.435311 0.931859 0.125385
Si Si6 0.825933 0.566571 0.288111
Si Si7 0.745617 0.562880 0.005071
Si Si8 0.234347 0.065243 0.845148
O O1 0.387009 0.250000 0.970266
O O2 0.320412 0.003872 0.001328
O O3 0.411601 0.972072 0.924974
O O4 0.422914 0.035593 0.057510
O O5 0.142944 0.750000 0.273315
O O6 0.168284 0.527830 0.183591
O O7 0.096213 0.474955 0.287455
O O8 0.206393 0.502434 0.310901
O O9 0.297517 0.750000 0.645756
O O10 0.218680 0.537489 0.668601
O O11 0.283389 0.504334 0.560642
O O12 0.959007 0.750000 0.648366
O O13 0.001852 0.469414 0.654464
O O14 0.430751 0.750000 0.103970
O O15 0.390247 0.972653 0.186970
O O16 0.809681 0.750000 0.298967
O O17 0.819248 0.522972 0.205756
O O18 0.745014 0.750000 0.003754
O O19 0.773288 0.494839 0.076994
O O20 0.241116 0.250000 0.853425
#
# Coordination Sequence:
#
# PCOD8250294 Si02
#       8
#     8   8   8   8   8   8   8   8
#     4  11  20  34  50  70 100 137 171 204 242 290
#     4  10  19  34  52  70  96 131 165 203 247 294
#     4  10  18  29  48  74 101 128 161 201 244 293
#     4  12  24  36  50  71  96 130 171 212 250 296
#     4  11  22  35  49  70  98 134 173 212 250 293
#     4   9  18  31  49  70  94 127 169 210 247 290
#     4   9  16  27  48  74 100 131 161 193 242 294
#     4   8  14  28  49  71  93 122 159 197 242 292
#
# _framework density 16.908346000000002
#
# number of rings (size 3 to 8) (size 9 to 14) (size 15 to 20)
#    0.000    2.000    2.500    3.750    0.000    0.500 
#    0.000    0.000    0.000    0.000    0.000    0.875 
#    0.000    0.000    0.000    0.000    0.000    0.000 
#
# Total GULP energy -793442.773512 kJ/mol
# GULP energy per Si atom -12397.543336 kJ/mol
# Density = 1.686986 g / cm^3
# Si number density = 16.908346 Si / 1000 Ang^3
#
#
#
# Elastic Constant Matrix: (Units=GPa)
#
#
# Indices 1 2 3 4 5 6 
#
# 1 62.4388 6.8856 36.3705 0.0000 0.0000 0.0000
# 2 6.8856 34.3821 11.4264 0.0000 0.0000 0.0000
# 3 36.3705 11.4264 113.9389 0.0000 0.0000 0.0000
# 4 0.0000 0.0000 0.0000 17.8144 0.0000 0.0000
# 5 0.0000 0.0000 0.0000 0.0000 24.0982 0.0000
# 6 0.0000 0.0000 0.0000 0.0000 0.0000 19.2491
#
#
#
# Elastic Compliance Matrix: (Units=1/GPa)
#
#
# Indices 1 2 3 4 5 6 
#
# 1 0.019797 -0.001929 -0.006126 0.000000 0.000000 0.000000
# 2 -0.001929 0.030276 -0.002420 0.000000 0.000000 0.000000
# 3 -0.006126 -0.002420 0.010975 0.000000 0.000000 0.000000
# 4 0.000000 0.000000 0.000000 0.056134 0.000000 0.000000
# 5 0.000000 0.000000 0.000000 0.000000 0.041497 0.000000
# 6 0.000000 0.000000 0.000000 0.000000 0.000000 0.051951
#
#
# Mechanical properties :
#
#
# Convention : Reuss Voigt Hill
#
# Bulk Modulus (GPa) = 24.93967 35.56942 30.25455
# Shear Modulus (GPa) = 20.41276 22.63749 21.52513
#
# Velocity S-wave (km/s) = 3.47833 3.66298 3.57185
# Velocity P-wave (km/s) = 5.56001 6.24277 5.91125
#
# Compressibility (1/GPa) = 0.04009676
#
# Stress axis : x y z
#
# Youngs Moduli (GPa) = 50.51342 33.02992 91.11769
#
# Poissons Ratio (x) = 0.06371 0.55818
# Poissons Ratio (y) = 0.09743 0.22055
# Poissons Ratio (z) = 0.30944 0.07995
#
# Static dielectric constant tensor:
#      x y z
#    x 3.026840 0.000000 0.000000 
#    y 0.000000 3.024640 0.000000 
#    z 0.000000 0.000000 3.541740 
# 
# 
# High freq. dielectric constant tensor:
#      x y z
#    x 1.621150 0.000000 0.000000 
#    y 0.000000 1.642450 0.000000 
#    z 0.000000 0.000000 1.652700 
# 
# From -- ./inp_files/24941.got.cif
#   From: 2010.03.12/outbox.cif.g09.slc.cpg/sg62_13_cif.got.tgz:24941.got - 2010.04.10 19:12:36.
