data_PCOD8250652
_publ_section_title
;
Structure prediction by ZEFSAII (Michael W. Deem and Ramdas Pophale) SiO2 
 PCOD8250652
Probable space group: P N M A
;
_chemical_formula_sum "Si O2"
_cell_formula_units_Z 40
_cell_length_a 5.096022
_cell_length_b 15.945383
_cell_length_c 25.216308
_cell_angle_alpha 90.000000
_cell_angle_beta 90.000000
_cell_angle_gamma 90.000000
_cell_volume 2049.027325
_symmetry_space_group_name_H-M "P N M A"
_symmetry_group_IT_number 62
_symmetry_cell_setting 'orthorhombic'
loop_
_space_group_symop_operation_xyz
x,y,z
1/2-x,-y,1/2+z
1/2+x,1/2-y,1/2-z
-x,1/2+y,-z
-x,-y,-z
1/2+x,y,1/2-z
1/2-x,1/2+y,1/2+z
x,1/2-y,z
loop_
_atom_site_type_symbol
_atom_site_label
_atom_site_fract_x
_atom_site_fract_y
_atom_site_fract_z
Si Si1 0.298329 0.573241 0.394388
Si Si2 0.303594 0.346404 0.215949
Si Si3 0.373186 0.410724 0.006225
Si Si4 0.094489 0.250000 0.529385
Si Si5 0.100140 0.250000 0.900812
Si Si6 0.285984 0.034848 0.118078
O O1 0.338473 0.592707 0.457817
O O2 0.344899 0.664768 0.366561
O O3 0.509284 0.509439 0.371061
O O4 0.007620 0.537335 0.385028
O O5 0.519711 0.367022 0.260280
O O6 0.325280 0.250000 0.197767
O O7 0.356986 0.403294 0.165290
O O8 0.248608 0.409152 0.064944
O O9 0.500000 0.500000 0.000000
O O10 0.596648 0.336845 0.004269
O O11 0.304898 0.250000 0.576207
O O12 0.799976 0.250000 0.550795
#
# Coordination Sequence:
#
# PCOD8250652 Si02
#       6
#     8   8   8   4   4   8
#     4  10  20  34  53  83 112 152 181 227 268 342
#     4  10  22  41  61  82 112 145 188 245 292 332
#     4   9  19  33  50  76 116 146 184 230 270 325
#     4  10  20  30  48  72 102 158 186 214 262 320
#     4  10  18  34  50  72 114 146 186 206 262 316
#     4  11  21  34  58  81 109 144 191 227 291 333
#
# _framework density 19.521459
#
# number of rings (size 3 to 8) (size 9 to 14) (size 15 to 20)
#    0.000    2.000    0.000    5.400    1.400    4.800 
#    0.000    0.000    2.200    0.000    0.000   14.000 
#    0.000    0.000    0.000    0.000    0.000    0.000 
#
# Total GULP energy -495575.625213 kJ/mol
# GULP energy per Si atom -12389.390630 kJ/mol
# Density = 1.947703 g / cm^3
# Si number density = 19.521459 Si / 1000 Ang^3
#
#
#
# Elastic Constant Matrix: (Units=GPa)
#
#
# Indices 1 2 3 4 5 6 
#
# 1 73.9268 26.2331 1.3312 0.0000 0.0000 0.0000
# 2 26.2331 126.4018 37.1820 0.0000 0.0000 0.0000
# 3 1.3312 37.1820 63.7976 0.0000 0.0000 0.0000
# 4 0.0000 0.0000 0.0000 27.1540 0.0000 0.0000
# 5 0.0000 0.0000 0.0000 0.0000 14.9103 0.0000
# 6 0.0000 0.0000 0.0000 0.0000 0.0000 30.9985
#
#
#
# Elastic Compliance Matrix: (Units=1/GPa)
#
#
# Indices 1 2 3 4 5 6 
#
# 1 0.014769 -0.003590 0.001784 0.000000 0.000000 0.000000
# 2 -0.003590 0.010421 -0.005998 0.000000 0.000000 0.000000
# 3 0.001784 -0.005998 0.019133 0.000000 0.000000 0.000000
# 4 0.000000 0.000000 0.000000 0.036827 0.000000 0.000000
# 5 0.000000 0.000000 0.000000 0.000000 0.067068 0.000000
# 6 0.000000 0.000000 0.000000 0.000000 0.000000 0.032260
#
#
# Mechanical properties :
#
#
# Convention : Reuss Voigt Hill
#
# Bulk Modulus (GPa) = 34.82591 43.73541 39.28066
# Shear Modulus (GPa) = 24.31234 27.90455 26.10845
#
# Velocity S-wave (km/s) = 3.53287 3.78488 3.66105
# Velocity P-wave (km/s) = 5.87538 6.44615 6.16737
#
# Compressibility (1/GPa) = 0.02871425
#
# Stress axis : x y z
#
# Youngs Moduli (GPa) = 67.71108 95.96205 52.26483
#
# Poissons Ratio (x) = 0.34449 -0.09324
# Poissons Ratio (y) = 0.24307 0.31351
# Poissons Ratio (z) = -0.12080 0.57562
#
# Static dielectric constant tensor:
#      x y z
#    x 3.438360 0.000000 0.000000 
#    y 0.000000 4.547550 0.000000 
#    z 0.000000 0.000000 3.444380 
# 
# 
# High freq. dielectric constant tensor:
#      x y z
#    x 1.760880 0.000000 0.000000 
#    y 0.000000 1.787950 0.000000 
#    z 0.000000 0.000000 1.703340 
# 
# From -- ./inp_files/28254.got.cif
#   From: 2010.03.12/outbox.cif.g09.slc.cpg/sg62_15_cif.got.tgz:28254.got - 2010.04.10 19:12:36.
