data_PCOD8250958
_publ_section_title
;
Structure prediction by ZEFSAII (Michael W. Deem and Ramdas Pophale) SiO2 
 PCOD8250958
Probable space group: P N M A
;
_chemical_formula_sum "Si O2"
_cell_formula_units_Z 64
_cell_length_a 15.071941
_cell_length_b 9.328800
_cell_length_c 23.969645
_cell_angle_alpha 90.000000
_cell_angle_beta 90.000000
_cell_angle_gamma 90.000000
_cell_volume 3370.206949
_symmetry_space_group_name_H-M "P N M A"
_symmetry_group_IT_number 62
_symmetry_cell_setting 'orthorhombic'
loop_
_space_group_symop_operation_xyz
x,y,z
1/2-x,-y,1/2+z
1/2+x,1/2-y,1/2-z
-x,1/2+y,-z
-x,-y,-z
1/2+x,y,1/2-z
1/2-x,1/2+y,1/2+z
x,1/2-y,z
loop_
_atom_site_type_symbol
_atom_site_label
_atom_site_fract_x
_atom_site_fract_y
_atom_site_fract_z
Si Si1 0.369456 0.583870 0.193211
Si Si2 0.025337 0.583793 0.224562
Si Si3 0.049451 0.085872 0.576497
Si Si4 0.467136 0.584396 0.398581
Si Si5 0.305339 0.918856 0.695123
Si Si6 0.711949 0.416764 0.543645
Si Si7 0.884188 0.916544 0.545267
Si Si8 0.367942 0.585009 0.573066
O O1 0.346206 0.750000 0.204087
O O2 0.457934 0.539804 0.226600
O O3 0.386295 0.552697 0.128113
O O4 0.287226 0.488766 0.214449
O O5 0.053297 0.750000 0.228678
O O6 0.113963 0.488345 0.230102
O O7 0.975265 0.550887 0.166790
O O8 0.016137 0.250000 0.577648
O O9 0.103582 0.052980 0.520390
O O10 0.964304 0.983970 0.580459
O O11 0.481046 0.750000 0.412493
O O12 0.370978 0.533894 0.419014
O O13 0.541475 0.502136 0.433585
O O14 0.303062 0.750000 0.706928
O O15 0.317419 0.956152 0.629853
O O16 0.733826 0.250000 0.552309
O O17 0.794154 0.509121 0.565223
O O18 0.695068 0.451886 0.478697
O O19 0.879580 0.750000 0.559456
O O20 0.395697 0.750000 0.572914
#
# Coordination Sequence:
#
# PCOD8250958 Si02
#       8
#     8   8   8   8   8   8   8   8
#     4  10  20  36  59  81 101 135 182 224 260 306
#     4   9  19  37  56  76 103 136 177 221 260 303
#     4   9  19  36  55  75 100 132 170 214 261 305
#     4   9  18  32  50  72 100 134 170 212 257 300
#     4  10  20  34  54  80 108 137 170 215 269 316
#     4  10  19  31  48  73 105 139 172 205 251 310
#     4  10  20  33  51  76 105 134 166 208 259 313
#     4   9  18  31  49  74 103 136 172 210 255 307
#
# _framework density 18.989932
#
# number of rings (size 3 to 8) (size 9 to 14) (size 15 to 20)
#    0.000    2.500    0.000    1.875    0.000    3.000 
#    2.250    0.000    0.000    0.000    0.000    0.000 
#    0.000    0.000    0.000    0.000    0.000    0.000 
#
# Total GULP energy -793801.862548 kJ/mol
# GULP energy per Si atom -12403.154102 kJ/mol
# Density = 1.894671 g / cm^3
# Si number density = 18.989932 Si / 1000 Ang^3
#
#
#
# Elastic Constant Matrix: (Units=GPa)
#
#
# Indices 1 2 3 4 5 6 
#
# 1 136.1421 74.2385 21.4872 0.0000 0.0000 0.0000
# 2 74.2385 84.8262 18.8777 0.0000 0.0000 0.0000
# 3 21.4872 18.8777 36.9206 0.0000 0.0000 0.0000
# 4 0.0000 0.0000 0.0000 21.1473 0.0000 0.0000
# 5 0.0000 0.0000 0.0000 0.0000 21.6292 0.0000
# 6 0.0000 0.0000 0.0000 0.0000 0.0000 39.9718
#
#
#
# Elastic Compliance Matrix: (Units=1/GPa)
#
#
# Indices 1 2 3 4 5 6 
#
# 1 0.014201 -0.011949 -0.002155 0.000000 0.000000 0.000000
# 2 -0.011949 0.023357 -0.004988 0.000000 0.000000 0.000000
# 3 -0.002155 -0.004988 0.030890 0.000000 0.000000 0.000000
# 4 0.000000 0.000000 0.000000 0.047287 0.000000 0.000000
# 5 0.000000 0.000000 0.000000 0.000000 0.046234 0.000000
# 6 0.000000 0.000000 0.000000 0.000000 0.000000 0.025018
#
#
# Mechanical properties :
#
#
# Convention : Reuss Voigt Hill
#
# Bulk Modulus (GPa) = 33.04392 54.12175 43.58283
# Shear Modulus (GPa) = 21.25313 26.10201 23.67757
#
# Velocity S-wave (km/s) = 3.34904 3.71147 3.53490
# Velocity P-wave (km/s) = 5.69151 6.85046 6.29770
#
# Compressibility (1/GPa) = 0.03026276
#
# Stress axis : x y z
#
# Youngs Moduli (GPa) = 70.41611 42.81456 32.37295
#
# Poissons Ratio (x) = 0.51159 0.06977
# Poissons Ratio (y) = 0.84141 0.16148
# Poissons Ratio (z) = 0.15177 0.21357
#
# Static dielectric constant tensor:
#      x y z
#    x 3.385020 0.000000 0.000000 
#    y 0.000000 3.411160 0.000000 
#    z 0.000000 0.000000 3.389590 
# 
# 
# High freq. dielectric constant tensor:
#      x y z
#    x 1.740410 0.000000 0.000000 
#    y 0.000000 1.735100 0.000000 
#    z 0.000000 0.000000 1.722250 
# 
# From -- ./inp_files/29773.got.cif
#   From: 2010.03.12/outbox.cif.g09.slc.cpg/sg62_15_cif.got.tgz:29773.got - 2010.04.10 19:12:36.
