data_PCOD8250303
_publ_section_title
;
Structure prediction by ZEFSAII (Michael W. Deem and Ramdas Pophale) SiO2 
 PCOD8250303
Probable space group: P N M A
;
_chemical_formula_sum "Si O2"
_cell_formula_units_Z 64
_cell_length_a 21.881330
_cell_length_b 8.987404
_cell_length_c 16.671658
_cell_angle_alpha 90.000000
_cell_angle_beta 90.000000
_cell_angle_gamma 90.000000
_cell_volume 3278.587457
_symmetry_space_group_name_H-M "P N M A"
_symmetry_group_IT_number 62
_symmetry_cell_setting 'orthorhombic'
loop_
_space_group_symop_operation_xyz
x,y,z
1/2-x,-y,1/2+z
1/2+x,1/2-y,1/2-z
-x,1/2+y,-z
-x,-y,-z
1/2+x,y,1/2-z
1/2-x,1/2+y,1/2+z
x,1/2-y,z
loop_
_atom_site_type_symbol
_atom_site_label
_atom_site_fract_x
_atom_site_fract_y
_atom_site_fract_z
Si Si1 0.558633 0.921144 0.153075
Si Si2 0.025542 0.576822 0.168451
Si Si3 0.101514 0.573576 0.863155
Si Si4 0.241942 0.074163 0.581260
Si Si5 0.624772 0.573256 0.457195
Si Si6 0.845406 0.925490 0.279488
Si Si7 0.940867 0.080653 0.384085
Si Si8 0.350155 0.083024 0.974386
O O1 0.541325 0.750000 0.133966
O O2 0.560910 0.949569 0.248108
O O3 0.510592 0.029137 0.109667
O O4 0.625768 0.956568 0.115258
O O5 0.009211 0.750000 0.155828
O O6 0.070227 0.515261 0.099078
O O7 0.964065 0.482204 0.166820
O O8 0.103924 0.750000 0.858360
O O9 0.155425 0.506218 0.807011
O O10 0.113288 0.515053 0.953018
O O11 0.241487 0.250000 0.580024
O O12 0.310544 0.010382 0.575493
O O13 0.210541 0.017720 0.664136
O O14 0.204060 0.023505 0.503057
O O15 0.626647 0.750000 0.454933
O O16 0.843190 0.750000 0.266193
O O17 0.908821 0.970260 0.321175
O O18 0.936849 0.250000 0.351973
O O19 0.909927 0.066062 0.470308
O O20 0.323944 0.250000 0.978212
#
# Coordination Sequence:
#
# PCOD8250303 Si02
#       8
#     8   8   8   8   8   8   8   8
#     4  10  19  31  49  76 111 143 176 220 270 324
#     4  10  20  36  58  81 110 144 180 224 273 324
#     4  11  21  35  58  84 111 140 178 225 274 326
#     4   9  19  38  59  77 104 144 188 223 263 322
#     4   9  20  39  59  80 107 144 183 225 276 322
#     4  10  19  33  55  82 109 140 181 224 264 320
#     4  10  18  29  49  75 109 144 177 219 269 322
#     4   9  19  33  49  77 110 143 179 219 271 320
#
# _framework density 19.520603000000001
#
# number of rings (size 3 to 8) (size 9 to 14) (size 15 to 20)
#    0.000    2.250    1.250    1.875    0.000    1.500 
#    2.250    2.500    0.000    0.000    0.000    0.000 
#    0.000    0.000    0.000    0.000    0.000    0.000 
#
# Total GULP energy -793522.689284 kJ/mol
# GULP energy per Si atom -12398.792020 kJ/mol
# Density = 1.947617 g / cm^3
# Si number density = 19.520603 Si / 1000 Ang^3
#
#
#
# Elastic Constant Matrix: (Units=GPa)
#
#
# Indices 1 2 3 4 5 6 
#
# 1 76.9478 19.1951 42.0185 0.0000 0.0000 0.0000
# 2 19.1951 46.2012 28.5744 0.0000 0.0000 0.0000
# 3 42.0185 28.5744 117.5215 0.0000 0.0000 0.0000
# 4 0.0000 0.0000 0.0000 26.0154 0.0000 0.0000
# 5 0.0000 0.0000 0.0000 0.0000 21.8616 0.0000
# 6 0.0000 0.0000 0.0000 0.0000 0.0000 16.6145
#
#
#
# Elastic Compliance Matrix: (Units=1/GPa)
#
#
# Indices 1 2 3 4 5 6 
#
# 1 0.016703 -0.003820 -0.005043 0.000000 0.000000 0.000000
# 2 -0.003820 0.026349 -0.005041 0.000000 0.000000 0.000000
# 3 -0.005043 -0.005041 0.011538 0.000000 0.000000 0.000000
# 4 0.000000 0.000000 0.000000 0.038439 0.000000 0.000000
# 5 0.000000 0.000000 0.000000 0.000000 0.045742 0.000000
# 6 0.000000 0.000000 0.000000 0.000000 0.000000 0.060188
#
#
# Mechanical properties :
#
#
# Convention : Reuss Voigt Hill
#
# Bulk Modulus (GPa) = 37.33919 46.69408 42.01664
# Shear Modulus (GPa) = 21.21390 22.95711 22.08551
#
# Velocity S-wave (km/s) = 3.30016 3.43307 3.36727
# Velocity P-wave (km/s) = 5.80439 6.29976 6.05714
#
# Compressibility (1/GPa) = 0.02678151
#
# Stress axis : x y z
#
# Youngs Moduli (GPa) = 59.87085 37.95175 86.67223
#
# Poissons Ratio (x) = 0.14499 0.43708
# Poissons Ratio (y) = 0.22873 0.43688
# Poissons Ratio (z) = 0.30192 0.19130
#
# Static dielectric constant tensor:
#      x y z
#    x 3.509940 0.000000 0.000000 
#    y 0.000000 3.383350 0.000000 
#    z 0.000000 0.000000 3.839660 
# 
# 
# High freq. dielectric constant tensor:
#      x y z
#    x 1.742770 0.000000 0.000000 
#    y 0.000000 1.742910 0.000000 
#    z 0.000000 0.000000 1.768030 
# 
# From -- ./inp_files/24844.got.cif
#   From: 2010.03.12/outbox.cif.g09.slc.cpg/sg62_13_cif.got.tgz:24844.got - 2010.04.10 19:12:36.
