data_PCOD8250339
_publ_section_title
;
Structure prediction by ZEFSAII (Michael W. Deem and Ramdas Pophale) SiO2 
 PCOD8250339
Probable space group: P N M A
;
_chemical_formula_sum "Si O2"
_cell_formula_units_Z 64
_cell_length_a 24.501288
_cell_length_b 8.987322
_cell_length_c 19.786137
_cell_angle_alpha 90.000000
_cell_angle_beta 90.000000
_cell_angle_gamma 90.000000
_cell_volume 4356.926455
_symmetry_space_group_name_H-M "P N M A"
_symmetry_group_IT_number 62
_symmetry_cell_setting 'orthorhombic'
loop_
_space_group_symop_operation_xyz
x,y,z
1/2-x,-y,1/2+z
1/2+x,1/2-y,1/2-z
-x,1/2+y,-z
-x,-y,-z
1/2+x,y,1/2-z
1/2-x,1/2+y,1/2+z
x,1/2-y,z
loop_
_atom_site_type_symbol
_atom_site_label
_atom_site_fract_x
_atom_site_fract_y
_atom_site_fract_z
Si Si1 0.749487 0.583337 0.078815
Si Si2 0.931309 0.578497 0.645342
Si Si3 0.330645 0.084166 0.809573
Si Si4 0.725036 0.574544 0.705112
Si Si5 0.083290 0.584347 0.490717
Si Si6 0.298886 0.418375 0.056267
Si Si7 0.340385 0.925411 0.181265
Si Si8 0.552356 0.921328 0.865410
O O1 0.774713 0.750000 0.080442
O O2 0.688127 0.590566 0.111437
O O3 0.785470 0.473612 0.126258
O O4 0.744579 0.526991 0.001138
O O5 0.915599 0.750000 0.651905
O O6 0.890553 0.488269 0.694396
O O7 0.924449 0.535432 0.567336
O O8 0.993562 0.548670 0.669225
O O9 0.333224 0.250000 0.778184
O O10 0.284402 0.987795 0.770046
O O11 0.723388 0.750000 0.712218
O O12 0.677605 0.501946 0.749277
O O13 0.071229 0.750000 0.461834
O O14 0.142732 0.575767 0.522500
O O15 0.043951 0.546368 0.554466
O O16 0.284740 0.250000 0.079071
O O17 0.298847 0.523790 0.121724
O O18 0.336821 0.750000 0.189091
O O19 0.402708 0.972269 0.167757
O O20 0.571264 0.750000 0.855376
#
# Coordination Sequence:
#
# PCOD8250339 Si02
#       8
#     8   8   8   8   8   8   8   8
#     4   8  15  28  44  61  80 103 133 171 210 246
#     4  11  19  26  39  58  78 102 137 177 209 242
#     4   9  17  29  43  59  78 101 131 169 209 245
#     4  10  18  30  47  62  78 104 138 173 211 255
#     4   9  15  26  39  50  73 107 139 172 208 239
#     4   9  16  28  43  59  82 110 137 172 213 246
#     4  11  21  31  43  60  82 110 144 177 211 253
#     4   9  20  32  38  50  76 109 141 172 207 244
#
# _framework density 14.689254
#
# number of rings (size 3 to 8) (size 9 to 14) (size 15 to 20)
#    0.750    1.750    1.250    3.750    0.000    3.500 
#    0.000    0.000    0.000    0.000    0.000    0.000 
#    0.000    0.000    0.000    1.125    0.000   15.000 
#
# Total GULP energy -792925.223095 kJ/mol
# GULP energy per Si atom -12389.456611 kJ/mol
# Density = 1.465582 g / cm^3
# Si number density = 14.689254 Si / 1000 Ang^3
#
#
#
# Elastic Constant Matrix: (Units=GPa)
#
#
# Indices 1 2 3 4 5 6 
#
# 1 35.7359 20.5582 5.4147 0.0000 0.0000 0.0000
# 2 20.5582 92.8627 5.8259 0.0000 0.0000 0.0000
# 3 5.4147 5.8259 5.6926 0.0000 0.0000 0.0000
# 4 0.0000 0.0000 0.0000 21.9174 0.0000 0.0000
# 5 0.0000 0.0000 0.0000 0.0000 17.6787 0.0000
# 6 0.0000 0.0000 0.0000 0.0000 0.0000 19.2655
#
#
#
# Elastic Compliance Matrix: (Units=1/GPa)
#
#
# Indices 1 2 3 4 5 6 
#
# 1 0.035726 -0.006174 -0.027664 0.000000 0.000000 0.000000
# 2 -0.006174 0.012574 -0.006996 0.000000 0.000000 0.000000
# 3 -0.027664 -0.006996 0.209142 0.000000 0.000000 0.000000
# 4 0.000000 0.000000 0.000000 0.045626 0.000000 0.000000
# 5 0.000000 0.000000 0.000000 0.000000 0.056565 0.000000
# 6 0.000000 0.000000 0.000000 0.000000 0.000000 0.051906
#
#
# Mechanical properties :
#
#
# Convention : Reuss Voigt Hill
#
# Bulk Modulus (GPa) = 5.68914 21.98764 13.83839
# Shear Modulus (GPa) = 9.06126 18.60514 13.83320
#
# Velocity S-wave (km/s) = 2.48637 3.56277 3.07208
# Velocity P-wave (km/s) = 3.48197 5.65026 4.69306
#
# Compressibility (1/GPa) = 0.17577352
#
# Stress axis : x y z
#
# Youngs Moduli (GPa) = 27.99052 79.52759 4.78145
#
# Poissons Ratio (x) = 0.49097 0.13228
# Poissons Ratio (y) = 0.17280 0.03345
# Poissons Ratio (z) = 0.77434 0.55641
#
# Static dielectric constant tensor:
#      x y z
#    x 2.624460 0.000000 0.000000 
#    y 0.000000 2.863740 0.000000 
#    z 0.000000 0.000000 2.636210 
# 
# 
# High freq. dielectric constant tensor:
#      x y z
#    x 1.530300 0.000000 0.000000 
#    y 0.000000 1.570540 0.000000 
#    z 0.000000 0.000000 1.520890 
# 
# From -- ./inp_files/28008.got.cif
#   From: 2010.03.12/outbox.cif.g09.slc.cpg/sg62_15_cif.got.tgz:28008.got - 2010.04.10 19:12:36.
