data_PCOD8250524
_publ_section_title
;
Structure prediction by ZEFSAII (Michael W. Deem and Ramdas Pophale) SiO2 
 PCOD8250524
Probable space group: P N M A
;
_chemical_formula_sum "Si O2"
_cell_formula_units_Z 64
_cell_length_a 14.296717
_cell_length_b 9.251628
_cell_length_c 29.849321
_cell_angle_alpha 90.000000
_cell_angle_beta 90.000000
_cell_angle_gamma 90.000000
_cell_volume 3948.107223
_symmetry_space_group_name_H-M "P N M A"
_symmetry_group_IT_number 62
_symmetry_cell_setting 'orthorhombic'
loop_
_space_group_symop_operation_xyz
x,y,z
1/2-x,-y,1/2+z
1/2+x,1/2-y,1/2-z
-x,1/2+y,-z
-x,-y,-z
1/2+x,y,1/2-z
1/2-x,1/2+y,1/2+z
x,1/2-y,z
loop_
_atom_site_type_symbol
_atom_site_label
_atom_site_fract_x
_atom_site_fract_y
_atom_site_fract_z
Si Si1 0.609517 0.918226 0.452276
Si Si2 0.506292 0.085352 0.320130
Si Si3 0.818032 0.916554 0.304723
Si Si4 0.147669 0.417067 0.864553
Si Si5 0.195086 0.083718 0.130261
Si Si6 0.392807 0.585891 0.461096
Si Si7 0.014775 0.584010 0.268673
Si Si8 0.279333 0.420782 0.786653
O O1 0.634280 0.750000 0.448889
O O2 0.499491 0.948363 0.446715
O O3 0.667813 0.002365 0.414950
O O4 0.642578 0.977533 0.500681
O O5 0.474117 0.250000 0.316329
O O6 0.614204 0.070822 0.332863
O O7 0.446356 0.007594 0.358087
O O8 0.485526 0.008782 0.273652
O O9 0.788101 0.750000 0.311678
O O10 0.930698 0.931988 0.304117
O O11 0.772511 0.976455 0.258314
O O12 0.785011 0.009460 0.347173
O O13 0.126064 0.250000 0.853541
O O14 0.173104 0.434966 0.917194
O O15 0.228524 0.479018 0.831714
O O16 0.217389 0.250000 0.118663
O O17 0.386466 0.750000 0.479251
O O18 0.025468 0.750000 0.253106
O O19 0.112913 0.526112 0.288732
O O20 0.274520 0.250000 0.787454
#
# Coordination Sequence:
#
# PCOD8250524 Si02
#       8
#     8   8   8   8   8   8   8   8
#     4  10  19  31  49  70  95 126 160 196 237 288
#     4  11  21  29  43  68  97 128 160 199 237 274
#     4  10  19  31  50  70  92 126 165 199 235 280
#     4  10  18  32  50  70  95 130 166 193 231 282
#     4  11  22  33  46  68  99 130 163 199 240 284
#     4   9  18  30  47  70  98 127 156 194 237 286
#     4  10  19  33  49  67  94 127 163 202 235 274
#     4   9  17  29  49  72  93 122 163 200 229 274
#
# _framework density 16.210298000000002
#
# number of rings (size 3 to 8) (size 9 to 14) (size 15 to 20)
#    0.000    2.000    3.750    1.125    0.000    2.500 
#    0.000    0.625    0.000    0.000    0.000    0.875 
#    0.000    0.000    0.000    0.000    0.000    0.000 
#
# Total GULP energy -793496.293184 kJ/mol
# GULP energy per Si atom -12398.379581 kJ/mol
# Density = 1.617340 g / cm^3
# Si number density = 16.210298 Si / 1000 Ang^3
#
#
#
# Elastic Constant Matrix: (Units=GPa)
#
#
# Indices 1 2 3 4 5 6 
#
# 1 67.0970 22.8607 27.9387 0.0000 0.0000 0.0000
# 2 22.8607 75.9254 42.5700 0.0000 0.0000 0.0000
# 3 27.9387 42.5700 97.1524 0.0000 0.0000 0.0000
# 4 0.0000 0.0000 0.0000 25.8430 0.0000 0.0000
# 5 0.0000 0.0000 0.0000 0.0000 24.6139 0.0000
# 6 0.0000 0.0000 0.0000 0.0000 0.0000 13.4071
#
#
#
# Elastic Compliance Matrix: (Units=1/GPa)
#
#
# Indices 1 2 3 4 5 6 
#
# 1 0.017515 -0.003247 -0.003614 0.000000 0.000000 0.000000
# 2 -0.003247 0.018063 -0.006981 0.000000 0.000000 0.000000
# 3 -0.003614 -0.006981 0.014391 0.000000 0.000000 0.000000
# 4 0.000000 0.000000 0.000000 0.038695 0.000000 0.000000
# 5 0.000000 0.000000 0.000000 0.000000 0.040628 0.000000
# 6 0.000000 0.000000 0.000000 0.000000 0.000000 0.074588
#
#
# Mechanical properties :
#
#
# Convention : Reuss Voigt Hill
#
# Bulk Modulus (GPa) = 44.87402 47.43485 46.15443
# Shear Modulus (GPa) = 20.92124 22.55981 21.74052
#
# Velocity S-wave (km/s) = 3.59641 3.73459 3.66615
# Velocity P-wave (km/s) = 6.70731 6.92257 6.81579
#
# Compressibility (1/GPa) = 0.02228461
#
# Stress axis : x y z
#
# Youngs Moduli (GPa) = 57.09376 55.36314 69.48691
#
# Poissons Ratio (x) = 0.17979 0.25112
# Poissons Ratio (y) = 0.18541 0.48507
# Poissons Ratio (z) = 0.20634 0.38648
#
# Static dielectric constant tensor:
#      x y z
#    x 3.014500 0.000000 0.000000 
#    y 0.000000 3.019910 0.000000 
#    z 0.000000 0.000000 3.023140 
# 
# 
# High freq. dielectric constant tensor:
#      x y z
#    x 1.593850 0.000000 0.000000 
#    y 0.000000 1.617970 0.000000 
#    z 0.000000 0.000000 1.614550 
# 
# From -- ./inp_files/32685.got.cif
#   From: 2010.03.12/outbox.cif.g09.slc.cpg/sg62_17_cif.got.tgz:32685.got - 2010.04.10 19:12:36.
