data_PCOD8250125
_publ_section_title
;
Structure prediction by ZEFSAII (Michael W. Deem and Ramdas Pophale) SiO2 
 PCOD8250125
Probable space group: P N M A
;
_chemical_formula_sum "Si O2"
_cell_formula_units_Z 56
_cell_length_a 29.401485
_cell_length_b 8.989451
_cell_length_c 13.568923
_cell_angle_alpha 90.000000
_cell_angle_beta 90.000000
_cell_angle_gamma 90.000000
_cell_volume 3586.309888
_symmetry_space_group_name_H-M "P N M A"
_symmetry_group_IT_number 62
_symmetry_cell_setting 'orthorhombic'
loop_
_space_group_symop_operation_xyz
x,y,z
1/2-x,-y,1/2+z
1/2+x,1/2-y,1/2-z
-x,1/2+y,-z
-x,-y,-z
1/2+x,y,1/2-z
1/2-x,1/2+y,1/2+z
x,1/2-y,z
loop_
_atom_site_type_symbol
_atom_site_label
_atom_site_fract_x
_atom_site_fract_y
_atom_site_fract_z
Si Si1 0.314047 0.425786 0.281734
Si Si2 0.097350 0.923125 0.896120
Si Si3 0.272830 0.574426 0.097818
Si Si4 0.235059 0.923895 0.395457
Si Si5 0.999125 0.577954 0.897271
Si Si6 0.680226 0.580710 0.296752
Si Si7 0.099039 0.424316 0.106475
O O1 0.306409 0.250000 0.268503
O O2 0.364835 0.466482 0.316392
O O3 0.307175 0.509628 0.178814
O O4 0.279909 0.486452 0.364647
O O5 0.101102 0.750000 0.922829
O O6 0.047688 0.961157 0.845620
O O7 0.105558 0.008377 0.998044
O O8 0.281136 0.750000 0.087610
O O9 0.221264 0.538759 0.129806
O O10 0.283710 0.490854 0.996657
O O11 0.247323 0.750000 0.406010
O O12 0.195608 0.947507 0.315173
O O13 0.997331 0.750000 0.920487
O O14 0.950972 0.533674 0.845899
O O15 0.000000 0.500000 0.000000
O O16 0.665774 0.750000 0.313475
O O17 0.636705 0.480772 0.317850
O O18 0.105329 0.250000 0.095504
#
# Coordination Sequence:
#
# PCOD8250125 Si02
#       7
#     8   8   8   8   8   8   8
#     4  10  19  30  46  67  88 116 150 179 213 258
#     4   9  17  29  44  61  88 121 146 172 212 259
#     4  10  20  33  47  64  88 117 146 181 220 258
#     4  10  20  33  47  64  88 117 147 182 218 256
#     4   8  15  27  40  59  86 114 143 174 210 253
#     4   9  19  32  44  61  87 117 145 171 211 261
#     4  10  18  26  42  66  89 114 146 181 213 247
#
# _framework density 15.614936
#
# number of rings (size 3 to 8) (size 9 to 14) (size 15 to 20)
#    0.000    2.571    0.000    3.429    0.000    8.571 
#    0.000    0.000    0.000    0.000    0.000    1.000 
#    0.000    0.000    0.000    0.000    0.000    0.000 
#
# Total GULP energy -693952.928136 kJ/mol
# GULP energy per Si atom -12392.016574 kJ/mol
# Density = 1.557940 g / cm^3
# Si number density = 15.614936 Si / 1000 Ang^3
#
#
#
# Elastic Constant Matrix: (Units=GPa)
#
#
# Indices 1 2 3 4 5 6 
#
# 1 134.7241 49.2246 47.4516 0.0000 0.0000 0.0000
# 2 49.2246 60.0160 34.0354 0.0000 0.0000 0.0000
# 3 47.4516 34.0354 82.2438 0.0000 0.0000 0.0000
# 4 0.0000 0.0000 0.0000 25.9612 0.0000 0.0000
# 5 0.0000 0.0000 0.0000 0.0000 16.8312 0.0000
# 6 0.0000 0.0000 0.0000 0.0000 0.0000 21.5157
#
#
#
# Elastic Compliance Matrix: (Units=1/GPa)
#
#
# Indices 1 2 3 4 5 6 
#
# 1 0.011327 -0.007296 -0.003516 0.000000 0.000000 0.000000
# 2 -0.007296 0.026472 -0.006745 0.000000 0.000000 0.000000
# 3 -0.003516 -0.006745 0.016979 0.000000 0.000000 0.000000
# 4 0.000000 0.000000 0.000000 0.038519 0.000000 0.000000
# 5 0.000000 0.000000 0.000000 0.000000 0.059414 0.000000
# 6 0.000000 0.000000 0.000000 0.000000 0.000000 0.046478
#
#
# Mechanical properties :
#
#
# Convention : Reuss Voigt Hill
#
# Bulk Modulus (GPa) = 50.85717 59.82302 55.34010
# Shear Modulus (GPa) = 20.75926 22.61312 21.68619
#
# Velocity S-wave (km/s) = 3.65012 3.80961 3.73072
# Velocity P-wave (km/s) = 7.09963 7.59904 7.35358
#
# Compressibility (1/GPa) = 0.01966291
#
# Stress axis : x y z
#
# Youngs Moduli (GPa) = 88.28691 37.77589 58.89707
#
# Poissons Ratio (x) = 0.27563 0.20706
# Poissons Ratio (y) = 0.64417 0.39728
# Poissons Ratio (z) = 0.31038 0.25481
#
# Static dielectric constant tensor:
#      x y z
#    x 3.478180 0.000000 0.000000 
#    y 0.000000 2.962990 0.000000 
#    z 0.000000 0.000000 2.728620 
# 
# 
# High freq. dielectric constant tensor:
#      x y z
#    x 1.602660 0.000000 0.000000 
#    y 0.000000 1.613890 0.000000 
#    z 0.000000 0.000000 1.564780 
# 
# From -- ./inp_files/21171.got.cif
#   From: 2010.03.12/outbox.cif.g09.slc.cpg/sg62_11_cif.got.tgz:21171.got - 2010.04.10 19:12:36.
