data_PCOD8250455
_publ_section_title
;
Structure prediction by ZEFSAII (Michael W. Deem and Ramdas Pophale) SiO2 
 PCOD8250455
Probable space group: P N M A
;
_chemical_formula_sum "Si O2"
_cell_formula_units_Z 64
_cell_length_a 28.108692
_cell_length_b 13.779750
_cell_length_c 10.050926
_cell_angle_alpha 90.000000
_cell_angle_beta 90.000000
_cell_angle_gamma 90.000000
_cell_volume 3893.032692
_symmetry_space_group_name_H-M "P N M A"
_symmetry_group_IT_number 62
_symmetry_cell_setting 'orthorhombic'
loop_
_space_group_symop_operation_xyz
x,y,z
1/2-x,-y,1/2+z
1/2+x,1/2-y,1/2-z
-x,1/2+y,-z
-x,-y,-z
1/2+x,y,1/2-z
1/2-x,1/2+y,1/2+z
x,1/2-y,z
loop_
_atom_site_type_symbol
_atom_site_label
_atom_site_fract_x
_atom_site_fract_y
_atom_site_fract_z
Si Si1 0.081341 0.364339 0.329467
Si Si2 0.082136 0.360188 0.623142
Si Si3 0.753794 0.363071 0.060035
Si Si4 0.935936 0.530376 0.118178
Si Si5 0.491763 0.863746 0.603680
Si Si6 0.308141 0.859068 0.186042
Si Si7 0.179814 0.364190 0.210886
Si Si8 0.825462 0.525280 0.058811
O O1 0.088104 0.250000 0.339653
O O2 0.068947 0.402691 0.477444
O O3 0.038458 0.393588 0.233027
O O4 0.131119 0.406724 0.274718
O O5 0.063283 0.250000 0.643488
O O6 0.058711 0.430286 0.732089
O O7 0.138547 0.362197 0.633366
O O8 0.765250 0.250000 0.051663
O O9 0.723445 0.386839 0.191499
O O10 0.724737 0.399777 0.931617
O O11 0.804240 0.417270 0.059914
O O12 0.959644 0.424672 0.106567
O O13 0.961274 0.609919 0.025858
O O14 0.881907 0.519669 0.072754
O O15 0.504289 0.750000 0.601248
O O16 0.293289 0.750000 0.222271
O O17 0.300936 0.921025 0.317902
O O18 0.174783 0.250000 0.181610
O O19 0.189565 0.418149 0.073245
#
# Coordination Sequence:
#
# PCOD8250455 Si02
#       8
#     8   8   8   8   8   8   8   8
#     4   9  16  29  51  73  94 122 156 201 249 281
#     4   9  16  29  50  74  98 121 152 197 244 287
#     4  10  20  33  48  69 100 133 163 194 234 288
#     4  10  21  32  49  75  98 128 163 198 248 294
#     4  10  20  35  51  71  99 126 161 208 247 285
#     4   9  17  30  47  70  97 122 152 197 242 278
#     4  10  18  31  51  76  99 124 162 206 245 282
#     4  11  20  31  49  74  99 127 162 198 240 290
#
# _framework density 16.439626000000001
#
# number of rings (size 3 to 8) (size 9 to 14) (size 15 to 20)
#    0.000    2.250    2.500    1.500    0.000    2.000 
#    0.000    0.000    0.000    0.000    0.000    0.875 
#    0.000    0.000    0.000    0.000    0.000    0.000 
#
# Total GULP energy -793572.152002 kJ/mol
# GULP energy per Si atom -12399.564875 kJ/mol
# Density = 1.640221 g / cm^3
# Si number density = 16.439626 Si / 1000 Ang^3
#
#
#
# Elastic Constant Matrix: (Units=GPa)
#
#
# Indices 1 2 3 4 5 6 
#
# 1 38.1732 33.7927 13.2663 0.0000 0.0000 0.0000
# 2 33.7927 69.1023 36.6912 0.0000 0.0000 0.0000
# 3 13.2663 36.6912 102.9069 0.0000 0.0000 0.0000
# 4 0.0000 0.0000 0.0000 12.6871 0.0000 0.0000
# 5 0.0000 0.0000 0.0000 0.0000 17.6780 0.0000
# 6 0.0000 0.0000 0.0000 0.0000 0.0000 17.5971
#
#
#
# Elastic Compliance Matrix: (Units=1/GPa)
#
#
# Indices 1 2 3 4 5 6 
#
# 1 0.046760 -0.024259 0.002621 0.000000 0.000000 0.000000
# 2 -0.024259 0.030436 -0.007725 0.000000 0.000000 0.000000
# 3 0.002621 -0.007725 0.012134 0.000000 0.000000 0.000000
# 4 0.000000 0.000000 0.000000 0.078820 0.000000 0.000000
# 5 0.000000 0.000000 0.000000 0.000000 0.056568 0.000000
# 6 0.000000 0.000000 0.000000 0.000000 0.000000 0.056828
#
#
# Mechanical properties :
#
#
# Convention : Reuss Voigt Hill
#
# Bulk Modulus (GPa) = 32.67332 41.96475 37.31903
# Shear Modulus (GPa) = 14.26649 18.02124 16.14386
#
# Velocity S-wave (km/s) = 2.94906 3.31449 3.13710
# Velocity P-wave (km/s) = 5.61372 6.34270 5.98931
#
# Compressibility (1/GPa) = 0.03060602
#
# Stress axis : x y z
#
# Youngs Moduli (GPa) = 21.38561 32.85592 82.41469
#
# Poissons Ratio (x) = 0.79704 -0.21603
# Poissons Ratio (y) = 0.51879 0.63661
# Poissons Ratio (z) = -0.05606 0.25380
#
# Static dielectric constant tensor:
#      x y z
#    x 2.910720 0.000000 0.000000 
#    y 0.000000 2.883430 0.000000 
#    z 0.000000 0.000000 3.368250 
# 
# 
# High freq. dielectric constant tensor:
#      x y z
#    x 1.618200 0.000000 0.000000 
#    y 0.000000 1.611380 0.000000 
#    z 0.000000 0.000000 1.652220 
# 
# From -- ./inp_files/10470.got.cif
#   From: 2010.03.12/outbox.cif.g09.slc.cpg/sg62_6_cif.got.tgz:10470.got - 2010.04.10 19:12:36.
