data_PCOD8250478
_publ_section_title
;
Structure prediction by ZEFSAII (Michael W. Deem and Ramdas Pophale) SiO2 
 PCOD8250478
Probable space group: P N M A
;
_chemical_formula_sum "Si O2"
_cell_formula_units_Z 40
_cell_length_a 15.502619
_cell_length_b 8.655036
_cell_length_c 15.749007
_cell_angle_alpha 90.000000
_cell_angle_beta 90.000000
_cell_angle_gamma 90.000000
_cell_volume 2113.134441
_symmetry_space_group_name_H-M "P N M A"
_symmetry_group_IT_number 62
_symmetry_cell_setting 'orthorhombic'
loop_
_space_group_symop_operation_xyz
x,y,z
1/2-x,-y,1/2+z
1/2+x,1/2-y,1/2-z
-x,1/2+y,-z
-x,-y,-z
1/2+x,y,1/2-z
1/2-x,1/2+y,1/2+z
x,1/2-y,z
loop_
_atom_site_type_symbol
_atom_site_label
_atom_site_fract_x
_atom_site_fract_y
_atom_site_fract_z
Si Si1 0.569196 0.566904 0.564918
Si Si2 0.811050 0.931221 0.940574
Si Si3 0.452610 0.070532 0.881565
Si Si4 0.367390 0.928565 0.037163
Si Si5 0.947180 0.068097 0.812509
O O1 0.500000 0.500000 0.500000
O O2 0.572519 0.750000 0.562863
O O3 0.660681 0.498823 0.533199
O O4 0.538153 0.507939 0.657167
O O5 0.827103 0.750000 0.938684
O O6 0.865571 0.006226 0.864545
O O7 0.711184 0.970388 0.927077
O O8 0.433600 0.250000 0.898764
O O9 0.433599 0.023096 0.785162
O O10 0.388834 0.971434 0.940007
O O11 0.551666 0.031633 0.903111
O O12 0.341455 0.750000 0.041837
O O13 0.954750 0.250000 0.825539
#
# Coordination Sequence:
#
# PCOD8250478 Si02
#       5
#     8   8   8   8   8
#     4  10  18  31  52  78 108 143 178 219 271 323
#     4  11  21  35  55  81 112 146 184 227 275 323
#     4   9  20  38  59  81 108 146 183 221 273 329
#     4  10  20  37  59  81 108 144 185 226 272 325
#     4  10  19  35  57  82 112 145 181 224 274 328
#
# _framework density 18.929227000000001
#
# number of rings (size 3 to 8) (size 9 to 14) (size 15 to 20)
#    0.000    2.000    0.000    7.200    0.000    2.400 
#    3.600    0.000    0.000    0.000    0.000    0.000 
#    0.000    0.000    0.000    0.000    0.000    0.000 
#
# Total GULP energy -495998.231690 kJ/mol
# GULP energy per Si atom -12399.955792 kJ/mol
# Density = 1.888614 g / cm^3
# Si number density = 18.929227 Si / 1000 Ang^3
#
#
#
# Elastic Constant Matrix: (Units=GPa)
#
#
# Indices 1 2 3 4 5 6 
#
# 1 84.9923 22.2851 39.4054 0.0000 0.0000 0.0000
# 2 22.2851 94.2792 36.7743 0.0000 0.0000 0.0000
# 3 39.4054 36.7743 107.5718 0.0000 0.0000 0.0000
# 4 0.0000 0.0000 0.0000 29.6806 0.0000 0.0000
# 5 0.0000 0.0000 0.0000 0.0000 15.6656 0.0000
# 6 0.0000 0.0000 0.0000 0.0000 0.0000 33.5139
#
#
#
# Elastic Compliance Matrix: (Units=1/GPa)
#
#
# Indices 1 2 3 4 5 6 
#
# 1 0.014366 -0.001550 -0.004733 0.000000 0.000000 0.000000
# 2 -0.001550 0.012406 -0.003673 0.000000 0.000000 0.000000
# 3 -0.004733 -0.003673 0.012286 0.000000 0.000000 0.000000
# 4 0.000000 0.000000 0.000000 0.033692 0.000000 0.000000
# 5 0.000000 0.000000 0.000000 0.000000 0.063834 0.000000
# 6 0.000000 0.000000 0.000000 0.000000 0.000000 0.029838
#
#
# Mechanical properties :
#
#
# Convention : Reuss Voigt Hill
#
# Bulk Modulus (GPa) = 52.23022 53.75255 52.99139
# Shear Modulus (GPa) = 25.94480 28.33055 27.13768
#
# Velocity S-wave (km/s) = 3.70621 3.87286 3.79045
# Velocity P-wave (km/s) = 6.77989 6.96110 6.87109
#
# Compressibility (1/GPa) = 0.01914600
#
# Stress axis : x y z
#
# Youngs Moduli (GPa) = 69.60658 80.60652 81.39591
#
# Poissons Ratio (x) = 0.12492 0.38524
# Poissons Ratio (y) = 0.10787 0.29900
# Poissons Ratio (z) = 0.32944 0.29610
#
# Static dielectric constant tensor:
#      x y z
#    x 3.597660 0.000000 0.000000 
#    y 0.000000 3.535120 0.000000 
#    z 0.000000 0.000000 3.621870 
# 
# 
# High freq. dielectric constant tensor:
#      x y z
#    x 1.728040 0.000000 0.000000 
#    y 0.000000 1.749880 0.000000 
#    z 0.000000 0.000000 1.724800 
# 
# From -- ./inp_files/23461.got.cif
#   From: 2010.03.12/outbox.cif.g09.slc.cpg/sg62_12_cif.got.tgz:23461.got - 2010.04.10 19:12:36.
