data_PCOD8250469
_publ_section_title
;
Structure prediction by ZEFSAII (Michael W. Deem and Ramdas Pophale) SiO2 
 PCOD8250469
Probable space group: P N M A
;
_chemical_formula_sum "Si O2"
_cell_formula_units_Z 40
_cell_length_a 12.461172
_cell_length_b 8.862096
_cell_length_c 20.842307
_cell_angle_alpha 90.000000
_cell_angle_beta 90.000000
_cell_angle_gamma 90.000000
_cell_volume 2301.659784
_symmetry_space_group_name_H-M "P N M A"
_symmetry_group_IT_number 62
_symmetry_cell_setting 'orthorhombic'
loop_
_space_group_symop_operation_xyz
x,y,z
1/2-x,-y,1/2+z
1/2+x,1/2-y,1/2-z
-x,1/2+y,-z
-x,-y,-z
1/2+x,y,1/2-z
1/2-x,1/2+y,1/2+z
x,1/2-y,z
loop_
_atom_site_type_symbol
_atom_site_label
_atom_site_fract_x
_atom_site_fract_y
_atom_site_fract_z
Si Si1 0.682006 0.572312 0.658363
Si Si2 0.822798 0.424605 0.835836
Si Si3 0.886646 0.426645 0.300982
Si Si4 0.490195 0.571660 0.430870
Si Si5 0.894004 0.425696 0.693539
O O1 0.680597 0.750000 0.647514
O O2 0.633384 0.526532 0.727228
O O3 0.614786 0.493163 0.603016
O O4 0.803535 0.512791 0.653172
O O5 0.790606 0.250000 0.840577
O O6 0.715193 0.522885 0.843328
O O7 0.880552 0.460077 0.768762
O O8 0.903662 0.474198 0.891583
O O9 0.904874 0.250000 0.308587
O O10 0.990436 0.512596 0.327800
O O11 0.500000 0.500000 0.500000
O O12 0.478196 0.750000 0.435816
O O13 0.885792 0.250000 0.677618
#
# Coordination Sequence:
#
# PCOD8250469 Si02
#       5
#     8   8   8   8   8
#     4  10  20  33  50  76 107 138 175 217 262 311
#     4   9  19  33  50  73 103 138 176 211 255 311
#     4  10  19  30  50  78 108 136 168 215 266 310
#     4  11  22  37  55  77 105 142 181 219 259 308
#     4  10  18  31  52  76 106 139 171 213 262 315
#
# _framework density 17.378764
#
# number of rings (size 3 to 8) (size 9 to 14) (size 15 to 20)
#    0.000    2.000    2.000    2.400    0.000    4.000 
#    0.000    0.000    0.000    1.200    0.000    0.000 
#    0.000    0.000    0.000    0.000    0.000    0.000 
#
# Total GULP energy -496167.621998 kJ/mol
# GULP energy per Si atom -12404.190550 kJ/mol
# Density = 1.733921 g / cm^3
# Si number density = 17.378764 Si / 1000 Ang^3
#
#
#
# Elastic Constant Matrix: (Units=GPa)
#
#
# Indices 1 2 3 4 5 6 
#
# 1 141.9094 54.1803 50.7944 0.0000 0.0000 0.0000
# 2 54.1803 74.6474 35.9293 0.0000 0.0000 0.0000
# 3 50.7944 35.9293 84.3471 0.0000 0.0000 0.0000
# 4 0.0000 0.0000 0.0000 25.3712 0.0000 0.0000
# 5 0.0000 0.0000 0.0000 0.0000 23.1994 0.0000
# 6 0.0000 0.0000 0.0000 0.0000 0.0000 35.8383
#
#
#
# Elastic Compliance Matrix: (Units=1/GPa)
#
#
# Indices 1 2 3 4 5 6 
#
# 1 0.010698 -0.005867 -0.003943 0.000000 0.000000 0.000000
# 2 -0.005867 0.020069 -0.005016 0.000000 0.000000 0.000000
# 3 -0.003943 -0.005016 0.016367 0.000000 0.000000 0.000000
# 4 0.000000 0.000000 0.000000 0.039415 0.000000 0.000000
# 5 0.000000 0.000000 0.000000 0.000000 0.043104 0.000000
# 6 0.000000 0.000000 0.000000 0.000000 0.000000 0.027903
#
#
# Mechanical properties :
#
#
# Convention : Reuss Voigt Hill
#
# Bulk Modulus (GPa) = 57.20117 64.74575 60.97346
# Shear Modulus (GPa) = 25.90200 27.54844 26.72522
#
# Velocity S-wave (km/s) = 3.86481 3.98575 3.92575
# Velocity P-wave (km/s) = 7.27334 7.64972 7.46390
#
# Compressibility (1/GPa) = 0.01748216
#
# Stress axis : x y z
#
# Youngs Moduli (GPa) = 93.47382 49.82890 61.09852
#
# Poissons Ratio (x) = 0.29234 0.24094
# Poissons Ratio (y) = 0.54840 0.30644
# Poissons Ratio (z) = 0.36861 0.24992
#
# Static dielectric constant tensor:
#      x y z
#    x 3.333930 0.000000 0.000000 
#    y 0.000000 3.294100 0.000000 
#    z 0.000000 0.000000 2.909020 
# 
# 
# High freq. dielectric constant tensor:
#      x y z
#    x 1.684960 0.000000 0.000000 
#    y 0.000000 1.685690 0.000000 
#    z 0.000000 0.000000 1.625630 
# 
# From -- ./inp_files/22755.got.cif
#   From: 2010.03.12/outbox.cif.g09.slc.cpg/sg62_12_cif.got.tgz:22755.got - 2010.04.10 19:12:36.
