data_PCOD8250337
_publ_section_title
;
Structure prediction by ZEFSAII (Michael W. Deem and Ramdas Pophale) SiO2 
 PCOD8250337
Probable space group: P N M A
;
_chemical_formula_sum "Si O2"
_cell_formula_units_Z 56
_cell_length_a 8.385343
_cell_length_b 29.284276
_cell_length_c 13.493546
_cell_angle_alpha 90.000000
_cell_angle_beta 90.000000
_cell_angle_gamma 90.000000
_cell_volume 3313.457598
_symmetry_space_group_name_H-M "P N M A"
_symmetry_group_IT_number 62
_symmetry_cell_setting 'orthorhombic'
loop_
_space_group_symop_operation_xyz
x,y,z
1/2-x,-y,1/2+z
1/2+x,1/2-y,1/2-z
-x,1/2+y,-z
-x,-y,-z
1/2+x,y,1/2-z
1/2-x,1/2+y,1/2+z
x,1/2-y,z
loop_
_atom_site_type_symbol
_atom_site_label
_atom_site_fract_x
_atom_site_fract_y
_atom_site_fract_z
Si Si1 0.825867 0.151339 0.165340
Si Si2 0.676640 0.522400 0.375742
Si Si3 0.306091 0.519370 0.336531
Si Si4 0.307175 0.849300 0.617324
Si Si5 0.643559 0.750000 0.681169
Si Si6 0.181660 0.563409 0.523121
Si Si7 0.709700 0.250000 0.381252
Si Si8 0.813316 0.567316 0.563253
O O1 0.794726 0.145238 0.282165
O O2 0.782761 0.203741 0.133678
O O3 0.715984 0.118875 0.098671
O O4 0.009907 0.140610 0.143820
O O5 0.489908 0.527619 0.359469
O O6 0.771855 0.533253 0.275769
O O7 0.712789 0.471269 0.412119
O O8 0.730402 0.559271 0.457314
O O9 0.199270 0.551305 0.407509
O O10 0.259696 0.466521 0.354206
O O11 0.245117 0.885613 0.538268
O O12 0.281372 0.799274 0.563182
O O13 0.654907 0.750000 0.799175
O O14 0.455466 0.750000 0.675911
O O15 0.999915 0.557740 0.555270
#
# Coordination Sequence:
#
# PCOD8250337 Si02
#       8
#     8   8   8   8   4   8   4   8
#     4  10  18  30  46  68  95 126 158 193 232 275
#     4  11  21  35  51  69  93 123 155 193 232 273
#     4  11  21  35  51  69  93 123 155 193 232 273
#     4  10  18  30  46  68  95 126 158 193 232 275
#     4   8  16  28  44  64  91 122 155 190 230 274
#     4  11  21  33  48  70  95 124 158 192 228 274
#     4   8  16  28  44  64  91 122 155 190 230 274
#     4  11  21  33  48  70  95 124 158 192 228 274
#
# _framework density 16.900773999999998
#
# number of rings (size 3 to 8) (size 9 to 14) (size 15 to 20)
#    0.000    1.714    0.000    8.571    0.000    1.143 
#    0.000    0.000    0.000    0.000    0.000    1.000 
#    0.000    0.000    0.000    0.000    0.000    0.000 
#
# Total GULP energy -694191.414897 kJ/mol
# GULP energy per Si atom -12396.275266 kJ/mol
# Density = 1.686231 g / cm^3
# Si number density = 16.900774 Si / 1000 Ang^3
#
#
#
# Elastic Constant Matrix: (Units=GPa)
#
#
# Indices 1 2 3 4 5 6 
#
# 1 53.5039 9.8613 -0.0277 0.0000 0.0000 0.0000
# 2 9.8613 105.5080 28.4740 0.0000 0.0000 0.0000
# 3 -0.0277 28.4740 65.1799 0.0000 0.0000 0.0000
# 4 0.0000 0.0000 0.0000 20.4968 0.0000 0.0000
# 5 0.0000 0.0000 0.0000 0.0000 26.9799 0.0000
# 6 0.0000 0.0000 0.0000 0.0000 0.0000 23.1256
#
#
#
# Elastic Compliance Matrix: (Units=1/GPa)
#
#
# Indices 1 2 3 4 5 6 
#
# 1 0.019063 -0.002022 0.000892 0.000000 0.000000 0.000000
# 2 -0.002022 0.010959 -0.004788 0.000000 0.000000 0.000000
# 3 0.000892 -0.004788 0.017434 0.000000 0.000000 0.000000
# 4 0.000000 0.000000 0.000000 0.048788 0.000000 0.000000
# 5 0.000000 0.000000 0.000000 0.000000 0.037065 0.000000
# 6 0.000000 0.000000 0.000000 0.000000 0.000000 0.043242
#
#
# Mechanical properties :
#
#
# Convention : Reuss Voigt Hill
#
# Bulk Modulus (GPa) = 28.07522 33.42300 30.74911
# Shear Modulus (GPa) = 24.96716 26.51276 25.73996
#
# Velocity S-wave (km/s) = 3.84771 3.96502 3.90680
# Velocity P-wave (km/s) = 6.03222 6.38598 6.21162
#
# Compressibility (1/GPa) = 0.03561860
#
# Stress axis : x y z
#
# Youngs Moduli (GPa) = 52.45646 91.24705 57.35794
#
# Poissons Ratio (x) = 0.18454 -0.05114
# Poissons Ratio (y) = 0.10609 0.27466
# Poissons Ratio (z) = -0.04677 0.43693
#
# Static dielectric constant tensor:
#      x y z
#    x 3.295170 0.000000 0.000000 
#    y 0.000000 3.448100 0.000000 
#    z 0.000000 0.000000 3.027160 
# 
# 
# High freq. dielectric constant tensor:
#      x y z
#    x 1.672740 0.000000 0.000000 
#    y 0.000000 1.651540 0.000000 
#    z 0.000000 0.000000 1.613630 
# 
# From -- ./inp_files/17426.got.cif
#   From: 2010.03.12/outbox.cif.g09.slc.cpg/sg62_9_cif.got.tgz:17426.got - 2010.04.10 19:12:36.
