data_PCOD8250666
_publ_section_title
;
Structure prediction by ZEFSAII (Michael W. Deem and Ramdas Pophale) SiO2 
 PCOD8250666
Probable space group: P N M A
;
_chemical_formula_sum "Si O2"
_cell_formula_units_Z 64
_cell_length_a 23.211555
_cell_length_b 15.202866
_cell_length_c 9.804194
_cell_angle_alpha 90.000000
_cell_angle_beta 90.000000
_cell_angle_gamma 90.000000
_cell_volume 3459.725159
_symmetry_space_group_name_H-M "P N M A"
_symmetry_group_IT_number 62
_symmetry_cell_setting 'orthorhombic'
loop_
_space_group_symop_operation_xyz
x,y,z
1/2-x,-y,1/2+z
1/2+x,1/2-y,1/2-z
-x,1/2+y,-z
-x,-y,-z
1/2+x,y,1/2-z
1/2-x,1/2+y,1/2+z
x,1/2-y,z
loop_
_atom_site_type_symbol
_atom_site_label
_atom_site_fract_x
_atom_site_fract_y
_atom_site_fract_z
Si Si1 0.785012 0.653235 0.580376
Si Si2 0.127791 0.940686 0.240910
Si Si3 0.902711 0.479576 0.207053
Si Si4 0.156571 0.846507 0.995002
Si Si5 0.290562 0.588391 0.626121
Si Si6 0.829951 0.477384 0.477950
Si Si7 0.395183 0.650293 0.465340
Si Si8 0.976240 0.955963 0.863919
O O1 0.811262 0.750000 0.549704
O O2 0.724890 0.641717 0.503599
O O3 0.774383 0.646214 0.742495
O O4 0.828428 0.579686 0.523430
O O5 0.140645 0.922159 0.399539
O O6 0.176653 0.002231 0.175607
O O7 0.064338 0.980995 0.224886
O O8 0.132866 0.852287 0.150579
O O9 0.871016 0.424687 0.090787
O O10 0.869419 0.468655 0.346833
O O11 0.904153 0.581832 0.159414
O O12 0.966903 0.438642 0.227667
O O13 0.139597 0.750000 0.937414
O O14 0.232969 0.561691 0.546483
O O15 0.330191 0.643388 0.522169
O O16 0.405676 0.750000 0.413464
O O17 0.440206 0.630096 0.589409
O O18 0.000000 0.000000 0.000000
#
# Coordination Sequence:
#
# PCOD8250666 Si02
#       8
#     8   8   8   8   8   8   8   8
#     4  10  20  33  53  83 114 151 197 236 287 359
#     4  10  20  37  55  84 110 151 192 240 287 347
#     4  11  21  39  56  87 117 151 197 239 293 357
#     4  11  20  35  58  81 110 150 195 241 287 348
#     4  10  18  34  56  79 117 150 187 232 296 347
#     4  11  22  34  60  81 122 161 181 239 313 353
#     4  10  20  34  60  89 115 148 196 250 289 338
#     4   9  18  37  60  80 116 145 199 244 281 345
#
# _framework density 18.498578999999999
#
# number of rings (size 3 to 8) (size 9 to 14) (size 15 to 20)
#    0.000    1.750    6.250    0.375    1.750    1.500 
#    0.000    3.125    0.000    0.000    0.000    1.750 
#    0.000    0.000    0.000    0.000    0.000    0.000 
#
# Total GULP energy -793320.433918 kJ/mol
# GULP energy per Si atom -12395.631780 kJ/mol
# Density = 1.845648 g / cm^3
# Si number density = 18.498579 Si / 1000 Ang^3
#
#
#
# Elastic Constant Matrix: (Units=GPa)
#
#
# Indices 1 2 3 4 5 6 
#
# 1 92.0762 18.3176 51.1367 0.0000 0.0000 0.0000
# 2 18.3176 71.9799 28.3888 0.0000 0.0000 0.0000
# 3 51.1367 28.3888 102.3317 0.0000 0.0000 0.0000
# 4 0.0000 0.0000 0.0000 13.2486 0.0000 0.0000
# 5 0.0000 0.0000 0.0000 0.0000 12.1876 0.0000
# 6 0.0000 0.0000 0.0000 0.0000 0.0000 13.0279
#
#
#
# Elastic Compliance Matrix: (Units=1/GPa)
#
#
# Indices 1 2 3 4 5 6 
#
# 1 0.015093 -0.000973 -0.007272 0.000000 0.000000 0.000000
# 2 -0.000973 0.015662 -0.003859 0.000000 0.000000 0.000000
# 3 -0.007272 -0.003859 0.014477 0.000000 0.000000 0.000000
# 4 0.000000 0.000000 0.000000 0.075480 0.000000 0.000000
# 5 0.000000 0.000000 0.000000 0.000000 0.082051 0.000000
# 6 0.000000 0.000000 0.000000 0.000000 0.000000 0.076758
#
#
# Mechanical properties :
#
#
# Convention : Reuss Voigt Hill
#
# Bulk Modulus (GPa) = 47.56456 51.34155 49.45305
# Shear Modulus (GPa) = 16.09080 18.92914 17.50997
#
# Velocity S-wave (km/s) = 2.95250 3.20234 3.07996
# Velocity P-wave (km/s) = 6.11485 6.44111 6.28010
#
# Compressibility (1/GPa) = 0.02102406
#
# Stress axis : x y z
#
# Youngs Moduli (GPa) = 66.25619 63.84776 69.07611
#
# Poissons Ratio (x) = 0.06210 0.50234
# Poissons Ratio (y) = 0.06445 0.26656
# Poissons Ratio (z) = 0.48184 0.24639
#
# Static dielectric constant tensor:
#      x y z
#    x 3.851670 0.000000 0.000000 
#    y 0.000000 3.374640 0.000000 
#    z 0.000000 0.000000 3.452370 
# 
# 
# High freq. dielectric constant tensor:
#      x y z
#    x 1.718930 0.000000 0.000000 
#    y 0.000000 1.701290 0.000000 
#    z 0.000000 0.000000 1.702540 
# 
# From -- ./inp_files/9519.got.cif
#   From: 2010.03.12/outbox.cif.g09.slc.cpg/sg62_5_cif.got.tgz:9519.got - 2010.04.10 19:12:36.
