data_PCOD8250062
_publ_section_title
;
Structure prediction by ZEFSAII (Michael W. Deem and Ramdas Pophale) SiO2 
 PCOD8250062
Probable space group: P N M A
;
_chemical_formula_sum "Si O2"
_cell_formula_units_Z 64
_cell_length_a 22.322217
_cell_length_b 12.991481
_cell_length_c 12.193424
_cell_angle_alpha 90.000000
_cell_angle_beta 90.000000
_cell_angle_gamma 90.000000
_cell_volume 3536.076597
_symmetry_space_group_name_H-M "P N M A"
_symmetry_group_IT_number 62
_symmetry_cell_setting 'orthorhombic'
loop_
_space_group_symop_operation_xyz
x,y,z
1/2-x,-y,1/2+z
1/2+x,1/2-y,1/2-z
-x,1/2+y,-z
-x,-y,-z
1/2+x,y,1/2-z
1/2-x,1/2+y,1/2+z
x,1/2-y,z
loop_
_atom_site_type_symbol
_atom_site_label
_atom_site_fract_x
_atom_site_fract_y
_atom_site_fract_z
Si Si1 0.477027 0.433096 0.643073
Si Si2 0.528599 0.135206 0.855152
Si Si3 0.752692 0.369987 0.946944
Si Si4 0.530217 0.635278 0.593822
Si Si5 0.643722 0.869664 0.287013
Si Si6 0.144820 0.504014 0.631407
Si Si7 0.665885 0.867418 0.653439
Si Si8 0.405085 0.129950 0.941508
O O1 0.504274 0.355321 0.731371
O O2 0.501489 0.548260 0.671406
O O3 0.496716 0.389353 0.525702
O O4 0.405291 0.436618 0.648588
O O5 0.545108 0.250000 0.896479
O O6 0.587601 0.067433 0.853591
O O7 0.472911 0.085217 0.924518
O O8 0.734985 0.250000 0.947771
O O9 0.792504 0.396054 0.839760
O O10 0.694262 0.438713 0.932836
O O11 0.785626 0.399212 0.061033
O O12 0.510194 0.750000 0.631074
O O13 0.601717 0.626235 0.595128
O O14 0.628563 0.750000 0.306605
O O15 0.640070 0.899367 0.158299
O O16 0.169132 0.552914 0.744857
O O17 0.124680 0.596610 0.554105
O O18 0.677746 0.750000 0.694006
O O19 0.414115 0.250000 0.946188
#
# Coordination Sequence:
#
# PCOD8250062 Si02
#       8
#     8   8   8   8   8   8   8   8
#     4  10  17  30  54  80 107 142 178 221 270 317
#     4  10  20  35  54  84 115 143 182 227 279 331
#     4  10  22  38  57  79 109 147 192 234 277 332
#     4  10  18  30  52  82 112 140 177 219 269 327
#     4   9  17  34  57  78 103 143 188 222 261 330
#     4  12  22  35  58  83 112 144 187 235 286 328
#     4  10  21  38  57  82 112 146 185 229 281 339
#     4   9  20  36  57  81 109 145 185 228 275 336
#
# _framework density 18.099156000000001
#
# number of rings (size 3 to 8) (size 9 to 14) (size 15 to 20)
#    0.000    2.000    2.500    3.000    1.750    0.000 
#    0.000    0.000    0.000    4.500    0.000    0.000 
#    0.000    0.000    0.000    0.000    0.000    0.000 
#
# Total GULP energy -793181.218832 kJ/mol
# GULP energy per Si atom -12393.456544 kJ/mol
# Density = 1.805796 g / cm^3
# Si number density = 18.099156 Si / 1000 Ang^3
#
#
#
# Elastic Constant Matrix: (Units=GPa)
#
#
# Indices 1 2 3 4 5 6 
#
# 1 85.2085 32.6875 34.5131 0.0000 0.0000 0.0000
# 2 32.6875 58.7600 28.3841 0.0000 0.0000 0.0000
# 3 34.5131 28.3841 85.7067 0.0000 0.0000 0.0000
# 4 0.0000 0.0000 0.0000 25.3638 0.0000 0.0000
# 5 0.0000 0.0000 0.0000 0.0000 24.1205 0.0000
# 6 0.0000 0.0000 0.0000 0.0000 0.0000 31.9830
#
#
#
# Elastic Compliance Matrix: (Units=1/GPa)
#
#
# Indices 1 2 3 4 5 6 
#
# 1 0.016089 -0.006929 -0.004184 0.000000 0.000000 0.000000
# 2 -0.006929 0.023243 -0.004908 0.000000 0.000000 0.000000
# 3 -0.004184 -0.004908 0.014978 0.000000 0.000000 0.000000
# 4 0.000000 0.000000 0.000000 0.039426 0.000000 0.000000
# 5 0.000000 0.000000 0.000000 0.000000 0.041459 0.000000
# 6 0.000000 0.000000 0.000000 0.000000 0.000000 0.031267
#
#
# Mechanical properties :
#
#
# Convention : Reuss Voigt Hill
#
# Bulk Modulus (GPa) = 44.90531 46.76052 45.83291
# Shear Modulus (GPa) = 24.28068 25.23283 24.75675
#
# Velocity S-wave (km/s) = 3.66667 3.73787 3.70244
# Velocity P-wave (km/s) = 6.54145 6.67239 6.60724
#
# Compressibility (1/GPa) = 0.02226908
#
# Stress axis : x y z
#
# Youngs Moduli (GPa) = 62.15562 43.02302 66.76537
#
# Poissons Ratio (x) = 0.29810 0.27935
# Poissons Ratio (y) = 0.43066 0.32765
# Poissons Ratio (z) = 0.26006 0.21114
#
# Static dielectric constant tensor:
#      x y z
#    x 3.255920 0.000000 0.000000 
#    y 0.000000 3.336260 0.000000 
#    z 0.000000 0.000000 3.375500 
# 
# 
# High freq. dielectric constant tensor:
#      x y z
#    x 1.689550 0.000000 0.000000 
#    y 0.000000 1.693540 0.000000 
#    z 0.000000 0.000000 1.699830 
# 
# From -- ./inp_files/14312.got.cif
#   From: 2010.03.12/outbox.cif.g09.slc.cpg/sg62_8_cif.got.tgz:14312.got - 2010.04.10 19:12:36.
