data_PCOD8250799
_publ_section_title
;
Structure prediction by ZEFSAII (Michael W. Deem and Ramdas Pophale) SiO2 
 PCOD8250799
Probable space group: P N M A
;
_chemical_formula_sum "Si O2"
_cell_formula_units_Z 56
_cell_length_a 15.659579
_cell_length_b 9.397384
_cell_length_c 21.554562
_cell_angle_alpha 90.000000
_cell_angle_beta 90.000000
_cell_angle_gamma 90.000000
_cell_volume 3171.949452
_symmetry_space_group_name_H-M "P N M A"
_symmetry_group_IT_number 62
_symmetry_cell_setting 'orthorhombic'
loop_
_space_group_symop_operation_xyz
x,y,z
1/2-x,-y,1/2+z
1/2+x,1/2-y,1/2-z
-x,1/2+y,-z
-x,-y,-z
1/2+x,y,1/2-z
1/2-x,1/2+y,1/2+z
x,1/2-y,z
loop_
_atom_site_type_symbol
_atom_site_label
_atom_site_fract_x
_atom_site_fract_y
_atom_site_fract_z
Si Si1 0.005562 0.411250 0.096944
Si Si2 0.738502 0.086926 0.823998
Si Si3 0.421116 0.414986 0.710231
Si Si4 0.459847 0.087211 0.055272
Si Si5 0.762814 0.090625 0.444158
Si Si6 0.046567 0.082909 0.679637
Si Si7 0.382974 0.590099 0.473648
O O1 0.987218 0.250000 0.117474
O O2 0.051362 0.492303 0.152199
O O3 0.063085 0.420754 0.036448
O O4 0.915476 0.486157 0.080435
O O5 0.734629 0.250000 0.843316
O O6 0.818642 0.059841 0.776928
O O7 0.644144 0.043547 0.797886
O O8 0.761408 0.006243 0.886617
O O9 0.438381 0.250000 0.694849
O O10 0.478022 0.462367 0.768654
O O11 0.494139 0.250000 0.058449
O O12 0.360940 0.085272 0.039377
O O13 0.478584 0.008648 0.119854
O O14 0.500000 0.000000 0.000000
O O15 0.732974 0.250000 0.426076
O O16 0.712604 0.043223 0.506506
O O17 0.039187 0.250000 0.663766
O O18 0.385963 0.750000 0.446659
#
# Coordination Sequence:
#
# PCOD8250799 Si02
#       7
#     8   8   8   8   8   8   8
#     4  10  19  29  46  71 102 134 164 201 244 293
#     4   9  17  30  50  73  95 127 170 211 251 297
#     4  10  19  32  51  73 100 135 170 207 254 303
#     4  10  20  35  56  78 101 129 165 209 257 302
#     4   9  17  31  51  74  98 129 168 209 251 297
#     4   9  19  35  53  75 102 130 167 212 252 300
#     4   9  17  30  46  69 100 131 165 203 244 291
#
# _framework density 17.654758000000001
#
# number of rings (size 3 to 8) (size 9 to 14) (size 15 to 20)
#    0.000    2.571    1.429    0.857    0.000    2.286 
#    0.000    1.429    0.000    5.143    0.000    0.000 
#    0.000    0.000    0.000    0.000    0.000    0.000 
#
# Total GULP energy -693994.200322 kJ/mol
# GULP energy per Si atom -12392.753577 kJ/mol
# Density = 1.761457 g / cm^3
# Si number density = 17.654758 Si / 1000 Ang^3
#
#
#
# Elastic Constant Matrix: (Units=GPa)
#
#
# Indices 1 2 3 4 5 6 
#
# 1 94.4439 38.6726 51.4554 0.0000 0.0000 0.0000
# 2 38.6726 71.6821 31.2461 0.0000 0.0000 0.0000
# 3 51.4554 31.2461 49.9144 0.0000 0.0000 0.0000
# 4 0.0000 0.0000 0.0000 26.1678 0.0000 0.0000
# 5 0.0000 0.0000 0.0000 0.0000 30.5629 0.0000
# 6 0.0000 0.0000 0.0000 0.0000 0.0000 20.5261
#
#
#
# Elastic Compliance Matrix: (Units=1/GPa)
#
#
# Indices 1 2 3 4 5 6 
#
# 1 0.024631 -0.003054 -0.023480 0.000000 0.000000 0.000000
# 2 -0.003054 0.019564 -0.009099 0.000000 0.000000 0.000000
# 3 -0.023480 -0.009099 0.049935 0.000000 0.000000 0.000000
# 4 0.000000 0.000000 0.000000 0.038215 0.000000 0.000000
# 5 0.000000 0.000000 0.000000 0.000000 0.032719 0.000000
# 6 0.000000 0.000000 0.000000 0.000000 0.000000 0.048718
#
#
# Mechanical properties :
#
#
# Convention : Reuss Voigt Hill
#
# Bulk Modulus (GPa) = 43.73503 50.97650 47.35577
# Shear Modulus (GPa) = 17.08401 21.76243 19.42322
#
# Velocity S-wave (km/s) = 3.11412 3.51474 3.32048
# Velocity P-wave (km/s) = 6.14463 6.73855 6.44843
#
# Compressibility (1/GPa) = 0.02286496
#
# Stress axis : x y z
#
# Youngs Moduli (GPa) = 40.59887 51.11358 20.02589
#
# Poissons Ratio (x) = 0.15608 0.47021
# Poissons Ratio (y) = 0.12397 0.18222
# Poissons Ratio (z) = 0.95327 0.46509
#
# Static dielectric constant tensor:
#      x y z
#    x 3.740250 0.000000 0.000000 
#    y 0.000000 3.490420 0.000000 
#    z 0.000000 0.000000 3.017540 
# 
# 
# High freq. dielectric constant tensor:
#      x y z
#    x 1.690780 0.000000 0.000000 
#    y 0.000000 1.688250 0.000000 
#    z 0.000000 0.000000 1.647460 
# 
# From -- ./inp_files/29999.got.cif
#   From: 2010.03.12/outbox.cif.g09.slc.cpg/sg62_15_cif.got.tgz:29999.got - 2010.04.10 19:12:36.
