data_PCOD8250897
_publ_section_title
;
Structure prediction by ZEFSAII (Michael W. Deem and Ramdas Pophale) SiO2 
 PCOD8250897
Probable space group: P N M A
;
_chemical_formula_sum "Si O2"
_cell_formula_units_Z 64
_cell_length_a 22.018903
_cell_length_b 9.216383
_cell_length_c 17.182438
_cell_angle_alpha 90.000000
_cell_angle_beta 90.000000
_cell_angle_gamma 90.000000
_cell_volume 3486.911926
_symmetry_space_group_name_H-M "P N M A"
_symmetry_group_IT_number 62
_symmetry_cell_setting 'orthorhombic'
loop_
_space_group_symop_operation_xyz
x,y,z
1/2-x,-y,1/2+z
1/2+x,1/2-y,1/2-z
-x,1/2+y,-z
-x,-y,-z
1/2+x,y,1/2-z
1/2-x,1/2+y,1/2+z
x,1/2-y,z
loop_
_atom_site_type_symbol
_atom_site_label
_atom_site_fract_x
_atom_site_fract_y
_atom_site_fract_z
Si Si1 0.358382 0.417073 0.538336
Si Si2 0.435096 0.916782 0.091435
Si Si3 0.848387 0.078662 0.291941
Si Si4 0.943538 0.913835 0.580567
Si Si5 0.096931 0.919030 0.871782
Si Si6 0.104462 0.415878 0.258399
Si Si7 0.716778 0.079419 0.342249
Si Si8 0.472340 0.420340 0.642248
O O1 0.343914 0.250000 0.554931
O O2 0.360833 0.450888 0.446536
O O3 0.303524 0.507880 0.576325
O O4 0.423254 0.459441 0.575890
O O5 0.432390 0.750000 0.117773
O O6 0.395552 0.010646 0.149016
O O7 0.504100 0.969824 0.094609
O O8 0.411076 0.938016 0.002754
O O9 0.851592 0.250000 0.301203
O O10 0.865259 0.032404 0.204112
O O11 0.781651 0.019587 0.313701
O O12 0.970900 0.750000 0.583759
O O13 0.893648 0.935168 0.648320
O O14 0.078946 0.750000 0.868072
O O15 0.035930 0.010302 0.881202
O O16 0.090850 0.250000 0.234591
O O17 0.169324 0.465412 0.225096
O O18 0.050242 0.513199 0.223877
O O19 0.719236 0.250000 0.355809
O O20 0.481503 0.250000 0.652622
#
# Coordination Sequence:
#
# PCOD8250897 Si02
#       8
#     8   8   8   8   8   8   8   8
#     4   9  19  35  53  76 104 134 168 208 254 300
#     4  10  20  33  51  77 105 135 167 207 259 307
#     4  10  21  37  53  72 101 137 173 211 253 299
#     4   9  18  33  52  77 104 131 168 211 254 304
#     4  10  20  34  52  76 103 135 172 206 247 302
#     4   9  17  32  53  74  98 132 172 211 248 297
#     4   9  19  36  55  72  96 132 172 210 252 298
#     4  10  19  30  49  79 111 136 162 204 257 305
#
# _framework density 18.354351000000001
#
# number of rings (size 3 to 8) (size 9 to 14) (size 15 to 20)
#    0.000    2.500    0.000    1.875    0.000    6.000 
#    2.250    0.000    0.000    0.000    0.000    0.000 
#    0.000    0.000    0.000    0.000    0.000    0.000 
#
# Total GULP energy -793606.696415 kJ/mol
# GULP energy per Si atom -12400.104631 kJ/mol
# Density = 1.831258 g / cm^3
# Si number density = 18.354351 Si / 1000 Ang^3
#
#
#
# Elastic Constant Matrix: (Units=GPa)
#
#
# Indices 1 2 3 4 5 6 
#
# 1 74.0151 24.2023 45.5525 0.0000 0.0000 0.0000
# 2 24.2023 32.2225 29.6387 0.0000 0.0000 0.0000
# 3 45.5525 29.6387 138.3516 0.0000 0.0000 0.0000
# 4 0.0000 0.0000 0.0000 26.3792 0.0000 0.0000
# 5 0.0000 0.0000 0.0000 0.0000 15.6067 0.0000
# 6 0.0000 0.0000 0.0000 0.0000 0.0000 19.1922
#
#
#
# Elastic Compliance Matrix: (Units=1/GPa)
#
#
# Indices 1 2 3 4 5 6 
#
# 1 0.019626 -0.010956 -0.004115 0.000000 0.000000 0.000000
# 2 -0.010956 0.044766 -0.005983 0.000000 0.000000 0.000000
# 3 -0.004115 -0.005983 0.009864 0.000000 0.000000 0.000000
# 4 0.000000 0.000000 0.000000 0.037909 0.000000 0.000000
# 5 0.000000 0.000000 0.000000 0.000000 0.064075 0.000000
# 6 0.000000 0.000000 0.000000 0.000000 0.000000 0.052105
#
#
# Mechanical properties :
#
#
# Convention : Reuss Voigt Hill
#
# Bulk Modulus (GPa) = 31.10492 49.26400 40.18446
# Shear Modulus (GPa) = 17.78292 21.91533 19.84912
#
# Velocity S-wave (km/s) = 3.11604 3.45920 3.29209
# Velocity P-wave (km/s) = 5.47083 6.54626 6.03256
#
# Compressibility (1/GPa) = 0.03214926
#
# Stress axis : x y z
#
# Youngs Moduli (GPa) = 50.95364 22.33815 101.37432
#
# Poissons Ratio (x) = 0.24474 0.41712
# Poissons Ratio (y) = 0.55825 0.60651
# Poissons Ratio (z) = 0.20966 0.13365
#
# Static dielectric constant tensor:
#      x y z
#    x 3.258320 0.000000 0.000000 
#    y 0.000000 3.374890 0.000000 
#    z 0.000000 0.000000 3.599370 
# 
# 
# High freq. dielectric constant tensor:
#      x y z
#    x 1.689180 0.000000 0.000000 
#    y 0.000000 1.709310 0.000000 
#    z 0.000000 0.000000 1.722760 
# 
# From -- ./inp_files/24828.got.cif
#   From: 2010.03.12/outbox.cif.g09.slc.cpg/sg62_13_cif.got.tgz:24828.got - 2010.04.10 19:12:36.
