data_PCOD8250949
_publ_section_title
;
Structure prediction by ZEFSAII (Michael W. Deem and Ramdas Pophale) SiO2 
 PCOD8250949
Probable space group: P N M A
;
_chemical_formula_sum "Si O2"
_cell_formula_units_Z 64
_cell_length_a 18.994240
_cell_length_b 9.065184
_cell_length_c 23.005085
_cell_angle_alpha 90.000000
_cell_angle_beta 90.000000
_cell_angle_gamma 90.000000
_cell_volume 3961.160020
_symmetry_space_group_name_H-M "P N M A"
_symmetry_group_IT_number 62
_symmetry_cell_setting 'orthorhombic'
loop_
_space_group_symop_operation_xyz
x,y,z
1/2-x,-y,1/2+z
1/2+x,1/2-y,1/2-z
-x,1/2+y,-z
-x,-y,-z
1/2+x,y,1/2-z
1/2-x,1/2+y,1/2+z
x,1/2-y,z
loop_
_atom_site_type_symbol
_atom_site_label
_atom_site_fract_x
_atom_site_fract_y
_atom_site_fract_z
Si Si1 0.785440 0.576022 0.165795
Si Si2 0.502696 0.422160 0.748979
Si Si3 0.362010 0.424121 0.229625
Si Si4 0.652528 0.919590 0.236038
Si Si5 0.273221 0.919967 0.663728
Si Si6 0.641012 0.420256 0.445001
Si Si7 0.497872 0.579576 0.626912
Si Si8 0.856615 0.078385 0.065040
O O1 0.800155 0.750000 0.167240
O O2 0.838465 0.495301 0.209631
O O3 0.704840 0.537129 0.183382
O O4 0.798996 0.512094 0.101959
O O5 0.520820 0.250000 0.748808
O O6 0.561989 0.508313 0.786076
O O7 0.428178 0.454710 0.780849
O O8 0.500022 0.477031 0.682958
O O9 0.368496 0.250000 0.238465
O O10 0.307080 0.467493 0.178510
O O11 0.662166 0.750000 0.251705
O O12 0.670843 0.001914 0.295169
O O13 0.283314 0.750000 0.678347
O O14 0.291939 0.952488 0.596828
O O15 0.639760 0.250000 0.465303
O O16 0.569937 0.460639 0.411082
O O17 0.649534 0.526998 0.499057
O O18 0.496423 0.750000 0.646917
O O19 0.565274 0.544270 0.587485
O O20 0.838055 0.250000 0.068956
#
# Coordination Sequence:
#
# PCOD8250949 Si02
#       8
#     8   8   8   8   8   8   8   8
#     4  10  19  33  50  69  94 126 161 200 242 283
#     4  11  20  30  48  73  99 131 162 193 239 289
#     4  10  19  31  48  71  98 125 158 199 241 286
#     4   9  19  32  48  71  97 123 158 200 241 286
#     4   9  18  32  50  70  93 125 162 200 240 283
#     4  10  20  34  50  68  93 131 170 200 237 281
#     4  10  20  33  47  66  97 132 167 200 230 273
#     4  11  22  33  47  70  98 130 167 202 236 280
#
# _framework density 16.156883000000001
#
# number of rings (size 3 to 8) (size 9 to 14) (size 15 to 20)
#    0.000    2.000    2.500    1.875    0.000    3.000 
#    0.000    0.000    0.000    0.000    0.000    0.875 
#    0.000    0.000    0.000    0.000    0.000    0.000 
#
# Total GULP energy -793601.817435 kJ/mol
# GULP energy per Si atom -12400.028397 kJ/mol
# Density = 1.612011 g / cm^3
# Si number density = 16.156883 Si / 1000 Ang^3
#
#
#
# Elastic Constant Matrix: (Units=GPa)
#
#
# Indices 1 2 3 4 5 6 
#
# 1 113.3117 48.3465 46.2510 0.0000 0.0000 0.0000
# 2 48.3465 71.0825 29.3240 0.0000 0.0000 0.0000
# 3 46.2510 29.3240 58.1275 0.0000 0.0000 0.0000
# 4 0.0000 0.0000 0.0000 23.7116 0.0000 0.0000
# 5 0.0000 0.0000 0.0000 0.0000 20.2940 0.0000
# 6 0.0000 0.0000 0.0000 0.0000 0.0000 23.4222
#
#
#
# Elastic Compliance Matrix: (Units=1/GPa)
#
#
# Indices 1 2 3 4 5 6 
#
# 1 0.015292 -0.006795 -0.008739 0.000000 0.000000 0.000000
# 2 -0.006795 0.020785 -0.005079 0.000000 0.000000 0.000000
# 3 -0.008739 -0.005079 0.026719 0.000000 0.000000 0.000000
# 4 0.000000 0.000000 0.000000 0.042174 0.000000 0.000000
# 5 0.000000 0.000000 0.000000 0.000000 0.049276 0.000000
# 6 0.000000 0.000000 0.000000 0.000000 0.000000 0.042694
#
#
# Mechanical properties :
#
#
# Convention : Reuss Voigt Hill
#
# Bulk Modulus (GPa) = 46.36158 54.48496 50.42327
# Shear Modulus (GPa) = 20.37853 21.39223 20.88538
#
# Velocity S-wave (km/s) = 3.55532 3.64267 3.59926
# Velocity P-wave (km/s) = 6.75357 7.17550 6.96772
#
# Compressibility (1/GPa) = 0.02156958
#
# Stress axis : x y z
#
# Youngs Moduli (GPa) = 65.39489 48.11130 37.42610
#
# Poissons Ratio (x) = 0.32693 0.32708
# Poissons Ratio (y) = 0.44438 0.19008
# Poissons Ratio (z) = 0.57150 0.24434
#
# Static dielectric constant tensor:
#      x y z
#    x 3.422790 0.000000 0.000000 
#    y 0.000000 3.130730 0.000000 
#    z 0.000000 0.000000 2.870400 
# 
# 
# High freq. dielectric constant tensor:
#      x y z
#    x 1.624070 0.000000 0.000000 
#    y 0.000000 1.632670 0.000000 
#    z 0.000000 0.000000 1.588170 
# 
# From -- ./inp_files/27895.got.cif
#   From: 2010.03.12/outbox.cif.g09.slc.cpg/sg62_14_cif.got.tgz:27895.got - 2010.04.10 19:12:36.
