data_PCOD8250047
_publ_section_title
;
Structure prediction by ZEFSAII (Michael W. Deem and Ramdas Pophale) SiO2 
 PCOD8250047
Probable space group: P N M A
;
_chemical_formula_sum "Si O2"
_cell_formula_units_Z 64
_cell_length_a 9.623966
_cell_length_b 26.130788
_cell_length_c 16.541928
_cell_angle_alpha 90.000000
_cell_angle_beta 90.000000
_cell_angle_gamma 90.000000
_cell_volume 4159.994081
_symmetry_space_group_name_H-M "P N M A"
_symmetry_group_IT_number 62
_symmetry_cell_setting 'orthorhombic'
loop_
_space_group_symop_operation_xyz
x,y,z
1/2-x,-y,1/2+z
1/2+x,1/2-y,1/2-z
-x,1/2+y,-z
-x,-y,-z
1/2+x,y,1/2-z
1/2-x,1/2+y,1/2+z
x,1/2-y,z
loop_
_atom_site_type_symbol
_atom_site_label
_atom_site_fract_x
_atom_site_fract_y
_atom_site_fract_z
Si Si1 0.583082 0.999029 0.143674
Si Si2 0.069157 0.498012 0.169195
Si Si3 0.304008 0.030906 0.071170
Si Si4 0.221810 0.596298 0.434844
Si Si5 0.178399 0.958101 0.939502
Si Si6 0.049647 0.901420 0.076467
Si Si7 0.028705 0.807745 0.180198
Si Si8 0.291651 0.192180 0.836025
O O1 0.539311 0.005020 0.236113
O O2 0.444495 0.000604 0.089833
O O3 0.681938 0.046623 0.115089
O O4 0.661039 0.945225 0.128963
O O5 0.208910 0.464761 0.151080
O O6 0.096940 0.556557 0.142557
O O7 0.942658 0.473914 0.120902
O O8 0.335434 0.085153 0.026225
O O9 0.207825 0.002308 0.004886
O O10 0.387046 0.592793 0.437336
O O11 0.173415 0.652895 0.408372
O O12 0.132908 0.908132 0.991190
O O13 0.086306 0.845391 0.110845
O O14 0.060717 0.750000 0.151362
O O15 0.865084 0.816261 0.195511
O O16 0.104596 0.820143 0.263547
O O17 0.312604 0.250000 0.868495
#
# Coordination Sequence:
#
# PCOD8250047 Si02
#       8
#     8   8   8   8   8   8   8   8
#     4  11  21  28  44  69  93 115 155 195 220 265
#     4  11  18  31  46  64  89 125 153 182 223 271
#     4  10  19  31  44  64  91 122 149 191 226 261
#     4  10  17  31  45  64  89 122 152 182 221 267
#     4  10  18  33  44  61  89 123 151 181 227 265
#     4  10  17  30  49  61  86 126 155 174 220 275
#     4   9  18  32  47  67  91 116 150 190 224 260
#     4   9  18  32  48  66  91 118 151 190 224 260
#
# _framework density 15.384638000000001
#
# number of rings (size 3 to 8) (size 9 to 14) (size 15 to 20)
#    0.000    2.000    3.750    3.750    0.000    0.000 
#    9.000    0.000    0.000    0.000    0.000    0.000 
#    0.000    6.000    0.000    0.000    0.000    0.000 
#
# Total GULP energy -793048.094113 kJ/mol
# GULP energy per Si atom -12391.376471 kJ/mol
# Density = 1.534962 g / cm^3
# Si number density = 15.384638 Si / 1000 Ang^3
#
#
#
# Elastic Constant Matrix: (Units=GPa)
#
#
# Indices 1 2 3 4 5 6 
#
# 1 65.7596 26.1830 27.9982 0.0000 0.0000 0.0000
# 2 26.1830 80.7147 45.4445 0.0000 0.0000 0.0000
# 3 27.9982 45.4445 81.3638 0.0000 0.0000 0.0000
# 4 0.0000 0.0000 0.0000 26.0972 0.0000 0.0000
# 5 0.0000 0.0000 0.0000 0.0000 26.6868 0.0000
# 6 0.0000 0.0000 0.0000 0.0000 0.0000 15.1145
#
#
#
# Elastic Compliance Matrix: (Units=1/GPa)
#
#
# Indices 1 2 3 4 5 6 
#
# 1 0.018479 -0.003522 -0.004392 0.000000 0.000000 0.000000
# 2 -0.003522 0.018744 -0.009257 0.000000 0.000000 0.000000
# 3 -0.004392 -0.009257 0.018972 0.000000 0.000000 0.000000
# 4 0.000000 0.000000 0.000000 0.038318 0.000000 0.000000
# 5 0.000000 0.000000 0.000000 0.000000 0.037472 0.000000
# 6 0.000000 0.000000 0.000000 0.000000 0.000000 0.066162
#
#
# Mechanical properties :
#
#
# Convention : Reuss Voigt Hill
#
# Bulk Modulus (GPa) = 45.75915 47.45438 46.60676
# Shear Modulus (GPa) = 20.85312 22.12721 21.49016
#
# Velocity S-wave (km/s) = 3.68564 3.79656 3.74151
# Velocity P-wave (km/s) = 6.92242 7.08031 7.00181
#
# Compressibility (1/GPa) = 0.02185355
#
# Stress axis : x y z
#
# Youngs Moduli (GPa) = 54.11551 53.35112 52.70868
#
# Poissons Ratio (x) = 0.18789 0.23149
# Poissons Ratio (y) = 0.19058 0.48793
# Poissons Ratio (z) = 0.23767 0.49388
#
# Static dielectric constant tensor:
#      x y z
#    x 3.072520 0.000000 0.000000 
#    y 0.000000 2.949420 0.000000 
#    z 0.000000 0.000000 3.076280 
# 
# 
# High freq. dielectric constant tensor:
#      x y z
#    x 1.603630 0.000000 0.000000 
#    y 0.000000 1.552300 0.000000 
#    z 0.000000 0.000000 1.579730 
# 
# From -- ./inp_files/22645.got.cif
#   From: 2010.03.12/outbox.cif.g09.slc.cpg/sg62_12_cif.got.tgz:22645.got - 2010.04.10 19:12:36.
