data_PCOD8250942
_publ_section_title
;
Structure prediction by ZEFSAII (Michael W. Deem and Ramdas Pophale) SiO2 
 PCOD8250942
Probable space group: P N M A
;
_chemical_formula_sum "Si O2"
_cell_formula_units_Z 40
_cell_length_a 9.190842
_cell_length_b 9.104287
_cell_length_c 26.059047
_cell_angle_alpha 90.000000
_cell_angle_beta 90.000000
_cell_angle_gamma 90.000000
_cell_volume 2180.518467
_symmetry_space_group_name_H-M "P N M A"
_symmetry_group_IT_number 62
_symmetry_cell_setting 'orthorhombic'
loop_
_space_group_symop_operation_xyz
x,y,z
1/2-x,-y,1/2+z
1/2+x,1/2-y,1/2-z
-x,1/2+y,-z
-x,-y,-z
1/2+x,y,1/2-z
1/2-x,1/2+y,1/2+z
x,1/2-y,z
loop_
_atom_site_type_symbol
_atom_site_label
_atom_site_fract_x
_atom_site_fract_y
_atom_site_fract_z
Si Si1 0.861515 0.075406 0.692326
Si Si2 0.117554 0.922703 0.115541
Si Si3 0.811621 0.924023 0.291372
Si Si4 0.807785 0.422861 0.105304
Si Si5 0.352444 0.417354 0.504738
O O1 0.855819 0.250000 0.685446
O O2 0.757017 0.020665 0.738089
O O3 0.023657 0.019201 0.704953
O O4 0.812672 0.999892 0.639935
O O5 0.082827 0.750000 0.123207
O O6 0.217527 0.985436 0.161084
O O7 0.209275 0.950030 0.062097
O O8 0.966094 0.009248 0.116366
O O9 0.808359 0.750000 0.293210
O O10 0.813039 0.250000 0.117165
O O11 0.756184 0.455403 0.045824
O O12 0.500000 0.500000 0.500000
O O13 0.397639 0.250000 0.500881
#
# Coordination Sequence:
#
# PCOD8250942 Si02
#       5
#     8   8   8   8   8
#     4  10  19  33  51  71  93 122 159 200 241 284
#     4   9  16  31  54  76  96 124 160 201 241 279
#     4   9  18  32  53  75  93 117 159 206 244 282
#     4  10  19  31  47  72 102 131 160 193 232 282
#     4   8  15  27  46  70  97 126 158 192 231 277
#
# _framework density 18.344259999999998
#
# number of rings (size 3 to 8) (size 9 to 14) (size 15 to 20)
#    0.000    2.800    0.000    1.800    0.000    4.000 
#    0.000    6.000    0.000    0.000    0.000    0.000 
#    0.000    0.000    0.000    0.000    0.000    0.000 
#
# Total GULP energy -495530.492064 kJ/mol
# GULP energy per Si atom -12388.262302 kJ/mol
# Density = 1.830251 g / cm^3
# Si number density = 18.344260 Si / 1000 Ang^3
#
#
#
# Elastic Constant Matrix: (Units=GPa)
#
#
# Indices 1 2 3 4 5 6 
#
# 1 63.6450 12.3946 8.3425 0.0000 0.0000 0.0000
# 2 12.3946 33.8811 20.2904 0.0000 0.0000 0.0000
# 3 8.3425 20.2904 85.0239 0.0000 0.0000 0.0000
# 4 0.0000 0.0000 0.0000 26.7313 0.0000 0.0000
# 5 0.0000 0.0000 0.0000 0.0000 30.0881 0.0000
# 6 0.0000 0.0000 0.0000 0.0000 0.0000 14.2630
#
#
#
# Elastic Compliance Matrix: (Units=1/GPa)
#
#
# Indices 1 2 3 4 5 6 
#
# 1 0.016921 -0.006062 -0.000214 0.000000 0.000000 0.000000
# 2 -0.006062 0.036608 -0.008142 0.000000 0.000000 0.000000
# 3 -0.000214 -0.008142 0.013725 0.000000 0.000000 0.000000
# 4 0.000000 0.000000 0.000000 0.037409 0.000000 0.000000
# 5 0.000000 0.000000 0.000000 0.000000 0.033236 0.000000
# 6 0.000000 0.000000 0.000000 0.000000 0.000000 0.070111
#
#
# Mechanical properties :
#
#
# Convention : Reuss Voigt Hill
#
# Bulk Modulus (GPa) = 26.02818 29.40054 27.71436
# Shear Modulus (GPa) = 20.02788 23.65130 21.83959
#
# Velocity S-wave (km/s) = 3.30779 3.59458 3.45416
# Velocity P-wave (km/s) = 5.36733 5.76974 5.57217
#
# Compressibility (1/GPa) = 0.03841989
#
# Stress axis : x y z
#
# Youngs Moduli (GPa) = 59.09907 27.31618 72.85830
#
# Poissons Ratio (x) = 0.16560 0.01556
# Poissons Ratio (y) = 0.35827 0.59318
# Poissons Ratio (z) = 0.01262 0.22240
#
# Static dielectric constant tensor:
#      x y z
#    x 3.134870 0.000000 0.000000 
#    y 0.000000 3.134080 0.000000 
#    z 0.000000 0.000000 4.309040 
# 
# 
# High freq. dielectric constant tensor:
#      x y z
#    x 1.677440 0.000000 0.000000 
#    y 0.000000 1.686730 0.000000 
#    z 0.000000 0.000000 1.741180 
# 
# From -- ./inp_files/28570.got.cif
#   From: 2010.03.12/outbox.cif.g09.slc.cpg/sg62_15_cif.got.tgz:28570.got - 2010.04.10 19:12:36.
