data_PCOD8250315
_publ_section_title
;
Structure prediction by ZEFSAII (Michael W. Deem and Ramdas Pophale) SiO2 
 PCOD8250315
Probable space group: P N M A
;
_chemical_formula_sum "Si O2"
_cell_formula_units_Z 64
_cell_length_a 20.739350
_cell_length_b 9.082944
_cell_length_c 19.609326
_cell_angle_alpha 90.000000
_cell_angle_beta 90.000000
_cell_angle_gamma 90.000000
_cell_volume 3693.894130
_symmetry_space_group_name_H-M "P N M A"
_symmetry_group_IT_number 62
_symmetry_cell_setting 'orthorhombic'
loop_
_space_group_symop_operation_xyz
x,y,z
1/2-x,-y,1/2+z
1/2+x,1/2-y,1/2-z
-x,1/2+y,-z
-x,-y,-z
1/2+x,y,1/2-z
1/2-x,1/2+y,1/2+z
x,1/2-y,z
loop_
_atom_site_type_symbol
_atom_site_label
_atom_site_fract_x
_atom_site_fract_y
_atom_site_fract_z
Si Si1 0.933703 0.422684 0.216875
Si Si2 0.869437 0.420494 0.077994
Si Si3 0.623642 0.578696 0.428427
Si Si4 0.732005 0.078637 0.935591
Si Si5 0.182639 0.077517 0.710689
Si Si6 0.564531 0.574752 0.291963
Si Si7 0.764430 0.422191 0.569099
Si Si8 0.690163 0.578047 0.214472
O O1 0.938416 0.250000 0.230090
O O2 0.918996 0.459944 0.137731
O O3 0.878766 0.487707 0.264829
O O4 0.000786 0.498030 0.236658
O O5 0.848233 0.250000 0.080974
O O6 0.806081 0.517408 0.086819
O O7 0.903098 0.455038 0.004617
O O8 0.628676 0.750000 0.412871
O O9 0.696164 0.515107 0.421676
O O10 0.577220 0.515611 0.369449
O O11 0.735473 0.250000 0.953810
O O12 0.687730 0.049023 0.870270
O O13 0.703868 0.996306 0.002248
O O14 0.173103 0.250000 0.727021
O O15 0.246295 0.013050 0.748219
O O16 0.555287 0.750000 0.287263
O O17 0.624186 0.516139 0.246346
O O18 0.758417 0.250000 0.556179
O O19 0.809626 0.457636 0.634013
O O20 0.692157 0.750000 0.229770
#
# Coordination Sequence:
#
# PCOD8250315 Si02
#       8
#     8   8   8   8   8   8   8   8
#     4  11  23  35  47  73 111 141 168 214 265 306
#     4   9  18  32  48  69 103 142 174 204 249 303
#     4   8  14  28  50  72  95 131 172 206 239 288
#     4   9  17  31  53  78 104 132 167 210 257 307
#     4  10  18  34  58  78  98 134 179 215 249 306
#     4  10  19  34  54  73  97 136 180 215 249 301
#     4  10  18  29  50  79 108 130 162 213 259 303
#     4   9  17  31  54  80 100 127 173 219 253 293
#
# _framework density 17.325889
#
# number of rings (size 3 to 8) (size 9 to 14) (size 15 to 20)
#    0.000    2.500    2.500    1.500    0.000    1.500 
#    0.000    4.375    0.000    0.750    0.000    0.000 
#    0.000    0.000    0.000    0.000    0.000    0.000 
#
# Total GULP energy -793341.997466 kJ/mol
# GULP energy per Si atom -12395.968710 kJ/mol
# Density = 1.728645 g / cm^3
# Si number density = 17.325889 Si / 1000 Ang^3
#
#
#
# Elastic Constant Matrix: (Units=GPa)
#
#
# Indices 1 2 3 4 5 6 
#
# 1 113.8606 39.3393 61.3049 0.0000 0.0000 0.0000
# 2 39.3393 56.7904 45.2533 0.0000 0.0000 0.0000
# 3 61.3049 45.2533 107.1974 0.0000 0.0000 0.0000
# 4 0.0000 0.0000 0.0000 25.9916 0.0000 0.0000
# 5 0.0000 0.0000 0.0000 0.0000 22.8396 0.0000
# 6 0.0000 0.0000 0.0000 0.0000 0.0000 18.9801
#
#
#
# Elastic Compliance Matrix: (Units=1/GPa)
#
#
# Indices 1 2 3 4 5 6 
#
# 1 0.013515 -0.004827 -0.005691 0.000000 0.000000 0.000000
# 2 -0.004827 0.028258 -0.009169 0.000000 0.000000 0.000000
# 3 -0.005691 -0.009169 0.016454 0.000000 0.000000 0.000000
# 4 0.000000 0.000000 0.000000 0.038474 0.000000 0.000000
# 5 0.000000 0.000000 0.000000 0.000000 0.043784 0.000000
# 6 0.000000 0.000000 0.000000 0.000000 0.000000 0.052687
#
#
# Mechanical properties :
#
#
# Convention : Reuss Voigt Hill
#
# Bulk Modulus (GPa) = 53.04124 63.29369 58.16746
# Shear Modulus (GPa) = 20.93546 22.35899 21.64723
#
# Velocity S-wave (km/s) = 3.47988 3.59624 3.53854
# Velocity P-wave (km/s) = 6.84298 7.33857 7.09510
#
# Compressibility (1/GPa) = 0.01885326
#
# Stress axis : x y z
#
# Youngs Moduli (GPa) = 73.99413 35.38780 60.77541
#
# Poissons Ratio (x) = 0.17080 0.34589
# Poissons Ratio (y) = 0.35714 0.55725
# Poissons Ratio (z) = 0.42112 0.32447
#
# Static dielectric constant tensor:
#      x y z
#    x 3.012880 0.000000 0.000000 
#    y 0.000000 2.985630 0.000000 
#    z 0.000000 0.000000 3.470000 
# 
# 
# High freq. dielectric constant tensor:
#      x y z
#    x 1.641330 0.000000 0.000000 
#    y 0.000000 1.645510 0.000000 
#    z 0.000000 0.000000 1.679030 
# 
# From -- ./inp_files/27622.got.cif
#   From: 2010.03.12/outbox.cif.g09.slc.cpg/sg62_14_cif.got.tgz:27622.got - 2010.04.10 19:12:36.
