data_PCOD8250737
_publ_section_title
;
Structure prediction by ZEFSAII (Michael W. Deem and Ramdas Pophale) SiO2 
 PCOD8250737
Probable space group: P N M A
;
_chemical_formula_sum "Si O2"
_cell_formula_units_Z 56
_cell_length_a 21.745576
_cell_length_b 15.354735
_cell_length_c 8.539561
_cell_angle_alpha 90.000000
_cell_angle_beta 90.000000
_cell_angle_gamma 90.000000
_cell_volume 2851.338555
_symmetry_space_group_name_H-M "P N M A"
_symmetry_group_IT_number 62
_symmetry_cell_setting 'orthorhombic'
loop_
_space_group_symop_operation_xyz
x,y,z
1/2-x,-y,1/2+z
1/2+x,1/2-y,1/2-z
-x,1/2+y,-z
-x,-y,-z
1/2+x,y,1/2-z
1/2-x,1/2+y,1/2+z
x,1/2-y,z
loop_
_atom_site_type_symbol
_atom_site_label
_atom_site_fract_x
_atom_site_fract_y
_atom_site_fract_z
Si Si1 0.343933 0.153096 0.840125
Si Si2 0.907053 0.846338 0.660723
Si Si3 0.873362 0.999705 0.430063
Si Si4 0.680588 0.063430 0.368994
Si Si5 0.978629 0.069100 0.213566
Si Si6 0.732802 0.442091 0.708428
Si Si7 0.427422 0.070633 0.611231
O O1 0.344095 0.250000 0.913516
O O2 0.279928 0.136532 0.743264
O O3 0.404277 0.146349 0.728797
O O4 0.342063 0.077103 0.971207
O O5 0.901244 0.750000 0.585255
O O6 0.855142 0.853389 0.797439
O O7 0.975519 0.855319 0.730468
O O8 0.900298 0.924639 0.539251
O O9 0.927645 0.047908 0.340823
O O10 0.827018 0.948377 0.316333
O O11 0.715396 0.080428 0.530273
O O12 0.728616 0.031739 0.234557
O O13 0.629782 0.992572 0.410610
O O14 0.946266 0.107452 0.057839
O O15 0.014233 0.978674 0.183973
#
# Coordination Sequence:
#
# PCOD8250737 Si02
#       7
#     8   8   8   8   8   8   8
#     4  11  24  40  61  93 126 158 204 259 310 369
#     4  11  24  40  60  92 128 163 207 256 305 366
#     4  12  22  40  66  88 127 167 204 251 313 370
#     4  10  18  38  61  90 115 157 204 248 302 359
#     4  10  20  38  66  88 116 164 209 253 305 364
#     4  11  20  38  67  88 117 163 203 251 301 364
#     4   9  19  38  63  88 114 159 204 250 307 363
#
# _framework density 19.639899
#
# number of rings (size 3 to 8) (size 9 to 14) (size 15 to 20)
#    0.000    1.429    7.143    0.429    0.000    2.286 
#    0.000    0.000    0.000    0.000    0.000    0.000 
#    0.000    0.000    0.000    0.000    0.000    0.000 
#
# Total GULP energy -693861.801711 kJ/mol
# GULP energy per Si atom -12390.389316 kJ/mol
# Density = 1.959520 g / cm^3
# Si number density = 19.639899 Si / 1000 Ang^3
#
#
#
# Elastic Constant Matrix: (Units=GPa)
#
#
# Indices 1 2 3 4 5 6 
#
# 1 93.0737 9.1042 38.4989 0.0000 0.0000 0.0000
# 2 9.1042 93.8832 30.6131 0.0000 0.0000 0.0000
# 3 38.4989 30.6131 94.5363 0.0000 0.0000 0.0000
# 4 0.0000 0.0000 0.0000 8.2219 0.0000 0.0000
# 5 0.0000 0.0000 0.0000 0.0000 38.3231 0.0000
# 6 0.0000 0.0000 0.0000 0.0000 0.0000 6.3061
#
#
#
# Elastic Compliance Matrix: (Units=1/GPa)
#
#
# Indices 1 2 3 4 5 6 
#
# 1 0.012943 0.000518 -0.005439 0.000000 0.000000 0.000000
# 2 0.000518 0.011930 -0.004074 0.000000 0.000000 0.000000
# 3 -0.005439 -0.004074 0.014112 0.000000 0.000000 0.000000
# 4 0.000000 0.000000 0.000000 0.121627 0.000000 0.000000
# 5 0.000000 0.000000 0.000000 0.000000 0.026094 0.000000
# 6 0.000000 0.000000 0.000000 0.000000 0.000000 0.158577
#
#
# Mechanical properties :
#
#
# Convention : Reuss Voigt Hill
#
# Bulk Modulus (GPa) = 47.62879 48.65838 48.14358
# Shear Modulus (GPa) = 13.50364 24.12202 18.81283
#
# Velocity S-wave (km/s) = 2.62498 3.50839 3.09833
# Velocity P-wave (km/s) = 5.78715 6.42190 6.11277
#
# Compressibility (1/GPa) = 0.02099570
#
# Stress axis : x y z
#
# Youngs Moduli (GPa) = 77.26076 83.82384 70.86082
#
# Poissons Ratio (x) = -0.04345 0.38540
# Poissons Ratio (y) = -0.04005 0.28870
# Poissons Ratio (z) = 0.42021 0.34152
#
# Static dielectric constant tensor:
#      x y z
#    x 4.101700 0.000000 0.000000 
#    y 0.000000 3.168070 0.000000 
#    z 0.000000 0.000000 3.655340 
# 
# 
# High freq. dielectric constant tensor:
#      x y z
#    x 1.791220 0.000000 0.000000 
#    y 0.000000 1.722800 0.000000 
#    z 0.000000 0.000000 1.761350 
# 
# From -- ./inp_files/8720.got.cif
#   From: 2010.03.12/outbox.cif.g09.slc.cpg/sg62_5_cif.got.tgz:8720.got - 2010.04.10 19:12:36.
