data_PCOD8250210
_publ_section_title
;
Structure prediction by ZEFSAII (Michael W. Deem and Ramdas Pophale) SiO2 
 PCOD8250210
Probable space group: P N M A
;
_chemical_formula_sum "Si O2"
_cell_formula_units_Z 48
_cell_length_a 11.650141
_cell_length_b 23.633250
_cell_length_c 6.391850
_cell_angle_alpha 90.000000
_cell_angle_beta 90.000000
_cell_angle_gamma 90.000000
_cell_volume 1759.872501
_symmetry_space_group_name_H-M "P N M A"
_symmetry_group_IT_number 62
_symmetry_cell_setting 'orthorhombic'
loop_
_space_group_symop_operation_xyz
x,y,z
1/2-x,-y,1/2+z
1/2+x,1/2-y,1/2-z
-x,1/2+y,-z
-x,-y,-z
1/2+x,y,1/2-z
1/2-x,1/2+y,1/2+z
x,1/2-y,z
loop_
_atom_site_type_symbol
_atom_site_label
_atom_site_fract_x
_atom_site_fract_y
_atom_site_fract_z
Si Si1 0.221840 0.416053 0.070610
Si Si2 0.621305 0.814306 0.901826
Si Si3 0.256782 0.040532 0.610302
Si Si4 0.525974 0.902518 0.462990
Si Si5 0.087703 0.373885 0.538783
Si Si6 0.309455 0.189476 0.625843
O O1 0.280663 0.360155 0.172282
O O2 0.247812 0.420721 0.820235
O O3 0.084773 0.409772 0.110099
O O4 0.272493 0.475472 0.163874
O O5 0.630710 0.750000 0.806301
O O6 0.496038 0.844277 0.867537
O O7 0.637183 0.807565 0.147513
O O8 0.386150 0.044289 0.517896
O O9 0.164726 0.071825 0.450730
O O10 0.490835 0.899121 0.221441
O O11 0.604602 0.847321 0.523884
O O12 0.176681 0.328360 0.629845
O O13 0.312278 0.250000 0.516649
#
# Coordination Sequence:
#
# PCOD8250210 Si02
#       6
#     8   8   8   8   8   8
#     4  11  20  34  50  76 104 136 169 211 256 307
#     4  10  18  28  46  72 102 130 162 208 258 299
#     4  10  20  33  51  71 106 133 170 210 256 304
#     4   9  16  31  44  66 103 135 160 200 255 301
#     4   9  15  30  44  69 102 129 161 205 256 301
#     4   9  15  24  44  69  99 131 161 202 253 301
#
# _framework density 27.274702999999999
#
# number of rings (size 3 to 8) (size 9 to 14) (size 15 to 20)
#    0.000    2.333    6.667    1.000    0.000    2.000 
#    0.000    0.000    0.000    0.000    0.000    7.000 
#    0.000    0.000    0.000    0.000    0.000    0.000 
#
# Total GULP energy -594651.357260 kJ/mol
# GULP energy per Si atom -12388.569943 kJ/mol
# Density = 2.721262 g / cm^3
# Si number density = 27.274703 Si / 1000 Ang^3
#
#
#
# Elastic Constant Matrix: (Units=GPa)
#
#
# Indices 1 2 3 4 5 6 
#
# 1 201.1298 80.7203 28.2297 0.0000 0.0000 0.0000
# 2 80.7203 235.9514 12.8807 0.0000 0.0000 0.0000
# 3 28.2297 12.8807 38.8332 0.0000 0.0000 0.0000
# 4 0.0000 0.0000 0.0000 -0.6578 0.0000 0.0000
# 5 0.0000 0.0000 0.0000 0.0000 26.8336 0.0000
# 6 0.0000 0.0000 0.0000 0.0000 0.0000 35.1689
#
#
#
# Elastic Compliance Matrix: (Units=1/GPa)
#
#
# Indices 1 2 3 4 5 6 
#
# 1 0.006304 -0.001942 -0.003939 0.000000 0.000000 0.000000
# 2 -0.001942 0.004914 -0.000219 0.000000 0.000000 0.000000
# 3 -0.003939 -0.000219 0.028687 0.000000 0.000000 0.000000
# 4 0.000000 0.000000 0.000000 -1.520269 0.000000 0.000000
# 5 0.000000 0.000000 0.000000 0.000000 0.037267 0.000000
# 6 0.000000 0.000000 0.000000 0.000000 0.000000 0.028434
#
#
# Mechanical properties :
#
#
# Convention : Reuss Voigt Hill
#
# Bulk Modulus (GPa) = 36.09133 79.95287 58.02210
# Shear Modulus (GPa) = -3.58878 35.87451 16.14286
#
# Velocity S-wave (km/s) = -1.14832 3.63065 2.43546
# Velocity P-wave (km/s) = 3.39162 6.85223 5.40630
#
# Compressibility (1/GPa) = 0.02770749
#
# Stress axis : x y z
#
# Youngs Moduli (GPa) = 158.63046 203.48654 34.85913
#
# Poissons Ratio (x) = 0.39509 0.13730
# Poissons Ratio (y) = 0.30800 0.00762
# Poissons Ratio (z) = 0.62479 0.04448
#
# Static dielectric constant tensor:
#      x y z
#    x 5.175830 0.000000 0.000000 
#    y 0.000000 5.523580 0.000000 
#    z 0.000000 0.000000 4.878990 
# 
# 
# High freq. dielectric constant tensor:
#      x y z
#    x 2.102700 0.000000 0.000000 
#    y 0.000000 2.100490 0.000000 
#    z 0.000000 0.000000 2.124210 
# 
# From -- ./inp_files/5295.got.cif
#   From: 2010.03.12/outbox.cif.g09.slc.cpg/sg62_3_cif.got.tgz:5295.got - 2010.04.10 19:12:36.
