data_PCOD8250229
_publ_section_title
;
Structure prediction by ZEFSAII (Michael W. Deem and Ramdas Pophale) SiO2 
 PCOD8250229
Probable space group: P N M A
;
_chemical_formula_sum "Si O2"
_cell_formula_units_Z 64
_cell_length_a 20.166189
_cell_length_b 9.079257
_cell_length_c 19.531478
_cell_angle_alpha 90.000000
_cell_angle_beta 90.000000
_cell_angle_gamma 90.000000
_cell_volume 3576.096680
_symmetry_space_group_name_H-M "P N M A"
_symmetry_group_IT_number 62
_symmetry_cell_setting 'orthorhombic'
loop_
_space_group_symop_operation_xyz
x,y,z
1/2-x,-y,1/2+z
1/2+x,1/2-y,1/2-z
-x,1/2+y,-z
-x,-y,-z
1/2+x,y,1/2-z
1/2-x,1/2+y,1/2+z
x,1/2-y,z
loop_
_atom_site_type_symbol
_atom_site_label
_atom_site_fract_x
_atom_site_fract_y
_atom_site_fract_z
Si Si1 0.805793 0.576508 0.474978
Si Si2 0.209066 0.918001 0.663669
Si Si3 0.041806 0.077943 0.942243
Si Si4 0.981612 0.076681 0.800559
Si Si5 0.937527 0.078901 0.467989
Si Si6 0.822730 0.920731 0.993664
Si Si7 0.853824 0.917172 0.838013
Si Si8 0.431812 0.084409 0.193855
O O1 0.812755 0.750000 0.485975
O O2 0.795135 0.537935 0.395776
O O3 0.872415 0.496496 0.501171
O O4 0.741279 0.516339 0.515649
O O5 0.204034 0.750000 0.632889
O O6 0.281426 0.936655 0.698826
O O7 0.146228 0.941934 0.714212
O O8 0.027611 0.250000 0.949390
O O9 0.019623 0.018388 0.868096
O O10 0.119481 0.042779 0.952210
O O11 0.000000 0.000000 0.000000
O O12 0.978241 0.250000 0.798999
O O13 0.906556 0.017826 0.798942
O O14 0.021264 0.026067 0.733947
O O15 0.938009 0.250000 0.487720
O O16 0.938954 0.054799 0.386633
O O17 0.000000 0.000000 0.500000
O O18 0.802450 0.750000 0.995108
O O19 0.848168 0.963331 0.917624
O O20 0.878833 0.750000 0.831974
O O21 0.453447 0.250000 0.212655
#
# Coordination Sequence:
#
# PCOD8250229 Si02
#       8
#     8   8   8   8   8   8   8   8
#     4  10  18  28  48  79 107 132 166 210 258 306
#     4   8  16  32  52  73  97 128 172 215 256 305
#     4  10  20  33  49  72 104 141 180 220 261 304
#     4  11  22  32  48  77 109 137 173 218 262 308
#     4  10  20  36  59  84 107 133 169 213 262 317
#     4   9  17  31  49  69  99 139 178 216 259 302
#     4   9  16  29  51  74  97 132 173 213 260 310
#     4   9  19  36  56  76 102 137 172 206 253 316
#
# _framework density 17.896606999999999
#
# number of rings (size 3 to 8) (size 9 to 14) (size 15 to 20)
#    0.000    2.500    1.250    3.375    0.000    5.500 
#    0.000    0.000    2.750    0.000    0.000    0.000 
#    0.000    0.000    0.000    0.000    0.000    0.000 
#
# Total GULP energy -793308.628358 kJ/mol
# GULP energy per Si atom -12395.447318 kJ/mol
# Density = 1.785587 g / cm^3
# Si number density = 17.896607 Si / 1000 Ang^3
#
#
#
# Elastic Constant Matrix: (Units=GPa)
#
#
# Indices 1 2 3 4 5 6 
#
# 1 160.5065 65.6575 36.9945 0.0000 0.0000 0.0000
# 2 65.6575 92.9219 25.0811 0.0000 0.0000 0.0000
# 3 36.9945 25.0811 34.2485 0.0000 0.0000 0.0000
# 4 0.0000 0.0000 0.0000 20.6542 0.0000 0.0000
# 5 0.0000 0.0000 0.0000 0.0000 26.5328 0.0000
# 6 0.0000 0.0000 0.0000 0.0000 0.0000 33.5326
#
#
#
# Elastic Compliance Matrix: (Units=1/GPa)
#
#
# Indices 1 2 3 4 5 6 
#
# 1 0.009941 -0.005142 -0.006972 0.000000 0.000000 0.000000
# 2 -0.005142 0.016073 -0.006216 0.000000 0.000000 0.000000
# 3 -0.006972 -0.006216 0.041282 0.000000 0.000000 0.000000
# 4 0.000000 0.000000 0.000000 0.048416 0.000000 0.000000
# 5 0.000000 0.000000 0.000000 0.000000 0.037689 0.000000
# 6 0.000000 0.000000 0.000000 0.000000 0.000000 0.029822
#
#
# Mechanical properties :
#
#
# Convention : Reuss Voigt Hill
#
# Bulk Modulus (GPa) = 32.64288 60.34924 46.49606
# Shear Modulus (GPa) = 21.73017 26.80683 24.26850
#
# Velocity S-wave (km/s) = 3.48833 3.87443 3.68644
# Velocity P-wave (km/s) = 5.87400 7.33548 6.64504
#
# Compressibility (1/GPa) = 0.03063455
#
# Stress axis : x y z
#
# Youngs Moduli (GPa) = 100.59676 62.21631 24.22384
#
# Poissons Ratio (x) = 0.31992 0.16889
# Poissons Ratio (y) = 0.51728 0.15058
# Poissons Ratio (z) = 0.70136 0.38675
#
# Static dielectric constant tensor:
#      x y z
#    x 3.773900 0.000000 0.000000 
#    y 0.000000 3.247460 0.000000 
#    z 0.000000 0.000000 2.926960 
# 
# 
# High freq. dielectric constant tensor:
#      x y z
#    x 1.715640 0.000000 0.000000 
#    y 0.000000 1.693150 0.000000 
#    z 0.000000 0.000000 1.635480 
# 
# From -- ./inp_files/24747.got.cif
#   From: 2010.03.12/outbox.cif.g09.slc.cpg/sg62_13_cif.got.tgz:24747.got - 2010.04.10 19:12:36.
