data_PCOD8250366
_publ_section_title
;
Structure prediction by ZEFSAII (Michael W. Deem and Ramdas Pophale) SiO2 
 PCOD8250366
Probable space group: P N M A
;
_chemical_formula_sum "Si O2"
_cell_formula_units_Z 64
_cell_length_a 20.039056
_cell_length_b 9.041966
_cell_length_c 19.192593
_cell_angle_alpha 90.000000
_cell_angle_beta 90.000000
_cell_angle_gamma 90.000000
_cell_volume 3477.553197
_symmetry_space_group_name_H-M "P N M A"
_symmetry_group_IT_number 62
_symmetry_cell_setting 'orthorhombic'
loop_
_space_group_symop_operation_xyz
x,y,z
1/2-x,-y,1/2+z
1/2+x,1/2-y,1/2-z
-x,1/2+y,-z
-x,-y,-z
1/2+x,y,1/2-z
1/2-x,1/2+y,1/2+z
x,1/2-y,z
loop_
_atom_site_type_symbol
_atom_site_label
_atom_site_fract_x
_atom_site_fract_y
_atom_site_fract_z
Si Si1 0.539258 0.080278 0.899324
Si Si2 0.282380 0.075049 0.880889
Si Si3 0.374112 0.420254 0.593992
Si Si4 0.975663 0.922785 0.126853
Si Si5 0.900922 0.420171 0.522695
Si Si6 0.347145 0.575803 0.456930
Si Si7 0.860350 0.424006 0.750426
Si Si8 0.999935 0.574553 0.733943
O O1 0.556221 0.250000 0.882946
O O2 0.465652 0.061142 0.929833
O O3 0.544847 0.984902 0.829268
O O4 0.593621 0.017964 0.953309
O O5 0.282275 0.250000 0.884379
O O6 0.338766 0.015996 0.933664
O O7 0.210549 0.012983 0.905365
O O8 0.299915 0.027813 0.801095
O O9 0.362426 0.250000 0.576660
O O10 0.452676 0.458947 0.593585
O O11 0.337257 0.512652 0.534400
O O12 0.342182 0.461613 0.669335
O O13 0.970112 0.750000 0.146413
O O14 0.918842 0.972516 0.072767
O O15 0.964905 0.018551 0.195870
O O16 0.890883 0.250000 0.500861
O O17 0.341106 0.750000 0.463055
O O18 0.877319 0.250000 0.743378
O O19 0.925649 0.511163 0.726948
O O20 0.997322 0.750000 0.732787
#
# Coordination Sequence:
#
# PCOD8250366 Si02
#       8
#     8   8   8   8   8   8   8   8
#     4  10  18  30  49  73 104 139 172 212 256 303
#     4   9  17  33  55  76 102 138 174 211 257 310
#     4   9  18  32  53  76 103 135 170 216 263 305
#     4   9  19  35  53  75 103 138 176 215 261 312
#     4   9  17  30  49  72 100 136 173 212 255 300
#     4  10  20  34  55  79 104 137 175 212 256 316
#     4   9  17  34  55  75 100 135 172 207 255 311
#     4  11  20  30  50  79 106 132 168 217 265 307
#
# _framework density 18.403744
#
# number of rings (size 3 to 8) (size 9 to 14) (size 15 to 20)
#    0.000    2.500    1.250    2.625    0.000    3.000 
#    0.000    2.500    0.000    1.500    0.000    0.000 
#    0.000    0.000    0.000    0.000    0.000    0.000 
#
# Total GULP energy -793506.599150 kJ/mol
# GULP energy per Si atom -12398.540612 kJ/mol
# Density = 1.836186 g / cm^3
# Si number density = 18.403744 Si / 1000 Ang^3
#
#
#
# Elastic Constant Matrix: (Units=GPa)
#
#
# Indices 1 2 3 4 5 6 
#
# 1 77.2861 17.7582 58.0354 0.0000 0.0000 0.0000
# 2 17.7582 65.3368 49.1104 0.0000 0.0000 0.0000
# 3 58.0354 49.1104 153.4806 0.0000 0.0000 0.0000
# 4 0.0000 0.0000 0.0000 33.9888 0.0000 0.0000
# 5 0.0000 0.0000 0.0000 0.0000 26.5962 0.0000
# 6 0.0000 0.0000 0.0000 0.0000 0.0000 15.3053
#
#
#
# Elastic Compliance Matrix: (Units=1/GPa)
#
#
# Indices 1 2 3 4 5 6 
#
# 1 0.018074 0.000296 -0.006929 0.000000 0.000000 0.000000
# 2 0.000296 0.020157 -0.006562 0.000000 0.000000 0.000000
# 3 -0.006929 -0.006562 0.011235 0.000000 0.000000 0.000000
# 4 0.000000 0.000000 0.000000 0.029421 0.000000 0.000000
# 5 0.000000 0.000000 0.000000 0.000000 0.037599 0.000000
# 6 0.000000 0.000000 0.000000 0.000000 0.000000 0.065337
#
#
# Mechanical properties :
#
#
# Convention : Reuss Voigt Hill
#
# Bulk Modulus (GPa) = 43.33427 60.65682 51.99555
# Shear Modulus (GPa) = 23.15828 26.59136 24.87482
#
# Velocity S-wave (km/s) = 3.55117 3.80529 3.68042
# Velocity P-wave (km/s) = 6.35704 7.23447 6.80990
#
# Compressibility (1/GPa) = 0.02307642
#
# Stress axis : x y z
#
# Youngs Moduli (GPa) = 55.32795 49.61066 89.00697
#
# Poissons Ratio (x) = -0.01467 0.61672
# Poissons Ratio (y) = -0.01636 0.58403
# Poissons Ratio (z) = 0.38336 0.32552
#
# Static dielectric constant tensor:
#      x y z
#    x 3.323950 0.000000 0.000000 
#    y 0.000000 3.179960 0.000000 
#    z 0.000000 0.000000 3.560780 
# 
# 
# High freq. dielectric constant tensor:
#      x y z
#    x 1.683650 0.000000 0.000000 
#    y 0.000000 1.694830 0.000000 
#    z 0.000000 0.000000 1.725810 
# 
# From -- ./inp_files/27904.got.cif
#   From: 2010.03.12/outbox.cif.g09.slc.cpg/sg62_14_cif.got.tgz:27904.got - 2010.04.10 19:12:36.
