data_PCOD8250143
_publ_section_title
;
Structure prediction by ZEFSAII (Michael W. Deem and Ramdas Pophale) SiO2 
 PCOD8250143
Probable space group: P N M A
;
_chemical_formula_sum "Si O2"
_cell_formula_units_Z 64
_cell_length_a 34.318515
_cell_length_b 8.914498
_cell_length_c 13.739384
_cell_angle_alpha 90.000000
_cell_angle_beta 90.000000
_cell_angle_gamma 90.000000
_cell_volume 4203.321806
_symmetry_space_group_name_H-M "P N M A"
_symmetry_group_IT_number 62
_symmetry_cell_setting 'orthorhombic'
loop_
_space_group_symop_operation_xyz
x,y,z
1/2-x,-y,1/2+z
1/2+x,1/2-y,1/2-z
-x,1/2+y,-z
-x,-y,-z
1/2+x,y,1/2-z
1/2-x,1/2+y,1/2+z
x,1/2-y,z
loop_
_atom_site_type_symbol
_atom_site_label
_atom_site_fract_x
_atom_site_fract_y
_atom_site_fract_z
Si Si1 0.538126 0.418845 0.616133
Si Si2 0.961872 0.581892 0.884522
Si Si3 0.736056 0.924453 0.106291
Si Si4 0.730697 0.928026 0.890804
Si Si5 0.616843 0.926309 0.617574
Si Si6 0.689026 0.428573 0.718767
Si Si7 0.303794 0.424865 0.700959
Si Si8 0.115852 0.924707 0.106152
O O1 0.542639 0.250000 0.655993
O O2 0.536349 0.419818 0.500333
O O3 0.498264 0.488929 0.658606
O O4 0.574356 0.518631 0.651910
O O5 0.964398 0.750000 0.843567
O O6 0.921272 0.510132 0.849627
O O7 0.742983 0.750000 0.091977
O O8 0.776919 0.990155 0.147153
O O9 0.701670 0.957191 0.183885
O O10 0.724802 0.990118 0.001044
O O11 0.725738 0.750000 0.881827
O O12 0.697848 0.008466 0.826273
O O13 0.774127 0.974008 0.859611
O O14 0.620247 0.750000 0.634669
O O15 0.624287 0.970842 0.505297
O O16 0.647942 0.010619 0.683477
O O17 0.688189 0.250000 0.723569
O O18 0.295343 0.250000 0.677642
O O19 0.347297 0.470726 0.671343
O O20 0.106276 0.750000 0.112068
#
# Coordination Sequence:
#
# PCOD8250143 Si02
#       8
#     8   8   8   8   8   8   8   8
#     4   9  16  26  39  55  78 110 142 169 202 244
#     4   9  16  25  38  56  80 109 140 172 204 240
#     4   8  16  29  44  59  79 107 137 169 206 245
#     4  10  18  29  44  61  80 105 137 173 209 243
#     4  10  18  27  40  61  85 109 139 174 207 240
#     4  10  19  31  44  60  82 109 139 170 206 248
#     4   9  17  30  44  60  82 109 139 170 205 246
#     4   9  17  27  41  60  84 112 141 172 205 243
#
# _framework density 15.226053
#
# number of rings (size 3 to 8) (size 9 to 14) (size 15 to 20)
#    0.000    2.750    0.000    3.375    0.000    4.000 
#    0.000    5.625    0.000    0.000    0.000    0.000 
#    0.000    1.000    0.000    2.750    0.000    4.000 
#
# Total GULP energy -793455.699988 kJ/mol
# GULP energy per Si atom -12397.745312 kJ/mol
# Density = 1.519140 g / cm^3
# Si number density = 15.226053 Si / 1000 Ang^3
#
#
#
# Elastic Constant Matrix: (Units=GPa)
#
#
# Indices 1 2 3 4 5 6 
#
# 1 119.1626 41.6623 46.0782 0.0000 0.0000 0.0000
# 2 41.6623 69.9607 28.6976 0.0000 0.0000 0.0000
# 3 46.0782 28.6976 80.5484 0.0000 0.0000 0.0000
# 4 0.0000 0.0000 0.0000 15.0489 0.0000 0.0000
# 5 0.0000 0.0000 0.0000 0.0000 17.8168 0.0000
# 6 0.0000 0.0000 0.0000 0.0000 0.0000 29.9451
#
#
#
# Elastic Compliance Matrix: (Units=1/GPa)
#
#
# Indices 1 2 3 4 5 6 
#
# 1 0.012175 -0.005145 -0.005132 0.000000 0.000000 0.000000
# 2 -0.005145 0.018915 -0.003795 0.000000 0.000000 0.000000
# 3 -0.005132 -0.003795 0.016703 0.000000 0.000000 0.000000
# 4 0.000000 0.000000 0.000000 0.066450 0.000000 0.000000
# 5 0.000000 0.000000 0.000000 0.000000 0.056127 0.000000
# 6 0.000000 0.000000 0.000000 0.000000 0.000000 0.033394
#
#
# Mechanical properties :
#
#
# Convention : Reuss Voigt Hill
#
# Bulk Modulus (GPa) = 50.89684 55.83864 53.36774
# Shear Modulus (GPa) = 20.96804 22.77775 21.87289
#
# Velocity S-wave (km/s) = 3.71498 3.87198 3.79429
# Velocity P-wave (km/s) = 7.20427 7.53275 7.37034
#
# Compressibility (1/GPa) = 0.01964758
#
# Stress axis : x y z
#
# Youngs Moduli (GPa) = 82.13401 52.86865 59.87044
#
# Poissons Ratio (x) = 0.27203 0.30724
# Poissons Ratio (y) = 0.42262 0.22723
# Poissons Ratio (z) = 0.42149 0.20066
#
# Static dielectric constant tensor:
#      x y z
#    x 2.976420 0.000000 0.000000 
#    y 0.000000 2.948590 0.000000 
#    z 0.000000 0.000000 2.771520 
# 
# 
# High freq. dielectric constant tensor:
#      x y z
#    x 1.583180 0.000000 0.000000 
#    y 0.000000 1.588850 0.000000 
#    z 0.000000 0.000000 1.538100 
# 
# From -- ./inp_files/21231.got.cif
#   From: 2010.03.12/outbox.cif.g09.slc.cpg/sg62_11_cif.got.tgz:21231.got - 2010.04.10 19:12:36.
