data_PCOD8250731
_publ_section_title
;
Structure prediction by ZEFSAII (Michael W. Deem and Ramdas Pophale) SiO2 
 PCOD8250731
Probable space group: P N M A
;
_chemical_formula_sum "Si O2"
_cell_formula_units_Z 64
_cell_length_a 14.122704
_cell_length_b 23.109597
_cell_length_c 9.489093
_cell_angle_alpha 90.000000
_cell_angle_beta 90.000000
_cell_angle_gamma 90.000000
_cell_volume 3096.955263
_symmetry_space_group_name_H-M "P N M A"
_symmetry_group_IT_number 62
_symmetry_cell_setting 'orthorhombic'
loop_
_space_group_symop_operation_xyz
x,y,z
1/2-x,-y,1/2+z
1/2+x,1/2-y,1/2-z
-x,1/2+y,-z
-x,-y,-z
1/2+x,y,1/2-z
1/2-x,1/2+y,1/2+z
x,1/2-y,z
loop_
_atom_site_type_symbol
_atom_site_label
_atom_site_fract_x
_atom_site_fract_y
_atom_site_fract_z
Si Si1 0.120971 0.366653 0.359420
Si Si2 0.061421 0.885519 0.244377
Si Si3 0.136261 0.393216 0.872665
Si Si4 0.772679 0.682826 0.903592
Si Si5 0.636825 0.496022 0.168765
Si Si6 0.753804 0.386446 0.902012
Si Si7 0.938254 0.316312 0.471368
Si Si8 0.216842 0.010453 0.043685
O O1 0.173146 0.353476 0.214312
O O2 0.089632 0.434596 0.372284
O O3 0.193391 0.348469 0.486920
O O4 0.025255 0.329411 0.366308
O O5 0.152980 0.856918 0.166160
O O6 0.047925 0.855826 0.393344
O O7 0.971397 0.873235 0.147183
O O8 0.067456 0.955620 0.265503
O O9 0.184465 0.406877 0.723090
O O10 0.192465 0.340484 0.945479
O O11 0.136055 0.450840 0.969634
O O12 0.797824 0.750000 0.889430
O O13 0.660269 0.671345 0.890880
O O14 0.715979 0.479956 0.288002
O O15 0.683535 0.527224 0.031841
O O16 0.794065 0.442027 0.987753
O O17 0.941718 0.250000 0.520413
#
# Coordination Sequence:
#
# PCOD8250731 Si02
#       8
#     8   8   8   8   8   8   8   8
#     4  11  23  44  65 101 132 171 216 273 336 389
#     4  11  23  41  64  99 131 173 229 263 320 397
#     4  12  21  41  66  89 133 172 220 266 319 394
#     4  11  25  45  69  94 128 170 216 278 336 386
#     4  10  21  37  63  94 134 172 208 267 328 391
#     4  10  22  40  63  97 130 172 214 266 317 390
#     4  11  24  44  69  94 129 176 224 272 326 392
#     4  10  18  37  60  88 131 168 207 252 322 384
#
# _framework density 20.665458000000001
#
# number of rings (size 3 to 8) (size 9 to 14) (size 15 to 20)
#    0.000    1.250    6.250    0.375    0.000    4.000 
#    6.750    1.250    0.000    0.000    0.000    0.000 
#    0.000    0.000    0.000    0.000    0.000    0.000 
#
# Total GULP energy -793208.708629 kJ/mol
# GULP energy per Si atom -12393.886072 kJ/mol
# Density = 2.061842 g / cm^3
# Si number density = 20.665458 Si / 1000 Ang^3
#
#
#
# Elastic Constant Matrix: (Units=GPa)
#
#
# Indices 1 2 3 4 5 6 
#
# 1 129.5229 33.6895 35.1007 0.0000 0.0000 0.0000
# 2 33.6895 82.1331 26.0969 0.0000 0.0000 0.0000
# 3 35.1007 26.0969 77.4957 0.0000 0.0000 0.0000
# 4 0.0000 0.0000 0.0000 19.1835 0.0000 0.0000
# 5 0.0000 0.0000 0.0000 0.0000 32.8555 0.0000
# 6 0.0000 0.0000 0.0000 0.0000 0.0000 25.3432
#
#
#
# Elastic Compliance Matrix: (Units=1/GPa)
#
#
# Indices 1 2 3 4 5 6 
#
# 1 0.009337 -0.002784 -0.003291 0.000000 0.000000 0.000000
# 2 -0.002784 0.014464 -0.003610 0.000000 0.000000 0.000000
# 3 -0.003291 -0.003610 0.015610 0.000000 0.000000 0.000000
# 4 0.000000 0.000000 0.000000 0.052128 0.000000 0.000000
# 5 0.000000 0.000000 0.000000 0.000000 0.030436 0.000000
# 6 0.000000 0.000000 0.000000 0.000000 0.000000 0.039458
#
#
# Mechanical properties :
#
#
# Convention : Reuss Voigt Hill
#
# Bulk Modulus (GPa) = 49.89826 53.21400 51.55613
# Shear Modulus (GPa) = 26.66876 28.42740 27.54808
#
# Velocity S-wave (km/s) = 3.59625 3.71293 3.65506
# Velocity P-wave (km/s) = 6.43756 6.64735 6.54330
#
# Compressibility (1/GPa) = 0.02004078
#
# Stress axis : x y z
#
# Youngs Moduli (GPa) = 107.10375 69.13570 64.05971
#
# Poissons Ratio (x) = 0.19247 0.21085
# Poissons Ratio (y) = 0.29817 0.23125
# Poissons Ratio (z) = 0.35253 0.24958
#
# Static dielectric constant tensor:
#      x y z
#    x 3.742660 0.000000 0.000000 
#    y 0.000000 3.614950 0.000000 
#    z 0.000000 0.000000 3.855900 
# 
# 
# High freq. dielectric constant tensor:
#      x y z
#    x 1.797100 0.000000 0.000000 
#    y 0.000000 1.794690 0.000000 
#    z 0.000000 0.000000 1.813140 
# 
# From -- ./inp_files/6935.got.cif
#   From: 2010.03.12/outbox.cif.g09.slc.cpg/sg62_4_cif.got.tgz:6935.got - 2010.04.10 19:12:36.
