data_PCOD8250692
_publ_section_title
;
Structure prediction by ZEFSAII (Michael W. Deem and Ramdas Pophale) SiO2 
 PCOD8250692
Probable space group: P N M A
;
_chemical_formula_sum "Si O2"
_cell_formula_units_Z 56
_cell_length_a 14.546628
_cell_length_b 12.053062
_cell_length_c 17.325672
_cell_angle_alpha 90.000000
_cell_angle_beta 90.000000
_cell_angle_gamma 90.000000
_cell_volume 3037.734487
_symmetry_space_group_name_H-M "P N M A"
_symmetry_group_IT_number 62
_symmetry_cell_setting 'orthorhombic'
loop_
_space_group_symop_operation_xyz
x,y,z
1/2-x,-y,1/2+z
1/2+x,1/2-y,1/2-z
-x,1/2+y,-z
-x,-y,-z
1/2+x,y,1/2-z
1/2-x,1/2+y,1/2+z
x,1/2-y,z
loop_
_atom_site_type_symbol
_atom_site_label
_atom_site_fract_x
_atom_site_fract_y
_atom_site_fract_z
Si Si1 0.759341 0.497277 0.397875
Si Si2 0.743041 0.119068 0.738126
Si Si3 0.248951 0.125255 0.445958
Si Si4 0.117541 0.447704 0.317463
Si Si5 0.578555 0.624815 0.830068
Si Si6 0.411003 0.623671 0.653006
Si Si7 0.606353 0.541683 0.669481
O O1 0.757538 0.585902 0.328196
O O2 0.772989 0.555155 0.478908
O O3 0.844710 0.413790 0.389899
O O4 0.666248 0.425216 0.403193
O O5 0.748953 0.250000 0.729390
O O6 0.832740 0.066402 0.696004
O O7 0.649580 0.076962 0.695391
O O8 0.261651 0.250000 0.473854
O O9 0.164314 0.116685 0.387388
O O10 0.342237 0.086845 0.405194
O O11 0.129209 0.374940 0.239844
O O12 0.008938 0.458550 0.336090
O O13 0.548057 0.750000 0.849813
O O14 0.619887 0.622869 0.743168
O O15 0.436745 0.750000 0.629260
O O16 0.498405 0.540147 0.647903
#
# Coordination Sequence:
#
# PCOD8250692 Si02
#       7
#     8   8   8   8   8   8   8
#     4  10  22  32  48  76 110 146 178 202 254 326
#     4   9  18  36  53  74 106 140 173 217 259 307
#     4  11  20  34  51  74 106 140 171 215 263 313
#     4   9  19  33  57  81  99 128 180 221 260 310
#     4  10  18  35  57  81 105 133 173 226 267 300
#     4  10  18  35  57  81 105 133 173 226 267 300
#     4   9  19  33  57  81  99 128 180 221 260 310
#
# _framework density 18.434792000000002
#
# number of rings (size 3 to 8) (size 9 to 14) (size 15 to 20)
#    0.000    2.286    0.000    5.143    0.000    1.143 
#    0.000   18.571    0.000    0.000    0.000    0.000 
#    0.000    0.000    0.000    0.000    0.000    0.000 
#
# Total GULP energy -694206.373083 kJ/mol
# GULP energy per Si atom -12396.542376 kJ/mol
# Density = 1.839283 g / cm^3
# Si number density = 18.434792 Si / 1000 Ang^3
#
#
#
# Elastic Constant Matrix: (Units=GPa)
#
#
# Indices 1 2 3 4 5 6 
#
# 1 95.4770 37.1846 14.3891 0.0000 0.0000 0.0000
# 2 37.1846 113.8595 13.8356 0.0000 0.0000 0.0000
# 3 14.3891 13.8356 58.8615 0.0000 0.0000 0.0000
# 4 0.0000 0.0000 0.0000 18.6607 0.0000 0.0000
# 5 0.0000 0.0000 0.0000 0.0000 -4.1252 0.0000
# 6 0.0000 0.0000 0.0000 0.0000 0.0000 20.7774
#
#
#
# Elastic Compliance Matrix: (Units=1/GPa)
#
#
# Indices 1 2 3 4 5 6 
#
# 1 0.012251 -0.003744 -0.002115 0.000000 0.000000 0.000000
# 2 -0.003744 0.010185 -0.001479 0.000000 0.000000 0.000000
# 3 -0.002115 -0.001479 0.017854 0.000000 0.000000 0.000000
# 4 0.000000 0.000000 0.000000 0.053588 0.000000 0.000000
# 5 0.000000 0.000000 0.000000 0.000000 -0.242411 0.000000
# 6 0.000000 0.000000 0.000000 0.000000 0.000000 0.048129
#
#
# Mechanical properties :
#
#
# Convention : Reuss Voigt Hill
#
# Bulk Modulus (GPa) = 39.04049 44.33519 41.68784
# Shear Modulus (GPa) = -64.77460 20.58182 -22.09639
#
# Velocity S-wave (km/s) = -5.93409 3.34498 -3.46587
# Velocity P-wave (km/s) = 5.07224 6.24664 2.57806
#
# Compressibility (1/GPa) = 0.02561443
#
# Stress axis : x y z
#
# Youngs Moduli (GPa) = 81.62923 98.18234 56.01112
#
# Poissons Ratio (x) = 0.36758 0.11845
# Poissons Ratio (y) = 0.30561 0.08283
# Poissons Ratio (z) = 0.17262 0.14520
#
# Static dielectric constant tensor:
#      x y z
#    x 3.557100 0.000000 0.000000 
#    y 0.000000 3.183040 0.000000 
#    z 0.000000 0.000000 3.190260 
# 
# 
# High freq. dielectric constant tensor:
#      x y z
#    x 1.726140 0.000000 0.000000 
#    y 0.000000 1.694590 0.000000 
#    z 0.000000 0.000000 1.695870 
# 
# From -- ./inp_files/19016.got.cif
#   From: 2010.03.12/outbox.cif.g09.slc.cpg/sg62_10_cif.got.tgz:19016.got - 2010.04.10 19:12:36.
