data_PCOD8250176
_publ_section_title
;
Structure prediction by ZEFSAII (Michael W. Deem and Ramdas Pophale) SiO2 
 PCOD8250176
Probable space group: P N M A
;
_chemical_formula_sum "Si O2"
_cell_formula_units_Z 64
_cell_length_a 18.407269
_cell_length_b 8.621137
_cell_length_c 26.214891
_cell_angle_alpha 90.000000
_cell_angle_beta 90.000000
_cell_angle_gamma 90.000000
_cell_volume 4160.082678
_symmetry_space_group_name_H-M "P N M A"
_symmetry_group_IT_number 62
_symmetry_cell_setting 'orthorhombic'
loop_
_space_group_symop_operation_xyz
x,y,z
1/2-x,-y,1/2+z
1/2+x,1/2-y,1/2-z
-x,1/2+y,-z
-x,-y,-z
1/2+x,y,1/2-z
1/2-x,1/2+y,1/2+z
x,1/2-y,z
loop_
_atom_site_type_symbol
_atom_site_label
_atom_site_fract_x
_atom_site_fract_y
_atom_site_fract_z
Si Si1 0.583454 0.429573 0.556788
Si Si2 0.582607 0.570573 0.450618
Si Si3 0.213760 0.572776 0.302261
Si Si4 0.080192 0.932092 0.241382
Si Si5 0.915589 0.931821 0.249311
Si Si6 0.213754 0.572044 0.707735
Si Si7 0.845436 0.572718 0.856345
Si Si8 0.841725 0.070736 0.151187
O O1 0.598315 0.250000 0.567276
O O2 0.606911 0.470759 0.499324
O O3 0.499248 0.473342 0.565757
O O4 0.631838 0.529528 0.594939
O O5 0.587718 0.750000 0.465538
O O6 0.636134 0.534669 0.404123
O O7 0.221864 0.750000 0.319416
O O8 0.129162 0.529890 0.291764
O O9 0.253100 0.546668 0.248384
O O10 0.255097 0.468599 0.344574
O O11 0.085017 0.750000 0.227638
O O12 0.998887 0.984555 0.254330
O O13 0.107268 0.027896 0.192753
O O14 0.907805 0.750000 0.258064
O O15 0.871107 0.022179 0.294341
O O16 0.886671 0.973850 0.192954
O O17 0.220569 0.750000 0.726725
O O18 0.258947 0.551551 0.655324
O O19 0.863466 0.750000 0.870274
O O20 0.854751 0.250000 0.161981
#
# Coordination Sequence:
#
# PCOD8250176 Si02
#       8
#     8   8   8   8   8   8   8   8
#     4  10  20  33  46  61  83 110 140 174 210 245
#     4  10  20  32  46  63  83 108 140 176 210 244
#     4   9  16  28  43  58  79 108 139 172 209 245
#     4   9  18  29  42  61  84 110 142 176 208 247
#     4  10  18  28  42  61  84 111 142 174 209 247
#     4   9  17  28  40  58  82 108 139 172 205 243
#     4  10  19  29  43  61  83 112 143 173 207 247
#     4  11  20  29  42  61  84 111 143 174 206 246
#
# _framework density 15.384309999999999
#
# number of rings (size 3 to 8) (size 9 to 14) (size 15 to 20)
#    0.000    2.250    0.000    5.625    0.000    7.500 
#    0.000    0.000    0.000    0.000    0.000    0.000 
#    0.000    1.000    0.000    3.000    0.000    4.625 
#
# Total GULP energy -793319.984678 kJ/mol
# GULP energy per Si atom -12395.624761 kJ/mol
# Density = 1.534929 g / cm^3
# Si number density = 15.384310 Si / 1000 Ang^3
#
#
#
# Elastic Constant Matrix: (Units=GPa)
#
#
# Indices 1 2 3 4 5 6 
#
# 1 102.8683 24.5787 40.8469 0.0000 0.0000 0.0000
# 2 24.5787 45.4988 18.4367 0.0000 0.0000 0.0000
# 3 40.8469 18.4367 64.2959 0.0000 0.0000 0.0000
# 4 0.0000 0.0000 0.0000 23.1864 0.0000 0.0000
# 5 0.0000 0.0000 0.0000 0.0000 24.7539 0.0000
# 6 0.0000 0.0000 0.0000 0.0000 0.0000 19.6870
#
#
#
# Elastic Compliance Matrix: (Units=1/GPa)
#
#
# Indices 1 2 3 4 5 6 
#
# 1 0.013736 -0.004395 -0.007466 0.000000 0.000000 0.000000
# 2 -0.004395 0.026274 -0.004742 0.000000 0.000000 0.000000
# 3 -0.007466 -0.004742 0.021656 0.000000 0.000000 0.000000
# 4 0.000000 0.000000 0.000000 0.043129 0.000000 0.000000
# 5 0.000000 0.000000 0.000000 0.000000 0.040398 0.000000
# 6 0.000000 0.000000 0.000000 0.000000 0.000000 0.050795
#
#
# Mechanical properties :
#
#
# Convention : Reuss Voigt Hill
#
# Bulk Modulus (GPa) = 35.13687 42.26529 38.70108
# Shear Modulus (GPa) = 20.94851 22.11217 21.53034
#
# Velocity S-wave (km/s) = 3.69410 3.79531 3.74505
# Velocity P-wave (km/s) = 6.40969 6.83656 6.62656
#
# Compressibility (1/GPa) = 0.02846014
#
# Stress axis : x y z
#
# Youngs Moduli (GPa) = 72.80200 38.06006 46.17640
#
# Poissons Ratio (x) = 0.16727 0.34476
# Poissons Ratio (y) = 0.31995 0.21897
# Poissons Ratio (z) = 0.54355 0.18048
#
# Static dielectric constant tensor:
#      x y z
#    x 3.295140 0.000000 0.000000 
#    y 0.000000 3.002790 0.000000 
#    z 0.000000 0.000000 2.692020 
# 
# 
# High freq. dielectric constant tensor:
#      x y z
#    x 1.581710 0.000000 0.000000 
#    y 0.000000 1.606490 0.000000 
#    z 0.000000 0.000000 1.548660 
# 
# From -- ./inp_files/30048.got.cif
#   From: 2010.03.12/outbox.cif.g09.slc.cpg/sg62_16_cif.got.tgz:30048.got - 2010.04.10 19:12:36.
