data_PCOD8250963
_publ_section_title
;
Structure prediction by ZEFSAII (Michael W. Deem and Ramdas Pophale) SiO2 
 PCOD8250963
Probable space group: P N M A
;
_chemical_formula_sum "Si O2"
_cell_formula_units_Z 64
_cell_length_a 23.253849
_cell_length_b 9.054336
_cell_length_c 18.919003
_cell_angle_alpha 90.000000
_cell_angle_beta 90.000000
_cell_angle_gamma 90.000000
_cell_volume 3983.361311
_symmetry_space_group_name_H-M "P N M A"
_symmetry_group_IT_number 62
_symmetry_cell_setting 'orthorhombic'
loop_
_space_group_symop_operation_xyz
x,y,z
1/2-x,-y,1/2+z
1/2+x,1/2-y,1/2-z
-x,1/2+y,-z
-x,-y,-z
1/2+x,y,1/2-z
1/2-x,1/2+y,1/2+z
x,1/2-y,z
loop_
_atom_site_type_symbol
_atom_site_label
_atom_site_fract_x
_atom_site_fract_y
_atom_site_fract_z
Si Si1 0.741920 0.077720 0.002855
Si Si2 0.717597 0.074816 0.634368
Si Si3 0.743217 0.920436 0.343490
Si Si4 0.329913 0.077981 0.783053
Si Si5 0.060108 0.578472 0.359470
Si Si6 0.120756 0.922211 0.504685
Si Si7 0.058108 0.919922 0.644824
Si Si8 0.338360 0.079194 0.242954
O O1 0.739433 0.250000 0.020873
O O2 0.785172 0.995804 0.056559
O O3 0.678299 0.012961 0.008893
O O4 0.768601 0.048726 0.925418
O O5 0.711402 0.250000 0.629495
O O6 0.777415 0.019929 0.669018
O O7 0.666802 0.011229 0.683861
O O8 0.760932 0.750000 0.329620
O O9 0.684926 0.956657 0.299041
O O10 0.795177 0.021472 0.317244
O O11 0.335154 0.250000 0.798639
O O12 0.390407 0.008357 0.808119
O O13 0.051341 0.750000 0.344194
O O14 0.077100 0.549626 0.440535
O O15 0.000930 0.501575 0.340469
O O16 0.137646 0.750000 0.511111
O O17 0.090259 0.982878 0.575351
O O18 0.044016 0.750000 0.630774
O O19 0.097375 0.942783 0.713814
O O20 0.324544 0.250000 0.257153
#
# Coordination Sequence:
#
# PCOD8250963 Si02
#       8
#     8   8   8   8   8   8   8   8
#     4  11  20  29  47  75 100 126 162 199 236 291
#     4  10  19  33  51  68  96 128 158 197 245 293
#     4   9  18  31  48  70  97 126 158 196 244 292
#     4   8  15  30  48  66  89 121 156 195 238 280
#     4  10  19  31  49  67  90 128 172 202 229 284
#     4  10  19  33  46  64  97 135 167 197 237 278
#     4  10  21  33  46  66  98 132 162 202 245 281
#     4  10  19  32  49  70  95 124 161 201 242 287
#
# _framework density 16.066832000000002
#
# number of rings (size 3 to 8) (size 9 to 14) (size 15 to 20)
#    0.000    2.250    2.500    2.250    0.000    2.500 
#    0.000    0.625    0.000    0.000    0.000    0.875 
#    0.000    0.000    0.000    0.000    0.000    0.000 
#
# Total GULP energy -793511.993144 kJ/mol
# GULP energy per Si atom -12398.624893 kJ/mol
# Density = 1.603026 g / cm^3
# Si number density = 16.066832 Si / 1000 Ang^3
#
#
#
# Elastic Constant Matrix: (Units=GPa)
#
#
# Indices 1 2 3 4 5 6 
#
# 1 64.5852 27.5389 35.9516 0.0000 0.0000 0.0000
# 2 27.5389 63.2383 37.9570 0.0000 0.0000 0.0000
# 3 35.9516 37.9570 93.7579 0.0000 0.0000 0.0000
# 4 0.0000 0.0000 0.0000 23.2733 0.0000 0.0000
# 5 0.0000 0.0000 0.0000 0.0000 22.2732 0.0000
# 6 0.0000 0.0000 0.0000 0.0000 0.0000 24.7095
#
#
#
# Elastic Compliance Matrix: (Units=1/GPa)
#
#
# Indices 1 2 3 4 5 6 
#
# 1 0.021152 -0.005737 -0.005788 0.000000 0.000000 0.000000
# 2 -0.005737 0.022445 -0.006887 0.000000 0.000000 0.000000
# 3 -0.005788 -0.006887 0.015673 0.000000 0.000000 0.000000
# 4 0.000000 0.000000 0.000000 0.042968 0.000000 0.000000
# 5 0.000000 0.000000 0.000000 0.000000 0.044897 0.000000
# 6 0.000000 0.000000 0.000000 0.000000 0.000000 0.040470
#
#
# Mechanical properties :
#
#
# Convention : Reuss Voigt Hill
#
# Bulk Modulus (GPa) = 44.55079 47.16404 45.85742
# Shear Modulus (GPa) = 21.56001 22.06013 21.81007
#
# Velocity S-wave (km/s) = 3.66716 3.70945 3.68837
# Velocity P-wave (km/s) = 6.76161 6.91125 6.83684
#
# Compressibility (1/GPa) = 0.02244629
#
# Stress axis : x y z
#
# Youngs Moduli (GPa) = 47.27783 44.55301 63.80283
#
# Poissons Ratio (x) = 0.25560 0.36929
# Poissons Ratio (y) = 0.27123 0.43940
# Poissons Ratio (z) = 0.27365 0.30683
#
# Static dielectric constant tensor:
#      x y z
#    x 2.905250 0.000000 0.000000 
#    y 0.000000 2.999060 0.000000 
#    z 0.000000 0.000000 3.253020 
# 
# 
# High freq. dielectric constant tensor:
#      x y z
#    x 1.588320 0.000000 0.000000 
#    y 0.000000 1.614630 0.000000 
#    z 0.000000 0.000000 1.617610 
# 
# From -- ./inp_files/24949.got.cif
#   From: 2010.03.12/outbox.cif.g09.slc.cpg/sg62_13_cif.got.tgz:24949.got - 2010.04.10 19:12:36.
