data_PCOD8250477
_publ_section_title
;
Structure prediction by ZEFSAII (Michael W. Deem and Ramdas Pophale) SiO2 
 PCOD8250477
Probable space group: P N M A
;
_chemical_formula_sum "Si O2"
_cell_formula_units_Z 48
_cell_length_a 8.816025
_cell_length_b 10.404695
_cell_length_c 28.161533
_cell_angle_alpha 90.000000
_cell_angle_beta 90.000000
_cell_angle_gamma 90.000000
_cell_volume 2583.202542
_symmetry_space_group_name_H-M "P N M A"
_symmetry_group_IT_number 62
_symmetry_cell_setting 'orthorhombic'
loop_
_space_group_symop_operation_xyz
x,y,z
1/2-x,-y,1/2+z
1/2+x,1/2-y,1/2-z
-x,1/2+y,-z
-x,-y,-z
1/2+x,y,1/2-z
1/2-x,1/2+y,1/2+z
x,1/2-y,z
loop_
_atom_site_type_symbol
_atom_site_label
_atom_site_fract_x
_atom_site_fract_y
_atom_site_fract_z
Si Si1 0.711680 0.006946 0.103355
Si Si2 0.852759 0.006899 0.386486
Si Si3 0.211334 0.398142 0.206208
Si Si4 0.356308 0.101949 0.304134
Si Si5 0.837912 0.750000 0.437731
Si Si6 0.696830 0.750000 0.052135
Si Si7 0.165168 0.750000 0.553947
Si Si8 0.193847 0.250000 0.456225
O O1 0.533771 0.010664 0.114264
O O2 0.802355 0.014782 0.152386
O O3 0.760044 0.123744 0.069105
O O4 0.762165 0.875774 0.077893
O O5 0.794085 0.015493 0.332907
O O6 0.784105 0.123952 0.417202
O O7 0.788500 0.875861 0.408789
O O8 0.258044 0.250000 0.197947
O O9 0.267966 0.445053 0.257454
O O10 0.032997 0.418638 0.203928
O O11 0.316013 0.250000 0.315340
O O12 0.754977 0.750000 0.488815
O O13 0.016573 0.750000 0.445591
O O14 0.748122 0.750000 0.997088
O O15 0.986359 0.750000 0.546764
#
# Coordination Sequence:
#
# PCOD8250477 Si02
#       8
#     8   8   8   8   4   4   4   4
#     4  10  18  31  52  78 106 136 172 211 253 298
#     4  10  18  31  52  78 106 136 172 211 253 298
#     4  10  20  34  54  78 103 130 167 213 259 306
#     4  10  20  34  54  78 103 130 167 213 259 306
#     4   9  18  30  48  77 110 139 170 211 252 295
#     4   9  18  30  48  77 110 139 170 211 252 295
#     4   9  16  28  50  77 104 137 176 213 248 291
#     4   9  16  28  50  77 104 137 176 213 248 291
#
# _framework density 18.581586000000001
#
# number of rings (size 3 to 8) (size 9 to 14) (size 15 to 20)
#    0.000    2.333    1.667    2.000    0.000    5.333 
#    0.000    1.667    0.000    6.000    0.000    0.000 
#    0.000    0.000    0.000    0.000    0.000    0.000 
#
# Total GULP energy -595326.764007 kJ/mol
# GULP energy per Si atom -12402.640917 kJ/mol
# Density = 1.853929 g / cm^3
# Si number density = 18.581586 Si / 1000 Ang^3
#
#
#
# Elastic Constant Matrix: (Units=GPa)
#
#
# Indices 1 2 3 4 5 6 
#
# 1 22.2343 4.3144 -5.0032 0.0000 0.0000 0.0000
# 2 4.3144 117.0777 25.0687 0.0000 0.0000 0.0000
# 3 -5.0032 25.0687 57.4840 0.0000 0.0000 0.0000
# 4 0.0000 0.0000 0.0000 20.4095 0.0000 0.0000
# 5 0.0000 0.0000 0.0000 0.0000 26.4490 0.0000
# 6 0.0000 0.0000 0.0000 0.0000 0.0000 11.8599
#
#
#
# Elastic Compliance Matrix: (Units=1/GPa)
#
#
# Indices 1 2 3 4 5 6 
#
# 1 0.046726 -0.002860 0.005314 0.000000 0.000000 0.000000
# 2 -0.002860 0.009596 -0.004434 0.000000 0.000000 0.000000
# 3 0.005314 -0.004434 0.019792 0.000000 0.000000 0.000000
# 4 0.000000 0.000000 0.000000 0.048997 0.000000 0.000000
# 5 0.000000 0.000000 0.000000 0.000000 0.037809 0.000000
# 6 0.000000 0.000000 0.000000 0.000000 0.000000 0.084318
#
#
# Mechanical properties :
#
#
# Convention : Reuss Voigt Hill
#
# Bulk Modulus (GPa) = 13.85892 27.28397 20.57144
# Shear Modulus (GPa) = 18.16537 23.23806 20.70172
#
# Velocity S-wave (km/s) = 3.13005 3.54021 3.34143
# Velocity P-wave (km/s) = 4.53184 5.60589 5.09724
#
# Compressibility (1/GPa) = 0.07215571
#
# Stress axis : x y z
#
# Youngs Moduli (GPa) = 21.40121 104.20929 50.52490
#
# Poissons Ratio (x) = 0.29801 -0.26849
# Poissons Ratio (y) = 0.06120 0.22401
# Poissons Ratio (z) = -0.11373 0.46204
#
# Static dielectric constant tensor:
#      x y z
#    x 2.980770 0.000000 0.000000 
#    y 0.000000 3.423540 0.000000 
#    z 0.000000 0.000000 3.549940 
# 
# 
# High freq. dielectric constant tensor:
#      x y z
#    x 1.683730 0.000000 0.000000 
#    y 0.000000 1.709200 0.000000 
#    z 0.000000 0.000000 1.737790 
# 
# From -- ./inp_files/28858.got.cif
#   From: 2010.03.12/outbox.cif.g09.slc.cpg/sg62_15_cif.got.tgz:28858.got - 2010.04.10 19:12:36.
