data_PCOD8250780
_publ_section_title
;
Structure prediction by ZEFSAII (Michael W. Deem and Ramdas Pophale) SiO2 
 PCOD8250780
Probable space group: P N M A
;
_chemical_formula_sum "Si O2"
_cell_formula_units_Z 64
_cell_length_a 18.275170
_cell_length_b 8.956733
_cell_length_c 25.833833
_cell_angle_alpha 90.000000
_cell_angle_beta 90.000000
_cell_angle_gamma 90.000000
_cell_volume 4228.632092
_symmetry_space_group_name_H-M "P N M A"
_symmetry_group_IT_number 62
_symmetry_cell_setting 'orthorhombic'
loop_
_space_group_symop_operation_xyz
x,y,z
1/2-x,-y,1/2+z
1/2+x,1/2-y,1/2-z
-x,1/2+y,-z
-x,-y,-z
1/2+x,y,1/2-z
1/2-x,1/2+y,1/2+z
x,1/2-y,z
loop_
_atom_site_type_symbol
_atom_site_label
_atom_site_fract_x
_atom_site_fract_y
_atom_site_fract_z
Si Si1 0.698248 0.922692 0.296054
Si Si2 0.710163 0.922948 0.709682
Si Si3 0.340039 0.917792 0.857456
Si Si4 0.072008 0.422939 0.252268
Si Si5 0.427511 0.075711 0.940509
Si Si6 0.417359 0.925690 0.246851
Si Si7 0.576774 0.924859 0.941747
Si Si8 0.165577 0.421742 0.642121
O O1 0.676081 0.750000 0.290409
O O2 0.747664 0.948759 0.347436
O O3 0.750014 0.967265 0.249034
O O4 0.624821 0.022829 0.294795
O O5 0.712974 0.750000 0.728239
O O6 0.753364 0.937616 0.655092
O O7 0.626911 0.984272 0.707923
O O8 0.356086 0.750000 0.876350
O O9 0.386847 0.952316 0.806146
O O10 0.360988 0.029022 0.903477
O O11 0.052603 0.250000 0.244141
O O12 0.000386 0.522760 0.251198
O O13 0.440764 0.250000 0.936053
O O14 0.501574 0.996808 0.921375
O O15 0.407964 0.027696 0.999012
O O16 0.412087 0.750000 0.257523
O O17 0.383587 0.969950 0.191251
O O18 0.568636 0.750000 0.935562
O O19 0.644197 0.980359 0.907329
O O20 0.150284 0.250000 0.628999
#
# Coordination Sequence:
#
# PCOD8250780 Si02
#       8
#     8   8   8   8   8   8   8   8
#     4   9  17  29  43  60  82 108 139 172 207 247
#     4   9  17  29  43  60  82 108 139 172 207 247
#     4   9  18  30  44  61  81 109 142 173 207 246
#     4  10  19  29  42  62  86 112 142 173 207 246
#     4  10  20  31  43  60  82 109 141 176 211 245
#     4  10  19  29  42  62  86 112 142 173 207 246
#     4  10  20  31  43  60  82 109 141 176 211 245
#     4   9  18  30  44  61  81 109 142 173 207 246
#
# _framework density 15.134919
#
# number of rings (size 3 to 8) (size 9 to 14) (size 15 to 20)
#    0.000    2.500    0.000    4.500    0.000    9.500 
#    0.000    0.000    0.000    0.000    0.000    0.000 
#    0.000    1.000    0.000    3.250    0.000    4.750 
#
# Total GULP energy -793369.229281 kJ/mol
# GULP energy per Si atom -12396.394208 kJ/mol
# Density = 1.510047 g / cm^3
# Si number density = 15.134919 Si / 1000 Ang^3
#
#
#
# Elastic Constant Matrix: (Units=GPa)
#
#
# Indices 1 2 3 4 5 6 
#
# 1 73.2761 28.6486 34.1613 0.0000 0.0000 0.0000
# 2 28.6486 62.9157 34.6792 0.0000 0.0000 0.0000
# 3 34.1613 34.6792 55.9029 0.0000 0.0000 0.0000
# 4 0.0000 0.0000 0.0000 23.0178 0.0000 0.0000
# 5 0.0000 0.0000 0.0000 0.0000 21.6295 0.0000
# 6 0.0000 0.0000 0.0000 0.0000 0.0000 29.7685
#
#
#
# Elastic Compliance Matrix: (Units=1/GPa)
#
#
# Indices 1 2 3 4 5 6 
#
# 1 0.019586 -0.003527 -0.009780 0.000000 0.000000 0.000000
# 2 -0.003527 0.024788 -0.013222 0.000000 0.000000 0.000000
# 3 -0.009780 -0.013222 0.032067 0.000000 0.000000 0.000000
# 4 0.000000 0.000000 0.000000 0.043445 0.000000 0.000000
# 5 0.000000 0.000000 0.000000 0.000000 0.046233 0.000000
# 6 0.000000 0.000000 0.000000 0.000000 0.000000 0.033593
#
#
# Mechanical properties :
#
#
# Convention : Reuss Voigt Hill
#
# Bulk Modulus (GPa) = 42.76820 43.00809 42.88814
# Shear Modulus (GPa) = 19.18912 21.19019 20.18966
#
# Velocity S-wave (km/s) = 3.56458 3.74583 3.65633
# Velocity P-wave (km/s) = 6.72763 6.86924 6.79880
#
# Compressibility (1/GPa) = 0.02338186
#
# Stress axis : x y z
#
# Youngs Moduli (GPa) = 51.05775 40.34143 31.18486
#
# Poissons Ratio (x) = 0.14230 0.30499
# Poissons Ratio (y) = 0.18010 0.41232
# Poissons Ratio (z) = 0.49936 0.53339
#
# Static dielectric constant tensor:
#      x y z
#    x 3.067130 0.000000 0.000000 
#    y 0.000000 3.000020 0.000000 
#    z 0.000000 0.000000 2.732520 
# 
# 
# High freq. dielectric constant tensor:
#      x y z
#    x 1.571550 0.000000 0.000000 
#    y 0.000000 1.597460 0.000000 
#    z 0.000000 0.000000 1.537310 
# 
# From -- ./inp_files/22655.got.cif
#   From: 2010.03.12/outbox.cif.g09.slc.cpg/sg62_12_cif.got.tgz:22655.got - 2010.04.10 19:12:36.
