data_PCOD8250269
_publ_section_title
;
Structure prediction by ZEFSAII (Michael W. Deem and Ramdas Pophale) SiO2 
 PCOD8250269
Probable space group: P N M A
;
_chemical_formula_sum "Si O2"
_cell_formula_units_Z 64
_cell_length_a 9.423287
_cell_length_b 17.322683
_cell_length_c 24.740901
_cell_angle_alpha 90.000000
_cell_angle_beta 90.000000
_cell_angle_gamma 90.000000
_cell_volume 4038.620895
_symmetry_space_group_name_H-M "P N M A"
_symmetry_group_IT_number 62
_symmetry_cell_setting 'orthorhombic'
loop_
_space_group_symop_operation_xyz
x,y,z
1/2-x,-y,1/2+z
1/2+x,1/2-y,1/2-z
-x,1/2+y,-z
-x,-y,-z
1/2+x,y,1/2-z
1/2-x,1/2+y,1/2+z
x,1/2-y,z
loop_
_atom_site_type_symbol
_atom_site_label
_atom_site_fract_x
_atom_site_fract_y
_atom_site_fract_z
Si Si1 0.650740 0.160950 0.295928
Si Si2 0.940033 0.663325 0.005348
Si Si3 0.189066 0.014448 0.552633
Si Si4 0.821067 0.523920 0.060680
Si Si5 0.721534 0.336866 0.994535
Si Si6 0.582651 0.427517 0.399737
Si Si7 0.079002 0.070421 0.413748
Si Si8 0.479291 0.160432 0.190268
O O1 0.621155 0.250000 0.308281
O O2 0.570271 0.113969 0.342422
O O3 0.581419 0.137141 0.239306
O O4 0.817637 0.143074 0.293409
O O5 0.884573 0.750000 0.014138
O O6 0.870100 0.612848 0.054274
O O7 0.108968 0.659563 0.006443
O O8 0.885525 0.634884 0.946823
O O9 0.288293 0.006435 0.499519
O O10 0.284217 0.986950 0.603116
O O11 0.049072 0.962271 0.549654
O O12 0.158012 0.106934 0.552854
O O13 0.681216 0.504638 0.096789
O O14 0.942333 0.474381 0.088415
O O15 0.668002 0.250000 0.983482
O O16 0.662755 0.363743 0.053108
O O17 0.022459 0.105704 0.358728
O O18 0.498871 0.250000 0.173952
#
# Coordination Sequence:
#
# PCOD8250269 Si02
#       8
#     8   8   8   8   8   8   8   8
#     4  10  22  36  51  71  99 131 167 211 249 286
#     4  10  18  29  46  71 100 129 166 200 233 285
#     4  10  18  33  47  68  99 130 163 206 241 288
#     4  10  19  31  48  71  96 131 171 201 239 290
#     4  10  18  29  46  71  99 130 166 198 236 290
#     4  11  17  33  50  69  97 133 171 196 241 293
#     4  11  20  33  50  69  99 135 166 202 248 292
#     4  10  22  38  51  72 100 130 169 210 250 289
#
# _framework density 15.846994
#
# number of rings (size 3 to 8) (size 9 to 14) (size 15 to 20)
#    0.000    1.750    5.000    3.000    1.750    0.000 
#    0.000    3.750    0.000    0.000    0.000    0.000 
#    0.000    6.000    0.000    0.000    0.000    0.000 
#
# Total GULP energy -793061.748727 kJ/mol
# GULP energy per Si atom -12391.589824 kJ/mol
# Density = 1.581093 g / cm^3
# Si number density = 15.846994 Si / 1000 Ang^3
#
#
#
# Elastic Constant Matrix: (Units=GPa)
#
#
# Indices 1 2 3 4 5 6 
#
# 1 80.3050 37.2598 35.3720 0.0000 0.0000 0.0000
# 2 37.2598 106.9306 53.1919 0.0000 0.0000 0.0000
# 3 35.3720 53.1919 76.4894 0.0000 0.0000 0.0000
# 4 0.0000 0.0000 0.0000 24.3738 0.0000 0.0000
# 5 0.0000 0.0000 0.0000 0.0000 25.8642 0.0000
# 6 0.0000 0.0000 0.0000 0.0000 0.0000 21.2498
#
#
#
# Elastic Compliance Matrix: (Units=1/GPa)
#
#
# Indices 1 2 3 4 5 6 
#
# 1 0.016219 -0.002936 -0.005459 0.000000 0.000000 0.000000
# 2 -0.002936 0.014830 -0.008955 0.000000 0.000000 0.000000
# 3 -0.005459 -0.008955 0.021825 0.000000 0.000000 0.000000
# 4 0.000000 0.000000 0.000000 0.041028 0.000000 0.000000
# 5 0.000000 0.000000 0.000000 0.000000 0.038663 0.000000
# 6 0.000000 0.000000 0.000000 0.000000 0.000000 0.047059
#
#
# Mechanical properties :
#
#
# Convention : Reuss Voigt Hill
#
# Bulk Modulus (GPa) = 55.02131 57.26361 56.14246
# Shear Modulus (GPa) = 22.68789 23.49098 23.08944
#
# Velocity S-wave (km/s) = 3.78787 3.85432 3.82124
# Velocity P-wave (km/s) = 7.34345 7.48475 7.41444
#
# Compressibility (1/GPa) = 0.01817478
#
# Stress axis : x y z
#
# Youngs Moduli (GPa) = 61.65520 67.43315 45.81841
#
# Poissons Ratio (x) = 0.19800 0.25010
# Poissons Ratio (y) = 0.18103 0.41030
# Poissons Ratio (z) = 0.33655 0.60385
#
# Static dielectric constant tensor:
#      x y z
#    x 3.200870 0.000000 0.000000 
#    y 0.000000 3.379730 0.000000 
#    z 0.000000 0.000000 2.749610 
# 
# 
# High freq. dielectric constant tensor:
#      x y z
#    x 1.626060 0.000000 0.000000 
#    y 0.000000 1.604110 0.000000 
#    z 0.000000 0.000000 1.565180 
# 
# From -- ./inp_files/29055.got.cif
#   From: 2010.03.12/outbox.cif.g09.slc.cpg/sg62_15_cif.got.tgz:29055.got - 2010.04.10 19:12:36.
