data_PCOD8250626
_publ_section_title
;
Structure prediction by ZEFSAII (Michael W. Deem and Ramdas Pophale) SiO2 
 PCOD8250626
Probable space group: P N M A
;
_chemical_formula_sum "Si O2"
_cell_formula_units_Z 64
_cell_length_a 24.025134
_cell_length_b 9.043151
_cell_length_c 15.488791
_cell_angle_alpha 90.000000
_cell_angle_beta 90.000000
_cell_angle_gamma 90.000000
_cell_volume 3365.139876
_symmetry_space_group_name_H-M "P N M A"
_symmetry_group_IT_number 62
_symmetry_cell_setting 'orthorhombic'
loop_
_space_group_symop_operation_xyz
x,y,z
1/2-x,-y,1/2+z
1/2+x,1/2-y,1/2-z
-x,1/2+y,-z
-x,-y,-z
1/2+x,y,1/2-z
1/2-x,1/2+y,1/2+z
x,1/2-y,z
loop_
_atom_site_type_symbol
_atom_site_label
_atom_site_fract_x
_atom_site_fract_y
_atom_site_fract_z
Si Si1 0.933107 0.924960 0.749762
Si Si2 0.637770 0.923389 0.102239
Si Si3 0.867198 0.423758 0.409557
Si Si4 0.253096 0.923530 0.847546
Si Si5 0.133410 0.075252 0.081279
Si Si6 0.749811 0.074471 0.349565
Si Si7 0.130159 0.576509 0.907038
Si Si8 0.559095 0.926061 0.754620
O O1 0.929526 0.750000 0.737421
O O2 0.906024 0.973640 0.839982
O O3 0.996106 0.984717 0.748495
O O4 0.900510 0.996554 0.671006
O O5 0.638799 0.750000 0.121480
O O6 0.700458 0.984152 0.102329
O O7 0.613231 0.958074 0.006881
O O8 0.862448 0.250000 0.393136
O O9 0.805806 0.492152 0.392019
O O10 0.911705 0.489485 0.341458
O O11 0.266523 0.750000 0.854354
O O12 0.253438 0.977715 0.749031
O O13 0.194055 0.963590 0.888948
O O14 0.132516 0.250000 0.069288
O O15 0.195716 0.014821 0.099845
O O16 0.110124 0.001385 0.994600
O O17 0.749945 0.250000 0.353011
O O18 0.121470 0.750000 0.917643
O O19 0.092426 0.515214 0.828787
O O20 0.559879 0.750000 0.755072
#
# Coordination Sequence:
#
# PCOD8250626 Si02
#       8
#     8   8   8   8   8   8   8   8
#     4  10  21  38  58  77 103 146 191 224 261 319
#     4  11  22  34  54  83 113 141 175 223 276 321
#     4   9  17  31  53  80 106 138 176 217 267 321
#     4  10  18  33  57  81 108 142 178 216 264 325
#     4  10  20  34  53  77 108 145 180 214 267 331
#     4   9  15  29  53  76 103 140 176 208 255 323
#     4  10  20  34  57  85 109 136 178 228 270 312
#     4   9  18  35  57  79 104 140 188 228 261 316
#
# _framework density 19.018525
#
# number of rings (size 3 to 8) (size 9 to 14) (size 15 to 20)
#    0.000    2.250    2.500    1.125    0.000    3.000 
#    0.000    0.625    0.000    3.000    0.000    0.000 
#    0.000    0.000    0.000    0.000    0.000    0.000 
#
# Total GULP energy -793587.934081 kJ/mol
# GULP energy per Si atom -12399.811470 kJ/mol
# Density = 1.897524 g / cm^3
# Si number density = 19.018525 Si / 1000 Ang^3
#
#
#
# Elastic Constant Matrix: (Units=GPa)
#
#
# Indices 1 2 3 4 5 6 
#
# 1 147.4880 30.0376 75.9488 0.0000 0.0000 0.0000
# 2 30.0376 23.6123 35.2543 0.0000 0.0000 0.0000
# 3 75.9488 35.2543 154.6355 0.0000 0.0000 0.0000
# 4 0.0000 0.0000 0.0000 24.3644 0.0000 0.0000
# 5 0.0000 0.0000 0.0000 0.0000 12.7485 0.0000
# 6 0.0000 0.0000 0.0000 0.0000 0.0000 9.8307
#
#
#
# Elastic Compliance Matrix: (Units=1/GPa)
#
#
# Indices 1 2 3 4 5 6 
#
# 1 0.010021 -0.008186 -0.003055 0.000000 0.000000 0.000000
# 2 -0.008186 0.070892 -0.012142 0.000000 0.000000 0.000000
# 3 -0.003055 -0.012142 0.010736 0.000000 0.000000 0.000000
# 4 0.000000 0.000000 0.000000 0.041044 0.000000 0.000000
# 5 0.000000 0.000000 0.000000 0.000000 0.078441 0.000000
# 6 0.000000 0.000000 0.000000 0.000000 0.000000 0.101722
#
#
# Mechanical properties :
#
#
# Convention : Reuss Voigt Hill
#
# Bulk Modulus (GPa) = 22.28033 67.57969 44.93001
# Shear Modulus (GPa) = 13.34824 21.68839 17.51831
#
# Velocity S-wave (km/s) = 2.65213 3.38062 3.03829
# Velocity P-wave (km/s) = 4.59553 7.13084 5.99866
#
# Compressibility (1/GPa) = 0.04488264
#
# Stress axis : x y z
#
# Youngs Moduli (GPa) = 99.79336 14.10595 93.14747
#
# Poissons Ratio (x) = 0.11546 0.28461
# Poissons Ratio (y) = 0.81686 1.13099
# Poissons Ratio (z) = 0.30492 0.17127
#
# Static dielectric constant tensor:
#      x y z
#    x 3.697080 0.000000 0.000000 
#    y 0.000000 2.994660 0.000000 
#    z 0.000000 0.000000 3.610550 
# 
# 
# High freq. dielectric constant tensor:
#      x y z
#    x 1.742380 0.000000 0.000000 
#    y 0.000000 1.690850 0.000000 
#    z 0.000000 0.000000 1.755710 
# 
# From -- ./inp_files/20944.got.cif
#   From: 2010.03.12/outbox.cif.g09.slc.cpg/sg62_11_cif.got.tgz:20944.got - 2010.04.10 19:12:36.
