data_PCOD8250467
_publ_section_title
;
Structure prediction by ZEFSAII (Michael W. Deem and Ramdas Pophale) SiO2 
 PCOD8250467
Probable space group: P N M A
;
_chemical_formula_sum "Si O2"
_cell_formula_units_Z 40
_cell_length_a 16.631227
_cell_length_b 8.916568
_cell_length_c 16.538473
_cell_angle_alpha 90.000000
_cell_angle_beta 90.000000
_cell_angle_gamma 90.000000
_cell_volume 2452.547491
_symmetry_space_group_name_H-M "P N M A"
_symmetry_group_IT_number 62
_symmetry_cell_setting 'orthorhombic'
loop_
_space_group_symop_operation_xyz
x,y,z
1/2-x,-y,1/2+z
1/2+x,1/2-y,1/2-z
-x,1/2+y,-z
-x,-y,-z
1/2+x,y,1/2-z
1/2-x,1/2+y,1/2+z
x,1/2-y,z
loop_
_atom_site_type_symbol
_atom_site_label
_atom_site_fract_x
_atom_site_fract_y
_atom_site_fract_z
Si Si1 0.385937 0.925918 0.944929
Si Si2 0.279957 0.579903 0.410638
Si Si3 0.958284 0.574306 0.386481
Si Si4 0.064299 0.927064 0.941740
Si Si5 0.405624 0.919375 0.287433
O O1 0.378503 0.750000 0.932827
O O2 0.304848 0.000209 0.914452
O O3 0.458210 0.985790 0.889786
O O4 0.401419 0.970166 0.038425
O O5 0.272161 0.750000 0.442561
O O6 0.346870 0.492015 0.464663
O O7 0.312072 0.577062 0.317110
O O8 0.977922 0.750000 0.388866
O O9 0.912529 0.524452 0.304714
O O10 0.063273 0.750000 0.951625
O O11 0.043243 0.975021 0.848815
O O12 0.000000 0.000000 0.000000
O O13 0.439697 0.750000 0.294397
#
# Coordination Sequence:
#
# PCOD8250467 Si02
#       5
#     8   8   8   8   8
#     4  10  19  31  51  78 104 135 174 213 256 307
#     4   9  18  33  52  72  99 135 169 211 258 305
#     4   9  18  34  53  73 102 139 174 209 255 308
#     4  10  18  31  52  76 102 133 167 208 256 307
#     4   8  17  33  52  72  97 133 171 209 253 304
#
# _framework density 16.309571999999999
#
# number of rings (size 3 to 8) (size 9 to 14) (size 15 to 20)
#    1.200    1.600    0.000    2.400    0.000    1.600 
#    0.000    2.000    0.000    9.600    0.000    0.000 
#    0.000    0.000    0.000    0.000    0.000    0.000 
#
# Total GULP energy -495594.064226 kJ/mol
# GULP energy per Si atom -12389.851606 kJ/mol
# Density = 1.627245 g / cm^3
# Si number density = 16.309572 Si / 1000 Ang^3
#
#
#
# Elastic Constant Matrix: (Units=GPa)
#
#
# Indices 1 2 3 4 5 6 
#
# 1 114.8317 60.0829 57.5171 0.0000 0.0000 0.0000
# 2 60.0829 97.9815 39.5123 0.0000 0.0000 0.0000
# 3 57.5171 39.5123 96.3388 0.0000 0.0000 0.0000
# 4 0.0000 0.0000 0.0000 22.9347 0.0000 0.0000
# 5 0.0000 0.0000 0.0000 0.0000 18.1900 0.0000
# 6 0.0000 0.0000 0.0000 0.0000 0.0000 32.7827
#
#
#
# Elastic Compliance Matrix: (Units=1/GPa)
#
#
# Indices 1 2 3 4 5 6 
#
# 1 0.015575 -0.006950 -0.006448 0.000000 0.000000 0.000000
# 2 -0.006950 0.015330 -0.002138 0.000000 0.000000 0.000000
# 3 -0.006448 -0.002138 0.015106 0.000000 0.000000 0.000000
# 4 0.000000 0.000000 0.000000 0.043602 0.000000 0.000000
# 5 0.000000 0.000000 0.000000 0.000000 0.054975 0.000000
# 6 0.000000 0.000000 0.000000 0.000000 0.000000 0.030504
#
#
# Mechanical properties :
#
#
# Convention : Reuss Voigt Hill
#
# Bulk Modulus (GPa) = 66.93926 69.26408 68.10167
# Shear Modulus (GPa) = 23.68049 24.91746 24.29897
#
# Velocity S-wave (km/s) = 3.81456 3.91292 3.86406
# Velocity P-wave (km/s) = 7.78031 7.93569 7.85838
#
# Compressibility (1/GPa) = 0.01493892
#
# Stress axis : x y z
#
# Youngs Moduli (GPa) = 64.20726 65.23113 66.19669
#
# Poissons Ratio (x) = 0.45337 0.42683
# Poissons Ratio (y) = 0.44625 0.14153
# Poissons Ratio (z) = 0.41400 0.13946
#
# Static dielectric constant tensor:
#      x y z
#    x 2.904520 0.000000 0.000000 
#    y 0.000000 3.195240 0.000000 
#    z 0.000000 0.000000 3.038820 
# 
# 
# High freq. dielectric constant tensor:
#      x y z
#    x 1.611850 0.000000 0.000000 
#    y 0.000000 1.639380 0.000000 
#    z 0.000000 0.000000 1.610560 
# 
# From -- ./inp_files/18619.got.cif
#   From: 2010.03.12/outbox.cif.g09.slc.cpg/sg62_10_cif.got.tgz:18619.got - 2010.04.10 19:12:36.
