data_PCOD8250317
_publ_section_title
;
Structure prediction by ZEFSAII (Michael W. Deem and Ramdas Pophale) SiO2 
 PCOD8250317
Probable space group: P N M A
;
_chemical_formula_sum "Si O2"
_cell_formula_units_Z 64
_cell_length_a 33.089117
_cell_length_b 9.101902
_cell_length_c 11.897180
_cell_angle_alpha 90.000000
_cell_angle_beta 90.000000
_cell_angle_gamma 90.000000
_cell_volume 3583.120102
_symmetry_space_group_name_H-M "P N M A"
_symmetry_group_IT_number 62
_symmetry_cell_setting 'orthorhombic'
loop_
_space_group_symop_operation_xyz
x,y,z
1/2-x,-y,1/2+z
1/2+x,1/2-y,1/2-z
-x,1/2+y,-z
-x,-y,-z
1/2+x,y,1/2-z
1/2-x,1/2+y,1/2+z
x,1/2-y,z
loop_
_atom_site_type_symbol
_atom_site_label
_atom_site_fract_x
_atom_site_fract_y
_atom_site_fract_z
Si Si1 0.893278 0.917782 0.725103
Si Si2 0.179491 0.078662 0.120729
Si Si3 0.319411 0.581258 0.362945
Si Si4 0.954183 0.079219 0.389973
Si Si5 0.669935 0.077930 0.033318
Si Si6 0.864856 0.076791 0.322467
Si Si7 0.772064 0.080040 0.694639
Si Si8 0.032664 0.578674 0.352966
O O1 0.907547 0.750000 0.726354
O O2 0.865335 0.954575 0.832189
O O3 0.868476 0.952910 0.612112
O O4 0.933200 0.017245 0.730883
O O5 0.190134 0.250000 0.138046
O O6 0.212666 0.985321 0.187647
O O7 0.181312 0.030333 0.991992
O O8 0.333648 0.750000 0.354037
O O9 0.351347 0.477723 0.299925
O O10 0.275793 0.559713 0.307772
O O11 0.963060 0.250000 0.374162
O O12 0.911546 0.032564 0.337474
O O13 0.954161 0.035968 0.520971
O O14 0.989280 0.991933 0.324677
O O15 0.678073 0.250000 0.017217
O O16 0.709315 0.006038 0.088983
O O17 0.662771 0.004755 0.913387
O O18 0.858593 0.250000 0.335749
O O19 0.784726 0.250000 0.685612
O O20 0.029002 0.750000 0.333382
#
# Coordination Sequence:
#
# PCOD8250317 Si02
#       8
#     8   8   8   8   8   8   8   8
#     4   9  17  31  53  77 103 140 177 216 266 317
#     4   9  20  39  57  76 106 145 184 224 269 322
#     4  10  23  40  56  78 108 144 184 224 272 325
#     4   9  19  33  48  74 112 144 175 216 266 323
#     4  10  20  34  54  79 109 144 181 218 268 327
#     4  11  22  36  55  80 111 146 181 224 274 322
#     4  10  21  36  56  82 108 138 179 229 275 316
#     4  10  18  29  50  79 109 141 174 216 267 319
#
# _framework density 17.861529000000001
#
# number of rings (size 3 to 8) (size 9 to 14) (size 15 to 20)
#    0.000    2.250    1.250    2.250    1.750    5.000 
#    0.000    0.000    0.000    0.750    0.000    0.000 
#    0.000    0.000    0.000    0.000    0.000    0.000 
#
# Total GULP energy -793829.191300 kJ/mol
# GULP energy per Si atom -12403.581114 kJ/mol
# Density = 1.782087 g / cm^3
# Si number density = 17.861529 Si / 1000 Ang^3
#
#
#
# Elastic Constant Matrix: (Units=GPa)
#
#
# Indices 1 2 3 4 5 6 
#
# 1 96.4854 50.0600 43.9926 0.0000 0.0000 0.0000
# 2 50.0600 80.5082 39.4885 0.0000 0.0000 0.0000
# 3 43.9926 39.4885 96.8223 0.0000 0.0000 0.0000
# 4 0.0000 0.0000 0.0000 28.2207 0.0000 0.0000
# 5 0.0000 0.0000 0.0000 0.0000 21.4441 0.0000
# 6 0.0000 0.0000 0.0000 0.0000 0.0000 31.3356
#
#
#
# Elastic Compliance Matrix: (Units=1/GPa)
#
#
# Indices 1 2 3 4 5 6 
#
# 1 0.016535 -0.008246 -0.004150 0.000000 0.000000 0.000000
# 2 -0.008246 0.019639 -0.004263 0.000000 0.000000 0.000000
# 3 -0.004150 -0.004263 0.013952 0.000000 0.000000 0.000000
# 4 0.000000 0.000000 0.000000 0.035435 0.000000 0.000000
# 5 0.000000 0.000000 0.000000 0.000000 0.046633 0.000000
# 6 0.000000 0.000000 0.000000 0.000000 0.000000 0.031913
#
#
# Mechanical properties :
#
#
# Convention : Reuss Voigt Hill
#
# Bulk Modulus (GPa) = 59.49232 60.09981 59.79606
# Shear Modulus (GPa) = 24.62723 25.55172 25.08947
#
# Velocity S-wave (km/s) = 3.71723 3.78636 3.75195
# Velocity P-wave (km/s) = 7.19747 7.26884 7.23324
#
# Compressibility (1/GPa) = 0.01680889
#
# Stress axis : x y z
#
# Youngs Moduli (GPa) = 60.47953 50.91800 71.67213
#
# Poissons Ratio (x) = 0.41986 0.29742
# Poissons Ratio (y) = 0.49870 0.30556
# Poissons Ratio (z) = 0.25097 0.21708
#
# Static dielectric constant tensor:
#      x y z
#    x 3.280310 0.000000 0.000000 
#    y 0.000000 3.311730 0.000000 
#    z 0.000000 0.000000 3.148770 
# 
# 
# High freq. dielectric constant tensor:
#      x y z
#    x 1.691250 0.000000 0.000000 
#    y 0.000000 1.698050 0.000000 
#    z 0.000000 0.000000 1.666780 
# 
# From -- ./inp_files/15863.got.cif
#   From: 2010.03.12/outbox.cif.g09.slc.cpg/sg62_8_cif.got.tgz:15863.got - 2010.04.10 19:12:36.
