data_PCOD8250982
_publ_section_title
;
Structure prediction by ZEFSAII (Michael W. Deem and Ramdas Pophale) SiO2 
 PCOD8250982
Probable space group: P N M A
;
_chemical_formula_sum "Si O2"
_cell_formula_units_Z 64
_cell_length_a 20.013540
_cell_length_b 9.360770
_cell_length_c 18.795976
_cell_angle_alpha 90.000000
_cell_angle_beta 90.000000
_cell_angle_gamma 90.000000
_cell_volume 3521.278458
_symmetry_space_group_name_H-M "P N M A"
_symmetry_group_IT_number 62
_symmetry_cell_setting 'orthorhombic'
loop_
_space_group_symop_operation_xyz
x,y,z
1/2-x,-y,1/2+z
1/2+x,1/2-y,1/2-z
-x,1/2+y,-z
-x,-y,-z
1/2+x,y,1/2-z
1/2-x,1/2+y,1/2+z
x,1/2-y,z
loop_
_atom_site_type_symbol
_atom_site_label
_atom_site_fract_x
_atom_site_fract_y
_atom_site_fract_z
Si Si1 0.972162 0.080548 0.210795
Si Si2 0.949070 0.080174 0.050723
Si Si3 0.409122 0.579954 0.805380
Si Si4 0.202338 0.919059 0.957985
Si Si5 0.239393 0.080049 0.310775
Si Si6 0.152586 0.919216 0.698216
Si Si7 0.818813 0.913248 0.442952
Si Si8 0.055204 0.087289 0.459465
O O1 0.967913 0.250000 0.210162
O O2 0.962879 0.024848 0.130751
O O3 0.913595 0.023160 0.262141
O O4 0.043396 0.026228 0.241259
O O5 0.959148 0.250000 0.043928
O O6 0.874015 0.033032 0.029175
O O7 0.000000 0.000000 0.000000
O O8 0.405783 0.750000 0.806820
O O9 0.334589 0.517700 0.795875
O O10 0.439747 0.525711 0.879736
O O11 0.205960 0.750000 0.950804
O O12 0.248248 0.968565 0.024373
O O13 0.230323 0.984203 0.883915
O O14 0.237838 0.250000 0.316612
O O15 0.284420 0.031422 0.244830
O O16 0.149982 0.750000 0.687861
O O17 0.158341 0.988810 0.621425
O O18 0.812835 0.750000 0.416540
O O19 0.872402 0.926836 0.505575
O O20 0.030704 0.250000 0.458684
O O21 0.000000 0.000000 0.500000
#
# Coordination Sequence:
#
# PCOD8250982 Si02
#       8
#     8   8   8   8   8   8   8   8
#     4   9  17  30  49  73 103 135 168 211 259 304
#     4  10  20  35  56  79 105 138 176 216 262 312
#     4   9  16  27  47  75 100 126 167 214 250 291
#     4   9  16  32  54  72  98 139 180 212 248 311
#     4   9  15  28  51  73  94 130 177 213 245 294
#     4  10  19  32  53  79 103 131 171 219 264 302
#     4  10  20  33  51  76 105 138 174 209 256 319
#     4  10  19  31  49  73 103 136 170 209 254 306
#
# _framework density 18.175217
#
# number of rings (size 3 to 8) (size 9 to 14) (size 15 to 20)
#    0.000    2.500    2.500    0.750    0.000    2.500 
#    0.000    2.500    0.000    2.250    0.000    0.000 
#    0.000    0.000    0.000    0.000    0.000    0.000 
#
# Total GULP energy -793438.103541 kJ/mol
# GULP energy per Si atom -12397.470368 kJ/mol
# Density = 1.813385 g / cm^3
# Si number density = 18.175217 Si / 1000 Ang^3
#
#
#
# Elastic Constant Matrix: (Units=GPa)
#
#
# Indices 1 2 3 4 5 6 
#
# 1 141.9751 21.2681 52.0012 0.0000 0.0000 0.0000
# 2 21.2681 23.0835 23.1980 0.0000 0.0000 0.0000
# 3 52.0012 23.1980 111.3992 0.0000 0.0000 0.0000
# 4 0.0000 0.0000 0.0000 22.5561 0.0000 0.0000
# 5 0.0000 0.0000 0.0000 0.0000 37.4928 0.0000
# 6 0.0000 0.0000 0.0000 0.0000 0.0000 19.5657
#
#
#
# Elastic Compliance Matrix: (Units=1/GPa)
#
#
# Indices 1 2 3 4 5 6 
#
# 1 0.008950 -0.005119 -0.003112 0.000000 0.000000 0.000000
# 2 -0.005119 0.057714 -0.009629 0.000000 0.000000 0.000000
# 3 -0.003112 -0.009629 0.012435 0.000000 0.000000 0.000000
# 4 0.000000 0.000000 0.000000 0.044334 0.000000 0.000000
# 5 0.000000 0.000000 0.000000 0.000000 0.026672 0.000000
# 6 0.000000 0.000000 0.000000 0.000000 0.000000 0.051110
#
#
# Mechanical properties :
#
#
# Convention : Reuss Voigt Hill
#
# Bulk Modulus (GPa) = 23.05263 52.15471 37.60367
# Shear Modulus (GPa) = 19.88916 27.92231 23.90573
#
# Velocity S-wave (km/s) = 3.31161 3.92380 3.63063
# Velocity P-wave (km/s) = 5.22814 7.02040 6.18949
#
# Compressibility (1/GPa) = 0.04337900
#
# Stress axis : x y z
#
# Youngs Moduli (GPa) = 111.73042 17.32685 80.42112
#
# Poissons Ratio (x) = 0.08869 0.25027
# Poissons Ratio (y) = 0.57193 0.77437
# Poissons Ratio (z) = 0.34770 0.16684
#
# Static dielectric constant tensor:
#      x y z
#    x 3.810130 0.000000 0.000000 
#    y 0.000000 2.807000 0.000000 
#    z 0.000000 0.000000 3.417030 
# 
# 
# High freq. dielectric constant tensor:
#      x y z
#    x 1.723200 0.000000 0.000000 
#    y 0.000000 1.638910 0.000000 
#    z 0.000000 0.000000 1.711180 
# 
# From -- ./inp_files/19892.got.cif
#   From: 2010.03.12/outbox.cif.g09.slc.cpg/sg62_10_cif.got.tgz:19892.got - 2010.04.10 19:12:36.
