data_PCOD8250523
_publ_section_title
;
Structure prediction by ZEFSAII (Michael W. Deem and Ramdas Pophale) SiO2 
 PCOD8250523
Probable space group: P N M A
;
_chemical_formula_sum "Si O2"
_cell_formula_units_Z 64
_cell_length_a 30.251103
_cell_length_b 8.851879
_cell_length_c 14.558945
_cell_angle_alpha 90.000000
_cell_angle_beta 90.000000
_cell_angle_gamma 90.000000
_cell_volume 3898.581238
_symmetry_space_group_name_H-M "P N M A"
_symmetry_group_IT_number 62
_symmetry_cell_setting 'orthorhombic'
loop_
_space_group_symop_operation_xyz
x,y,z
1/2-x,-y,1/2+z
1/2+x,1/2-y,1/2-z
-x,1/2+y,-z
-x,-y,-z
1/2+x,y,1/2-z
1/2-x,1/2+y,1/2+z
x,1/2-y,z
loop_
_atom_site_type_symbol
_atom_site_label
_atom_site_fract_x
_atom_site_fract_y
_atom_site_fract_z
Si Si1 0.292623 0.928467 0.308263
Si Si2 0.870136 0.928945 0.325104
Si Si3 0.724924 0.571978 0.505521
Si Si4 0.295643 0.071637 0.700931
Si Si5 0.628932 0.428891 0.186514
Si Si6 0.453434 0.427975 0.893143
Si Si7 0.177093 0.428653 0.495209
Si Si8 0.046391 0.927853 0.603902
O O1 0.289139 0.750000 0.311450
O O2 0.337615 0.977588 0.256851
O O3 0.248208 0.989168 0.255483
O O4 0.300053 0.993590 0.410004
O O5 0.878147 0.750000 0.327114
O O6 0.847190 0.992819 0.416401
O O7 0.917312 0.012657 0.323057
O O8 0.723518 0.750000 0.521824
O O9 0.705714 0.528563 0.406440
O O10 0.774054 0.504456 0.508786
O O11 0.299098 0.250000 0.714871
O O12 0.340981 0.993312 0.732220
O O13 0.625353 0.250000 0.196220
O O14 0.580125 0.499595 0.181090
O O15 0.652011 0.484405 0.093888
O O16 0.453558 0.250000 0.879662
O O17 0.501129 0.492386 0.867603
O O18 0.441142 0.472531 0.998544
O O19 0.179846 0.250000 0.502935
O O20 0.040413 0.750000 0.614034
#
# Coordination Sequence:
#
# PCOD8250523 Si02
#       8
#     8   8   8   8   8   8   8   8
#     4  10  20  32  49  72  98 130 170 211 248 291
#     4  10  18  32  50  69  98 136 169 201 249 299
#     4  10  19  34  50  67  97 136 172 208 250 293
#     4  10  20  33  49  70  99 134 170 207 249 297
#     4  11  20  31  50  73  99 132 170 209 247 292
#     4  10  20  33  49  71 101 133 164 200 247 300
#     4   9  16  27  46  69  95 130 168 201 241 289
#     4  10  20  32  48  73 101 129 165 206 245 291
#
# _framework density 16.416228
#
# number of rings (size 3 to 8) (size 9 to 14) (size 15 to 20)
#    0.000    2.000    3.750    1.125    0.000    2.000 
#    0.000    0.625    0.000    0.000    0.000    0.875 
#    0.000    0.000    0.000    0.000    0.000    0.000 
#
# Total GULP energy -793382.310894 kJ/mol
# GULP energy per Si atom -12396.598608 kJ/mol
# Density = 1.637886 g / cm^3
# Si number density = 16.416228 Si / 1000 Ang^3
#
#
#
# Elastic Constant Matrix: (Units=GPa)
#
#
# Indices 1 2 3 4 5 6 
#
# 1 125.0434 39.4880 59.7174 0.0000 0.0000 0.0000
# 2 39.4880 41.5361 32.6885 0.0000 0.0000 0.0000
# 3 59.7174 32.6885 98.8117 0.0000 0.0000 0.0000
# 4 0.0000 0.0000 0.0000 24.7060 0.0000 0.0000
# 5 0.0000 0.0000 0.0000 0.0000 20.1027 0.0000
# 6 0.0000 0.0000 0.0000 0.0000 0.0000 26.5150
#
#
#
# Elastic Compliance Matrix: (Units=1/GPa)
#
#
# Indices 1 2 3 4 5 6 
#
# 1 0.013110 -0.008420 -0.005137 0.000000 0.000000 0.000000
# 2 -0.008420 0.037958 -0.007468 0.000000 0.000000 0.000000
# 3 -0.005137 -0.007468 0.015696 0.000000 0.000000 0.000000
# 4 0.000000 0.000000 0.000000 0.040476 0.000000 0.000000
# 5 0.000000 0.000000 0.000000 0.000000 0.049745 0.000000
# 6 0.000000 0.000000 0.000000 0.000000 0.000000 0.037715
#
#
# Mechanical properties :
#
#
# Convention : Reuss Voigt Hill
#
# Bulk Modulus (GPa) = 40.46689 58.79768 49.63228
# Shear Modulus (GPa) = 20.40920 23.16456 21.78688
#
# Velocity S-wave (km/s) = 3.52978 3.76051 3.64697
# Velocity P-wave (km/s) = 6.42779 7.39931 6.93059
#
# Compressibility (1/GPa) = 0.02471156
#
# Stress axis : x y z
#
# Youngs Moduli (GPa) = 76.27891 26.34494 63.71165
#
# Poissons Ratio (x) = 0.22183 0.32731
# Poissons Ratio (y) = 0.64229 0.47582
# Poissons Ratio (z) = 0.39188 0.19675
#
# Static dielectric constant tensor:
#      x y z
#    x 3.131060 0.000000 0.000000 
#    y 0.000000 2.903310 0.000000 
#    z 0.000000 0.000000 2.996170 
# 
# 
# High freq. dielectric constant tensor:
#      x y z
#    x 1.629690 0.000000 0.000000 
#    y 0.000000 1.624580 0.000000 
#    z 0.000000 0.000000 1.606270 
# 
# From -- ./inp_files/21220.got.cif
#   From: 2010.03.12/outbox.cif.g09.slc.cpg/sg62_11_cif.got.tgz:21220.got - 2010.04.10 19:12:36.
