data_PCOD8250409
_publ_section_title
;
Structure prediction by ZEFSAII (Michael W. Deem and Ramdas Pophale) SiO2 
 PCOD8250409
Probable space group: P N M A
;
_chemical_formula_sum "Si O2"
_cell_formula_units_Z 40
_cell_length_a 8.932798
_cell_length_b 8.591246
_cell_length_c 25.813552
_cell_angle_alpha 90.000000
_cell_angle_beta 90.000000
_cell_angle_gamma 90.000000
_cell_volume 1981.031752
_symmetry_space_group_name_H-M "P N M A"
_symmetry_group_IT_number 62
_symmetry_cell_setting 'orthorhombic'
loop_
_space_group_symop_operation_xyz
x,y,z
1/2-x,-y,1/2+z
1/2+x,1/2-y,1/2-z
-x,1/2+y,-z
-x,-y,-z
1/2+x,y,1/2-z
1/2-x,1/2+y,1/2+z
x,1/2-y,z
loop_
_atom_site_type_symbol
_atom_site_label
_atom_site_fract_x
_atom_site_fract_y
_atom_site_fract_z
Si Si1 0.634412 0.067168 0.389935
Si Si2 0.696225 0.568711 0.787026
Si Si3 0.690022 0.430839 0.598087
Si Si4 0.834268 0.433691 0.994645
Si Si5 0.619980 0.929385 0.197324
O O1 0.646681 0.250000 0.397705
O O2 0.715815 0.011665 0.337879
O O3 0.461162 0.020172 0.386389
O O4 0.723030 0.986834 0.438086
O O5 0.724148 0.750000 0.776108
O O6 0.520814 0.539889 0.793826
O O7 0.752342 0.468654 0.738738
O O8 0.649361 0.250000 0.593871
O O9 0.756627 0.492622 0.543070
O O10 0.816073 0.464123 0.640441
O O11 0.830404 0.250000 0.999338
O O12 0.000000 0.500000 0.000000
O O13 0.572461 0.750000 0.202995
#
# Coordination Sequence:
#
# PCOD8250409 Si02
#       5
#     8   8   8   8   8
#     4  10  20  35  56  83 113 147 185 228 275 327
#     4  11  24  40  60  84 113 148 187 232 282 335
#     4  10  20  35  56  83 113 147 185 228 275 327
#     4  10  18  30  53  82 111 146 184 226 272 324
#     4  11  24  40  60  84 113 148 187 232 282 335
#
# _framework density 20.191499
#
# number of rings (size 3 to 8) (size 9 to 14) (size 15 to 20)
#    0.000    1.600    0.000    7.800    0.000    9.600 
#    0.000    1.000    0.000    0.000    0.000    0.000 
#    0.000    0.000    0.000    0.000    0.000    0.000 
#
# Total GULP energy -496078.674573 kJ/mol
# GULP energy per Si atom -12401.966864 kJ/mol
# Density = 2.014554 g / cm^3
# Si number density = 20.191499 Si / 1000 Ang^3
#
#
#
# Elastic Constant Matrix: (Units=GPa)
#
#
# Indices 1 2 3 4 5 6 
#
# 1 44.2271 2.7339 -1.3085 0.0000 0.0000 0.0000
# 2 2.7339 69.3543 38.4030 0.0000 0.0000 0.0000
# 3 -1.3085 38.4030 85.0351 0.0000 0.0000 0.0000
# 4 0.0000 0.0000 0.0000 35.6399 0.0000 0.0000
# 5 0.0000 0.0000 0.0000 0.0000 29.5813 0.0000
# 6 0.0000 0.0000 0.0000 0.0000 0.0000 27.6614
#
#
#
# Elastic Compliance Matrix: (Units=1/GPa)
#
#
# Indices 1 2 3 4 5 6 
#
# 1 0.022730 -0.001453 0.001006 0.000000 0.000000 0.000000
# 2 -0.001453 0.019320 -0.008747 0.000000 0.000000 0.000000
# 3 0.001006 -0.008747 0.015726 0.000000 0.000000 0.000000
# 4 0.000000 0.000000 0.000000 0.028058 0.000000 0.000000
# 5 0.000000 0.000000 0.000000 0.000000 0.033805 0.000000
# 6 0.000000 0.000000 0.000000 0.000000 0.000000 0.036151
#
#
# Mechanical properties :
#
#
# Convention : Reuss Voigt Hill
#
# Bulk Modulus (GPa) = 25.38931 30.91928 28.15429
# Shear Modulus (GPa) = 26.69396 29.16239 27.92818
#
# Velocity S-wave (km/s) = 3.63993 3.80451 3.72313
# Velocity P-wave (km/s) = 5.50155 5.88602 5.69703
#
# Compressibility (1/GPa) = 0.03938666
#
# Stress axis : x y z
#
# Youngs Moduli (GPa) = 43.99441 51.76089 63.58997
#
# Poissons Ratio (x) = 0.07521 -0.06397
# Poissons Ratio (y) = 0.06393 0.55624
# Poissons Ratio (z) = -0.04426 0.45277
#
# Static dielectric constant tensor:
#      x y z
#    x 3.279700 0.000000 0.000000 
#    y 0.000000 3.701760 0.000000 
#    z 0.000000 0.000000 4.461510 
# 
# 
# High freq. dielectric constant tensor:
#      x y z
#    x 1.751290 0.000000 0.000000 
#    y 0.000000 1.802560 0.000000 
#    z 0.000000 0.000000 1.815600 
# 
# From -- ./inp_files/30668.got.cif
#   From: 2010.03.12/outbox.cif.g09.slc.cpg/sg62_16_cif.got.tgz:30668.got - 2010.04.10 19:12:36.
