data_PCOD8250855
_publ_section_title
;
Structure prediction by ZEFSAII (Michael W. Deem and Ramdas Pophale) SiO2 
 PCOD8250855
Probable space group: P N M A
;
_chemical_formula_sum "Si O2"
_cell_formula_units_Z 64
_cell_length_a 19.619078
_cell_length_b 8.883805
_cell_length_c 20.999446
_cell_angle_alpha 90.000000
_cell_angle_beta 90.000000
_cell_angle_gamma 90.000000
_cell_volume 3660.036770
_symmetry_space_group_name_H-M "P N M A"
_symmetry_group_IT_number 62
_symmetry_cell_setting 'orthorhombic'
loop_
_space_group_symop_operation_xyz
x,y,z
1/2-x,-y,1/2+z
1/2+x,1/2-y,1/2-z
-x,1/2+y,-z
-x,-y,-z
1/2+x,y,1/2-z
1/2-x,1/2+y,1/2+z
x,1/2-y,z
loop_
_atom_site_type_symbol
_atom_site_label
_atom_site_fract_x
_atom_site_fract_y
_atom_site_fract_z
Si Si1 0.075824 0.422110 0.744583
Si Si2 0.423829 0.928439 0.629034
Si Si3 0.075865 0.573756 0.264989
Si Si4 0.701988 0.926870 0.427271
Si Si5 0.710622 0.927754 0.567519
Si Si6 0.574174 0.927022 0.624047
Si Si7 0.780743 0.576016 0.302887
Si Si8 0.203483 0.428689 0.314066
O O1 0.074106 0.250000 0.768465
O O2 0.091044 0.526049 0.804340
O O3 0.137400 0.449003 0.694988
O O4 0.002153 0.462166 0.713786
O O5 0.419806 0.750000 0.638720
O O6 0.498485 0.981909 0.604019
O O7 0.407658 0.007839 0.695700
O O8 0.368956 0.984279 0.578263
O O9 0.091049 0.750000 0.263448
O O10 0.127104 0.495323 0.314412
O O11 0.686241 0.750000 0.424545
O O12 0.734015 0.971886 0.496021
O O13 0.753788 0.977157 0.371836
O O14 0.709214 0.750000 0.575966
O O15 0.633723 0.992327 0.578721
O O16 0.761613 0.992150 0.621227
O O17 0.575798 0.750000 0.622049
O O18 0.762528 0.750000 0.290475
O O19 0.745946 0.480612 0.247395
O O20 0.199478 0.250000 0.313160
#
# Coordination Sequence:
#
# PCOD8250855 Si02
#       8
#     8   8   8   8   8   8   8   8
#     4   9  18  31  49  74 100 126 163 208 253 298
#     4  10  19  30  47  72 101 131 167 205 245 292
#     4  10  19  32  50  73 101 130 162 205 255 302
#     4  10  20  34  51  70 100 137 170 203 247 303
#     4   9  19  34  50  71  99 136 172 203 247 299
#     4   9  17  31  48  68  98 134 168 203 242 291
#     4  10  19  32  52  76  99 128 168 209 251 296
#     4  11  20  32  53  76 100 130 168 210 250 294
#
# _framework density 17.486162
#
# number of rings (size 3 to 8) (size 9 to 14) (size 15 to 20)
#    0.000    2.250    2.500    1.125    0.000    1.500 
#    0.000    1.875    0.000    0.750    0.000    0.000 
#    0.000    0.000    0.000    0.000    0.000    0.500 
#
# Total GULP energy -793288.788976 kJ/mol
# GULP energy per Si atom -12395.137328 kJ/mol
# Density = 1.744636 g / cm^3
# Si number density = 17.486162 Si / 1000 Ang^3
#
#
#
# Elastic Constant Matrix: (Units=GPa)
#
#
# Indices 1 2 3 4 5 6 
#
# 1 117.8159 19.9220 62.2673 0.0000 0.0000 0.0000
# 2 19.9220 31.7372 17.2993 0.0000 0.0000 0.0000
# 3 62.2673 17.2993 110.2003 0.0000 0.0000 0.0000
# 4 0.0000 0.0000 0.0000 17.3846 0.0000 0.0000
# 5 0.0000 0.0000 0.0000 0.0000 24.6920 0.0000
# 6 0.0000 0.0000 0.0000 0.0000 0.0000 22.1578
#
#
#
# Elastic Compliance Matrix: (Units=1/GPa)
#
#
# Indices 1 2 3 4 5 6 
#
# 1 0.012645 -0.004421 -0.006451 0.000000 0.000000 0.000000
# 2 -0.004421 0.036003 -0.003154 0.000000 0.000000 0.000000
# 3 -0.006451 -0.003154 0.013214 0.000000 0.000000 0.000000
# 4 0.000000 0.000000 0.000000 0.057522 0.000000 0.000000
# 5 0.000000 0.000000 0.000000 0.000000 0.040499 0.000000
# 6 0.000000 0.000000 0.000000 0.000000 0.000000 0.045131
#
#
# Mechanical properties :
#
#
# Convention : Reuss Voigt Hill
#
# Bulk Modulus (GPa) = 29.57615 50.97007 40.27311
# Shear Modulus (GPa) = 20.46367 23.53119 21.99743
#
# Velocity S-wave (km/s) = 3.42464 3.67236 3.55066
# Velocity P-wave (km/s) = 5.70862 6.86977 6.31594
#
# Compressibility (1/GPa) = 0.03381102
#
# Stress axis : x y z
#
# Youngs Moduli (GPa) = 79.08462 27.77546 75.67541
#
# Poissons Ratio (x) = 0.12280 0.48816
# Poissons Ratio (y) = 0.34964 0.23866
# Poissons Ratio (z) = 0.51015 0.08759
#
# Static dielectric constant tensor:
#      x y z
#    x 3.673050 0.000000 0.000000 
#    y 0.000000 3.154490 0.000000 
#    z 0.000000 0.000000 3.152510 
# 
# 
# High freq. dielectric constant tensor:
#      x y z
#    x 1.685620 0.000000 0.000000 
#    y 0.000000 1.666650 0.000000 
#    z 0.000000 0.000000 1.645390 
# 
# From -- ./inp_files/27964.got.cif
#   From: 2010.03.12/outbox.cif.g09.slc.cpg/sg62_14_cif.got.tgz:27964.got - 2010.04.10 19:12:36.
