data_PCOD8250506
_publ_section_title
;
Structure prediction by ZEFSAII (Michael W. Deem and Ramdas Pophale) SiO2 
 PCOD8250506
Probable space group: P N M A
;
_chemical_formula_sum "Si O2"
_cell_formula_units_Z 48
_cell_length_a 14.416305
_cell_length_b 9.228067
_cell_length_c 20.187021
_cell_angle_alpha 90.000000
_cell_angle_beta 90.000000
_cell_angle_gamma 90.000000
_cell_volume 2685.572838
_symmetry_space_group_name_H-M "P N M A"
_symmetry_group_IT_number 62
_symmetry_cell_setting 'orthorhombic'
loop_
_space_group_symop_operation_xyz
x,y,z
1/2-x,-y,1/2+z
1/2+x,1/2-y,1/2-z
-x,1/2+y,-z
-x,-y,-z
1/2+x,y,1/2-z
1/2-x,1/2+y,1/2+z
x,1/2-y,z
loop_
_atom_site_type_symbol
_atom_site_label
_atom_site_fract_x
_atom_site_fract_y
_atom_site_fract_z
Si Si1 0.981913 0.915324 0.125864
Si Si2 0.693085 0.917863 0.575303
Si Si3 0.281245 0.922009 0.198707
Si Si4 0.826168 0.078199 0.928793
Si Si5 0.832948 0.918961 0.687923
Si Si6 0.508660 0.084947 0.779838
O O1 0.959174 0.750000 0.107340
O O2 0.068721 0.976467 0.083781
O O3 0.010381 0.929120 0.202099
O O4 0.891525 0.007100 0.111986
O O5 0.667178 0.750000 0.571993
O O6 0.706856 0.979039 0.500651
O O7 0.786634 0.945197 0.616252
O O8 0.269060 0.750000 0.208570
O O9 0.242965 0.978953 0.128130
O O10 0.388325 0.968255 0.202341
O O11 0.225725 0.998801 0.256892
O O12 0.825240 0.250000 0.925064
O O13 0.836822 0.750000 0.706131
O O14 0.936330 0.982482 0.682227
O O15 0.493908 0.250000 0.803476
#
# Coordination Sequence:
#
# PCOD8250506 Si02
#       6
#     8   8   8   8   8   8
#     4  10  18  31  55  82 106 134 172 220 263 308
#     4  10  21  35  51  76 110 144 172 207 265 325
#     4  10  19  36  59  78 101 137 182 224 256 303
#     4   9  18  34  54  76 105 140 176 213 262 315
#     4  11  22  34  52  78 110 142 171 213 265 319
#     4  10  20  34  56  82 104 134 180 225 260 302
#
# _framework density 17.873282
#
# number of rings (size 3 to 8) (size 9 to 14) (size 15 to 20)
#    0.000    2.000    3.333    1.000    0.000    2.000 
#    0.000    1.667    0.000    0.000    0.000    0.000 
#    0.000    0.000    0.000    0.000    0.000    0.000 
#
# Total GULP energy -595233.953953 kJ/mol
# GULP energy per Si atom -12400.707374 kJ/mol
# Density = 1.783260 g / cm^3
# Si number density = 17.873282 Si / 1000 Ang^3
#
#
#
# Elastic Constant Matrix: (Units=GPa)
#
#
# Indices 1 2 3 4 5 6 
#
# 1 103.0521 35.6105 21.0847 0.0000 0.0000 0.0000
# 2 35.6105 45.4127 20.1229 0.0000 0.0000 0.0000
# 3 21.0847 20.1229 58.0656 0.0000 0.0000 0.0000
# 4 0.0000 0.0000 0.0000 15.7042 0.0000 0.0000
# 5 0.0000 0.0000 0.0000 0.0000 28.1981 0.0000
# 6 0.0000 0.0000 0.0000 0.0000 0.0000 25.5200
#
#
#
# Elastic Compliance Matrix: (Units=1/GPa)
#
#
# Indices 1 2 3 4 5 6 
#
# 1 0.013413 -0.009876 -0.001448 0.000000 0.000000 0.000000
# 2 -0.009876 0.033287 -0.007950 0.000000 0.000000 0.000000
# 3 -0.001448 -0.007950 0.020503 0.000000 0.000000 0.000000
# 4 0.000000 0.000000 0.000000 0.063677 0.000000 0.000000
# 5 0.000000 0.000000 0.000000 0.000000 0.035463 0.000000
# 6 0.000000 0.000000 0.000000 0.000000 0.000000 0.039185
#
#
# Mechanical properties :
#
#
# Convention : Reuss Voigt Hill
#
# Bulk Modulus (GPa) = 34.89735 40.01852 37.45793
# Shear Modulus (GPa) = 19.71397 22.53195 21.12296
#
# Velocity S-wave (km/s) = 3.32473 3.55442 3.44149
# Velocity P-wave (km/s) = 5.85710 6.26769 6.06587
#
# Compressibility (1/GPa) = 0.02865547
#
# Stress axis : x y z
#
# Youngs Moduli (GPa) = 74.55539 30.04152 48.77429
#
# Poissons Ratio (x) = 0.29670 0.07062
# Poissons Ratio (y) = 0.73632 0.38774
# Poissons Ratio (z) = 0.10794 0.23882
#
# Static dielectric constant tensor:
#      x y z
#    x 3.395460 0.000000 0.000000 
#    y 0.000000 3.173770 0.000000 
#    z 0.000000 0.000000 3.522390 
# 
# 
# High freq. dielectric constant tensor:
#      x y z
#    x 1.696520 0.000000 0.000000 
#    y 0.000000 1.671440 0.000000 
#    z 0.000000 0.000000 1.689910 
# 
# From -- ./inp_files/23694.got.cif
#   From: 2010.03.12/outbox.cif.g09.slc.cpg/sg62_12_cif.got.tgz:23694.got - 2010.04.10 19:12:36.
