data_PCOD8250463
_publ_section_title
;
Structure prediction by ZEFSAII (Michael W. Deem and Ramdas Pophale) SiO2 
 PCOD8250463
Probable space group: P N M A
;
_chemical_formula_sum "Si O2"
_cell_formula_units_Z 64
_cell_length_a 10.004116
_cell_length_b 19.391536
_cell_length_c 19.347199
_cell_angle_alpha 90.000000
_cell_angle_beta 90.000000
_cell_angle_gamma 90.000000
_cell_volume 3753.263267
_symmetry_space_group_name_H-M "P N M A"
_symmetry_group_IT_number 62
_symmetry_cell_setting 'orthorhombic'
loop_
_space_group_symop_operation_xyz
x,y,z
1/2-x,-y,1/2+z
1/2+x,1/2-y,1/2-z
-x,1/2+y,-z
-x,-y,-z
1/2+x,y,1/2-z
1/2-x,1/2+y,1/2+z
x,1/2-y,z
loop_
_atom_site_type_symbol
_atom_site_label
_atom_site_fract_x
_atom_site_fract_y
_atom_site_fract_z
Si Si1 0.525904 0.826806 0.961574
Si Si2 0.348563 0.522941 0.669756
Si Si3 0.381676 0.457495 0.965967
Si Si4 0.906598 0.113030 0.325314
Si Si5 0.131808 0.964713 0.027615
Si Si6 0.151948 0.016068 0.322880
Si Si7 0.713103 0.672123 0.540972
Si Si8 0.104497 0.888657 0.827197
O O1 0.545636 0.750000 0.990568
O O2 0.594383 0.830027 0.885594
O O3 0.369635 0.845960 0.956351
O O4 0.601762 0.877651 0.013892
O O5 0.202306 0.554647 0.659627
O O6 0.367126 0.465513 0.610921
O O7 0.361998 0.485630 0.744876
O O8 0.454174 0.585141 0.660363
O O9 0.382239 0.460389 0.882152
O O10 0.500000 0.500000 0.000000
O O11 0.247186 0.489044 0.995298
O O12 0.881779 0.145441 0.249238
O O13 0.052470 0.079881 0.329135
O O14 0.140915 0.884295 0.007129
O O15 0.000000 0.000000 0.000000
O O16 0.301494 0.044097 0.334535
O O17 0.689338 0.750000 0.513022
O O18 0.647886 0.668303 0.617258
#
# Coordination Sequence:
#
# PCOD8250463 Si02
#       8
#     8   8   8   8   8   8   8   8
#     4  11  22  35  53  80 108 140 181 226 269 310
#     4  10  20  30  52  81 106 131 172 226 259 306
#     4  12  18  34  58  77 101 142 182 223 259 304
#     4  10  18  31  52  75 104 139 174 214 254 312
#     4  12  20  34  56  80 105 140 177 219 261 316
#     4  10  18  32  52  77 106 135 174 218 267 307
#     4  11  22  36  53  77 110 144 176 218 272 324
#     4  10  18  33  50  76 106 141 174 200 263 326
#
# _framework density 17.051829999999999
#
# number of rings (size 3 to 8) (size 9 to 14) (size 15 to 20)
#    0.000    1.250    7.500    0.000    0.000    0.500 
#    0.000    2.500    0.000    0.750    0.000    0.000 
#    0.000    0.000    0.000    0.000    0.000    0.000 
#
# Total GULP energy -793345.967185 kJ/mol
# GULP energy per Si atom -12396.030737 kJ/mol
# Density = 1.701302 g / cm^3
# Si number density = 17.051830 Si / 1000 Ang^3
#
#
#
# Elastic Constant Matrix: (Units=GPa)
#
#
# Indices 1 2 3 4 5 6 
#
# 1 74.6788 28.6924 26.4743 0.0000 0.0000 0.0000
# 2 28.6924 94.2209 52.6865 0.0000 0.0000 0.0000
# 3 26.4743 52.6865 123.2037 0.0000 0.0000 0.0000
# 4 0.0000 0.0000 0.0000 23.6667 0.0000 0.0000
# 5 0.0000 0.0000 0.0000 0.0000 23.7650 0.0000
# 6 0.0000 0.0000 0.0000 0.0000 0.0000 18.5451
#
#
#
# Elastic Compliance Matrix: (Units=1/GPa)
#
#
# Indices 1 2 3 4 5 6 
#
# 1 0.015437 -0.003740 -0.001718 0.000000 0.000000 0.000000
# 2 -0.003740 0.014855 -0.005549 0.000000 0.000000 0.000000
# 3 -0.001718 -0.005549 0.010859 0.000000 0.000000 0.000000
# 4 0.000000 0.000000 0.000000 0.042254 0.000000 0.000000
# 5 0.000000 0.000000 0.000000 0.000000 0.042079 0.000000
# 6 0.000000 0.000000 0.000000 0.000000 0.000000 0.053923
#
#
# Mechanical properties :
#
#
# Convention : Reuss Voigt Hill
#
# Bulk Modulus (GPa) = 52.25522 56.42330 54.33926
# Shear Modulus (GPa) = 24.06185 25.47871 24.77028
#
# Velocity S-wave (km/s) = 3.76054 3.86967 3.81549
# Velocity P-wave (km/s) = 7.04038 7.28882 7.16568
#
# Compressibility (1/GPa) = 0.01913685
#
# Stress axis : x y z
#
# Youngs Moduli (GPa) = 64.78081 67.31640 92.09273
#
# Poissons Ratio (x) = 0.25179 0.15817
# Poissons Ratio (y) = 0.24231 0.51101
# Poissons Ratio (z) = 0.11126 0.37353
#
# Static dielectric constant tensor:
#      x y z
#    x 3.289070 0.000000 0.000000 
#    y 0.000000 2.825670 0.000000 
#    z 0.000000 0.000000 3.602820 
# 
# 
# High freq. dielectric constant tensor:
#      x y z
#    x 1.674570 0.000000 0.000000 
#    y 0.000000 1.607850 0.000000 
#    z 0.000000 0.000000 1.666030 
# 
# From -- ./inp_files/26277.got.cif
#   From: 2010.03.12/outbox.cif.g09.slc.cpg/sg62_14_cif.got.tgz:26277.got - 2010.04.10 19:12:36.
