data_PCOD8250752
_publ_section_title
;
Structure prediction by ZEFSAII (Michael W. Deem and Ramdas Pophale) SiO2 
 PCOD8250752
Probable space group: P N M A
;
_chemical_formula_sum "Si O2"
_cell_formula_units_Z 64
_cell_length_a 18.209296
_cell_length_b 9.223029
_cell_length_c 26.133704
_cell_angle_alpha 90.000000
_cell_angle_beta 90.000000
_cell_angle_gamma 90.000000
_cell_volume 4389.021392
_symmetry_space_group_name_H-M "P N M A"
_symmetry_group_IT_number 62
_symmetry_cell_setting 'orthorhombic'
loop_
_space_group_symop_operation_xyz
x,y,z
1/2-x,-y,1/2+z
1/2+x,1/2-y,1/2-z
-x,1/2+y,-z
-x,-y,-z
1/2+x,y,1/2-z
1/2-x,1/2+y,1/2+z
x,1/2-y,z
loop_
_atom_site_type_symbol
_atom_site_label
_atom_site_fract_x
_atom_site_fract_y
_atom_site_fract_z
Si Si1 0.811259 0.411243 0.196131
Si Si2 0.273317 0.590209 0.697688
Si Si3 0.332337 0.577662 0.853378
Si Si4 0.151252 0.081865 0.650328
Si Si5 0.081002 0.918499 0.556036
Si Si6 0.089603 0.418473 0.454768
Si Si7 0.933516 0.581795 0.245038
Si Si8 0.084052 0.079417 0.254158
O O1 0.839528 0.250000 0.181250
O O2 0.767398 0.402265 0.248605
O O3 0.752634 0.471831 0.154235
O O4 0.880143 0.518430 0.201045
O O5 0.269772 0.750000 0.671959
O O6 0.234061 0.473759 0.661010
O O7 0.357629 0.546354 0.708795
O O8 0.335574 0.750000 0.850193
O O9 0.361005 0.522224 0.908070
O O10 0.384970 0.518077 0.808190
O O11 0.154998 0.250000 0.635992
O O12 0.099913 0.052456 0.699098
O O13 0.118617 0.993283 0.603782
O O14 0.101170 0.750000 0.555871
O O15 0.994417 0.945005 0.560622
O O16 0.111982 0.989443 0.504227
O O17 0.104393 0.250000 0.466449
O O18 0.943765 0.750000 0.233939
O O19 0.010848 0.504202 0.239952
O O20 0.067126 0.250000 0.258001
#
# Coordination Sequence:
#
# PCOD8250752 Si02
#       8
#     8   8   8   8   8   8   8   8
#     4   8  14  26  42  57  75 102 135 166 196 234
#     4   8  15  27  42  59  78 102 134 169 200 234
#     4   8  14  26  44  61  76 102 139 171 199 234
#     4  10  19  29  41  57  80 110 140 169 203 240
#     4  10  19  29  42  59  80 107 138 171 204 239
#     4   9  17  29  43  59  81 106 134 171 208 238
#     4  10  19  27  37  58  85 109 134 165 201 238
#     4   9  16  27  43  61  81 107 138 167 197 237
#
# _framework density 14.581839
#
# number of rings (size 3 to 8) (size 9 to 14) (size 15 to 20)
#    0.000    3.000    0.000    3.375    0.000    3.500 
#    0.000    3.125    0.000    0.000    0.000    0.000 
#    0.000    1.000    0.000    3.000    0.000    4.000 
#
# Total GULP energy -793351.230964 kJ/mol
# GULP energy per Si atom -12396.112984 kJ/mol
# Density = 1.454865 g / cm^3
# Si number density = 14.581839 Si / 1000 Ang^3
#
#
#
# Elastic Constant Matrix: (Units=GPa)
#
#
# Indices 1 2 3 4 5 6 
#
# 1 95.5114 54.9660 36.0990 0.0000 0.0000 0.0000
# 2 54.9660 79.6790 43.5356 0.0000 0.0000 0.0000
# 3 36.0990 43.5356 61.7165 0.0000 0.0000 0.0000
# 4 0.0000 0.0000 0.0000 19.5392 0.0000 0.0000
# 5 0.0000 0.0000 0.0000 0.0000 24.3497 0.0000
# 6 0.0000 0.0000 0.0000 0.0000 0.0000 18.2024
#
#
#
# Elastic Compliance Matrix: (Units=1/GPa)
#
#
# Indices 1 2 3 4 5 6 
#
# 1 0.017661 -0.010640 -0.002825 0.000000 0.000000 0.000000
# 2 -0.010640 0.026831 -0.012704 0.000000 0.000000 0.000000
# 3 -0.002825 -0.012704 0.026817 0.000000 0.000000 0.000000
# 4 0.000000 0.000000 0.000000 0.051179 0.000000 0.000000
# 5 0.000000 0.000000 0.000000 0.000000 0.041068 0.000000
# 6 0.000000 0.000000 0.000000 0.000000 0.000000 0.054938
#
#
# Mechanical properties :
#
#
# Convention : Reuss Voigt Hill
#
# Bulk Modulus (GPa) = 52.70818 56.23425 54.47121
# Shear Modulus (GPa) = 18.04051 19.23868 18.63959
#
# Velocity S-wave (km/s) = 3.52119 3.63624 3.57918
# Velocity P-wave (km/s) = 7.26337 7.50186 7.38358
#
# Compressibility (1/GPa) = 0.01897239
#
# Stress axis : x y z
#
# Youngs Moduli (GPa) = 56.62321 37.26998 37.29031
#
# Poissons Ratio (x) = 0.39654 0.10533
# Poissons Ratio (y) = 0.60246 0.47373
# Poissons Ratio (z) = 0.15994 0.47347
#
# Static dielectric constant tensor:
#      x y z
#    x 2.922300 0.000000 0.000000 
#    y 0.000000 2.848910 0.000000 
#    z 0.000000 0.000000 2.751950 
# 
# 
# High freq. dielectric constant tensor:
#      x y z
#    x 1.547750 0.000000 0.000000 
#    y 0.000000 1.554840 0.000000 
#    z 0.000000 0.000000 1.525250 
# 
# From -- ./inp_files/30042.got.cif
#   From: 2010.03.12/outbox.cif.g09.slc.cpg/sg62_16_cif.got.tgz:30042.got - 2010.04.10 19:12:36.
