data_PCOD8250766
_publ_section_title
;
Structure prediction by ZEFSAII (Michael W. Deem and Ramdas Pophale) SiO2 
 PCOD8250766
Probable space group: P N M A
;
_chemical_formula_sum "Si O2"
_cell_formula_units_Z 64
_cell_length_a 34.022034
_cell_length_b 8.833886
_cell_length_c 13.492278
_cell_angle_alpha 90.000000
_cell_angle_beta 90.000000
_cell_angle_gamma 90.000000
_cell_volume 4055.060571
_symmetry_space_group_name_H-M "P N M A"
_symmetry_group_IT_number 62
_symmetry_cell_setting 'orthorhombic'
loop_
_space_group_symop_operation_xyz
x,y,z
1/2-x,-y,1/2+z
1/2+x,1/2-y,1/2-z
-x,1/2+y,-z
-x,-y,-z
1/2+x,y,1/2-z
1/2-x,1/2+y,1/2+z
x,1/2-y,z
loop_
_atom_site_type_symbol
_atom_site_label
_atom_site_fract_x
_atom_site_fract_y
_atom_site_fract_z
Si Si1 0.192911 0.571114 0.210021
Si Si2 0.228333 0.072626 0.396718
Si Si3 0.038111 0.580533 0.881134
Si Si4 0.882913 0.925836 0.111779
Si Si5 0.460710 0.420169 0.616927
Si Si6 0.881093 0.927557 0.883612
Si Si7 0.190266 0.577982 0.799277
Si Si8 0.264510 0.074393 0.101103
O O1 0.198169 0.750000 0.202133
O O2 0.200211 0.517079 0.321988
O O3 0.149196 0.523432 0.180968
O O4 0.222873 0.492137 0.134493
O O5 0.219262 0.250000 0.386354
O O6 0.273642 0.037608 0.371374
O O7 0.219233 0.014862 0.506527
O O8 0.035305 0.750000 0.839345
O O9 0.078927 0.508995 0.844045
O O10 0.001124 0.486971 0.838343
O O11 0.036814 0.578775 0.999094
O O12 0.891716 0.750000 0.119551
O O13 0.845443 0.967159 0.177760
O O14 0.874771 0.972598 0.998336
O O15 0.454911 0.250000 0.657034
O O16 0.424556 0.524523 0.651927
O O17 0.875029 0.750000 0.865272
O O18 0.176570 0.750000 0.817241
O O19 0.203127 0.552621 0.686170
O O20 0.258053 0.250000 0.075369
#
# Coordination Sequence:
#
# PCOD8250766 Si02
#       8
#     8   8   8   8   8   8   8   8
#     4  11  21  32  47  67  90 118 151 186 224 265
#     4  10  20  34  50  67  88 116 149 186 227 269
#     4   9  16  26  40  57  82 115 146 177 216 260
#     4  10  19  28  42  63  87 116 150 186 220 257
#     4   9  16  26  40  59  83 112 147 181 215 260
#     4  10  19  30  43  62  89 119 151 187 224 262
#     4   9  19  32  45  63  88 115 145 181 220 263
#     4  10  20  34  49  66  89 117 149 186 226 268
#
# _framework density 15.782747000000001
#
# number of rings (size 3 to 8) (size 9 to 14) (size 15 to 20)
#    0.000    2.250    0.000    4.875    0.000    9.500 
#    0.000    0.000    0.000    0.000    0.000    0.000 
#    0.000    1.000    0.000    3.750    0.000    5.750 
#
# Total GULP energy -793755.518981 kJ/mol
# GULP energy per Si atom -12402.429984 kJ/mol
# Density = 1.574683 g / cm^3
# Si number density = 15.782747 Si / 1000 Ang^3
#
#
#
# Elastic Constant Matrix: (Units=GPa)
#
#
# Indices 1 2 3 4 5 6 
#
# 1 97.5226 35.0755 24.0665 0.0000 0.0000 0.0000
# 2 35.0755 72.4048 14.7497 0.0000 0.0000 0.0000
# 3 24.0665 14.7497 51.6113 0.0000 0.0000 0.0000
# 4 0.0000 0.0000 0.0000 22.5860 0.0000 0.0000
# 5 0.0000 0.0000 0.0000 0.0000 14.2202 0.0000
# 6 0.0000 0.0000 0.0000 0.0000 0.0000 32.9081
#
#
#
# Elastic Compliance Matrix: (Units=1/GPa)
#
#
# Indices 1 2 3 4 5 6 
#
# 1 0.013398 -0.005540 -0.004664 0.000000 0.000000 0.000000
# 2 -0.005540 0.016956 -0.002262 0.000000 0.000000 0.000000
# 3 -0.004664 -0.002262 0.022197 0.000000 0.000000 0.000000
# 4 0.000000 0.000000 0.000000 0.044275 0.000000 0.000000
# 5 0.000000 0.000000 0.000000 0.000000 0.070323 0.000000
# 6 0.000000 0.000000 0.000000 0.000000 0.000000 0.030388
#
#
# Mechanical properties :
#
#
# Convention : Reuss Voigt Hill
#
# Bulk Modulus (GPa) = 36.20899 41.03579 38.62239
# Shear Modulus (GPa) = 21.58195 23.78599 22.68397
#
# Velocity S-wave (km/s) = 3.70190 3.88633 3.79524
# Velocity P-wave (km/s) = 6.42371 6.79669 6.61283
#
# Compressibility (1/GPa) = 0.02761745
#
# Stress axis : x y z
#
# Youngs Moduli (GPa) = 74.64004 58.97629 45.05106
#
# Poissons Ratio (x) = 0.32674 0.21012
# Poissons Ratio (y) = 0.41352 0.10192
# Poissons Ratio (z) = 0.34813 0.13342
#
# Static dielectric constant tensor:
#      x y z
#    x 2.996680 0.000000 0.000000 
#    y 0.000000 3.137240 0.000000 
#    z 0.000000 0.000000 2.693570 
# 
# 
# High freq. dielectric constant tensor:
#      x y z
#    x 1.604650 0.000000 0.000000 
#    y 0.000000 1.625910 0.000000 
#    z 0.000000 0.000000 1.556780 
# 
# From -- ./inp_files/21250.got.cif
#   From: 2010.03.12/outbox.cif.g09.slc.cpg/sg62_11_cif.got.tgz:21250.got - 2010.04.10 19:12:36.
