data_PCOD8250288
_publ_section_title
;
Structure prediction by ZEFSAII (Michael W. Deem and Ramdas Pophale) SiO2 
 PCOD8250288
Probable space group: P N M A
;
_chemical_formula_sum "Si O2"
_cell_formula_units_Z 56
_cell_length_a 15.582321
_cell_length_b 9.050898
_cell_length_c 21.442332
_cell_angle_alpha 90.000000
_cell_angle_beta 90.000000
_cell_angle_gamma 90.000000
_cell_volume 3024.097808
_symmetry_space_group_name_H-M "P N M A"
_symmetry_group_IT_number 62
_symmetry_cell_setting 'orthorhombic'
loop_
_space_group_symop_operation_xyz
x,y,z
1/2-x,-y,1/2+z
1/2+x,1/2-y,1/2-z
-x,1/2+y,-z
-x,-y,-z
1/2+x,y,1/2-z
1/2-x,1/2+y,1/2+z
x,1/2-y,z
loop_
_atom_site_type_symbol
_atom_site_label
_atom_site_fract_x
_atom_site_fract_y
_atom_site_fract_z
Si Si1 0.589859 0.575959 0.219687
Si Si2 0.562833 0.077262 0.547080
Si Si3 0.436857 0.923403 0.310671
Si Si4 0.239801 0.921766 0.805461
Si Si5 0.495479 0.586887 0.096560
Si Si6 0.234152 0.579803 0.950035
Si Si7 0.377985 0.413273 0.017582
O O1 0.608140 0.750000 0.221168
O O2 0.520206 0.528345 0.271461
O O3 0.680609 0.494574 0.231987
O O4 0.552307 0.524221 0.153110
O O5 0.555590 0.250000 0.537118
O O6 0.542220 0.031517 0.618257
O O7 0.500000 0.000000 0.500000
O O8 0.656944 0.023910 0.529298
O O9 0.418342 0.750000 0.304330
O O10 0.351207 0.005726 0.286179
O O11 0.235304 0.750000 0.788474
O O12 0.258283 0.949502 0.878352
O O13 0.459773 0.750000 0.115043
O O14 0.417642 0.474313 0.082452
O O15 0.550128 0.602426 0.034453
O O16 0.210269 0.750000 0.961366
O O17 0.310774 0.534226 0.994901
O O18 0.337982 0.250000 0.029751
#
# Coordination Sequence:
#
# PCOD8250288 Si02
#       7
#     8   8   8   8   8   8   8
#     4  10  19  35  57  79 105 142 183 219 262 315
#     4  10  20  36  57  80 104 132 171 218 268 314
#     4   9  20  37  58  81 106 139 180 221 261 316
#     4  10  20  33  53  80 108 139 176 222 270 316
#     4   9  18  30  47  72 105 139 170 208 252 303
#     4  10  19  32  52  77 105 137 176 217 261 312
#     4  10  18  29  47  74 105 137 172 212 253 298
#
# _framework density 18.517918999999999
#
# number of rings (size 3 to 8) (size 9 to 14) (size 15 to 20)
#    0.000    2.286    1.429    1.714    0.000    3.429 
#    0.000    1.429    0.000    3.429    0.000    0.000 
#    0.000    0.000    0.000    0.000    0.000    0.000 
#
# Total GULP energy -694315.917900 kJ/mol
# GULP energy per Si atom -12398.498534 kJ/mol
# Density = 1.847577 g / cm^3
# Si number density = 18.517919 Si / 1000 Ang^3
#
#
#
# Elastic Constant Matrix: (Units=GPa)
#
#
# Indices 1 2 3 4 5 6 
#
# 1 125.1412 56.2774 46.8835 0.0000 0.0000 0.0000
# 2 56.2774 81.3643 32.9732 0.0000 0.0000 0.0000
# 3 46.8835 32.9732 46.2930 0.0000 0.0000 0.0000
# 4 0.0000 0.0000 0.0000 22.8675 0.0000 0.0000
# 5 0.0000 0.0000 0.0000 0.0000 32.4540 0.0000
# 6 0.0000 0.0000 0.0000 0.0000 0.0000 37.4239
#
#
#
# Elastic Compliance Matrix: (Units=1/GPa)
#
#
# Indices 1 2 3 4 5 6 
#
# 1 0.014575 -0.005762 -0.010656 0.000000 0.000000 0.000000
# 2 -0.005762 0.019556 -0.008093 0.000000 0.000000 0.000000
# 3 -0.010656 -0.008093 0.038158 0.000000 0.000000 0.000000
# 4 0.000000 0.000000 0.000000 0.043730 0.000000 0.000000
# 5 0.000000 0.000000 0.000000 0.000000 0.030813 0.000000
# 6 0.000000 0.000000 0.000000 0.000000 0.000000 0.026721
#
#
# Mechanical properties :
#
#
# Convention : Reuss Voigt Hill
#
# Bulk Modulus (GPa) = 42.98267 58.34073 50.66170
# Shear Modulus (GPa) = 21.70784 26.32669 24.01727
#
# Velocity S-wave (km/s) = 3.42754 3.77462 3.60526
# Velocity P-wave (km/s) = 6.23906 7.11129 6.68940
#
# Compressibility (1/GPa) = 0.02326519
#
# Stress axis : x y z
#
# Youngs Moduli (GPa) = 68.61210 51.13541 26.20670
#
# Poissons Ratio (x) = 0.29466 0.27926
# Poissons Ratio (y) = 0.39537 0.21210
# Poissons Ratio (z) = 0.73114 0.41385
#
# Static dielectric constant tensor:
#      x y z
#    x 3.175600 0.000000 0.000000 
#    y 0.000000 3.514190 0.000000 
#    z 0.000000 0.000000 3.227700 
# 
# 
# High freq. dielectric constant tensor:
#      x y z
#    x 1.713590 0.000000 0.000000 
#    y 0.000000 1.725410 0.000000 
#    z 0.000000 0.000000 1.692010 
# 
# From -- ./inp_files/27149.got.cif
#   From: 2010.03.12/outbox.cif.g09.slc.cpg/sg62_14_cif.got.tgz:27149.got - 2010.04.10 19:12:36.
