data_PCOD8250976
_publ_section_title
;
Structure prediction by ZEFSAII (Michael W. Deem and Ramdas Pophale) SiO2 
 PCOD8250976
Probable space group: P N M A
;
_chemical_formula_sum "Si O2"
_cell_formula_units_Z 64
_cell_length_a 29.865011
_cell_length_b 9.133810
_cell_length_c 14.162364
_cell_angle_alpha 90.000000
_cell_angle_beta 90.000000
_cell_angle_gamma 90.000000
_cell_volume 3863.228575
_symmetry_space_group_name_H-M "P N M A"
_symmetry_group_IT_number 62
_symmetry_cell_setting 'orthorhombic'
loop_
_space_group_symop_operation_xyz
x,y,z
1/2-x,-y,1/2+z
1/2+x,1/2-y,1/2-z
-x,1/2+y,-z
-x,-y,-z
1/2+x,y,1/2-z
1/2-x,1/2+y,1/2+z
x,1/2-y,z
loop_
_atom_site_type_symbol
_atom_site_label
_atom_site_fract_x
_atom_site_fract_y
_atom_site_fract_z
Si Si1 0.958904 0.079775 0.110921
Si Si2 0.235174 0.084193 0.474084
Si Si3 0.804737 0.580850 0.331904
Si Si4 0.178799 0.085221 0.959552
Si Si5 0.132729 0.415142 0.153419
Si Si6 0.951859 0.420928 0.893217
Si Si7 0.132674 0.922095 0.794889
Si Si8 0.220372 0.079255 0.259795
O O1 0.970826 0.250000 0.118820
O O2 0.918329 0.035924 0.180360
O O3 0.945380 0.040457 0.003664
O O4 0.001741 0.988297 0.144160
O O5 0.254209 0.250000 0.479037
O O6 0.197819 0.061549 0.554972
O O7 0.214416 0.052940 0.371531
O O8 0.273899 0.969451 0.499426
O O9 0.806568 0.750000 0.302580
O O10 0.850957 0.502337 0.300247
O O11 0.762285 0.510539 0.279020
O O12 0.183238 0.250000 0.919545
O O13 0.143076 0.080969 0.042663
O O14 0.165299 0.974264 0.877776
O O15 0.122285 0.250000 0.186791
O O16 0.088617 0.512794 0.168505
O O17 0.174515 0.479186 0.212498
O O18 0.953012 0.250000 0.874562
O O19 0.138689 0.750000 0.783136
O O20 0.227661 0.250000 0.234662
#
# Coordination Sequence:
#
# PCOD8250976 Si02
#       8
#     8   8   8   8   8   8   8   8
#     4   9  19  33  48  69  97 129 164 198 240 296
#     4  10  21  35  50  68  99 135 168 208 250 289
#     4  11  22  33  48  74 100 129 169 210 247 289
#     4  11  20  29  47  74 100 130 169 208 243 284
#     4  10  20  32  48  71 100 133 169 202 241 295
#     4  10  19  31  49  72  99 129 161 198 245 293
#     4  11  21  34  50  70  99 137 169 200 246 297
#     4  10  20  35  51  69  95 135 172 203 246 293
#
# _framework density 16.566454
#
# number of rings (size 3 to 8) (size 9 to 14) (size 15 to 20)
#    0.000    1.750    3.750    1.500    0.000    3.000 
#    0.000    0.000    0.000    0.000    0.000    0.875 
#    0.000    0.000    0.000    0.000    0.000    0.000 
#
# Total GULP energy -793642.057266 kJ/mol
# GULP energy per Si atom -12400.657145 kJ/mol
# Density = 1.652875 g / cm^3
# Si number density = 16.566454 Si / 1000 Ang^3
#
#
#
# Elastic Constant Matrix: (Units=GPa)
#
#
# Indices 1 2 3 4 5 6 
#
# 1 103.0436 51.9138 20.6282 0.0000 0.0000 0.0000
# 2 51.9138 74.7449 22.7598 0.0000 0.0000 0.0000
# 3 20.6282 22.7598 58.3876 0.0000 0.0000 0.0000
# 4 0.0000 0.0000 0.0000 19.0313 0.0000 0.0000
# 5 0.0000 0.0000 0.0000 0.0000 25.6900 0.0000
# 6 0.0000 0.0000 0.0000 0.0000 0.0000 28.4047
#
#
#
# Elastic Compliance Matrix: (Units=1/GPa)
#
#
# Indices 1 2 3 4 5 6 
#
# 1 0.015030 -0.010010 -0.001408 0.000000 0.000000 0.000000
# 2 -0.010010 0.021848 -0.004980 0.000000 0.000000 0.000000
# 3 -0.001408 -0.004980 0.019566 0.000000 0.000000 0.000000
# 4 0.000000 0.000000 0.000000 0.052545 0.000000 0.000000
# 5 0.000000 0.000000 0.000000 0.000000 0.038926 0.000000
# 6 0.000000 0.000000 0.000000 0.000000 0.000000 0.035205
#
#
# Mechanical properties :
#
#
# Convention : Reuss Voigt Hill
#
# Bulk Modulus (GPa) = 42.28838 47.41996 44.85417
# Shear Modulus (GPa) = 22.34172 24.01683 23.17927
#
# Velocity S-wave (km/s) = 3.67633 3.81166 3.74461
# Velocity P-wave (km/s) = 6.60322 6.93238 6.76980
#
# Compressibility (1/GPa) = 0.02364716
#
# Stress axis : x y z
#
# Youngs Moduli (GPa) = 66.53546 45.77166 51.11034
#
# Poissons Ratio (x) = 0.45817 0.07196
# Poissons Ratio (y) = 0.66602 0.25452
# Poissons Ratio (z) = 0.09368 0.22793
#
# Static dielectric constant tensor:
#      x y z
#    x 3.097560 0.000000 0.000000 
#    y 0.000000 3.198290 0.000000 
#    z 0.000000 0.000000 3.028070 
# 
# 
# High freq. dielectric constant tensor:
#      x y z
#    x 1.625910 0.000000 0.000000 
#    y 0.000000 1.648140 0.000000 
#    z 0.000000 0.000000 1.609860 
# 
# From -- ./inp_files/21213.got.cif
#   From: 2010.03.12/outbox.cif.g09.slc.cpg/sg62_11_cif.got.tgz:21213.got - 2010.04.10 19:12:36.
