data_PCOD8250936
_publ_section_title
;
Structure prediction by ZEFSAII (Michael W. Deem and Ramdas Pophale) SiO2 
 PCOD8250936
Probable space group: P N M A
;
_chemical_formula_sum "Si O2"
_cell_formula_units_Z 56
_cell_length_a 18.282773
_cell_length_b 9.452393
_cell_length_c 18.543969
_cell_angle_alpha 90.000000
_cell_angle_beta 90.000000
_cell_angle_gamma 90.000000
_cell_volume 3204.693722
_symmetry_space_group_name_H-M "P N M A"
_symmetry_group_IT_number 62
_symmetry_cell_setting 'orthorhombic'
loop_
_space_group_symop_operation_xyz
x,y,z
1/2-x,-y,1/2+z
1/2+x,1/2-y,1/2-z
-x,1/2+y,-z
-x,-y,-z
1/2+x,y,1/2-z
1/2-x,1/2+y,1/2+z
x,1/2-y,z
loop_
_atom_site_type_symbol
_atom_site_label
_atom_site_fract_x
_atom_site_fract_y
_atom_site_fract_z
Si Si1 0.509287 0.406092 0.699357
Si Si2 0.157447 0.906694 0.247212
Si Si3 0.447246 0.915796 0.144653
Si Si4 0.607097 0.918334 0.104159
Si Si5 0.162125 0.914898 0.549203
Si Si6 0.474023 0.583343 0.569439
Si Si7 0.812590 0.588499 0.881979
O O1 0.532575 0.250000 0.670332
O O2 0.426067 0.398764 0.723583
O O3 0.556881 0.446384 0.769583
O O4 0.520131 0.523686 0.637496
O O5 0.192732 0.750000 0.245734
O O6 0.157433 0.971480 0.328614
O O7 0.202399 0.002524 0.191556
O O8 0.437557 0.750000 0.128560
O O9 0.523714 0.972879 0.111209
O O10 0.381817 0.001512 0.109463
O O11 0.606174 0.750000 0.108753
O O12 0.641792 0.974239 0.029885
O O13 0.142083 0.750000 0.555441
O O14 0.248136 0.941938 0.561265
O O15 0.500000 0.500000 0.500000
O O16 0.489190 0.750000 0.561434
O O17 0.388411 0.547925 0.579518
O O18 0.814248 0.750000 0.857321
#
# Coordination Sequence:
#
# PCOD8250936 Si02
#       7
#     8   8   8   8   8   8   8
#     4   8  15  29  48  69  92 117 149 193 238 278
#     4   8  14  28  50  68  84 114 157 197 229 270
#     4   9  17  30  48  71  97 123 157 198 233 272
#     4   8  15  29  49  71  93 122 160 196 230 272
#     4  10  19  31  47  68  99 132 156 186 234 289
#     4  10  19  32  51  72  94 123 161 204 246 286
#     4   9  19  33  47  67  96 127 157 192 237 285
#
# _framework density 17.474367999999998
#
# number of rings (size 3 to 8) (size 9 to 14) (size 15 to 20)
#    0.000    3.143    0.000    2.571    0.000    1.714 
#    0.000    4.286    0.000    3.429    0.000    0.000 
#    0.000    0.000    0.000    0.000    0.000    0.000 
#
# Total GULP energy -694123.273516 kJ/mol
# GULP energy per Si atom -12395.058456 kJ/mol
# Density = 1.743460 g / cm^3
# Si number density = 17.474368 Si / 1000 Ang^3
#
#
#
# Elastic Constant Matrix: (Units=GPa)
#
#
# Indices 1 2 3 4 5 6 
#
# 1 60.1028 36.0856 49.7078 0.0000 0.0000 0.0000
# 2 36.0856 74.4889 66.9427 0.0000 0.0000 0.0000
# 3 49.7078 66.9427 141.6242 0.0000 0.0000 0.0000
# 4 0.0000 0.0000 0.0000 30.2874 0.0000 0.0000
# 5 0.0000 0.0000 0.0000 0.0000 19.1382 0.0000
# 6 0.0000 0.0000 0.0000 0.0000 0.0000 20.3637
#
#
#
# Elastic Compliance Matrix: (Units=1/GPa)
#
#
# Indices 1 2 3 4 5 6 
#
# 1 0.025669 -0.007543 -0.005444 0.000000 0.000000 0.000000
# 2 -0.007543 0.025555 -0.009432 0.000000 0.000000 0.000000
# 3 -0.005444 -0.009432 0.013430 0.000000 0.000000 0.000000
# 4 0.000000 0.000000 0.000000 0.033017 0.000000 0.000000
# 5 0.000000 0.000000 0.000000 0.000000 0.052251 0.000000
# 6 0.000000 0.000000 0.000000 0.000000 0.000000 0.049107
#
#
# Mechanical properties :
#
#
# Convention : Reuss Voigt Hill
#
# Bulk Modulus (GPa) = 50.46211 64.63203 57.54707
# Shear Modulus (GPa) = 19.96215 22.18986 21.07601
#
# Velocity S-wave (km/s) = 3.38356 3.56736 3.47668
# Velocity P-wave (km/s) = 6.64869 7.35086 7.00858
#
# Compressibility (1/GPa) = 0.01981685
#
# Stress axis : x y z
#
# Youngs Moduli (GPa) = 38.95686 39.13076 74.45915
#
# Poissons Ratio (x) = 0.29515 0.40538
# Poissons Ratio (y) = 0.29383 0.70231
# Poissons Ratio (z) = 0.21209 0.36909
#
# Static dielectric constant tensor:
#      x y z
#    x 3.025710 0.000000 0.000000 
#    y 0.000000 3.278810 0.000000 
#    z 0.000000 0.000000 3.587540 
# 
# 
# High freq. dielectric constant tensor:
#      x y z
#    x 1.644610 0.000000 0.000000 
#    y 0.000000 1.659840 0.000000 
#    z 0.000000 0.000000 1.684020 
# 
# From -- ./inp_files/24649.got.cif
#   From: 2010.03.12/outbox.cif.g09.slc.cpg/sg62_13_cif.got.tgz:24649.got - 2010.04.10 19:12:36.
