data_PCOD8250420
_publ_section_title
;
Structure prediction by ZEFSAII (Michael W. Deem and Ramdas Pophale) SiO2 
 PCOD8250420
Probable space group: P N M A
;
_chemical_formula_sum "Si O2"
_cell_formula_units_Z 56
_cell_length_a 5.197245
_cell_length_b 26.033713
_cell_length_c 20.767939
_cell_angle_alpha 90.000000
_cell_angle_beta 90.000000
_cell_angle_gamma 90.000000
_cell_volume 2809.976594
_symmetry_space_group_name_H-M "P N M A"
_symmetry_group_IT_number 62
_symmetry_cell_setting 'orthorhombic'
loop_
_space_group_symop_operation_xyz
x,y,z
1/2-x,-y,1/2+z
1/2+x,1/2-y,1/2-z
-x,1/2+y,-z
-x,-y,-z
1/2+x,y,1/2-z
1/2-x,1/2+y,1/2+z
x,1/2-y,z
loop_
_atom_site_type_symbol
_atom_site_label
_atom_site_fract_x
_atom_site_fract_y
_atom_site_fract_z
Si Si1 0.933783 0.480956 0.823699
Si Si2 0.933835 0.524484 0.685587
Si Si3 0.995438 0.154694 0.434394
Si Si4 0.053073 0.441205 0.512752
Si Si5 0.977703 0.857641 0.712315
Si Si6 0.052652 0.095414 0.920340
Si Si7 0.994797 0.308389 0.995199
O O1 0.894785 0.486252 0.747303
O O2 0.670469 0.502538 0.856878
O O3 0.163021 0.518174 0.851482
O O4 0.991301 0.422496 0.846854
O O5 0.990395 0.580857 0.710975
O O6 0.017865 0.093301 0.447675
O O7 0.217867 0.185222 0.471670
O O8 0.025044 0.165489 0.358906
O O9 0.717012 0.175423 0.455122
O O10 0.347715 0.434761 0.535105
O O11 0.000000 0.500000 0.500000
O O12 0.846289 0.419526 0.563931
O O13 0.226542 0.837581 0.750531
O O14 0.013282 0.156387 0.930806
O O15 0.030054 0.250000 0.972784
#
# Coordination Sequence:
#
# PCOD8250420 Si02
#       7
#     8   8   8   8   8   8   8
#     4  10  18  31  47  72 110 137 192 202 247 301
#     4  10  19  31  46  75 105 163 174 200 249 304
#     4  10  23  36  57  85 105 141 184 226 277 330
#     4  10  21  33  46  76 113 143 168 208 273 322
#     4  12  21  35  53  78 112 142 193 210 249 320
#     4  10  21  33  53  80 102 138 187 220 257 330
#     4  10  21  43  62  79 103 137 185 239 296 327
#
# _framework density 19.928991
#
# number of rings (size 3 to 8) (size 9 to 14) (size 15 to 20)
#    0.000    1.714    2.857    2.571    4.000    0.000 
#    0.000    0.000    0.000    8.571    0.000    4.000 
#    0.000    0.000    0.000    0.000    0.000    0.000 
#
# Total GULP energy -694055.639350 kJ/mol
# GULP energy per Si atom -12393.850703 kJ/mol
# Density = 1.988363 g / cm^3
# Si number density = 19.928991 Si / 1000 Ang^3
#
#
#
# Elastic Constant Matrix: (Units=GPa)
#
#
# Indices 1 2 3 4 5 6 
#
# 1 135.4223 4.4643 -8.1841 0.0000 0.0000 0.0000
# 2 4.4643 94.3575 0.7253 0.0000 0.0000 0.0000
# 3 -8.1841 0.7253 25.0698 0.0000 0.0000 0.0000
# 4 0.0000 0.0000 0.0000 13.7345 0.0000 0.0000
# 5 0.0000 0.0000 0.0000 0.0000 20.9577 0.0000
# 6 0.0000 0.0000 0.0000 0.0000 0.0000 18.4067
#
#
#
# Elastic Compliance Matrix: (Units=1/GPa)
#
#
# Indices 1 2 3 4 5 6 
#
# 1 0.007546 -0.000376 0.002474 0.000000 0.000000 0.000000
# 2 -0.000376 0.010619 -0.000430 0.000000 0.000000 0.000000
# 3 0.002474 -0.000430 0.040709 0.000000 0.000000 0.000000
# 4 0.000000 0.000000 0.000000 0.072810 0.000000 0.000000
# 5 0.000000 0.000000 0.000000 0.000000 0.047715 0.000000
# 6 0.000000 0.000000 0.000000 0.000000 0.000000 0.054328
#
#
# Mechanical properties :
#
#
# Convention : Reuss Voigt Hill
#
# Bulk Modulus (GPa) = 16.07435 27.65118 21.86276
# Shear Modulus (GPa) = 19.91023 27.80939 23.85981
#
# Velocity S-wave (km/s) = 3.16422 3.73959 3.46387
# Velocity P-wave (km/s) = 4.62958 5.70535 5.19538
#
# Compressibility (1/GPa) = 0.06221091
#
# Stress axis : x y z
#
# Youngs Moduli (GPa) = 132.51635 94.17005 24.56465
#
# Poissons Ratio (x) = 0.03541 -0.06078
# Poissons Ratio (y) = 0.04983 0.01056
# Poissons Ratio (z) = -0.32789 0.04049
#
# Static dielectric constant tensor:
#      x y z
#    x 4.483990 0.000000 0.000000 
#    y 0.000000 3.432450 0.000000 
#    z 0.000000 0.000000 3.437510 
# 
# 
# High freq. dielectric constant tensor:
#      x y z
#    x 1.818330 0.000000 0.000000 
#    y 0.000000 1.739660 0.000000 
#    z 0.000000 0.000000 1.746480 
# 
# From -- ./inp_files/25378.got.cif
#   From: 2010.03.12/outbox.cif.g09.slc.cpg/sg62_13_cif.got.tgz:25378.got - 2010.04.10 19:12:36.
