data_PCOD8250225
_publ_section_title
;
Structure prediction by ZEFSAII (Michael W. Deem and Ramdas Pophale) SiO2 
 PCOD8250225
Probable space group: P N M A
;
_chemical_formula_sum "Si O2"
_cell_formula_units_Z 40
_cell_length_a 8.992226
_cell_length_b 19.245116
_cell_length_c 13.862450
_cell_angle_alpha 90.000000
_cell_angle_beta 90.000000
_cell_angle_gamma 90.000000
_cell_volume 2398.986142
_symmetry_space_group_name_H-M "P N M A"
_symmetry_group_IT_number 62
_symmetry_cell_setting 'orthorhombic'
loop_
_space_group_symop_operation_xyz
x,y,z
1/2-x,-y,1/2+z
1/2+x,1/2-y,1/2-z
-x,1/2+y,-z
-x,-y,-z
1/2+x,y,1/2-z
1/2-x,1/2+y,1/2+z
x,1/2-y,z
loop_
_atom_site_type_symbol
_atom_site_label
_atom_site_fract_x
_atom_site_fract_y
_atom_site_fract_z
Si Si1 0.259403 0.250000 0.377221
Si Si2 0.290916 0.396271 0.462879
Si Si3 0.890760 0.980214 0.691829
Si Si4 0.897578 0.898100 0.872917
Si Si5 0.206359 0.022844 0.641136
Si Si6 0.407085 0.750000 0.685286
O O1 0.243052 0.317192 0.444544
O O2 0.130714 0.250000 0.297896
O O3 0.414685 0.250000 0.320160
O O4 0.466321 0.406777 0.446325
O O5 0.255412 0.413522 0.573789
O O6 0.200285 0.448467 0.395736
O O7 0.950758 0.919538 0.764050
O O8 0.028815 0.023075 0.649668
O O9 0.783381 0.031873 0.753553
O O10 0.842182 0.818220 0.868695
O O11 0.763006 0.948980 0.905404
#
# Coordination Sequence:
#
# PCOD8250225 Si02
#       6
#     4   8   8   8   8   4
#     4  10  20  30  48  72 100 128 162 192 256 292
#     4  11  19  33  50  74 100 129 165 201 241 299
#     4  10  18  32  47  73  97 127 163 193 252 285
#     4   9  18  31  47  71 101 129 155 192 250 293
#     4  10  20  31  51  71 102 127 166 205 237 294
#     4  10  18  28  48  68 102 130 150 196 246 312
#
# _framework density 16.673711000000001
#
# number of rings (size 3 to 8) (size 9 to 14) (size 15 to 20)
#    1.200    0.800    4.000    1.200    2.800    0.000 
#    0.000    0.000    0.000    1.200    0.000    1.400 
#    0.000    0.000    0.000    0.000    0.000    0.000 
#
# Total GULP energy -495793.188517 kJ/mol
# GULP energy per Si atom -12394.829713 kJ/mol
# Density = 1.663576 g / cm^3
# Si number density = 16.673711 Si / 1000 Ang^3
#
#
#
# Elastic Constant Matrix: (Units=GPa)
#
#
# Indices 1 2 3 4 5 6 
#
# 1 61.8175 29.1310 25.7258 0.0000 0.0000 0.0000
# 2 29.1310 74.3764 34.4731 0.0000 0.0000 0.0000
# 3 25.7258 34.4731 61.5205 0.0000 0.0000 0.0000
# 4 0.0000 0.0000 0.0000 26.1539 0.0000 0.0000
# 5 0.0000 0.0000 0.0000 0.0000 20.1838 0.0000
# 6 0.0000 0.0000 0.0000 0.0000 0.0000 18.2830
#
#
#
# Elastic Compliance Matrix: (Units=1/GPa)
#
#
# Indices 1 2 3 4 5 6 
#
# 1 0.021219 -0.005671 -0.005695 0.000000 0.000000 0.000000
# 2 -0.005671 0.019678 -0.008655 0.000000 0.000000 0.000000
# 3 -0.005695 -0.008655 0.023486 0.000000 0.000000 0.000000
# 4 0.000000 0.000000 0.000000 0.038235 0.000000 0.000000
# 5 0.000000 0.000000 0.000000 0.000000 0.049545 0.000000
# 6 0.000000 0.000000 0.000000 0.000000 0.000000 0.054696
#
#
# Mechanical properties :
#
#
# Convention : Reuss Voigt Hill
#
# Bulk Modulus (GPa) = 41.08416 41.81935 41.45176
# Shear Modulus (GPa) = 19.60665 20.14978 19.87821
#
# Velocity S-wave (km/s) = 3.43286 3.48009 3.45655
# Velocity P-wave (km/s) = 6.35660 6.42522 6.39100
#
# Compressibility (1/GPa) = 0.02434028
#
# Stress axis : x y z
#
# Youngs Moduli (GPa) = 47.12689 50.81835 42.57815
#
# Poissons Ratio (x) = 0.28820 0.24250
# Poissons Ratio (y) = 0.26727 0.36852
# Poissons Ratio (z) = 0.26840 0.43984
#
# Static dielectric constant tensor:
#      x y z
#    x 3.018580 0.000000 0.000000 
#    y 0.000000 3.008920 0.000000 
#    z 0.000000 0.000000 2.870560 
# 
# 
# High freq. dielectric constant tensor:
#      x y z
#    x 1.643140 0.000000 0.000000 
#    y 0.000000 1.619970 0.000000 
#    z 0.000000 0.000000 1.616790 
# 
# From -- ./inp_files/16811.got.cif
#   From: 2010.03.12/outbox.cif.g09.slc.cpg/sg62_9_cif.got.tgz:16811.got - 2010.04.10 19:12:36.
