data_PCOD8250451
_publ_section_title
;
Structure prediction by ZEFSAII (Michael W. Deem and Ramdas Pophale) SiO2 
 PCOD8250451
Probable space group: P N M A
;
_chemical_formula_sum "Si O2"
_cell_formula_units_Z 64
_cell_length_a 22.142675
_cell_length_b 9.137381
_cell_length_c 16.954368
_cell_angle_alpha 90.000000
_cell_angle_beta 90.000000
_cell_angle_gamma 90.000000
_cell_volume 3430.310441
_symmetry_space_group_name_H-M "P N M A"
_symmetry_group_IT_number 62
_symmetry_cell_setting 'orthorhombic'
loop_
_space_group_symop_operation_xyz
x,y,z
1/2-x,-y,1/2+z
1/2+x,1/2-y,1/2-z
-x,1/2+y,-z
-x,-y,-z
1/2+x,y,1/2-z
1/2-x,1/2+y,1/2+z
x,1/2-y,z
loop_
_atom_site_type_symbol
_atom_site_label
_atom_site_fract_x
_atom_site_fract_y
_atom_site_fract_z
Si Si1 0.099224 0.922156 0.232007
Si Si2 0.660086 0.414716 0.133204
Si Si3 0.862751 0.919619 0.306327
Si Si4 0.531971 0.078420 0.695168
Si Si5 0.695738 0.420773 0.964720
Si Si6 0.670820 0.922634 0.421221
Si Si7 0.875338 0.924340 0.065713
Si Si8 0.293210 0.085191 0.318757
O O1 0.094436 0.750000 0.245079
O O2 0.150381 0.961419 0.167657
O O3 0.034838 0.988918 0.202889
O O4 0.112743 0.991062 0.317128
O O5 0.634504 0.250000 0.124131
O O6 0.721567 0.413779 0.182059
O O7 0.671783 0.488462 0.046990
O O8 0.848333 0.750000 0.287482
O O9 0.928977 0.961835 0.273546
O O10 0.855969 0.951265 0.399383
O O11 0.812632 0.017175 0.264064
O O12 0.525661 0.250000 0.687065
O O13 0.566282 0.022044 0.616320
O O14 0.705812 0.250000 0.980124
O O15 0.760997 0.482102 0.936160
O O16 0.665384 0.750000 0.436531
O O17 0.623721 0.004935 0.479060
O O18 0.871593 0.750000 0.060222
O O19 0.815987 0.985523 0.109219
O O20 0.318804 0.250000 0.328199
#
# Coordination Sequence:
#
# PCOD8250451 Si02
#       8
#     8   8   8   8   8   8   8   8
#     4  10  21  36  54  74 102 140 179 214 255 309
#     4  10  20  34  51  72 104 135 168 215 264 309
#     4   9  17  32  56  77  99 136 180 213 249 308
#     4   8  17  34  52  75 104 135 176 221 252 290
#     4   9  17  32  52  75 102 134 169 208 259 316
#     4  10  19  33  52  76 106 136 169 210 262 315
#     4  10  19  32  53  78 105 137 172 208 253 307
#     4  10  18  31  51  75 107 135 162 209 265 308
#
# _framework density 18.657202999999999
#
# number of rings (size 3 to 8) (size 9 to 14) (size 15 to 20)
#    0.000    2.500    1.250    2.250    0.000    3.000 
#    0.000    5.000    0.000    0.000    0.000    0.000 
#    0.000    0.000    0.000    0.000    0.000    0.000 
#
# Total GULP energy -793294.173807 kJ/mol
# GULP energy per Si atom -12395.221466 kJ/mol
# Density = 1.861474 g / cm^3
# Si number density = 18.657203 Si / 1000 Ang^3
#
#
#
# Elastic Constant Matrix: (Units=GPa)
#
#
# Indices 1 2 3 4 5 6 
#
# 1 67.6661 17.0883 41.0672 0.0000 0.0000 0.0000
# 2 17.0883 45.6379 31.4239 0.0000 0.0000 0.0000
# 3 41.0672 31.4239 121.4347 0.0000 0.0000 0.0000
# 4 0.0000 0.0000 0.0000 25.4250 0.0000 0.0000
# 5 0.0000 0.0000 0.0000 0.0000 23.1122 0.0000
# 6 0.0000 0.0000 0.0000 0.0000 0.0000 17.7159
#
#
#
# Elastic Compliance Matrix: (Units=1/GPa)
#
#
# Indices 1 2 3 4 5 6 
#
# 1 0.018988 -0.003271 -0.005575 0.000000 0.000000 0.000000
# 2 -0.003271 0.027226 -0.005939 0.000000 0.000000 0.000000
# 3 -0.005575 -0.005939 0.011657 0.000000 0.000000 0.000000
# 4 0.000000 0.000000 0.000000 0.039331 0.000000 0.000000
# 5 0.000000 0.000000 0.000000 0.000000 0.043267 0.000000
# 6 0.000000 0.000000 0.000000 0.000000 0.000000 0.056446
#
#
# Mechanical properties :
#
#
# Convention : Reuss Voigt Hill
#
# Bulk Modulus (GPa) = 35.33483 45.98860 40.66172
# Shear Modulus (GPa) = 21.19367 22.92792 22.06080
#
# Velocity S-wave (km/s) = 3.37404 3.50938 3.44238
# Velocity P-wave (km/s) = 5.84457 6.41278 6.13525
#
# Compressibility (1/GPa) = 0.02830069
#
# Stress axis : x y z
#
# Youngs Moduli (GPa) = 52.66481 36.72995 85.78470
#
# Poissons Ratio (x) = 0.12015 0.47825
# Poissons Ratio (y) = 0.17227 0.50948
# Poissons Ratio (z) = 0.29360 0.21814
#
# Static dielectric constant tensor:
#      x y z
#    x 3.458410 0.000000 0.000000 
#    y 0.000000 3.232180 0.000000 
#    z 0.000000 0.000000 3.518950 
# 
# 
# High freq. dielectric constant tensor:
#      x y z
#    x 1.706860 0.000000 0.000000 
#    y 0.000000 1.695530 0.000000 
#    z 0.000000 0.000000 1.729110 
# 
# From -- ./inp_files/20858.got.cif
#   From: 2010.03.12/outbox.cif.g09.slc.cpg/sg62_11_cif.got.tgz:20858.got - 2010.04.10 19:12:36.
