data_PCOD8250182
_publ_section_title
;
Structure prediction by ZEFSAII (Michael W. Deem and Ramdas Pophale) SiO2 
 PCOD8250182
Probable space group: P N M A
;
_chemical_formula_sum "Si O2"
_cell_formula_units_Z 56
_cell_length_a 29.503988
_cell_length_b 8.703686
_cell_length_c 13.785681
_cell_angle_alpha 90.000000
_cell_angle_beta 90.000000
_cell_angle_gamma 90.000000
_cell_volume 3540.072547
_symmetry_space_group_name_H-M "P N M A"
_symmetry_group_IT_number 62
_symmetry_cell_setting 'orthorhombic'
loop_
_space_group_symop_operation_xyz
x,y,z
1/2-x,-y,1/2+z
1/2+x,1/2-y,1/2-z
-x,1/2+y,-z
-x,-y,-z
1/2+x,y,1/2-z
1/2-x,1/2+y,1/2+z
x,1/2-y,z
loop_
_atom_site_type_symbol
_atom_site_label
_atom_site_fract_x
_atom_site_fract_y
_atom_site_fract_z
Si Si1 0.813995 0.931664 0.198676
Si Si2 0.233295 0.430095 0.610914
Si Si3 0.678792 0.932086 0.279209
Si Si4 0.906923 0.568307 0.879843
Si Si5 0.903885 0.930414 0.099525
Si Si6 0.997625 0.069278 0.894155
Si Si7 0.227354 0.431888 0.395643
O O1 0.807541 0.750000 0.180500
O O2 0.806461 0.970649 0.312365
O O3 0.863492 0.993624 0.167223
O O4 0.777911 0.022536 0.134746
O O5 0.239770 0.250000 0.601027
O O6 0.281293 0.495933 0.650425
O O7 0.220507 0.495534 0.505430
O O8 0.675842 0.750000 0.281212
O O9 0.631344 0.002079 0.310638
O O10 0.689629 0.985931 0.170000
O O11 0.905593 0.750000 0.875887
O O12 0.955812 0.510929 0.838236
O O13 0.900296 0.503286 0.989654
O O14 0.898484 0.750000 0.089015
O O15 0.952434 0.968570 0.150705
O O16 0.988873 0.250000 0.898346
O O17 0.000000 0.000000 0.000000
O O18 0.220969 0.250000 0.387806
#
# Coordination Sequence:
#
# PCOD8250182 Si02
#       7
#     8   8   8   8   8   8   8
#     4   9  16  29  45  62  83 112 144 173 204 246
#     4   8  16  28  43  61  84 110 139 171 208 247
#     4  10  19  31  45  63  84 113 146 175 208 252
#     4  10  18  28  42  64  89 115 143 176 214 255
#     4   8  15  26  43  64  87 113 144 174 206 248
#     4   9  16  27  41  61  87 116 145 176 212 255
#     4  10  18  29  42  61  86 111 138 173 208 245
#
# _framework density 15.818884000000001
#
# number of rings (size 3 to 8) (size 9 to 14) (size 15 to 20)
#    0.000    2.857    0.000    4.286    0.000    0.000 
#    0.000   10.000    0.000    0.000    0.000    1.000 
#    0.000    0.000    0.000    0.000    0.000    0.000 
#
# Total GULP energy -693939.954715 kJ/mol
# GULP energy per Si atom -12391.784906 kJ/mol
# Density = 1.578288 g / cm^3
# Si number density = 15.818884 Si / 1000 Ang^3
#
#
#
# Elastic Constant Matrix: (Units=GPa)
#
#
# Indices 1 2 3 4 5 6 
#
# 1 139.6562 29.8483 57.3229 0.0000 0.0000 0.0000
# 2 29.8483 50.6939 21.2274 0.0000 0.0000 0.0000
# 3 57.3229 21.2274 97.4416 0.0000 0.0000 0.0000
# 4 0.0000 0.0000 0.0000 16.4758 0.0000 0.0000
# 5 0.0000 0.0000 0.0000 0.0000 24.2522 0.0000
# 6 0.0000 0.0000 0.0000 0.0000 0.0000 24.3768
#
#
#
# Elastic Compliance Matrix: (Units=1/GPa)
#
#
# Indices 1 2 3 4 5 6 
#
# 1 0.010061 -0.003791 -0.005093 0.000000 0.000000 0.000000
# 2 -0.003791 0.023135 -0.002810 0.000000 0.000000 0.000000
# 3 -0.005093 -0.002810 0.013871 0.000000 0.000000 0.000000
# 4 0.000000 0.000000 0.000000 0.060695 0.000000 0.000000
# 5 0.000000 0.000000 0.000000 0.000000 0.041233 0.000000
# 6 0.000000 0.000000 0.000000 0.000000 0.000000 0.041023
#
#
# Mechanical properties :
#
#
# Convention : Reuss Voigt Hill
#
# Bulk Modulus (GPa) = 42.23089 56.06542 49.14815
# Shear Modulus (GPa) = 22.59391 24.98049 23.78720
#
# Velocity S-wave (km/s) = 3.78337 3.97817 3.88199
# Velocity P-wave (km/s) = 6.77050 7.52464 7.15751
#
# Compressibility (1/GPa) = 0.02367935
#
# Stress axis : x y z
#
# Youngs Moduli (GPa) = 99.39224 43.22443 72.09496
#
# Poissons Ratio (x) = 0.16388 0.36717
# Poissons Ratio (y) = 0.37684 0.20255
# Poissons Ratio (z) = 0.50619 0.12144
#
# Static dielectric constant tensor:
#      x y z
#    x 3.413110 0.000000 0.000000 
#    y 0.000000 2.924590 0.000000 
#    z 0.000000 0.000000 3.054340 
# 
# 
# High freq. dielectric constant tensor:
#      x y z
#    x 1.609270 0.000000 0.000000 
#    y 0.000000 1.599350 0.000000 
#    z 0.000000 0.000000 1.575850 
# 
# From -- ./inp_files/21193.got.cif
#   From: 2010.03.12/outbox.cif.g09.slc.cpg/sg62_11_cif.got.tgz:21193.got - 2010.04.10 19:12:36.
