data_PCOD8250986
_publ_section_title
;
Structure prediction by ZEFSAII (Michael W. Deem and Ramdas Pophale) SiO2 
 PCOD8250986
Probable space group: P N M A
;
_chemical_formula_sum "Si O2"
_cell_formula_units_Z 64
_cell_length_a 18.637036
_cell_length_b 8.838620
_cell_length_c 22.680865
_cell_angle_alpha 90.000000
_cell_angle_beta 90.000000
_cell_angle_gamma 90.000000
_cell_volume 3736.120890
_symmetry_space_group_name_H-M "P N M A"
_symmetry_group_IT_number 62
_symmetry_cell_setting 'orthorhombic'
loop_
_space_group_symop_operation_xyz
x,y,z
1/2-x,-y,1/2+z
1/2+x,1/2-y,1/2-z
-x,1/2+y,-z
-x,-y,-z
1/2+x,y,1/2-z
1/2-x,1/2+y,1/2+z
x,1/2-y,z
loop_
_atom_site_type_symbol
_atom_site_label
_atom_site_fract_x
_atom_site_fract_y
_atom_site_fract_z
Si Si1 0.541768 0.070273 0.055521
Si Si2 0.792497 0.927071 0.555739
Si Si3 0.331631 0.928760 0.378150
Si Si4 0.925452 0.575565 0.012362
Si Si5 0.048443 0.072110 0.655484
Si Si6 0.881764 0.422120 0.240458
Si Si7 0.712142 0.424379 0.451361
Si Si8 0.813946 0.080368 0.354500
O O1 0.532264 0.250000 0.053103
O O2 0.624944 0.021419 0.055059
O O3 0.513534 0.005474 0.117526
O O4 0.500000 0.000000 0.000000
O O5 0.785431 0.750000 0.565724
O O6 0.747527 0.005264 0.608758
O O7 0.759733 0.971864 0.493103
O O8 0.324942 0.750000 0.376924
O O9 0.386808 0.984970 0.428599
O O10 0.364141 0.984085 0.317056
O O11 0.942099 0.750000 0.019270
O O12 0.872272 0.539063 0.957420
O O13 0.000000 0.500000 0.000000
O O14 0.034940 0.250000 0.659913
O O15 0.052874 0.998682 0.721726
O O16 0.124504 0.035725 0.622665
O O17 0.902563 0.250000 0.223884
O O18 0.810623 0.426882 0.282957
O O19 0.724395 0.250000 0.470527
O O20 0.737273 0.457637 0.384173
O O21 0.837781 0.250000 0.373689
#
# Coordination Sequence:
#
# PCOD8250986 Si02
#       8
#     8   8   8   8   8   8   8   8
#     4  11  22  34  49  74 109 145 181 218 262 313
#     4  10  21  33  49  76 104 135 174 215 257 308
#     4  10  20  36  57  79 103 135 174 217 265 318
#     4   9  19  33  52  77 104 132 165 207 260 313
#     4  10  19  31  49  74 103 137 175 214 256 306
#     4   9  18  33  55  78 100 133 175 215 255 305
#     4   9  17  32  51  73 102 133 165 207 258 307
#     4   8  16  30  50  73 100 132 171 213 252 301
#
# _framework density 17.130068000000001
#
# number of rings (size 3 to 8) (size 9 to 14) (size 15 to 20)
#    0.750    1.750    0.000    3.750    0.000    7.000 
#    0.000    0.000    2.750    0.000    0.000    0.000 
#    0.000    0.000    0.000    0.000    0.000    0.000 
#
# Total GULP energy -792896.756794 kJ/mol
# GULP energy per Si atom -12389.011825 kJ/mol
# Density = 1.709108 g / cm^3
# Si number density = 17.130068 Si / 1000 Ang^3
#
#
#
# Elastic Constant Matrix: (Units=GPa)
#
#
# Indices 1 2 3 4 5 6 
#
# 1 120.2722 43.5660 47.2546 0.0000 0.0000 0.0000
# 2 43.5660 74.1092 31.5179 0.0000 0.0000 0.0000
# 3 47.2546 31.5179 78.2027 0.0000 0.0000 0.0000
# 4 0.0000 0.0000 0.0000 28.9764 0.0000 0.0000
# 5 0.0000 0.0000 0.0000 0.0000 25.7945 0.0000
# 6 0.0000 0.0000 0.0000 0.0000 0.0000 27.2196
#
#
#
# Elastic Compliance Matrix: (Units=1/GPa)
#
#
# Indices 1 2 3 4 5 6 
#
# 1 0.012206 -0.004874 -0.005411 0.000000 0.000000 0.000000
# 2 -0.004874 0.018231 -0.004402 0.000000 0.000000 0.000000
# 3 -0.005411 -0.004402 0.017831 0.000000 0.000000 0.000000
# 4 0.000000 0.000000 0.000000 0.034511 0.000000 0.000000
# 5 0.000000 0.000000 0.000000 0.000000 0.038768 0.000000
# 6 0.000000 0.000000 0.000000 0.000000 0.000000 0.036738
#
#
# Mechanical properties :
#
#
# Convention : Reuss Voigt Hill
#
# Bulk Modulus (GPa) = 52.92950 57.47347 55.20149
# Shear Modulus (GPa) = 25.77864 26.41447 26.09656
#
# Velocity S-wave (km/s) = 3.88348 3.93108 3.90736
# Velocity P-wave (km/s) = 7.14663 7.36401 7.25613
#
# Compressibility (1/GPa) = 0.01889306
#
# Stress axis : x y z
#
# Youngs Moduli (GPa) = 81.92640 54.85081 56.08101
#
# Poissons Ratio (x) = 0.26735 0.30347
# Poissons Ratio (y) = 0.39932 0.24689
# Poissons Ratio (z) = 0.44332 0.24148
#
# Static dielectric constant tensor:
#      x y z
#    x 3.178310 0.000000 0.000000 
#    y 0.000000 3.245220 0.000000 
#    z 0.000000 0.000000 3.168010 
# 
# 
# High freq. dielectric constant tensor:
#      x y z
#    x 1.641710 0.000000 0.000000 
#    y 0.000000 1.670440 0.000000 
#    z 0.000000 0.000000 1.649020 
# 
# From -- ./inp_files/30038.got.cif
#   From: 2010.03.12/outbox.cif.g09.slc.cpg/sg62_16_cif.got.tgz:30038.got - 2010.04.10 19:12:36.
