data_PCOD8250148
_publ_section_title
;
Structure prediction by ZEFSAII (Michael W. Deem and Ramdas Pophale) SiO2 
 PCOD8250148
Probable space group: P N M A
;
_chemical_formula_sum "Si O2"
_cell_formula_units_Z 64
_cell_length_a 26.370984
_cell_length_b 9.073753
_cell_length_c 18.179658
_cell_angle_alpha 90.000000
_cell_angle_beta 90.000000
_cell_angle_gamma 90.000000
_cell_volume 4350.097561
_symmetry_space_group_name_H-M "P N M A"
_symmetry_group_IT_number 62
_symmetry_cell_setting 'orthorhombic'
loop_
_space_group_symop_operation_xyz
x,y,z
1/2-x,-y,1/2+z
1/2+x,1/2-y,1/2-z
-x,1/2+y,-z
-x,-y,-z
1/2+x,y,1/2-z
1/2-x,1/2+y,1/2+z
x,1/2-y,z
loop_
_atom_site_type_symbol
_atom_site_label
_atom_site_fract_x
_atom_site_fract_y
_atom_site_fract_z
Si Si1 0.250157 0.921738 0.077744
Si Si2 0.148775 0.422063 0.829642
Si Si3 0.551584 0.077381 0.416126
Si Si4 0.797372 0.076764 0.293257
Si Si5 0.550017 0.423236 0.584513
Si Si6 0.643472 0.583279 0.347510
Si Si7 0.791137 0.083552 0.718112
Si Si8 0.253915 0.583458 0.428206
O O1 0.261725 0.750000 0.082848
O O2 0.193961 0.959135 0.107212
O O3 0.292858 0.006021 0.125539
O O4 0.255033 0.971468 0.993852
O O5 0.146500 0.250000 0.811512
O O6 0.155690 0.509161 0.752912
O O7 0.096873 0.477968 0.866457
O O8 0.194213 0.456585 0.886133
O O9 0.545246 0.250000 0.407052
O O10 0.561426 0.030847 0.500432
O O11 0.500506 0.002062 0.386182
O O12 0.598840 0.026723 0.367556
O O13 0.804832 0.250000 0.300950
O O14 0.746345 0.039138 0.249373
O O15 0.541725 0.250000 0.591072
O O16 0.626695 0.750000 0.366044
O O17 0.654975 0.565503 0.259621
O O18 0.769915 0.250000 0.736305
O O19 0.793238 0.066254 0.629595
O O20 0.256675 0.750000 0.459247
#
# Coordination Sequence:
#
# PCOD8250148 Si02
#       8
#     8   8   8   8   8   8   8   8
#     4  10  19  29  41  59  84 112 141 171 204 244
#     4   9  17  30  45  59  81 112 141 170 207 248
#     4  10  19  29  42  61  83 106 137 177 210 236
#     4  10  18  27  41  60  81 106 138 173 206 242
#     4   9  18  31  44  58  80 111 141 169 206 247
#     4   9  17  29  43  57  78 111 143 168 201 245
#     4   8  16  30  43  57  81 110 137 168 206 246
#     4   9  16  27  43  62  84 108 136 170 206 243
#
# _framework density 14.712313999999999
#
# number of rings (size 3 to 8) (size 9 to 14) (size 15 to 20)
#    0.000    2.750    0.000    4.125    0.000    6.500 
#    0.000    0.000    0.000    0.000    0.000    0.000 
#    0.000    1.000    0.000    3.000    0.000    4.000 
#
# Total GULP energy -793327.094582 kJ/mol
# GULP energy per Si atom -12395.735853 kJ/mol
# Density = 1.467883 g / cm^3
# Si number density = 14.712314 Si / 1000 Ang^3
#
#
#
# Elastic Constant Matrix: (Units=GPa)
#
#
# Indices 1 2 3 4 5 6 
#
# 1 76.8346 33.7798 47.2915 0.0000 0.0000 0.0000
# 2 33.7798 64.8341 43.0964 0.0000 0.0000 0.0000
# 3 47.2915 43.0964 92.3347 0.0000 0.0000 0.0000
# 4 0.0000 0.0000 0.0000 25.5658 0.0000 0.0000
# 5 0.0000 0.0000 0.0000 0.0000 24.3134 0.0000
# 6 0.0000 0.0000 0.0000 0.0000 0.0000 20.7026
#
#
#
# Elastic Compliance Matrix: (Units=1/GPa)
#
#
# Indices 1 2 3 4 5 6 
#
# 1 0.020182 -0.005283 -0.007871 0.000000 0.000000 0.000000
# 2 -0.005283 0.023745 -0.008377 0.000000 0.000000 0.000000
# 3 -0.007871 -0.008377 0.018771 0.000000 0.000000 0.000000
# 4 0.000000 0.000000 0.000000 0.039115 0.000000 0.000000
# 5 0.000000 0.000000 0.000000 0.000000 0.041130 0.000000
# 6 0.000000 0.000000 0.000000 0.000000 0.000000 0.048303
#
#
# Mechanical properties :
#
#
# Convention : Reuss Voigt Hill
#
# Bulk Modulus (GPa) = 50.92589 53.59321 52.25955
# Shear Modulus (GPa) = 20.75955 21.43876 21.09915
#
# Velocity S-wave (km/s) = 3.76045 3.82147 3.79108
# Velocity P-wave (km/s) = 7.31739 7.48185 7.40008
#
# Compressibility (1/GPa) = 0.01963638
#
# Stress axis : x y z
#
# Youngs Moduli (GPa) = 49.54837 42.11438 53.27323
#
# Poissons Ratio (x) = 0.22251 0.41931
# Poissons Ratio (y) = 0.26179 0.44625
# Poissons Ratio (z) = 0.38999 0.35278
#
# Static dielectric constant tensor:
#      x y z
#    x 2.702060 0.000000 0.000000 
#    y 0.000000 2.809330 0.000000 
#    z 0.000000 0.000000 2.945610 
# 
# 
# High freq. dielectric constant tensor:
#      x y z
#    x 1.526920 0.000000 0.000000 
#    y 0.000000 1.568770 0.000000 
#    z 0.000000 0.000000 1.552290 
# 
# From -- ./inp_files/24939.got.cif
#   From: 2010.03.12/outbox.cif.g09.slc.cpg/sg62_13_cif.got.tgz:24939.got - 2010.04.10 19:12:36.
