data_PCOD8250113
_publ_section_title
;
Structure prediction by ZEFSAII (Michael W. Deem and Ramdas Pophale) SiO2 
 PCOD8250113
Probable space group: P N M A
;
_chemical_formula_sum "Si O2"
_cell_formula_units_Z 56
_cell_length_a 17.591219
_cell_length_b 9.378547
_cell_length_c 22.644660
_cell_angle_alpha 90.000000
_cell_angle_beta 90.000000
_cell_angle_gamma 90.000000
_cell_volume 3735.917687
_symmetry_space_group_name_H-M "P N M A"
_symmetry_group_IT_number 62
_symmetry_cell_setting 'orthorhombic'
loop_
_space_group_symop_operation_xyz
x,y,z
1/2-x,-y,1/2+z
1/2+x,1/2-y,1/2-z
-x,1/2+y,-z
-x,-y,-z
1/2+x,y,1/2-z
1/2-x,1/2+y,1/2+z
x,1/2-y,z
loop_
_atom_site_type_symbol
_atom_site_label
_atom_site_fract_x
_atom_site_fract_y
_atom_site_fract_z
Si Si1 0.939391 0.910792 0.718813
Si Si2 0.919175 0.584180 0.270959
Si Si3 0.278314 0.911074 0.804041
Si Si4 0.878210 0.413075 0.154309
Si Si5 0.257736 0.914531 0.191413
Si Si6 0.502299 0.582886 0.560524
Si Si7 0.873912 0.914242 0.848768
O O1 0.970621 0.750000 0.713895
O O2 0.865932 0.932921 0.675208
O O3 0.912792 0.944314 0.785652
O O4 0.005708 0.018018 0.698820
O O5 0.932172 0.750000 0.257853
O O6 0.905880 0.506846 0.208856
O O7 0.848660 0.562159 0.316556
O O8 0.272681 0.750000 0.776349
O O9 0.213768 0.926756 0.854907
O O10 0.260615 0.030545 0.756450
O O11 0.901883 0.250000 0.168764
O O12 0.920019 0.460811 0.094482
O O13 0.235535 0.750000 0.186750
O O14 0.205636 0.999542 0.144516
O O15 0.500000 0.500000 0.500000
O O16 0.499894 0.750000 0.547073
O O17 0.430981 0.534651 0.600301
O O18 0.853395 0.750000 0.856400
#
# Coordination Sequence:
#
# PCOD8250113 Si02
#       7
#     8   8   8   8   8   8   8
#     4   9  15  25  40  59  81 106 138 167 196 240
#     4  10  18  25  37  60  86 110 136 165 201 245
#     4   8  15  26  41  57  75 105 139 167 199 241
#     4   9  16  30  45  55  76 109 141 173 205 239
#     4   9  17  26  37  57  81 105 135 167 201 244
#     4  10  20  32  45  62  82 107 143 180 210 244
#     4   9  17  30  43  56  77 107 142 174 204 241
#
# _framework density 14.989623999999999
#
# number of rings (size 3 to 8) (size 9 to 14) (size 15 to 20)
#    0.000    2.857    1.429    1.714    0.000    5.143 
#    0.000    0.000    0.000    0.000    0.000    0.000 
#    0.000    1.143    0.000    2.571    0.000    4.000 
#
# Total GULP energy -693791.030151 kJ/mol
# GULP energy per Si atom -12389.125538 kJ/mol
# Density = 1.495551 g / cm^3
# Si number density = 14.989624 Si / 1000 Ang^3
#
#
#
# Elastic Constant Matrix: (Units=GPa)
#
#
# Indices 1 2 3 4 5 6 
#
# 1 140.9533 64.0698 45.0766 0.0000 0.0000 0.0000
# 2 64.0698 71.5581 25.0219 0.0000 0.0000 0.0000
# 3 45.0766 25.0219 49.7250 0.0000 0.0000 0.0000
# 4 0.0000 0.0000 0.0000 17.2381 0.0000 0.0000
# 5 0.0000 0.0000 0.0000 0.0000 15.9715 0.0000
# 6 0.0000 0.0000 0.0000 0.0000 0.0000 24.0698
#
#
#
# Elastic Compliance Matrix: (Units=1/GPa)
#
#
# Indices 1 2 3 4 5 6 
#
# 1 0.014076 -0.009880 -0.007789 0.000000 0.000000 0.000000
# 2 -0.009880 0.023893 -0.003067 0.000000 0.000000 0.000000
# 3 -0.007789 -0.003067 0.028715 0.000000 0.000000 0.000000
# 4 0.000000 0.000000 0.000000 0.058011 0.000000 0.000000
# 5 0.000000 0.000000 0.000000 0.000000 0.062612 0.000000
# 6 0.000000 0.000000 0.000000 0.000000 0.000000 0.041546
#
#
# Mechanical properties :
#
#
# Convention : Reuss Voigt Hill
#
# Bulk Modulus (GPa) = 39.66232 58.95257 49.30745
# Shear Modulus (GPa) = 17.93867 19.99372 18.96620
#
# Velocity S-wave (km/s) = 3.46314 3.65614 3.56095
# Velocity P-wave (km/s) = 6.51985 7.56554 7.06208
#
# Compressibility (1/GPa) = 0.02521285
#
# Stress axis : x y z
#
# Youngs Moduli (GPa) = 71.04225 41.85353 34.82543
#
# Poissons Ratio (x) = 0.41350 0.27125
# Poissons Ratio (y) = 0.70187 0.10681
# Poissons Ratio (z) = 0.55333 0.12836
#
# Static dielectric constant tensor:
#      x y z
#    x 3.497070 0.000000 0.000000 
#    y 0.000000 2.940430 0.000000 
#    z 0.000000 0.000000 2.377190 
# 
# 
# High freq. dielectric constant tensor:
#      x y z
#    x 1.594720 0.000000 0.000000 
#    y 0.000000 1.580870 0.000000 
#    z 0.000000 0.000000 1.495520 
# 
# From -- ./inp_files/27525.got.cif
#   From: 2010.03.12/outbox.cif.g09.slc.cpg/sg62_14_cif.got.tgz:27525.got - 2010.04.10 19:12:36.
