data_PCOD8250960
_publ_section_title
;
Structure prediction by ZEFSAII (Michael W. Deem and Ramdas Pophale) SiO2 
 PCOD8250960
Probable space group: P N M A
;
_chemical_formula_sum "Si O2"
_cell_formula_units_Z 56
_cell_length_a 24.057698
_cell_length_b 9.312880
_cell_length_c 13.480225
_cell_angle_alpha 90.000000
_cell_angle_beta 90.000000
_cell_angle_gamma 90.000000
_cell_volume 3020.196618
_symmetry_space_group_name_H-M "P N M A"
_symmetry_group_IT_number 62
_symmetry_cell_setting 'orthorhombic'
loop_
_space_group_symop_operation_xyz
x,y,z
1/2-x,-y,1/2+z
1/2+x,1/2-y,1/2-z
-x,1/2+y,-z
-x,-y,-z
1/2+x,y,1/2-z
1/2-x,1/2+y,1/2+z
x,1/2-y,z
loop_
_atom_site_type_symbol
_atom_site_label
_atom_site_fract_x
_atom_site_fract_y
_atom_site_fract_z
Si Si1 0.623782 0.082007 0.547126
Si Si2 0.330886 0.919168 0.969233
Si Si3 0.443079 0.919750 0.639234
Si Si4 0.268463 0.920164 0.559134
Si Si5 0.951985 0.581633 0.219810
Si Si6 0.450403 0.581778 0.053259
Si Si7 0.334630 0.919411 0.748926
O O1 0.628226 0.250000 0.527917
O O2 0.577228 0.027071 0.469260
O O3 0.685421 0.023045 0.520915
O O4 0.604828 0.043884 0.659092
O O5 0.320346 0.750000 0.978907
O O6 0.320420 0.979189 0.857996
O O7 0.289210 0.000119 0.041980
O O8 0.393405 0.958868 0.999346
O O9 0.454038 0.750000 0.643478
O O10 0.396113 0.969754 0.717523
O O11 0.498922 0.999763 0.666166
O O12 0.258978 0.750000 0.552026
O O13 0.288793 0.967976 0.668755
O O14 0.964346 0.750000 0.212921
O O15 0.945171 0.530924 0.332701
O O16 0.462951 0.750000 0.046220
O O17 0.500000 0.500000 0.000000
O O18 0.335834 0.750000 0.753659
#
# Coordination Sequence:
#
# PCOD8250960 Si02
#       7
#     8   8   8   8   8   8   8
#     4   8  16  31  50  72 102 134 163 196 242 294
#     4  10  20  35  53  74 100 130 161 201 249 291
#     4   9  16  30  52  74  96 132 173 200 230 287
#     4   9  18  34  54  75  97 128 168 204 237 288
#     4  10  19  31  48  74 105 132 157 200 254 292
#     4  10  22  37  53  73 100 131 164 201 245 294
#     4   8  16  32  52  70  96 133 167 198 241 292
#
# _framework density 18.541839
#
# number of rings (size 3 to 8) (size 9 to 14) (size 15 to 20)
#    0.000    2.857    0.000    3.000    0.000    3.429 
#    0.000    6.429    0.000    0.000    0.000    0.000 
#    0.000    0.000    0.000    0.000    0.000    0.000 
#
# Total GULP energy -694136.127799 kJ/mol
# GULP energy per Si atom -12395.287996 kJ/mol
# Density = 1.849964 g / cm^3
# Si number density = 18.541839 Si / 1000 Ang^3
#
#
#
# Elastic Constant Matrix: (Units=GPa)
#
#
# Indices 1 2 3 4 5 6 
#
# 1 123.6310 41.3445 62.2523 0.0000 0.0000 0.0000
# 2 41.3445 31.0642 30.0172 0.0000 0.0000 0.0000
# 3 62.2523 30.0172 125.3165 0.0000 0.0000 0.0000
# 4 0.0000 0.0000 0.0000 22.3296 0.0000 0.0000
# 5 0.0000 0.0000 0.0000 0.0000 26.3133 0.0000
# 6 0.0000 0.0000 0.0000 0.0000 0.0000 31.3498
#
#
#
# Elastic Compliance Matrix: (Units=1/GPa)
#
#
# Indices 1 2 3 4 5 6 
#
# 1 0.015763 -0.017452 -0.003650 0.000000 0.000000 0.000000
# 2 -0.017452 0.061210 -0.005992 0.000000 0.000000 0.000000
# 3 -0.003650 -0.005992 0.011228 0.000000 0.000000 0.000000
# 4 0.000000 0.000000 0.000000 0.044784 0.000000 0.000000
# 5 0.000000 0.000000 0.000000 0.000000 0.038004 0.000000
# 6 0.000000 0.000000 0.000000 0.000000 0.000000 0.031898
#
#
# Mechanical properties :
#
#
# Convention : Reuss Voigt Hill
#
# Bulk Modulus (GPa) = 29.40143 60.80443 45.10293
# Shear Modulus (GPa) = 18.62808 25.75838 22.19323
#
# Velocity S-wave (km/s) = 3.17306 3.73125 3.46342
# Velocity P-wave (km/s) = 5.41439 7.17128 6.35385
#
# Compressibility (1/GPa) = 0.03401195
#
# Stress axis : x y z
#
# Youngs Moduli (GPa) = 63.44012 16.33732 89.06145
#
# Poissons Ratio (x) = 0.28513 0.32507
# Poissons Ratio (y) = 1.10719 0.53365
# Poissons Ratio (z) = 0.23155 0.09789
#
# Static dielectric constant tensor:
#      x y z
#    x 3.349250 0.000000 0.000000 
#    y 0.000000 2.994220 0.000000 
#    z 0.000000 0.000000 3.868550 
# 
# 
# High freq. dielectric constant tensor:
#      x y z
#    x 1.719830 0.000000 0.000000 
#    y 0.000000 1.681300 0.000000 
#    z 0.000000 0.000000 1.731900 
# 
# From -- ./inp_files/14806.got.cif
#   From: 2010.03.12/outbox.cif.g09.slc.cpg/sg62_8_cif.got.tgz:14806.got - 2010.04.10 19:12:36.
