data_PCOD8250124
_publ_section_title
;
Structure prediction by ZEFSAII (Michael W. Deem and Ramdas Pophale) SiO2 
 PCOD8250124
Probable space group: P N M A
;
_chemical_formula_sum "Si O2"
_cell_formula_units_Z 64
_cell_length_a 8.898948
_cell_length_b 20.573571
_cell_length_c 18.607906
_cell_angle_alpha 90.000000
_cell_angle_beta 90.000000
_cell_angle_gamma 90.000000
_cell_volume 3406.793831
_symmetry_space_group_name_H-M "P N M A"
_symmetry_group_IT_number 62
_symmetry_cell_setting 'orthorhombic'
loop_
_space_group_symop_operation_xyz
x,y,z
1/2-x,-y,1/2+z
1/2+x,1/2-y,1/2-z
-x,1/2+y,-z
-x,-y,-z
1/2+x,y,1/2-z
1/2-x,1/2+y,1/2+z
x,1/2-y,z
loop_
_atom_site_type_symbol
_atom_site_label
_atom_site_fract_x
_atom_site_fract_y
_atom_site_fract_z
Si Si1 0.895886 0.825237 0.830250
Si Si2 0.256269 0.592681 0.395874
Si Si3 0.480120 0.405968 0.712220
Si Si4 0.189305 0.676896 0.101714
Si Si5 0.067121 0.325439 0.004216
Si Si6 0.502976 0.176288 0.845010
Si Si7 0.373344 0.400453 0.235164
Si Si8 0.365724 0.985036 0.811929
O O1 0.867720 0.750000 0.814379
O O2 0.944097 0.838122 0.911891
O O3 0.741556 0.863041 0.816239
O O4 0.030343 0.849152 0.780320
O O5 0.384772 0.574752 0.339435
O O6 0.323735 0.617887 0.471531
O O7 0.157494 0.653775 0.373012
O O8 0.156840 0.525698 0.387863
O O9 0.357319 0.367608 0.667445
O O10 0.552764 0.363140 0.774969
O O11 0.395176 0.468051 0.744109
O O12 0.153186 0.750000 0.125996
O O13 0.369307 0.667194 0.092716
O O14 0.099300 0.661830 0.028336
O O15 0.119070 0.250000 0.988479
O O16 0.486472 0.250000 0.821386
O O17 0.485552 0.440178 0.182212
O O18 0.283444 0.444676 0.292219
#
# Coordination Sequence:
#
# PCOD8250124 Si02
#       8
#     8   8   8   8   8   8   8   8
#     4  10  21  41  67  90 106 131 172 229 297 349
#     4  10  19  31  50  76 112 155 195 220 266 322
#     4  10  18  28  47  71 105 156 196 226 267 307
#     4   9  18  30  46  73 110 150 192 234 270 314
#     4   9  19  37  57  78 112 151 186 225 278 339
#     4  10  18  26  41  72 108 147 200 246 266 288
#     4  10  21  37  62  86 112 132 176 232 283 332
#     4  10  19  34  52  82 115 151 183 224 270 317
#
# _framework density 18.785992
#
# number of rings (size 3 to 8) (size 9 to 14) (size 15 to 20)
#    0.000    2.250    1.250    2.625    1.750    2.500 
#    0.000    3.750    0.000    7.500    0.000    0.000 
#    0.000    0.000    0.000    0.000    0.000    0.000 
#
# Total GULP energy -792948.418618 kJ/mol
# GULP energy per Si atom -12389.819041 kJ/mol
# Density = 1.874323 g / cm^3
# Si number density = 18.785992 Si / 1000 Ang^3
#
#
#
# Elastic Constant Matrix: (Units=GPa)
#
#
# Indices 1 2 3 4 5 6 
#
# 1 57.2070 14.0072 0.5657 0.0000 0.0000 0.0000
# 2 14.0072 73.2795 14.6867 0.0000 0.0000 0.0000
# 3 0.5657 14.6867 48.7782 0.0000 0.0000 0.0000
# 4 0.0000 0.0000 0.0000 23.0695 0.0000 0.0000
# 5 0.0000 0.0000 0.0000 0.0000 16.9022 0.0000
# 6 0.0000 0.0000 0.0000 0.0000 0.0000 28.7965
#
#
#
# Elastic Compliance Matrix: (Units=1/GPa)
#
#
# Indices 1 2 3 4 5 6 
#
# 1 0.018376 -0.003693 0.000899 0.000000 0.000000 0.000000
# 2 -0.003693 0.015265 -0.004553 0.000000 0.000000 0.000000
# 3 0.000899 -0.004553 0.021861 0.000000 0.000000 0.000000
# 4 0.000000 0.000000 0.000000 0.043347 0.000000 0.000000
# 5 0.000000 0.000000 0.000000 0.000000 0.059164 0.000000
# 6 0.000000 0.000000 0.000000 0.000000 0.000000 0.034726
#
#
# Mechanical properties :
#
#
# Convention : Reuss Voigt Hill
#
# Bulk Modulus (GPa) = 24.50525 26.42044 25.46284
# Shear Modulus (GPa) = 22.62070 23.75397 23.18733
#
# Velocity S-wave (km/s) = 3.47382 3.55977 3.51706
# Velocity P-wave (km/s) = 5.40024 5.56690 5.48420
#
# Compressibility (1/GPa) = 0.04080758
#
# Stress axis : x y z
#
# Youngs Moduli (GPa) = 54.41994 65.51035 45.74253
#
# Poissons Ratio (x) = 0.24190 -0.04111
# Poissons Ratio (y) = 0.20095 0.20828
# Poissons Ratio (z) = -0.04891 0.29829
#
# Static dielectric constant tensor:
#      x y z
#    x 3.626980 0.000000 0.000000 
#    y 0.000000 3.597250 0.000000 
#    z 0.000000 0.000000 3.096530 
# 
# 
# High freq. dielectric constant tensor:
#      x y z
#    x 1.743810 0.000000 0.000000 
#    y 0.000000 1.734620 0.000000 
#    z 0.000000 0.000000 1.687550 
# 
# From -- ./inp_files/22585.got.cif
#   From: 2010.03.12/outbox.cif.g09.slc.cpg/sg62_12_cif.got.tgz:22585.got - 2010.04.10 19:12:36.
