data_PCOD8250925
_publ_section_title
;
Structure prediction by ZEFSAII (Michael W. Deem and Ramdas Pophale) SiO2 
 PCOD8250925
Probable space group: P N M A
;
_chemical_formula_sum "Si O2"
_cell_formula_units_Z 64
_cell_length_a 14.589953
_cell_length_b 8.278081
_cell_length_c 30.833622
_cell_angle_alpha 90.000000
_cell_angle_beta 90.000000
_cell_angle_gamma 90.000000
_cell_volume 3723.986590
_symmetry_space_group_name_H-M "P N M A"
_symmetry_group_IT_number 62
_symmetry_cell_setting 'orthorhombic'
loop_
_space_group_symop_operation_xyz
x,y,z
1/2-x,-y,1/2+z
1/2+x,1/2-y,1/2-z
-x,1/2+y,-z
-x,-y,-z
1/2+x,y,1/2-z
1/2-x,1/2+y,1/2+z
x,1/2-y,z
loop_
_atom_site_type_symbol
_atom_site_label
_atom_site_fract_x
_atom_site_fract_y
_atom_site_fract_z
Si Si1 0.101512 0.558653 0.047347
Si Si2 0.208133 0.059428 0.286672
Si Si3 0.181626 0.933897 0.866316
Si Si4 0.006842 0.064919 0.826106
Si Si5 0.100968 0.557492 0.951629
Si Si6 0.318454 0.441358 0.634126
Si Si7 0.503483 0.063958 0.234395
Si Si8 0.320610 0.940382 0.204028
O O1 0.100278 0.750000 0.046475
O O2 0.174456 0.497609 0.083890
O O3 0.000263 0.502542 0.060745
O O4 0.129166 0.492111 0.999546
O O5 0.228387 0.250000 0.283615
O O6 0.246860 0.985424 0.332402
O O7 0.100347 0.019823 0.287581
O O8 0.259969 0.977077 0.246569
O O9 0.211526 0.750000 0.871309
O O10 0.173909 0.008497 0.915387
O O11 0.080900 0.946060 0.846302
O O12 0.024940 0.250000 0.840421
O O13 0.908599 0.999227 0.840868
O O14 0.012256 0.054239 0.774492
O O15 0.099338 0.750000 0.950750
O O16 0.315167 0.250000 0.635293
O O17 0.231155 0.507386 0.660756
O O18 0.503389 0.250000 0.249267
O O19 0.418424 0.030319 0.202401
O O20 0.336362 0.750000 0.201482
#
# Coordination Sequence:
#
# PCOD8250925 Si02
#       8
#     8   8   8   8   8   8   8   8
#     4   9  16  29  45  64  93 124 151 184 230 278
#     4  10  21  34  48  65  92 125 156 192 232 277
#     4  10  19  31  45  68  95 123 157 192 230 273
#     4  11  19  29  46  68  93 126 158 190 227 269
#     4   9  17  27  44  68  93 120 152 188 227 277
#     4   9  18  30  45  67  94 123 156 191 228 272
#     4  11  22  35  47  65  93 126 159 195 235 275
#     4  11  21  33  49  69  92 120 159 198 232 276
#
# _framework density 17.185883
#
# number of rings (size 3 to 8) (size 9 to 14) (size 15 to 20)
#    0.000    2.000    3.750    1.125    0.000    0.500 
#    0.000    1.250    0.000    0.000    0.000    0.875 
#    0.000    0.000    0.000    0.000    0.000    0.000 
#
# Total GULP energy -792985.210126 kJ/mol
# GULP energy per Si atom -12390.393908 kJ/mol
# Density = 1.714677 g / cm^3
# Si number density = 17.185883 Si / 1000 Ang^3
#
#
#
# Elastic Constant Matrix: (Units=GPa)
#
#
# Indices 1 2 3 4 5 6 
#
# 1 96.2328 8.8851 52.6985 0.0000 0.0000 0.0000
# 2 8.8851 19.3340 4.7732 0.0000 0.0000 0.0000
# 3 52.6985 4.7732 140.2596 0.0000 0.0000 0.0000
# 4 0.0000 0.0000 0.0000 13.1777 0.0000 0.0000
# 5 0.0000 0.0000 0.0000 0.0000 29.1784 0.0000
# 6 0.0000 0.0000 0.0000 0.0000 0.0000 18.6829
#
#
#
# Elastic Compliance Matrix: (Units=1/GPa)
#
#
# Indices 1 2 3 4 5 6 
#
# 1 0.013548 -0.005012 -0.004920 0.000000 0.000000 0.000000
# 2 -0.005012 0.054014 0.000045 0.000000 0.000000 0.000000
# 3 -0.004920 0.000045 0.008977 0.000000 0.000000 0.000000
# 4 0.000000 0.000000 0.000000 0.075886 0.000000 0.000000
# 5 0.000000 0.000000 0.000000 0.000000 0.034272 0.000000
# 6 0.000000 0.000000 0.000000 0.000000 0.000000 0.053525
#
#
# Mechanical properties :
#
#
# Convention : Reuss Voigt Hill
#
# Bulk Modulus (GPa) = 17.61617 43.17113 30.39365
# Shear Modulus (GPa) = 17.92646 24.83910 21.38278
#
# Velocity S-wave (km/s) = 3.23320 3.80586 3.53116
# Velocity P-wave (km/s) = 4.92044 6.66989 5.86081
#
# Compressibility (1/GPa) = 0.05676603
#
# Stress axis : x y z
#
# Youngs Moduli (GPa) = 73.80952 18.51355 111.40063
#
# Poissons Ratio (x) = 0.09278 0.54808
# Poissons Ratio (y) = 0.36991 -0.00499
# Poissons Ratio (z) = 0.36313 -0.00083
#
# Static dielectric constant tensor:
#      x y z
#    x 3.221420 0.000000 0.000000 
#    y 0.000000 3.021070 0.000000 
#    z 0.000000 0.000000 3.854910 
# 
# 
# High freq. dielectric constant tensor:
#      x y z
#    x 1.631920 0.000000 0.000000 
#    y 0.000000 1.649720 0.000000 
#    z 0.000000 0.000000 1.664960 
# 
# From -- ./inp_files/32726.got.cif
#   From: 2010.03.12/outbox.cif.g09.slc.cpg/sg62_17_cif.got.tgz:32726.got - 2010.04.10 19:12:36.
