data_PCOD8250969
_publ_section_title
;
Structure prediction by ZEFSAII (Michael W. Deem and Ramdas Pophale) SiO2 
 PCOD8250969
Probable space group: P N M A
;
_chemical_formula_sum "Si O2"
_cell_formula_units_Z 48
_cell_length_a 8.653608
_cell_length_b 13.696602
_cell_length_c 23.966081
_cell_angle_alpha 90.000000
_cell_angle_beta 90.000000
_cell_angle_gamma 90.000000
_cell_volume 2840.580341
_symmetry_space_group_name_H-M "P N M A"
_symmetry_group_IT_number 62
_symmetry_cell_setting 'orthorhombic'
loop_
_space_group_symop_operation_xyz
x,y,z
1/2-x,-y,1/2+z
1/2+x,1/2-y,1/2-z
-x,1/2+y,-z
-x,-y,-z
1/2+x,y,1/2-z
1/2-x,1/2+y,1/2+z
x,1/2-y,z
loop_
_atom_site_type_symbol
_atom_site_label
_atom_site_fract_x
_atom_site_fract_y
_atom_site_fract_z
Si Si1 0.182611 0.532190 0.917560
Si Si2 0.317089 0.639497 0.692451
Si Si3 0.682588 0.860506 0.692540
Si Si4 0.819794 0.138718 0.520459
Si Si5 0.182540 0.467815 0.082353
Si Si6 0.680144 0.361279 0.979620
O O1 0.241830 0.572980 0.858359
O O2 0.265615 0.428641 0.928084
O O3 0.226550 0.609935 0.965053
O O4 0.000036 0.516622 0.918267
O O5 0.256190 0.750000 0.683275
O O6 0.249732 0.596166 0.749939
O O7 0.499835 0.638114 0.695559
O O8 0.258028 0.572991 0.641523
O O9 0.743527 0.750000 0.683398
O O10 0.782469 0.250000 0.536267
O O11 0.726292 0.109902 0.465178
O O12 0.999949 0.122035 0.508764
O O13 0.265504 0.571367 0.071812
O O14 0.717502 0.250000 0.963819
#
# Coordination Sequence:
#
# PCOD8250969 Si02
#       6
#     8   8   8   8   8   8
#     4  10  19  31  49  71  95 123 155 192 231 274
#     4   9  18  31  47  69  95 122 152 186 227 274
#     4   9  18  31  47  69  95 122 152 186 227 274
#     4  10  20  32  47  69  96 125 156 190 230 276
#     4  10  19  31  49  71  95 123 155 192 231 274
#     4  10  20  32  47  69  96 125 156 190 230 276
#
# _framework density 16.897955
#
# number of rings (size 3 to 8) (size 9 to 14) (size 15 to 20)
#    0.000    2.333    0.000    5.000    0.000    6.667 
#    0.000    3.333    0.000    1.000    0.000    0.000 
#    0.000    0.000    0.000    0.000    0.000    0.000 
#
# Total GULP energy -595232.717146 kJ/mol
# GULP energy per Si atom -12400.681607 kJ/mol
# Density = 1.685949 g / cm^3
# Si number density = 16.897955 Si / 1000 Ang^3
#
#
#
# Elastic Constant Matrix: (Units=GPa)
#
#
# Indices 1 2 3 4 5 6 
#
# 1 26.5972 22.3607 11.9464 0.0000 0.0000 0.0000
# 2 22.3607 123.6199 65.3366 0.0000 0.0000 0.0000
# 3 11.9464 65.3366 135.0201 0.0000 0.0000 0.0000
# 4 0.0000 0.0000 0.0000 26.2149 0.0000 0.0000
# 5 0.0000 0.0000 0.0000 0.0000 28.2207 0.0000
# 6 0.0000 0.0000 0.0000 0.0000 0.0000 26.1631
#
#
#
# Elastic Compliance Matrix: (Units=1/GPa)
#
#
# Indices 1 2 3 4 5 6 
#
# 1 0.044341 -0.007991 -0.000057 0.000000 0.000000 0.000000
# 2 -0.007991 0.012309 -0.005249 0.000000 0.000000 0.000000
# 3 -0.000057 -0.005249 0.009952 0.000000 0.000000 0.000000
# 4 0.000000 0.000000 0.000000 0.038146 0.000000 0.000000
# 5 0.000000 0.000000 0.000000 0.000000 0.035435 0.000000
# 6 0.000000 0.000000 0.000000 0.000000 0.000000 0.038222
#
#
# Mechanical properties :
#
#
# Convention : Reuss Voigt Hill
#
# Bulk Modulus (GPa) = 24.99461 53.83607 39.41534
# Shear Modulus (GPa) = 22.90064 28.49263 25.69664
#
# Velocity S-wave (km/s) = 3.68534 4.11074 3.90384
# Velocity P-wave (km/s) = 5.73869 7.37967 6.61030
#
# Compressibility (1/GPa) = 0.04000862
#
# Stress axis : x y z
#
# Youngs Moduli (GPa) = 22.55237 81.24033 100.48716
#
# Poissons Ratio (x) = 0.64917 0.00568
# Poissons Ratio (y) = 0.18021 0.52750
# Poissons Ratio (z) = 0.00128 0.42647
#
# Static dielectric constant tensor:
#      x y z
#    x 3.172850 0.000000 0.000000 
#    y 0.000000 3.245530 0.000000 
#    z 0.000000 0.000000 3.230180 
# 
# 
# High freq. dielectric constant tensor:
#      x y z
#    x 1.659930 0.000000 0.000000 
#    y 0.000000 1.642090 0.000000 
#    z 0.000000 0.000000 1.641280 
# 
# From -- ./inp_files/28874.got.cif
#   From: 2010.03.12/outbox.cif.g09.slc.cpg/sg62_15_cif.got.tgz:28874.got - 2010.04.10 19:12:36.
