data_PCOD8250377
_publ_section_title
;
Structure prediction by ZEFSAII (Michael W. Deem and Ramdas Pophale) SiO2 
 PCOD8250377
Probable space group: P N M A
;
_chemical_formula_sum "Si O2"
_cell_formula_units_Z 40
_cell_length_a 15.902985
_cell_length_b 8.698376
_cell_length_c 15.667986
_cell_angle_alpha 90.000000
_cell_angle_beta 90.000000
_cell_angle_gamma 90.000000
_cell_volume 2167.354745
_symmetry_space_group_name_H-M "P N M A"
_symmetry_group_IT_number 62
_symmetry_cell_setting 'orthorhombic'
loop_
_space_group_symop_operation_xyz
x,y,z
1/2-x,-y,1/2+z
1/2+x,1/2-y,1/2-z
-x,1/2+y,-z
-x,-y,-z
1/2+x,y,1/2-z
1/2-x,1/2+y,1/2+z
x,1/2-y,z
loop_
_atom_site_type_symbol
_atom_site_label
_atom_site_fract_x
_atom_site_fract_y
_atom_site_fract_z
Si Si1 0.687599 0.067394 0.052106
Si Si2 0.059348 0.930868 0.315001
Si Si3 0.122982 0.931419 0.957010
Si Si4 0.064537 0.932883 0.567956
Si Si5 0.469215 0.429792 0.624435
O O1 0.679833 0.250000 0.047127
O O2 0.783157 0.009703 0.062385
O O3 0.635428 0.007954 0.133339
O O4 0.655143 0.995911 0.962023
O O5 0.060073 0.750000 0.333411
O O6 0.071762 0.970636 0.215520
O O7 0.967978 0.000341 0.341816
O O8 0.121438 0.750000 0.954938
O O9 0.092935 0.991385 0.050327
O O10 0.060795 0.993238 0.884184
O O11 0.064242 0.750000 0.569741
O O12 0.000000 0.000000 0.500000
O O13 0.484003 0.250000 0.615621
#
# Coordination Sequence:
#
# PCOD8250377 Si02
#       5
#     8   8   8   8   8
#     4  10  19  33  53  77 108 138 170 212 260 306
#     4  10  19  33  53  77 106 136 174 215 257 308
#     4   9  19  36  56  76 103 137 173 213 257 307
#     4  10  18  30  50  74 103 136 171 207 255 307
#     4   9  19  36  56  76 100 137 176 212 257 307
#
# _framework density 18.455677000000001
#
# number of rings (size 3 to 8) (size 9 to 14) (size 15 to 20)
#    0.000    2.400    0.000    5.400    0.000    3.200 
#    3.600    0.000    0.000    0.000    0.000    0.000 
#    0.000    0.000    0.000    0.000    0.000    0.000 
#
# Total GULP energy -495834.348753 kJ/mol
# GULP energy per Si atom -12395.858719 kJ/mol
# Density = 1.841367 g / cm^3
# Si number density = 18.455677 Si / 1000 Ang^3
#
#
#
# Elastic Constant Matrix: (Units=GPa)
#
#
# Indices 1 2 3 4 5 6 
#
# 1 138.5382 39.1606 51.3024 0.0000 0.0000 0.0000
# 2 39.1606 82.2633 30.6634 0.0000 0.0000 0.0000
# 3 51.3024 30.6634 90.7378 0.0000 0.0000 0.0000
# 4 0.0000 0.0000 0.0000 26.4043 0.0000 0.0000
# 5 0.0000 0.0000 0.0000 0.0000 19.2971 0.0000
# 6 0.0000 0.0000 0.0000 0.0000 0.0000 28.2193
#
#
#
# Elastic Compliance Matrix: (Units=1/GPa)
#
#
# Indices 1 2 3 4 5 6 
#
# 1 0.009717 -0.002949 -0.004497 0.000000 0.000000 0.000000
# 2 -0.002949 0.014803 -0.003335 0.000000 0.000000 0.000000
# 3 -0.004497 -0.003335 0.014691 0.000000 0.000000 0.000000
# 4 0.000000 0.000000 0.000000 0.037873 0.000000 0.000000
# 5 0.000000 0.000000 0.000000 0.000000 0.051821 0.000000
# 6 0.000000 0.000000 0.000000 0.000000 0.000000 0.035437
#
#
# Mechanical properties :
#
#
# Convention : Reuss Voigt Hill
#
# Bulk Modulus (GPa) = 56.66497 61.53248 59.09872
# Shear Modulus (GPa) = 26.07045 27.47832 26.77438
#
# Velocity S-wave (km/s) = 3.76253 3.86279 3.81299
# Velocity P-wave (km/s) = 7.04595 7.30123 7.17473
#
# Compressibility (1/GPa) = 0.01764759
#
# Stress axis : x y z
#
# Youngs Moduli (GPa) = 102.90819 67.55274 68.07093
#
# Poissons Ratio (x) = 0.19924 0.30614
# Poissons Ratio (y) = 0.30352 0.22701
# Poissons Ratio (z) = 0.46282 0.22528
#
# Static dielectric constant tensor:
#      x y z
#    x 3.759560 0.000000 0.000000 
#    y 0.000000 3.396870 0.000000 
#    z 0.000000 0.000000 3.655760 
# 
# 
# High freq. dielectric constant tensor:
#      x y z
#    x 1.707550 0.000000 0.000000 
#    y 0.000000 1.722330 0.000000 
#    z 0.000000 0.000000 1.707220 
# 
# From -- ./inp_files/18625.got.cif
#   From: 2010.03.12/outbox.cif.g09.slc.cpg/sg62_10_cif.got.tgz:18625.got - 2010.04.10 19:12:36.
