data_PCOD8250600
_publ_section_title
;
Structure prediction by ZEFSAII (Michael W. Deem and Ramdas Pophale) SiO2 
 PCOD8250600
Probable space group: P N M A
;
_chemical_formula_sum "Si O2"
_cell_formula_units_Z 48
_cell_length_a 11.573395
_cell_length_b 18.320954
_cell_length_c 12.106584
_cell_angle_alpha 90.000000
_cell_angle_beta 90.000000
_cell_angle_gamma 90.000000
_cell_volume 2567.027255
_symmetry_space_group_name_H-M "P N M A"
_symmetry_group_IT_number 62
_symmetry_cell_setting 'orthorhombic'
loop_
_space_group_symop_operation_xyz
x,y,z
1/2-x,-y,1/2+z
1/2+x,1/2-y,1/2-z
-x,1/2+y,-z
-x,-y,-z
1/2+x,y,1/2-z
1/2-x,1/2+y,1/2+z
x,1/2-y,z
loop_
_atom_site_type_symbol
_atom_site_label
_atom_site_fract_x
_atom_site_fract_y
_atom_site_fract_z
Si Si1 0.465715 0.555230 0.403660
Si Si2 0.303638 0.041428 0.271531
Si Si3 0.894978 0.092621 0.446144
Si Si4 0.345439 0.569356 0.973955
Si Si5 0.269614 0.667407 0.401388
Si Si6 0.297194 0.096166 0.679392
O O1 0.500000 0.500000 0.500000
O O2 0.415273 0.506896 0.304001
O O3 0.369054 0.612557 0.443803
O O4 0.572121 0.604754 0.363173
O O5 0.346069 0.098214 0.178709
O O6 0.245888 0.082612 0.374893
O O7 0.207979 0.987141 0.221719
O O8 0.840237 0.156929 0.518730
O O9 0.032328 0.104975 0.443723
O O10 0.859919 0.016531 0.503637
O O11 0.294261 0.609750 0.081124
O O12 0.314122 0.750000 0.410761
O O13 0.231187 0.653317 0.275311
#
# Coordination Sequence:
#
# PCOD8250600 Si02
#       6
#     8   8   8   8   8   8
#     4  11  19  36  61  91 120 152 203 262 305 353
#     4  10  18  32  57  91 116 143 194 256 308 342
#     4  10  20  34  56  82 119 154 192 243 301 359
#     4  10  18  34  56  88 114 144 195 255 300 345
#     4  11  25  40  56  85 124 167 202 244 315 382
#     4  10  20  33  54  84 120 152 196 242 299 363
#
# _framework density 18.69867
#
# number of rings (size 3 to 8) (size 9 to 14) (size 15 to 20)
#    0.000    1.667    5.000    2.000    7.000    0.667 
#    0.000    0.000    0.000    5.000    0.000    0.000 
#    0.000    0.000    0.000    0.000    0.000    0.000 
#
# Total GULP energy -595258.708386 kJ/mol
# GULP energy per Si atom -12401.223091 kJ/mol
# Density = 1.865611 g / cm^3
# Si number density = 18.698670 Si / 1000 Ang^3
#
#
#
# Elastic Constant Matrix: (Units=GPa)
#
#
# Indices 1 2 3 4 5 6 
#
# 1 117.5489 32.3566 47.3207 0.0000 0.0000 0.0000
# 2 32.3566 67.0217 36.3471 0.0000 0.0000 0.0000
# 3 47.3207 36.3471 126.5688 0.0000 0.0000 0.0000
# 4 0.0000 0.0000 0.0000 15.5411 0.0000 0.0000
# 5 0.0000 0.0000 0.0000 0.0000 32.4708 0.0000
# 6 0.0000 0.0000 0.0000 0.0000 0.0000 14.6302
#
#
#
# Elastic Compliance Matrix: (Units=1/GPa)
#
#
# Indices 1 2 3 4 5 6 
#
# 1 0.010680 -0.003542 -0.002976 0.000000 0.000000 0.000000
# 2 -0.003542 0.018848 -0.004088 0.000000 0.000000 0.000000
# 3 -0.002976 -0.004088 0.010187 0.000000 0.000000 0.000000
# 4 0.000000 0.000000 0.000000 0.064346 0.000000 0.000000
# 5 0.000000 0.000000 0.000000 0.000000 0.030797 0.000000
# 6 0.000000 0.000000 0.000000 0.000000 0.000000 0.068352
#
#
# Mechanical properties :
#
#
# Convention : Reuss Voigt Hill
#
# Bulk Modulus (GPa) = 54.04592 60.35427 57.20009
# Shear Modulus (GPa) = 21.68355 25.53609 23.60982
#
# Velocity S-wave (km/s) = 3.40903 3.69950 3.55723
# Velocity P-wave (km/s) = 6.66796 7.11307 6.89411
#
# Compressibility (1/GPa) = 0.01850278
#
# Stress axis : x y z
#
# Youngs Moduli (GPa) = 93.63233 53.05662 98.16034
#
# Poissons Ratio (x) = 0.18794 0.29210
# Poissons Ratio (y) = 0.33167 0.40130
# Poissons Ratio (z) = 0.27863 0.21691
#
# Static dielectric constant tensor:
#      x y z
#    x 3.711520 0.000000 0.000000 
#    y 0.000000 2.828950 0.000000 
#    z 0.000000 0.000000 3.630210 
# 
# 
# High freq. dielectric constant tensor:
#      x y z
#    x 1.741420 0.000000 0.000000 
#    y 0.000000 1.656690 0.000000 
#    z 0.000000 0.000000 1.738500 
# 
# From -- ./inp_files/12233.got.cif
#   From: 2010.03.12/outbox.cif.g09.slc.cpg/sg62_7_cif.got.tgz:12233.got - 2010.04.10 19:12:36.
