data_PCOD8250486
_publ_section_title
;
Structure prediction by ZEFSAII (Michael W. Deem and Ramdas Pophale) SiO2 
 PCOD8250486
Probable space group: P N M A
;
_chemical_formula_sum "Si O2"
_cell_formula_units_Z 56
_cell_length_a 14.736439
_cell_length_b 23.053296
_cell_length_c 8.098704
_cell_angle_alpha 90.000000
_cell_angle_beta 90.000000
_cell_angle_gamma 90.000000
_cell_volume 2751.319989
_symmetry_space_group_name_H-M "P N M A"
_symmetry_group_IT_number 62
_symmetry_cell_setting 'orthorhombic'
loop_
_space_group_symop_operation_xyz
x,y,z
1/2-x,-y,1/2+z
1/2+x,1/2-y,1/2-z
-x,1/2+y,-z
-x,-y,-z
1/2+x,y,1/2-z
1/2-x,1/2+y,1/2+z
x,1/2-y,z
loop_
_atom_site_type_symbol
_atom_site_label
_atom_site_fract_x
_atom_site_fract_y
_atom_site_fract_z
Si Si1 0.009641 0.105251 0.114402
Si Si2 0.574330 0.101455 0.754635
Si Si3 0.276030 0.815100 0.324675
Si Si4 0.861442 0.316051 0.219032
Si Si5 0.663698 0.185693 0.299469
Si Si6 0.107892 0.872400 0.450877
Si Si7 0.930196 0.019666 0.365485
O O1 0.919482 0.144663 0.094275
O O2 0.984518 0.046506 0.209680
O O3 0.083663 0.139460 0.227750
O O4 0.047708 0.092111 0.935213
O O5 0.648902 0.151352 0.783811
O O6 0.487665 0.120009 0.861141
O O7 0.618984 0.039613 0.807841
O O8 0.260548 0.750000 0.252733
O O9 0.312050 0.810987 0.508820
O O10 0.183476 0.852937 0.318459
O O11 0.875810 0.250000 0.166577
O O12 0.754982 0.333312 0.202428
O O13 0.897965 0.323641 0.406933
O O14 0.631917 0.250000 0.242097
O O15 0.135592 0.932406 0.548702
O O16 0.000000 0.000000 0.500000
#
# Coordination Sequence:
#
# PCOD8250486 Si02
#       7
#     8   8   8   8   8   8   8
#     4  10  18  31  53  76 102 135 171 222 274 311
#     4  10  20  35  54  80 108 136 175 224 273 315
#     4   9  18  33  54  80 109 141 176 217 272 328
#     4   9  17  31  51  75 103 138 177 211 258 326
#     4   8  15  29  49  73 102 134 170 213 263 322
#     4   9  18  35  55  75 104 144 180 217 262 321
#     4   9  19  36  54  73 101 138 178 216 259 321
#
# _framework density 20.353867000000001
#
# number of rings (size 3 to 8) (size 9 to 14) (size 15 to 20)
#    0.000    2.857    0.000    2.143    0.000    1.714 
#    0.000   17.143    0.000    5.143    0.000    0.000 
#    0.000    0.000    0.000    0.000    0.000    0.000 
#
# Total GULP energy -693917.244415 kJ/mol
# GULP energy per Si atom -12391.379365 kJ/mol
# Density = 2.030754 g / cm^3
# Si number density = 20.353867 Si / 1000 Ang^3
#
#
#
# Elastic Constant Matrix: (Units=GPa)
#
#
# Indices 1 2 3 4 5 6 
#
# 1 88.9426 57.8215 8.8598 0.0000 0.0000 0.0000
# 2 57.8215 143.5929 21.9633 0.0000 0.0000 0.0000
# 3 8.8598 21.9633 34.9323 0.0000 0.0000 0.0000
# 4 0.0000 0.0000 0.0000 22.5875 0.0000 0.0000
# 5 0.0000 0.0000 0.0000 0.0000 22.0846 0.0000
# 6 0.0000 0.0000 0.0000 0.0000 0.0000 29.0106
#
#
#
# Elastic Compliance Matrix: (Units=1/GPa)
#
#
# Indices 1 2 3 4 5 6 
#
# 1 0.015230 -0.006132 -0.000008 0.000000 0.000000 0.000000
# 2 -0.006132 0.010174 -0.004841 0.000000 0.000000 0.000000
# 3 -0.000008 -0.004841 0.031673 0.000000 0.000000 0.000000
# 4 0.000000 0.000000 0.000000 0.044272 0.000000 0.000000
# 5 0.000000 0.000000 0.000000 0.000000 0.045280 0.000000
# 6 0.000000 0.000000 0.000000 0.000000 0.000000 0.034470
#
#
# Mechanical properties :
#
#
# Convention : Reuss Voigt Hill
#
# Bulk Modulus (GPa) = 28.47769 49.41746 38.94757
# Shear Modulus (GPa) = 23.28114 26.65808 24.96961
#
# Velocity S-wave (km/s) = 3.38571 3.62295 3.50633
# Velocity P-wave (km/s) = 5.41347 6.46783 5.96400
#
# Compressibility (1/GPa) = 0.03511521
#
# Stress axis : x y z
#
# Youngs Moduli (GPa) = 65.65926 98.29226 31.57288
#
# Poissons Ratio (x) = 0.60269 0.00024
# Poissons Ratio (y) = 0.40260 0.15286
# Poissons Ratio (z) = 0.00050 0.47588
#
# Static dielectric constant tensor:
#      x y z
#    x 3.990060 0.000000 0.000000 
#    y 0.000000 4.394150 0.000000 
#    z 0.000000 0.000000 3.487210 
# 
# 
# High freq. dielectric constant tensor:
#      x y z
#    x 1.778440 0.000000 0.000000 
#    y 0.000000 1.804840 0.000000 
#    z 0.000000 0.000000 1.772460 
# 
# From -- ./inp_files/6772.got.cif
#   From: 2010.03.12/outbox.cif.g09.slc.cpg/sg62_4_cif.got.tgz:6772.got - 2010.04.10 19:12:36.
