data_PCOD8250119
_publ_section_title
;
Structure prediction by ZEFSAII (Michael W. Deem and Ramdas Pophale) SiO2 
 PCOD8250119
Probable space group: P N M A
;
_chemical_formula_sum "Si O2"
_cell_formula_units_Z 64
_cell_length_a 26.633184
_cell_length_b 9.079742
_cell_length_c 18.341029
_cell_angle_alpha 90.000000
_cell_angle_beta 90.000000
_cell_angle_gamma 90.000000
_cell_volume 4435.272373
_symmetry_space_group_name_H-M "P N M A"
_symmetry_group_IT_number 62
_symmetry_cell_setting 'orthorhombic'
loop_
_space_group_symop_operation_xyz
x,y,z
1/2-x,-y,1/2+z
1/2+x,1/2-y,1/2-z
-x,1/2+y,-z
-x,-y,-z
1/2+x,y,1/2-z
1/2-x,1/2+y,1/2+z
x,1/2-y,z
loop_
_atom_site_type_symbol
_atom_site_label
_atom_site_fract_x
_atom_site_fract_y
_atom_site_fract_z
Si Si1 0.649502 0.080834 0.845205
Si Si2 0.711080 0.416427 0.715532
Si Si3 0.243317 0.580921 0.430066
Si Si4 0.949966 0.577273 0.415142
Si Si5 0.846590 0.578309 0.651201
Si Si6 0.295502 0.918865 0.706003
Si Si7 0.450418 0.578667 0.916642
Si Si8 0.748301 0.575876 0.420699
O O1 0.644664 0.250000 0.867653
O O2 0.657747 0.060070 0.757424
O O3 0.597325 0.006995 0.870720
O O4 0.698082 0.019399 0.888974
O O5 0.730408 0.250000 0.736267
O O6 0.710154 0.431553 0.627894
O O7 0.747379 0.541304 0.745690
O O8 0.233568 0.750000 0.451655
O O9 0.192695 0.517660 0.394671
O O10 0.260353 0.490131 0.499893
O O11 0.955471 0.750000 0.402215
O O12 0.940907 0.537012 0.499346
O O13 0.000868 0.504193 0.385523
O O14 0.837410 0.750000 0.631480
O O15 0.842165 0.552508 0.738833
O O16 0.902159 0.527130 0.629079
O O17 0.292806 0.750000 0.681349
O O18 0.296156 0.017958 0.632901
O O19 0.460611 0.750000 0.907087
O O20 0.744816 0.750000 0.425421
#
# Coordination Sequence:
#
# PCOD8250119 Si02
#       8
#     8   8   8   8   8   8   8   8
#     4   8  14  26  42  55  71 101 135 159 187 231
#     4   8  15  27  40  55  77 104 129 157 196 235
#     4  10  18  26  39  60  82 102 131 167 194 225
#     4   9  16  26  40  56  74  99 133 167 191 218
#     4   9  17  29  43  56  76 108 136 159 195 239
#     4   9  16  26  40  58  77  98 130 166 193 224
#     4   9  17  28  39  54  78 105 132 161 195 231
#     4  10  18  28  41  56  79 109 134 157 193 237
#
# _framework density 14.429779999999999
#
# number of rings (size 3 to 8) (size 9 to 14) (size 15 to 20)
#    0.000    3.000    0.000    2.625    0.000    3.500 
#    0.000    5.625    0.000    0.000    0.000    0.000 
#    0.000    1.000    0.000    2.000    0.000    2.750 
#
# Total GULP energy -792979.005399 kJ/mol
# GULP energy per Si atom -12390.296959 kJ/mol
# Density = 1.439694 g / cm^3
# Si number density = 14.429780 Si / 1000 Ang^3
#
#
#
# Elastic Constant Matrix: (Units=GPa)
#
#
# Indices 1 2 3 4 5 6 
#
# 1 82.9219 27.8966 52.4767 0.0000 0.0000 0.0000
# 2 27.8966 53.2933 40.5360 0.0000 0.0000 0.0000
# 3 52.4767 40.5360 104.7682 0.0000 0.0000 0.0000
# 4 0.0000 0.0000 0.0000 22.2543 0.0000 0.0000
# 5 0.0000 0.0000 0.0000 0.0000 25.2213 0.0000
# 6 0.0000 0.0000 0.0000 0.0000 0.0000 17.1114
#
#
#
# Elastic Compliance Matrix: (Units=1/GPa)
#
#
# Indices 1 2 3 4 5 6 
#
# 1 0.018147 -0.003664 -0.007672 0.000000 0.000000 0.000000
# 2 -0.003664 0.027329 -0.008739 0.000000 0.000000 0.000000
# 3 -0.007672 -0.008739 0.016769 0.000000 0.000000 0.000000
# 4 0.000000 0.000000 0.000000 0.044935 0.000000 0.000000
# 5 0.000000 0.000000 0.000000 0.000000 0.039649 0.000000
# 6 0.000000 0.000000 0.000000 0.000000 0.000000 0.058441
#
#
# Mechanical properties :
#
#
# Convention : Reuss Voigt Hill
#
# Bulk Modulus (GPa) = 45.25753 53.64466 49.45109
# Shear Modulus (GPa) = 19.77969 20.92232 20.35101
#
# Velocity S-wave (km/s) = 3.70639 3.81194 3.75953
# Velocity P-wave (km/s) = 7.05326 7.52539 7.29315
#
# Compressibility (1/GPa) = 0.02209577
#
# Stress axis : x y z
#
# Youngs Moduli (GPa) = 55.10430 36.59154 59.63424
#
# Poissons Ratio (x) = 0.13406 0.45753
# Poissons Ratio (y) = 0.20188 0.52113
# Poissons Ratio (z) = 0.42277 0.31976
#
# Static dielectric constant tensor:
#      x y z
#    x 2.762290 0.000000 0.000000 
#    y 0.000000 2.798200 0.000000 
#    z 0.000000 0.000000 2.968670 
# 
# 
# High freq. dielectric constant tensor:
#      x y z
#    x 1.514680 0.000000 0.000000 
#    y 0.000000 1.551970 0.000000 
#    z 0.000000 0.000000 1.544130 
# 
# From -- ./inp_files/21242.got.cif
#   From: 2010.03.12/outbox.cif.g09.slc.cpg/sg62_11_cif.got.tgz:21242.got - 2010.04.10 19:12:36.
