data_PCOD8250987
_publ_section_title
;
Structure prediction by ZEFSAII (Michael W. Deem and Ramdas Pophale) SiO2 
 PCOD8250987
Probable space group: P N M A
;
_chemical_formula_sum "Si O2"
_cell_formula_units_Z 64
_cell_length_a 19.535960
_cell_length_b 9.004436
_cell_length_c 20.659505
_cell_angle_alpha 90.000000
_cell_angle_beta 90.000000
_cell_angle_gamma 90.000000
_cell_volume 3634.219754
_symmetry_space_group_name_H-M "P N M A"
_symmetry_group_IT_number 62
_symmetry_cell_setting 'orthorhombic'
loop_
_space_group_symop_operation_xyz
x,y,z
1/2-x,-y,1/2+z
1/2+x,1/2-y,1/2-z
-x,1/2+y,-z
-x,-y,-z
1/2+x,y,1/2-z
1/2-x,1/2+y,1/2+z
x,1/2-y,z
loop_
_atom_site_type_symbol
_atom_site_label
_atom_site_fract_x
_atom_site_fract_y
_atom_site_fract_z
Si Si1 0.071240 0.927091 0.373797
Si Si2 0.578085 0.420870 0.877570
Si Si3 0.790162 0.425722 0.195287
Si Si4 0.793210 0.920791 0.820637
Si Si5 0.197978 0.077658 0.424832
Si Si6 0.563498 0.077385 0.261535
Si Si7 0.574090 0.077633 0.726444
Si Si8 0.717069 0.423329 0.931042
O O1 0.072398 0.750000 0.366374
O O2 0.996399 0.984101 0.398458
O O3 0.128066 0.983343 0.423654
O O4 0.086305 0.997331 0.304111
O O5 0.578319 0.250000 0.895978
O O6 0.588371 0.447842 0.801751
O O7 0.642191 0.495223 0.914640
O O8 0.801171 0.250000 0.196858
O O9 0.749501 0.482121 0.258889
O O10 0.748076 0.474888 0.131945
O O11 0.863103 0.505322 0.188047
O O12 0.774388 0.750000 0.829748
O O13 0.874043 0.943417 0.811064
O O14 0.774714 0.004211 0.886572
O O15 0.178417 0.250000 0.416768
O O16 0.234163 0.047115 0.493772
O O17 0.549399 0.250000 0.246941
O O18 0.496433 0.003350 0.293328
O O19 0.567733 0.250000 0.708332
O O20 0.716645 0.250000 0.914475
#
# Coordination Sequence:
#
# PCOD8250987 Si02
#       8
#     8   8   8   8   8   8   8   8
#     4  10  19  31  49  74 107 142 179 222 257 303
#     4   8  16  30  46  71 104 134 169 209 252 301
#     4  10  19  34  53  76 104 138 177 215 259 315
#     4  10  20  34  54  78 105 136 175 219 259 309
#     4  10  21  36  52  74 106 144 182 217 263 321
#     4  10  19  34  54  78 108 140 172 215 266 317
#     4  10  19  32  52  81 108 132 170 220 265 312
#     4  10  20  35  54  74 104 143 179 220 265 313
#
# _framework density 17.610382999999999
#
# number of rings (size 3 to 8) (size 9 to 14) (size 15 to 20)
#    0.000    2.250    2.500    1.875    0.000    2.500 
#    0.000    0.625    0.000    0.750    0.000    0.000 
#    0.000    0.000    0.000    0.000    0.000    0.000 
#
# Total GULP energy -793494.457017 kJ/mol
# GULP energy per Si atom -12398.350891 kJ/mol
# Density = 1.757030 g / cm^3
# Si number density = 17.610383 Si / 1000 Ang^3
#
#
#
# Elastic Constant Matrix: (Units=GPa)
#
#
# Indices 1 2 3 4 5 6 
#
# 1 107.7333 41.0515 41.2060 0.0000 0.0000 0.0000
# 2 41.0515 60.1673 28.4147 0.0000 0.0000 0.0000
# 3 41.2060 28.4147 73.1227 0.0000 0.0000 0.0000
# 4 0.0000 0.0000 0.0000 22.0484 0.0000 0.0000
# 5 0.0000 0.0000 0.0000 0.0000 23.6437 0.0000
# 6 0.0000 0.0000 0.0000 0.0000 0.0000 29.5291
#
#
#
# Elastic Compliance Matrix: (Units=1/GPa)
#
#
# Indices 1 2 3 4 5 6 
#
# 1 0.013937 -0.007104 -0.005093 0.000000 0.000000 0.000000
# 2 -0.007104 0.023977 -0.005314 0.000000 0.000000 0.000000
# 3 -0.005093 -0.005314 0.018611 0.000000 0.000000 0.000000
# 4 0.000000 0.000000 0.000000 0.045355 0.000000 0.000000
# 5 0.000000 0.000000 0.000000 0.000000 0.042294 0.000000
# 6 0.000000 0.000000 0.000000 0.000000 0.000000 0.033865
#
#
# Mechanical properties :
#
#
# Convention : Reuss Voigt Hill
#
# Bulk Modulus (GPa) = 46.50641 51.37419 48.94030
# Shear Modulus (GPa) = 22.70366 23.73432 23.21899
#
# Velocity S-wave (km/s) = 3.59447 3.67515 3.63503
# Velocity P-wave (km/s) = 6.61005 6.87350 6.74306
#
# Compressibility (1/GPa) = 0.02150241
#
# Stress axis : x y z
#
# Youngs Moduli (GPa) = 71.75043 41.70703 53.73213
#
# Poissons Ratio (x) = 0.29628 0.27368
# Poissons Ratio (y) = 0.50970 0.28553
# Poissons Ratio (z) = 0.36545 0.22163
#
# Static dielectric constant tensor:
#      x y z
#    x 3.408200 0.000000 0.000000 
#    y 0.000000 3.174810 0.000000 
#    z 0.000000 0.000000 3.029060 
# 
# 
# High freq. dielectric constant tensor:
#      x y z
#    x 1.687310 0.000000 0.000000 
#    y 0.000000 1.672400 0.000000 
#    z 0.000000 0.000000 1.651880 
# 
# From -- ./inp_files/24801.got.cif
#   From: 2010.03.12/outbox.cif.g09.slc.cpg/sg62_13_cif.got.tgz:24801.got - 2010.04.10 19:12:36.
