data_PCOD8250624
_publ_section_title
;
Structure prediction by ZEFSAII (Michael W. Deem and Ramdas Pophale) SiO2 
 PCOD8250624
Probable space group: P N M A
;
_chemical_formula_sum "Si O2"
_cell_formula_units_Z 64
_cell_length_a 19.746967
_cell_length_b 8.737066
_cell_length_c 20.637587
_cell_angle_alpha 90.000000
_cell_angle_beta 90.000000
_cell_angle_gamma 90.000000
_cell_volume 3560.614318
_symmetry_space_group_name_H-M "P N M A"
_symmetry_group_IT_number 62
_symmetry_cell_setting 'orthorhombic'
loop_
_space_group_symop_operation_xyz
x,y,z
1/2-x,-y,1/2+z
1/2+x,1/2-y,1/2-z
-x,1/2+y,-z
-x,-y,-z
1/2+x,y,1/2-z
1/2-x,1/2+y,1/2+z
x,1/2-y,z
loop_
_atom_site_type_symbol
_atom_site_label
_atom_site_fract_x
_atom_site_fract_y
_atom_site_fract_z
Si Si1 0.077333 0.928892 0.368875
Si Si2 0.932432 0.069723 0.232371
Si Si3 0.713812 0.930766 0.308418
Si Si4 0.790921 0.069950 0.187946
Si Si5 0.939232 0.070260 0.379791
Si Si6 0.307149 0.926764 0.075353
Si Si7 0.798862 0.574347 0.569285
Si Si8 0.080595 0.431164 0.229401
O O1 0.075190 0.750000 0.353027
O O2 0.137213 0.965369 0.418778
O O3 0.092282 0.022962 0.303775
O O4 0.007088 0.982252 0.401723
O O5 0.934750 0.250000 0.227775
O O6 0.868511 0.007043 0.191245
O O7 0.921453 0.019756 0.306569
O O8 0.005644 0.009586 0.206992
O O9 0.711750 0.750000 0.306914
O O10 0.755774 0.991368 0.370421
O O11 0.745637 0.989592 0.241920
O O12 0.637209 0.992132 0.315787
O O13 0.788871 0.250000 0.202576
O O14 0.762823 0.029296 0.116923
O O15 0.952249 0.250000 0.386335
O O16 0.877041 0.020215 0.424424
O O17 0.323714 0.750000 0.089380
O O18 0.273754 0.949365 0.004515
O O19 0.820735 0.750000 0.581282
O O20 0.087314 0.250000 0.224007
#
# Coordination Sequence:
#
# PCOD8250624 Si02
#       8
#     8   8   8   8   8   8   8   8
#     4  11  21  33  51  77 109 141 175 218 266 315
#     4   8  16  30  51  79 102 125 170 220 259 304
#     4  11  21  33  52  79 108 137 175 222 268 313
#     4  10  18  33  57  79 100 133 177 222 266 313
#     4  10  19  33  53  76 104 141 182 218 258 317
#     4  10  22  37  51  75 109 143 179 220 267 317
#     4  10  21  36  54  75 105 144 180 216 265 322
#     4  10  19  33  53  78 107 138 174 217 263 320
#
# _framework density 17.974426999999999
#
# number of rings (size 3 to 8) (size 9 to 14) (size 15 to 20)
#    0.000    2.000    2.500    3.000    0.000    1.500 
#    0.000    0.625    0.000    0.750    0.000    0.000 
#    0.000    0.000    0.000    0.000    0.000    0.625 
#
# Total GULP energy -793519.542770 kJ/mol
# GULP energy per Si atom -12398.742856 kJ/mol
# Density = 1.793352 g / cm^3
# Si number density = 17.974427 Si / 1000 Ang^3
#
#
#
# Elastic Constant Matrix: (Units=GPa)
#
#
# Indices 1 2 3 4 5 6 
#
# 1 132.0681 25.8445 47.7652 0.0000 0.0000 0.0000
# 2 25.8445 50.6004 18.5058 0.0000 0.0000 0.0000
# 3 47.7652 18.5058 76.6717 0.0000 0.0000 0.0000
# 4 0.0000 0.0000 0.0000 17.2008 0.0000 0.0000
# 5 0.0000 0.0000 0.0000 0.0000 23.6676 0.0000
# 6 0.0000 0.0000 0.0000 0.0000 0.0000 23.4727
#
#
#
# Elastic Compliance Matrix: (Units=1/GPa)
#
#
# Indices 1 2 3 4 5 6 
#
# 1 0.010218 -0.003171 -0.005600 0.000000 0.000000 0.000000
# 2 -0.003171 0.022660 -0.003494 0.000000 0.000000 0.000000
# 3 -0.005600 -0.003494 0.017375 0.000000 0.000000 0.000000
# 4 0.000000 0.000000 0.000000 0.058137 0.000000 0.000000
# 5 0.000000 0.000000 0.000000 0.000000 0.042252 0.000000
# 6 0.000000 0.000000 0.000000 0.000000 0.000000 0.042603
#
#
# Mechanical properties :
#
#
# Convention : Reuss Voigt Hill
#
# Bulk Modulus (GPa) = 38.87616 49.28570 44.08093
# Shear Modulus (GPa) = 22.08988 24.01653 23.05320
#
# Velocity S-wave (km/s) = 3.50946 3.65930 3.58516
# Velocity P-wave (km/s) = 6.17230 6.73301 6.45874
#
# Compressibility (1/GPa) = 0.02572270
#
# Stress axis : x y z
#
# Youngs Moduli (GPa) = 97.86894 44.13072 57.55462
#
# Poissons Ratio (x) = 0.13992 0.32232
# Poissons Ratio (y) = 0.31031 0.20110
# Poissons Ratio (z) = 0.54809 0.15419
#
# Static dielectric constant tensor:
#      x y z
#    x 3.798020 0.000000 0.000000 
#    y 0.000000 3.205030 0.000000 
#    z 0.000000 0.000000 3.158450 
# 
# 
# High freq. dielectric constant tensor:
#      x y z
#    x 1.704140 0.000000 0.000000 
#    y 0.000000 1.688460 0.000000 
#    z 0.000000 0.000000 1.664660 
# 
# From -- ./inp_files/27629.got.cif
#   From: 2010.03.12/outbox.cif.g09.slc.cpg/sg62_14_cif.got.tgz:27629.got - 2010.04.10 19:12:36.
