data_PCOD8250739
_publ_section_title
;
Structure prediction by ZEFSAII (Michael W. Deem and Ramdas Pophale) SiO2 
 PCOD8250739
Probable space group: P N M A
;
_chemical_formula_sum "Si O2"
_cell_formula_units_Z 32
_cell_length_a 9.147814
_cell_length_b 18.681909
_cell_length_c 7.021657
_cell_angle_alpha 90.000000
_cell_angle_beta 90.000000
_cell_angle_gamma 90.000000
_cell_volume 1199.991552
_symmetry_space_group_name_H-M "P N M A"
_symmetry_group_IT_number 62
_symmetry_cell_setting 'orthorhombic'
loop_
_space_group_symop_operation_xyz
x,y,z
1/2-x,-y,1/2+z
1/2+x,1/2-y,1/2-z
-x,1/2+y,-z
-x,-y,-z
1/2+x,y,1/2-z
1/2-x,1/2+y,1/2+z
x,1/2-y,z
loop_
_atom_site_type_symbol
_atom_site_label
_atom_site_fract_x
_atom_site_fract_y
_atom_site_fract_z
Si Si1 0.711336 0.250000 0.019650
Si Si2 0.027731 0.168990 0.223723
Si Si3 0.604845 0.601281 0.060164
Si Si4 0.426552 0.250000 0.784247
Si Si5 0.916817 0.936238 0.098355
O O1 0.599419 0.250000 0.835973
O O2 0.877815 0.250000 0.940268
O O3 0.679259 0.320502 0.151920
O O4 0.954301 0.250000 0.224650
O O5 0.936102 0.108132 0.337306
O O6 0.053840 0.139181 0.012291
O O7 0.650120 0.680324 0.127971
O O8 0.469728 0.571020 0.184236
O O9 0.743274 0.549042 0.091243
O O10 0.000000 0.000000 0.000000
#
# Coordination Sequence:
#
# PCOD8250739 Si02
#       5
#     4   8   8   4   8
#     4   8  18  36  66 108 142 176 230 300 360 426
#     4   9  23  45  73 109 141 187 245 307 358 434
#     4  11  25  47  75 108 146 190 248 305 375 428
#     4  10  18  38  70 106 134 178 224 306 362 402
#     4  12  30  49  74 105 154 202 243 298 371 455
#
# _framework density 26.666853
#
# number of rings (size 3 to 8) (size 9 to 14) (size 15 to 20)
#    0.750    1.000    1.250    3.000    7.000    5.000 
#    0.000    0.000    0.000    0.000    0.000    0.000 
#    0.000    0.000    0.000    0.000    0.000    0.000 
#
# Total GULP energy -396461.521281 kJ/mol
# GULP energy per Si atom -12389.422540 kJ/mol
# Density = 2.660616 g / cm^3
# Si number density = 26.666853 Si / 1000 Ang^3
#
#
#
# Elastic Constant Matrix: (Units=GPa)
#
#
# Indices 1 2 3 4 5 6 
#
# 1 79.7620 1.5477 42.5925 0.0000 0.0000 0.0000
# 2 1.5477 49.7862 -11.9359 0.0000 0.0000 0.0000
# 3 42.5925 -11.9359 109.9415 0.0000 0.0000 0.0000
# 4 0.0000 0.0000 0.0000 28.1121 0.0000 0.0000
# 5 0.0000 0.0000 0.0000 0.0000 43.8251 0.0000
# 6 0.0000 0.0000 0.0000 0.0000 0.0000 36.1809
#
#
#
# Elastic Compliance Matrix: (Units=1/GPa)
#
#
# Indices 1 2 3 4 5 6 
#
# 1 0.016006 -0.002037 -0.006422 0.000000 0.000000 0.000000
# 2 -0.002037 0.020882 0.003056 0.000000 0.000000 0.000000
# 3 -0.006422 0.003056 0.011916 0.000000 0.000000 0.000000
# 4 0.000000 0.000000 0.000000 0.035572 0.000000 0.000000
# 5 0.000000 0.000000 0.000000 0.000000 0.022818 0.000000
# 6 0.000000 0.000000 0.000000 0.000000 0.000000 0.027639
#
#
# Mechanical properties :
#
#
# Convention : Reuss Voigt Hill
#
# Bulk Modulus (GPa) = 26.31747 33.76647 30.04197
# Shear Modulus (GPa) = 31.58470 35.44266 33.51368
#
# Velocity S-wave (km/s) = 3.44527 3.64962 3.54892
# Velocity P-wave (km/s) = 5.07119 5.51811 5.29936
#
# Compressibility (1/GPa) = 0.03799757
#
# Stress axis : x y z
#
# Youngs Moduli (GPa) = 62.47565 47.88825 83.92382
#
# Poissons Ratio (x) = 0.09756 0.53897
# Poissons Ratio (y) = 0.12728 -0.25650
# Poissons Ratio (z) = 0.40123 -0.14636
#
# Static dielectric constant tensor:
#      x y z
#    x 4.593490 0.000000 0.000000 
#    y 0.000000 4.581780 0.000000 
#    z 0.000000 0.000000 5.071040 
# 
# 
# High freq. dielectric constant tensor:
#      x y z
#    x 2.055820 0.000000 0.000000 
#    y 0.000000 2.045710 0.000000 
#    z 0.000000 0.000000 2.088000 
# 
# From -- ./inp_files/4143.got.cif
#   From: 2010.03.12/outbox.cif.g09.slc.cpg/sg62_3_cif.got.tgz:4143.got - 2010.04.10 19:12:36.
