data_PCOD8250787
_publ_section_title
;
Structure prediction by ZEFSAII (Michael W. Deem and Ramdas Pophale) SiO2 
 PCOD8250787
Probable space group: P N M A
;
_chemical_formula_sum "Si O2"
_cell_formula_units_Z 64
_cell_length_a 17.241980
_cell_length_b 14.352908
_cell_length_c 15.013781
_cell_angle_alpha 90.000000
_cell_angle_beta 90.000000
_cell_angle_gamma 90.000000
_cell_volume 3715.498709
_symmetry_space_group_name_H-M "P N M A"
_symmetry_group_IT_number 62
_symmetry_cell_setting 'orthorhombic'
loop_
_space_group_symop_operation_xyz
x,y,z
1/2-x,-y,1/2+z
1/2+x,1/2-y,1/2-z
-x,1/2+y,-z
-x,-y,-z
1/2+x,y,1/2-z
1/2-x,1/2+y,1/2+z
x,1/2-y,z
loop_
_atom_site_type_symbol
_atom_site_label
_atom_site_fract_x
_atom_site_fract_y
_atom_site_fract_z
Si Si1 0.694671 0.644182 0.934050
Si Si2 0.625828 0.857637 0.121005
Si Si3 0.839767 0.853637 0.839651
Si Si4 0.781845 0.984492 0.690487
Si Si5 0.054561 0.141417 0.607434
Si Si6 0.490816 0.645139 0.743669
Si Si7 0.127406 0.516353 0.720389
Si Si8 0.618082 0.143393 0.085886
O O1 0.666061 0.750000 0.917665
O O2 0.789994 0.638586 0.931345
O O3 0.656184 0.581740 0.858881
O O4 0.666001 0.610821 0.029317
O O5 0.639423 0.750000 0.143587
O O6 0.535770 0.883297 0.117222
O O7 0.670292 0.918747 0.194484
O O8 0.826297 0.750000 0.798154
O O9 0.801962 0.929782 0.778435
O O10 0.932756 0.868702 0.841941
O O11 0.689664 0.002495 0.700441
O O12 0.806962 0.922439 0.604424
O O13 0.069997 0.250000 0.626668
O O14 0.079802 0.114267 0.507484
O O15 0.102203 0.082842 0.679861
O O16 0.525336 0.750000 0.743609
O O17 0.556759 0.568806 0.731555
O O18 0.444336 0.626946 0.835696
O O19 0.646186 0.250000 0.082900
#
# Coordination Sequence:
#
# PCOD8250787 Si02
#       8
#     8   8   8   8   8   8   8   8
#     4   9  17  29  46  69  92 114 146 188 231 273
#     4  10  20  33  49  68  90 119 155 191 226 267
#     4   8  15  28  45  66  91 117 146 183 228 273
#     4  10  19  29  43  64  93 126 153 179 220 271
#     4  10  20  32  47  68  92 120 154 190 227 266
#     4   9  16  26  43  67  92 118 148 184 230 280
#     4  11  20  28  43  67  97 126 150 180 222 272
#     4   9  17  30  48  70  95 120 148 187 234 276
#
# _framework density 17.225145000000001
#
# number of rings (size 3 to 8) (size 9 to 14) (size 15 to 20)
#    0.000    2.500    0.000    4.500    0.000    5.500 
#    0.000    0.000    0.000    0.750    0.000    0.000 
#    0.000    6.000    0.000    0.000    0.000    0.000 
#
# Total GULP energy -792951.266861 kJ/mol
# GULP energy per Si atom -12389.863545 kJ/mol
# Density = 1.718594 g / cm^3
# Si number density = 17.225145 Si / 1000 Ang^3
#
#
#
# Elastic Constant Matrix: (Units=GPa)
#
#
# Indices 1 2 3 4 5 6 
#
# 1 122.3742 57.4275 45.5041 0.0000 0.0000 0.0000
# 2 57.4275 86.9035 28.5234 0.0000 0.0000 0.0000
# 3 45.5041 28.5234 28.7495 0.0000 0.0000 0.0000
# 4 0.0000 0.0000 0.0000 16.4215 0.0000 0.0000
# 5 0.0000 0.0000 0.0000 0.0000 29.0064 0.0000
# 6 0.0000 0.0000 0.0000 0.0000 0.0000 25.4946
#
#
#
# Elastic Compliance Matrix: (Units=1/GPa)
#
#
# Indices 1 2 3 4 5 6 
#
# 1 0.020930 -0.004386 -0.028776 0.000000 0.000000 0.000000
# 2 -0.004386 0.017983 -0.010899 0.000000 0.000000 0.000000
# 3 -0.028776 -0.010899 0.091143 0.000000 0.000000 0.000000
# 4 0.000000 0.000000 0.000000 0.060896 0.000000 0.000000
# 5 0.000000 0.000000 0.000000 0.000000 0.034475 0.000000
# 6 0.000000 0.000000 0.000000 0.000000 0.000000 0.039224
#
#
# Mechanical properties :
#
#
# Convention : Reuss Voigt Hill
#
# Bulk Modulus (GPa) = 23.84748 55.65969 39.75358
# Shear Modulus (GPa) = 13.63319 21.28932 17.46126
#
# Velocity S-wave (km/s) = 2.81636 3.51941 3.18733
# Velocity P-wave (km/s) = 4.94474 6.99273 6.05594
#
# Compressibility (1/GPa) = 0.04193316
#
# Stress axis : x y z
#
# Youngs Moduli (GPa) = 47.77747 55.60888 10.97175
#
# Poissons Ratio (x) = 0.24391 0.31573
# Poissons Ratio (y) = 0.20956 0.11958
# Poissons Ratio (z) = 1.37487 0.60608
#
# Static dielectric constant tensor:
#      x y z
#    x 3.506740 0.000000 0.000000 
#    y 0.000000 3.370030 0.000000 
#    z 0.000000 0.000000 2.929540 
# 
# 
# High freq. dielectric constant tensor:
#      x y z
#    x 1.662520 0.000000 0.000000 
#    y 0.000000 1.679100 0.000000 
#    z 0.000000 0.000000 1.614960 
# 
# From -- ./inp_files/19966.got.cif
#   From: 2010.03.12/outbox.cif.g09.slc.cpg/sg62_10_cif.got.tgz:19966.got - 2010.04.10 19:12:36.
