data_PCOD8250277
_publ_section_title
;
Structure prediction by ZEFSAII (Michael W. Deem and Ramdas Pophale) SiO2 
 PCOD8250277
Probable space group: P N M A
;
_chemical_formula_sum "Si O2"
_cell_formula_units_Z 64
_cell_length_a 29.857870
_cell_length_b 9.503313
_cell_length_c 14.528289
_cell_angle_alpha 90.000000
_cell_angle_beta 90.000000
_cell_angle_gamma 90.000000
_cell_volume 4122.382886
_symmetry_space_group_name_H-M "P N M A"
_symmetry_group_IT_number 62
_symmetry_cell_setting 'orthorhombic'
loop_
_space_group_symop_operation_xyz
x,y,z
1/2-x,-y,1/2+z
1/2+x,1/2-y,1/2-z
-x,1/2+y,-z
-x,-y,-z
1/2+x,y,1/2-z
1/2-x,1/2+y,1/2+z
x,1/2-y,z
loop_
_atom_site_type_symbol
_atom_site_label
_atom_site_fract_x
_atom_site_fract_y
_atom_site_fract_z
Si Si1 0.324475 0.406391 0.984865
Si Si2 0.542781 0.587109 0.894663
Si Si3 0.042415 0.588168 0.393831
Si Si4 0.697779 0.415932 0.317017
Si Si5 0.214146 0.583206 0.798103
Si Si6 0.134826 0.584866 0.302723
Si Si7 0.862886 0.083794 0.333088
Si Si8 0.779248 0.593814 0.020424
O O1 0.346316 0.250000 0.977887
O O2 0.345839 0.486863 0.071728
O O3 0.272538 0.397398 0.002249
O O4 0.336572 0.478484 0.888398
O O5 0.530461 0.750000 0.885748
O O6 0.500143 0.500482 0.860354
O O7 0.584237 0.548368 0.826277
O O8 0.555649 0.550104 0.000694
O O9 0.028642 0.750000 0.387031
O O10 0.082845 0.553517 0.324105
O O11 0.691636 0.250000 0.304039
O O12 0.742669 0.465677 0.261858
O O13 0.653271 0.496519 0.283028
O O14 0.699100 0.457000 0.424691
O O15 0.214819 0.750000 0.811031
O O16 0.167987 0.528842 0.750160
O O17 0.212038 0.515112 0.898430
O O18 0.143372 0.750000 0.284106
O O19 0.854706 0.250000 0.340371
O O20 0.796633 0.750000 0.048421
#
# Coordination Sequence:
#
# PCOD8250277 Si02
#       8
#     8   8   8   8   8   8   8   8
#     4   9  14  24  44  65  87 120 157 183 209 260
#     4   9  16  27  45  66  89 120 153 183 219 269
#     4   9  17  28  43  66  93 119 149 185 225 268
#     4  10  20  31  45  67  93 121 153 190 228 263
#     4  10  19  30  46  68  91 117 154 195 224 254
#     4  10  18  29  47  67  89 124 161 186 216 267
#     4   9  15  27  46  66  89 122 159 184 214 267
#     4  10  19  32  47  63  90 126 157 186 224 268
#
# _framework density 15.525001
#
# number of rings (size 3 to 8) (size 9 to 14) (size 15 to 20)
#    0.000    2.500    3.750    0.000    0.000    1.000 
#    0.000    0.625    0.000    1.500    0.000    0.875 
#    0.000    0.000    0.000    0.000    0.000    0.000 
#
# Total GULP energy -793084.880163 kJ/mol
# GULP energy per Si atom -12391.951253 kJ/mol
# Density = 1.548967 g / cm^3
# Si number density = 15.525001 Si / 1000 Ang^3
#
#
#
# Elastic Constant Matrix: (Units=GPa)
#
#
# Indices 1 2 3 4 5 6 
#
# 1 94.4802 36.6707 38.0622 0.0000 0.0000 0.0000
# 2 36.6707 37.8636 32.1112 0.0000 0.0000 0.0000
# 3 38.0622 32.1112 78.6364 0.0000 0.0000 0.0000
# 4 0.0000 0.0000 0.0000 18.2451 0.0000 0.0000
# 5 0.0000 0.0000 0.0000 0.0000 25.3424 0.0000
# 6 0.0000 0.0000 0.0000 0.0000 0.0000 23.5397
#
#
#
# Elastic Compliance Matrix: (Units=1/GPa)
#
#
# Indices 1 2 3 4 5 6 
#
# 1 0.017235 -0.014712 -0.002334 0.000000 0.000000 0.000000
# 2 -0.014712 0.052961 -0.014506 0.000000 0.000000 0.000000
# 3 -0.002334 -0.014506 0.019770 0.000000 0.000000 0.000000
# 4 0.000000 0.000000 0.000000 0.054809 0.000000 0.000000
# 5 0.000000 0.000000 0.000000 0.000000 0.039460 0.000000
# 6 0.000000 0.000000 0.000000 0.000000 0.000000 0.042481
#
#
# Mechanical properties :
#
#
# Convention : Reuss Voigt Hill
#
# Bulk Modulus (GPa) = 37.22774 47.18538 42.20656
# Shear Modulus (GPa) = 16.73501 20.36786 18.55143
#
# Velocity S-wave (km/s) = 3.28676 3.62600 3.46054
# Velocity P-wave (km/s) = 6.19960 6.92745 6.57361
#
# Compressibility (1/GPa) = 0.02686169
#
# Stress axis : x y z
#
# Youngs Moduli (GPa) = 58.02163 18.88173 50.58147
#
# Poissons Ratio (x) = 0.27779 0.11808
# Poissons Ratio (y) = 0.85363 0.73372
# Poissons Ratio (z) = 0.13545 0.27389
#
# Static dielectric constant tensor:
#      x y z
#    x 2.938410 0.000000 0.000000 
#    y 0.000000 2.731960 0.000000 
#    z 0.000000 0.000000 2.872830 
# 
# 
# High freq. dielectric constant tensor:
#      x y z
#    x 1.589410 0.000000 0.000000 
#    y 0.000000 1.569850 0.000000 
#    z 0.000000 0.000000 1.575630 
# 
# From -- ./inp_files/21243.got.cif
#   From: 2010.03.12/outbox.cif.g09.slc.cpg/sg62_11_cif.got.tgz:21243.got - 2010.04.10 19:12:36.
