data_PCOD8250177
_publ_section_title
;
Structure prediction by ZEFSAII (Michael W. Deem and Ramdas Pophale) SiO2 
 PCOD8250177
Probable space group: P N M A
;
_chemical_formula_sum "Si O2"
_cell_formula_units_Z 56
_cell_length_a 8.536931
_cell_length_b 18.904056
_cell_length_c 22.103294
_cell_angle_alpha 90.000000
_cell_angle_beta 90.000000
_cell_angle_gamma 90.000000
_cell_volume 3567.087534
_symmetry_space_group_name_H-M "P N M A"
_symmetry_group_IT_number 62
_symmetry_cell_setting 'orthorhombic'
loop_
_space_group_symop_operation_xyz
x,y,z
1/2-x,-y,1/2+z
1/2+x,1/2-y,1/2-z
-x,1/2+y,-z
-x,-y,-z
1/2+x,y,1/2-z
1/2-x,1/2+y,1/2+z
x,1/2-y,z
loop_
_atom_site_type_symbol
_atom_site_label
_atom_site_fract_x
_atom_site_fract_y
_atom_site_fract_z
Si Si1 0.935826 0.540552 0.441081
Si Si2 0.866989 0.442155 0.005652
Si Si3 0.893055 0.918429 0.598308
Si Si4 0.177440 0.333189 0.172038
Si Si5 0.405518 0.669668 0.541569
Si Si6 0.975267 0.833442 0.705048
Si Si7 0.062065 0.668786 0.495793
O O1 0.747787 0.549283 0.447498
O O2 0.000000 0.500000 0.500000
O O3 0.993172 0.487338 0.388132
O O4 0.012396 0.619250 0.438676
O O5 0.768000 0.446564 0.068235
O O6 0.954685 0.367154 0.004957
O O7 0.000000 0.500000 0.000000
O O8 0.859307 0.878093 0.661292
O O9 0.974305 0.859744 0.555304
O O10 0.188319 0.250000 0.162794
O O11 0.119779 0.365838 0.108228
O O12 0.058772 0.353981 0.225552
O O13 0.350611 0.359450 0.189260
O O14 0.458549 0.750000 0.548733
O O15 0.247376 0.662310 0.503479
O O16 0.946363 0.750000 0.694887
O O17 0.012504 0.750000 0.483937
#
# Coordination Sequence:
#
# PCOD8250177 Si02
#       7
#     8   8   8   8   8   8   8
#     4   8  17  29  41  58  79 107 146 178 216 255
#     4  10  19  28  41  60  83 106 142 187 217 257
#     4  10  18  29  45  58  79 117 152 176 218 265
#     4   9  19  30  41  59  85 113 146 187 219 244
#     4  10  18  28  42  61  85 113 143 179 216 253
#     4  10  19  31  45  61  85 116 151 188 217 249
#     4   9  15  27  44  59  79 111 144 172 210 257
#
# _framework density 15.699083
#
# number of rings (size 3 to 8) (size 9 to 14) (size 15 to 20)
#    0.000    2.857    1.429    3.000    2.000    2.857 
#    0.000    0.000    0.000    0.000    0.000    0.000 
#    0.000    0.000    0.000    2.571    0.000    1.000 
#
# Total GULP energy -693783.638204 kJ/mol
# GULP energy per Si atom -12388.993539 kJ/mol
# Density = 1.566335 g / cm^3
# Si number density = 15.699083 Si / 1000 Ang^3
#
#
#
# Elastic Constant Matrix: (Units=GPa)
#
#
# Indices 1 2 3 4 5 6 
#
# 1 90.8836 42.9897 16.1936 0.0000 0.0000 0.0000
# 2 42.9897 97.5307 25.9510 0.0000 0.0000 0.0000
# 3 16.1936 25.9510 25.6080 0.0000 0.0000 0.0000
# 4 0.0000 0.0000 0.0000 16.3947 0.0000 0.0000
# 5 0.0000 0.0000 0.0000 0.0000 16.3541 0.0000
# 6 0.0000 0.0000 0.0000 0.0000 0.0000 29.2370
#
#
#
# Elastic Compliance Matrix: (Units=1/GPa)
#
#
# Indices 1 2 3 4 5 6 
#
# 1 0.014139 -0.005276 -0.003595 0.000000 0.000000 0.000000
# 2 -0.005276 0.016007 -0.012885 0.000000 0.000000 0.000000
# 3 -0.003595 -0.012885 0.054381 0.000000 0.000000 0.000000
# 4 0.000000 0.000000 0.000000 0.060995 0.000000 0.000000
# 5 0.000000 0.000000 0.000000 0.000000 0.061147 0.000000
# 6 0.000000 0.000000 0.000000 0.000000 0.000000 0.034203
#
#
# Mechanical properties :
#
#
# Convention : Reuss Voigt Hill
#
# Bulk Modulus (GPa) = 24.38069 42.69899 33.53984
# Shear Modulus (GPa) = 16.77535 20.98970 18.88253
#
# Velocity S-wave (km/s) = 3.27242 3.66047 3.47187
# Velocity P-wave (km/s) = 5.46279 6.71735 6.12229
#
# Compressibility (1/GPa) = 0.04101607
#
# Stress axis : x y z
#
# Youngs Moduli (GPa) = 70.72570 62.47198 18.38870
#
# Poissons Ratio (x) = 0.32959 0.06610
# Poissons Ratio (y) = 0.37314 0.23694
# Poissons Ratio (z) = 0.25423 0.80497
#
# Static dielectric constant tensor:
#      x y z
#    x 3.155580 0.000000 0.000000 
#    y 0.000000 3.366650 0.000000 
#    z 0.000000 0.000000 2.874200 
# 
# 
# High freq. dielectric constant tensor:
#      x y z
#    x 1.614060 0.000000 0.000000 
#    y 0.000000 1.592650 0.000000 
#    z 0.000000 0.000000 1.544620 
# 
# From -- ./inp_files/29038.got.cif
#   From: 2010.03.12/outbox.cif.g09.slc.cpg/sg62_15_cif.got.tgz:29038.got - 2010.04.10 19:12:36.
