data_PCOD8250498
_publ_section_title
;
Structure prediction by ZEFSAII (Michael W. Deem and Ramdas Pophale) SiO2 
 PCOD8250498
Probable space group: P N M A
;
_chemical_formula_sum "Si O2"
_cell_formula_units_Z 48
_cell_length_a 24.592906
_cell_length_b 10.568786
_cell_length_c 10.277469
_cell_angle_alpha 90.000000
_cell_angle_beta 90.000000
_cell_angle_gamma 90.000000
_cell_volume 2671.290561
_symmetry_space_group_name_H-M "P N M A"
_symmetry_group_IT_number 62
_symmetry_cell_setting 'orthorhombic'
loop_
_space_group_symop_operation_xyz
x,y,z
1/2-x,-y,1/2+z
1/2+x,1/2-y,1/2-z
-x,1/2+y,-z
-x,-y,-z
1/2+x,y,1/2-z
1/2-x,1/2+y,1/2+z
x,1/2-y,z
loop_
_atom_site_type_symbol
_atom_site_label
_atom_site_fract_x
_atom_site_fract_y
_atom_site_fract_z
Si Si1 0.637624 0.105185 0.110195
Si Si2 0.921934 0.388892 0.189387
Si Si3 0.864393 0.891317 0.086461
Si Si4 0.513271 0.394199 0.105943
Si Si5 0.669926 0.997835 0.836840
Si Si6 0.709636 0.101533 0.346613
O O1 0.653223 0.250000 0.086664
O O2 0.575129 0.089602 0.151945
O O3 0.674146 0.048524 0.226420
O O4 0.648760 0.032749 0.978049
O O5 0.925849 0.250000 0.122498
O O6 0.912960 0.502987 0.084643
O O7 0.869617 0.385021 0.286953
O O8 0.976584 0.419151 0.268096
O O9 0.887120 0.750000 0.056176
O O10 0.836463 0.889536 0.229932
O O11 0.820179 0.933819 0.980604
O O12 0.503785 0.250000 0.052153
O O13 0.500000 0.500000 0.000000
O O14 0.732392 0.963015 0.845301
O O15 0.717674 0.250000 0.334394
#
# Coordination Sequence:
#
# PCOD8250498 Si02
#       6
#     8   8   8   8   8   8
#     4  10  20  33  54  80 108 137 177 216 264 313
#     4   9  19  32  53  76 103 137 171 211 268 310
#     4   9  19  34  53  74 102 136 181 214 253 313
#     4  10  18  33  53  79 107 137 173 220 262 312
#     4  10  18  31  54  75 105 131 176 211 266 304
#     4  10  20  34  50  76 108 144 173 215 264 315
#
# _framework density 17.968841000000001
#
# number of rings (size 3 to 8) (size 9 to 14) (size 15 to 20)
#    1.000    1.333    1.667    2.000    0.000    0.667 
#    0.000    1.667    0.000    4.000    0.000    0.000 
#    0.000    0.000    0.000    0.000    0.000    0.000 
#
# Total GULP energy -594696.455997 kJ/mol
# GULP energy per Si atom -12389.509500 kJ/mol
# Density = 1.792794 g / cm^3
# Si number density = 17.968841 Si / 1000 Ang^3
#
#
#
# Elastic Constant Matrix: (Units=GPa)
#
#
# Indices 1 2 3 4 5 6 
#
# 1 63.9482 5.4533 0.7252 0.0000 0.0000 0.0000
# 2 5.4533 54.1348 3.6548 0.0000 0.0000 0.0000
# 3 0.7252 3.6548 48.0568 0.0000 0.0000 0.0000
# 4 0.0000 0.0000 0.0000 0.3617 0.0000 0.0000
# 5 0.0000 0.0000 0.0000 0.0000 0.2537 0.0000
# 6 0.0000 0.0000 0.0000 0.0000 0.0000 20.8253
#
#
#
# Elastic Compliance Matrix: (Units=1/GPa)
#
#
# Indices 1 2 3 4 5 6 
#
# 1 0.015774 -0.001581 -0.000118 0.000000 0.000000 0.000000
# 2 -0.001581 0.018726 -0.001400 0.000000 0.000000 0.000000
# 3 -0.000118 -0.001400 0.020917 0.000000 0.000000 0.000000
# 4 0.000000 0.000000 0.000000 2.764533 0.000000 0.000000
# 5 0.000000 0.000000 0.000000 0.000000 3.941624 0.000000
# 6 0.000000 0.000000 0.000000 0.000000 0.000000 0.048019
#
#
# Mechanical properties :
#
#
# Convention : Reuss Voigt Hill
#
# Bulk Modulus (GPa) = 20.31746 20.64516 20.48131
# Shear Modulus (GPa) = 0.73183 14.70858 7.72020
#
# Velocity S-wave (km/s) = 0.63887 2.86415 2.07503
# Velocity P-wave (km/s) = 3.44613 4.73837 4.14295
#
# Compressibility (1/GPa) = 0.04921875
#
# Stress axis : x y z
#
# Youngs Moduli (GPa) = 63.39618 53.40105 47.80806
#
# Poissons Ratio (x) = 0.08443 0.00563
# Poissons Ratio (y) = 0.10023 0.06695
# Poissons Ratio (z) = 0.00747 0.07478
#
# Static dielectric constant tensor:
#      x y z
#    x 3.430500 0.000000 0.000000 
#    y 0.000000 3.470300 0.000000 
#    z 0.000000 0.000000 3.221460 
# 
# 
# High freq. dielectric constant tensor:
#      x y z
#    x 1.699280 0.000000 0.000000 
#    y 0.000000 1.685280 0.000000 
#    z 0.000000 0.000000 1.681780 
# 
# From -- ./inp_files/15217.got.cif
#   From: 2010.03.12/outbox.cif.g09.slc.cpg/sg62_8_cif.got.tgz:15217.got - 2010.04.10 19:12:36.
