data_PCOD8250633
_publ_section_title
;
Structure prediction by ZEFSAII (Michael W. Deem and Ramdas Pophale) SiO2 
 PCOD8250633
Probable space group: P N M A
;
_chemical_formula_sum "Si O2"
_cell_formula_units_Z 64
_cell_length_a 15.285471
_cell_length_b 8.692489
_cell_length_c 23.679390
_cell_angle_alpha 90.000000
_cell_angle_beta 90.000000
_cell_angle_gamma 90.000000
_cell_volume 3146.251862
_symmetry_space_group_name_H-M "P N M A"
_symmetry_group_IT_number 62
_symmetry_cell_setting 'orthorhombic'
loop_
_space_group_symop_operation_xyz
x,y,z
1/2-x,-y,1/2+z
1/2+x,1/2-y,1/2-z
-x,1/2+y,-z
-x,-y,-z
1/2+x,y,1/2-z
1/2-x,1/2+y,1/2+z
x,1/2-y,z
loop_
_atom_site_type_symbol
_atom_site_label
_atom_site_fract_x
_atom_site_fract_y
_atom_site_fract_z
Si Si1 0.071987 0.566203 0.250412
Si Si2 0.809774 0.570417 0.374490
Si Si3 0.768966 0.930369 0.247435
Si Si4 0.073886 0.930984 0.960134
Si Si5 0.498551 0.927057 0.135700
Si Si6 0.076788 0.066876 0.834728
Si Si7 0.234935 0.068617 0.022596
Si Si8 0.915214 0.074501 0.525121
O O1 0.077167 0.750000 0.252254
O O2 0.170752 0.498231 0.253052
O O3 0.024006 0.494748 0.305287
O O4 0.013695 0.515655 0.196442
O O5 0.791657 0.750000 0.386124
O O6 0.804985 0.529330 0.308886
O O7 0.738964 0.473770 0.410830
O O8 0.907583 0.511783 0.391572
O O9 0.762600 0.750000 0.237496
O O10 0.837233 0.994892 0.199999
O O11 0.060149 0.750000 0.955905
O O12 0.073454 0.998390 0.897183
O O13 0.163664 0.970850 0.990404
O O14 0.000000 0.000000 0.000000
O O15 0.478481 0.750000 0.149374
O O16 0.579325 0.946634 0.092824
O O17 0.081374 0.250000 0.839146
O O18 0.218699 0.250000 0.013780
O O19 0.324732 0.003090 0.995760
O O20 0.916488 0.250000 0.506432
O O21 0.000000 0.000000 0.500000
#
# Coordination Sequence:
#
# PCOD8250633 Si02
#       8
#     8   8   8   8   8   8   8   8
#     4   9  17  30  54  86 118 154 198 246 298 355
#     4  10  18  33  57  86 120 161 210 256 300 360
#     4   9  18  31  55  90 122 157 201 248 300 361
#     4  12  28  49  69  89 119 163 215 267 323 383
#     4   9  16  29  50  80 118 158 200 245 289 346
#     4  10  20  38  63  94 126 156 205 262 305 361
#     4  11  24  40  60  91 124 162 208 258 317 373
#     4  10  20  33  54  85 123 162 200 244 295 356
#
# _framework density 20.341664999999999
#
# number of rings (size 3 to 8) (size 9 to 14) (size 15 to 20)
#    0.000    2.000    2.500    1.500    3.500    0.500 
#    0.000    0.625    0.000    1.500    0.000    0.000 
#    0.000    0.000    0.000    0.000    0.000    0.000 
#
# Total GULP energy -793083.582208 kJ/mol
# GULP energy per Si atom -12391.930972 kJ/mol
# Density = 2.029537 g / cm^3
# Si number density = 20.341665 Si / 1000 Ang^3
#
#
#
# Elastic Constant Matrix: (Units=GPa)
#
#
# Indices 1 2 3 4 5 6 
#
# 1 155.5295 27.4296 71.1847 0.0000 0.0000 0.0000
# 2 27.4296 38.3115 31.3205 0.0000 0.0000 0.0000
# 3 71.1847 31.3205 139.0724 0.0000 0.0000 0.0000
# 4 0.0000 0.0000 0.0000 25.0455 0.0000 0.0000
# 5 0.0000 0.0000 0.0000 0.0000 32.6129 0.0000
# 6 0.0000 0.0000 0.0000 0.0000 0.0000 19.1309
#
#
#
# Elastic Compliance Matrix: (Units=1/GPa)
#
#
# Indices 1 2 3 4 5 6 
#
# 1 0.008700 -0.003173 -0.003739 0.000000 0.000000 0.000000
# 2 -0.003173 0.033149 -0.005842 0.000000 0.000000 0.000000
# 3 -0.003739 -0.005842 0.010420 0.000000 0.000000 0.000000
# 4 0.000000 0.000000 0.000000 0.039927 0.000000 0.000000
# 5 0.000000 0.000000 0.000000 0.000000 0.030663 0.000000
# 6 0.000000 0.000000 0.000000 0.000000 0.000000 0.052272
#
#
# Mechanical properties :
#
#
# Convention : Reuss Voigt Hill
#
# Bulk Modulus (GPa) = 37.36485 65.86479 51.61482
# Shear Modulus (GPa) = 23.85978 28.88977 26.37477
#
# Velocity S-wave (km/s) = 3.42855 3.77268 3.60472
# Velocity P-wave (km/s) = 5.83796 7.17126 6.53869
#
# Compressibility (1/GPa) = 0.02676312
#
# Stress axis : x y z
#
# Youngs Moduli (GPa) = 114.93712 30.16696 95.97094
#
# Poissons Ratio (x) = 0.09571 0.35882
# Poissons Ratio (y) = 0.36465 0.56062
# Poissons Ratio (z) = 0.42973 0.17622
#
# Static dielectric constant tensor:
#      x y z
#    x 4.003950 0.000000 0.000000 
#    y 0.000000 3.207450 0.000000 
#    z 0.000000 0.000000 3.776390 
# 
# 
# High freq. dielectric constant tensor:
#      x y z
#    x 1.808280 0.000000 0.000000 
#    y 0.000000 1.740620 0.000000 
#    z 0.000000 0.000000 1.809890 
# 
# From -- ./inp_files/29726.got.cif
#   From: 2010.03.12/outbox.cif.g09.slc.cpg/sg62_15_cif.got.tgz:29726.got - 2010.04.10 19:12:36.
