data_PCOD8250861
_publ_section_title
;
Structure prediction by ZEFSAII (Michael W. Deem and Ramdas Pophale) SiO2 
 PCOD8250861
Probable space group: P N M A
;
_chemical_formula_sum "Si O2"
_cell_formula_units_Z 64
_cell_length_a 17.461696
_cell_length_b 9.413482
_cell_length_c 20.002624
_cell_angle_alpha 90.000000
_cell_angle_beta 90.000000
_cell_angle_gamma 90.000000
_cell_volume 3287.938541
_symmetry_space_group_name_H-M "P N M A"
_symmetry_group_IT_number 62
_symmetry_cell_setting 'orthorhombic'
loop_
_space_group_symop_operation_xyz
x,y,z
1/2-x,-y,1/2+z
1/2+x,1/2-y,1/2-z
-x,1/2+y,-z
-x,-y,-z
1/2+x,y,1/2-z
1/2-x,1/2+y,1/2+z
x,1/2-y,z
loop_
_atom_site_type_symbol
_atom_site_label
_atom_site_fract_x
_atom_site_fract_y
_atom_site_fract_z
Si Si1 0.843112 0.079637 0.335461
Si Si2 0.922274 0.093995 0.803114
Si Si3 0.344992 0.418706 0.893288
Si Si4 0.003012 0.088133 0.664700
Si Si5 0.731772 0.918410 0.972584
Si Si6 0.108963 0.094326 0.975628
Si Si7 0.260778 0.085614 0.762692
Si Si8 0.004002 0.904898 0.905007
O O1 0.844840 0.250000 0.328546
O O2 0.796257 0.026167 0.400814
O O3 0.805904 0.011744 0.268869
O O4 0.928113 0.020709 0.346268
O O5 0.929115 0.250000 0.836477
O O6 0.980084 0.086003 0.741724
O O7 0.835754 0.065592 0.782069
O O8 0.944367 0.974762 0.855204
O O9 0.347156 0.250000 0.887529
O O10 0.431113 0.472130 0.878289
O O11 0.282442 0.468821 0.837611
O O12 0.321387 0.474816 0.966562
O O13 0.025274 0.250000 0.643588
O O14 0.729355 0.750000 0.971556
O O15 0.818010 0.973192 0.986450
O O16 0.131248 0.250000 0.946423
O O17 0.082124 0.995366 0.914019
O O18 0.037883 0.111878 0.024675
O O19 0.233577 0.250000 0.762979
O O20 0.027040 0.750000 0.877211
#
# Coordination Sequence:
#
# PCOD8250861 Si02
#       8
#     8   8   8   8   8   8   8   8
#     4  11  22  34  52  81 113 139 165 206 261 315
#     4   9  18  33  53  74  97 130 172 214 257 306
#     4   8  16  34  58  78  98 132 179 223 256 295
#     4   9  19  36  55  75  99 130 172 216 255 301
#     4   9  18  33  53  76 102 135 175 216 260 309
#     4   9  18  32  48  69 100 138 176 209 250 310
#     4   9  18  34  56  79 102 134 178 221 256 297
#     4  10  19  30  47  73 105 137 169 210 259 311
#
# _framework density 19.465081999999999
#
# number of rings (size 3 to 8) (size 9 to 14) (size 15 to 20)
#    0.000    2.750    0.000    3.000    0.000    4.000 
#    0.000    5.625    0.000    3.000    0.000    0.000 
#    0.000    0.000    0.000    0.000    0.000    0.000 
#
# Total GULP energy -793279.686275 kJ/mol
# GULP energy per Si atom -12394.995098 kJ/mol
# Density = 1.942078 g / cm^3
# Si number density = 19.465082 Si / 1000 Ang^3
#
#
#
# Elastic Constant Matrix: (Units=GPa)
#
#
# Indices 1 2 3 4 5 6 
#
# 1 88.2628 22.8125 9.8981 0.0000 0.0000 0.0000
# 2 22.8125 72.9422 14.2905 0.0000 0.0000 0.0000
# 3 9.8981 14.2905 48.4506 0.0000 0.0000 0.0000
# 4 0.0000 0.0000 0.0000 15.3816 0.0000 0.0000
# 5 0.0000 0.0000 0.0000 0.0000 23.0406 0.0000
# 6 0.0000 0.0000 0.0000 0.0000 0.0000 24.2814
#
#
#
# Elastic Compliance Matrix: (Units=1/GPa)
#
#
# Indices 1 2 3 4 5 6 
#
# 1 0.012425 -0.003596 -0.001478 0.000000 0.000000 0.000000
# 2 -0.003596 0.015591 -0.003864 0.000000 0.000000 0.000000
# 3 -0.001478 -0.003864 0.022081 0.000000 0.000000 0.000000
# 4 0.000000 0.000000 0.000000 0.065013 0.000000 0.000000
# 5 0.000000 0.000000 0.000000 0.000000 0.043402 0.000000
# 6 0.000000 0.000000 0.000000 0.000000 0.000000 0.041184
#
#
# Mechanical properties :
#
#
# Convention : Reuss Voigt Hill
#
# Bulk Modulus (GPa) = 31.03512 33.73975 32.38743
# Shear Modulus (GPa) = 21.89987 23.38436 22.64211
#
# Velocity S-wave (km/s) = 3.35787 3.46981 3.41430
# Velocity P-wave (km/s) = 5.56887 5.78134 5.67610
#
# Compressibility (1/GPa) = 0.03222156
#
# Stress axis : x y z
#
# Youngs Moduli (GPa) = 80.48262 64.13855 45.28761
#
# Poissons Ratio (x) = 0.23067 0.06692
# Poissons Ratio (y) = 0.28945 0.17499
# Poissons Ratio (z) = 0.11892 0.24783
#
# Static dielectric constant tensor:
#      x y z
#    x 3.550660 0.000000 0.000000 
#    y 0.000000 3.472370 0.000000 
#    z 0.000000 0.000000 3.564170 
# 
# 
# High freq. dielectric constant tensor:
#      x y z
#    x 1.760520 0.000000 0.000000 
#    y 0.000000 1.730040 0.000000 
#    z 0.000000 0.000000 1.749740 
# 
# From -- ./inp_files/27635.got.cif
#   From: 2010.03.12/outbox.cif.g09.slc.cpg/sg62_14_cif.got.tgz:27635.got - 2010.04.10 19:12:36.
