data_PCOD8250723
_publ_section_title
;
Structure prediction by ZEFSAII (Michael W. Deem and Ramdas Pophale) SiO2 
 PCOD8250723
Probable space group: P N M A
;
_chemical_formula_sum "Si O2"
_cell_formula_units_Z 64
_cell_length_a 11.895082
_cell_length_b 8.982027
_cell_length_c 30.418560
_cell_angle_alpha 90.000000
_cell_angle_beta 90.000000
_cell_angle_gamma 90.000000
_cell_volume 3249.978196
_symmetry_space_group_name_H-M "P N M A"
_symmetry_group_IT_number 62
_symmetry_cell_setting 'orthorhombic'
loop_
_space_group_symop_operation_xyz
x,y,z
1/2-x,-y,1/2+z
1/2+x,1/2-y,1/2-z
-x,1/2+y,-z
-x,-y,-z
1/2+x,y,1/2-z
1/2-x,1/2+y,1/2+z
x,1/2-y,z
loop_
_atom_site_type_symbol
_atom_site_label
_atom_site_fract_x
_atom_site_fract_y
_atom_site_fract_z
Si Si1 0.617607 0.926687 0.632715
Si Si2 0.232762 0.075710 0.446758
Si Si3 0.227000 0.922869 0.708594
Si Si4 0.486045 0.079315 0.071823
Si Si5 0.510358 0.417272 0.172467
Si Si6 0.266546 0.923795 0.045008
Si Si7 0.727719 0.574999 0.201899
Si Si8 0.638724 0.425392 0.376957
O O1 0.627997 0.750000 0.636945
O O2 0.681130 0.989598 0.589328
O O3 0.488906 0.977469 0.629939
O O4 0.670587 0.998000 0.676103
O O5 0.222498 0.250000 0.438053
O O6 0.277793 0.041438 0.495665
O O7 0.107948 0.009596 0.439386
O O8 0.255324 0.750000 0.717070
O O9 0.288957 0.979502 0.664625
O O10 0.093366 0.948688 0.704957
O O11 0.273845 0.020283 0.748160
O O12 0.475502 0.250000 0.055835
O O13 0.462301 0.067501 0.123569
O O14 0.393818 0.981734 0.047131
O O15 0.558081 0.250000 0.179782
O O16 0.608620 0.534524 0.180301
O O17 0.266787 0.750000 0.055191
O O18 0.183706 0.003026 0.078506
O O19 0.744884 0.750000 0.200193
O O20 0.648909 0.250000 0.383147
#
# Coordination Sequence:
#
# PCOD8250723 Si02
#       8
#     8   8   8   8   8   8   8   8
#     4  10  21  42  66  84 112 158 209 247 281 342
#     4   9  19  36  59  87 118 156 197 243 294 346
#     4  10  22  41  63  88 115 153 206 245 283 343
#     4  10  18  36  62  86 117 154 202 248 282 338
#     4  10  20  39  67  88 113 156 201 243 282 340
#     4  11  22  35  56  88 125 157 189 239 307 360
#     4  12  26  40  59  92 128 153 186 241 308 359
#     4  10  22  41  64  87 111 152 207 250 283 340
#
# _framework density 19.692440000000001
#
# number of rings (size 3 to 8) (size 9 to 14) (size 15 to 20)
#    0.000    1.750    2.500    1.875    1.750    2.500 
#    0.000    1.875    0.000    0.000    0.000    0.000 
#    0.000    0.000    0.000    0.000    0.000    0.000 
#
# Total GULP energy -793813.311469 kJ/mol
# GULP energy per Si atom -12403.332992 kJ/mol
# Density = 1.964762 g / cm^3
# Si number density = 19.692440 Si / 1000 Ang^3
#
#
#
# Elastic Constant Matrix: (Units=GPa)
#
#
# Indices 1 2 3 4 5 6 
#
# 1 111.2339 32.4322 38.2818 0.0000 0.0000 0.0000
# 2 32.4322 47.2838 28.9381 0.0000 0.0000 0.0000
# 3 38.2818 28.9381 97.9523 0.0000 0.0000 0.0000
# 4 0.0000 0.0000 0.0000 28.0247 0.0000 0.0000
# 5 0.0000 0.0000 0.0000 0.0000 26.1664 0.0000
# 6 0.0000 0.0000 0.0000 0.0000 0.0000 19.2937
#
#
#
# Elastic Compliance Matrix: (Units=1/GPa)
#
#
# Indices 1 2 3 4 5 6 
#
# 1 0.011799 -0.006434 -0.002710 0.000000 0.000000 0.000000
# 2 -0.006434 0.029325 -0.006149 0.000000 0.000000 0.000000
# 3 -0.002710 -0.006149 0.013085 0.000000 0.000000 0.000000
# 4 0.000000 0.000000 0.000000 0.035683 0.000000 0.000000
# 5 0.000000 0.000000 0.000000 0.000000 0.038217 0.000000
# 6 0.000000 0.000000 0.000000 0.000000 0.000000 0.051830
#
#
# Mechanical properties :
#
#
# Convention : Reuss Voigt Hill
#
# Bulk Modulus (GPa) = 42.33329 50.64158 46.48744
# Shear Modulus (GPa) = 22.89373 25.15147 24.02260
#
# Velocity S-wave (km/s) = 3.41334 3.57769 3.49648
# Velocity P-wave (km/s) = 6.08920 6.54512 6.32127
#
# Compressibility (1/GPa) = 0.02362207
#
# Stress axis : x y z
#
# Youngs Moduli (GPa) = 84.75399 34.10023 76.42377
#
# Poissons Ratio (x) = 0.21940 0.20714
# Poissons Ratio (y) = 0.54532 0.46993
# Poissons Ratio (z) = 0.22972 0.20968
#
# Static dielectric constant tensor:
#      x y z
#    x 3.645050 0.000000 0.000000 
#    y 0.000000 3.320540 0.000000 
#    z 0.000000 0.000000 3.682040 
# 
# 
# High freq. dielectric constant tensor:
#      x y z
#    x 1.772550 0.000000 0.000000 
#    y 0.000000 1.740000 0.000000 
#    z 0.000000 0.000000 1.779370 
# 
# From -- ./inp_files/32459.got.cif
#   From: 2010.03.12/outbox.cif.g09.slc.cpg/sg62_17_cif.got.tgz:32459.got - 2010.04.10 19:12:36.
