data_PCOD8250152
_publ_section_title
;
Structure prediction by ZEFSAII (Michael W. Deem and Ramdas Pophale) SiO2 
 PCOD8250152
Probable space group: P N M A
;
_chemical_formula_sum "Si O2"
_cell_formula_units_Z 56
_cell_length_a 22.564335
_cell_length_b 8.735261
_cell_length_c 17.733828
_cell_angle_alpha 90.000000
_cell_angle_beta 90.000000
_cell_angle_gamma 90.000000
_cell_volume 3495.432473
_symmetry_space_group_name_H-M "P N M A"
_symmetry_group_IT_number 62
_symmetry_cell_setting 'orthorhombic'
loop_
_space_group_symop_operation_xyz
x,y,z
1/2-x,-y,1/2+z
1/2+x,1/2-y,1/2-z
-x,1/2+y,-z
-x,-y,-z
1/2+x,y,1/2-z
1/2-x,1/2+y,1/2+z
x,1/2-y,z
loop_
_atom_site_type_symbol
_atom_site_label
_atom_site_fract_x
_atom_site_fract_y
_atom_site_fract_z
Si Si1 0.192984 0.927866 0.765637
Si Si2 0.935495 0.569185 0.501961
Si Si3 0.149213 0.070276 0.366758
Si Si4 0.777366 0.570732 0.921626
Si Si5 0.684646 0.571031 0.279015
Si Si6 0.153423 0.068636 0.626176
Si Si7 0.721266 0.925376 0.573426
O O1 0.208198 0.750000 0.750116
O O2 0.177583 0.950296 0.854187
O O3 0.249204 0.031763 0.746691
O O4 0.142277 0.987627 0.708097
O O5 0.939794 0.750000 0.503872
O O6 0.901685 0.511014 0.576872
O O7 0.899845 0.515700 0.427877
O O8 0.000000 0.500000 0.500000
O O9 0.145659 0.250000 0.352598
O O10 0.212391 0.026895 0.402881
O O11 0.139890 0.988552 0.285774
O O12 0.767985 0.750000 0.912851
O O13 0.825364 0.512110 0.859828
O O14 0.714888 0.485471 0.910588
O O15 0.801415 0.530664 0.005075
O O16 0.675738 0.750000 0.290086
O O17 0.155098 0.250000 0.635933
O O18 0.720054 0.750000 0.546443
#
# Coordination Sequence:
#
# PCOD8250152 Si02
#       7
#     8   8   8   8   8   8   8
#     4   9  17  28  42  61  84 113 145 178 217 262
#     4  10  21  34  48  65  87 117 152 192 229 261
#     4   9  17  32  46  58  84 116 146 183 227 261
#     4  11  19  26  41  64  88 116 149 179 213 261
#     4  10  18  27  41  61  84 112 146 179 216 262
#     4  10  18  31  45  59  84 116 147 183 226 260
#     4   9  16  28  43  60  88 117 144 177 218 261
#
# _framework density 16.020907999999999
#
# number of rings (size 3 to 8) (size 9 to 14) (size 15 to 20)
#    0.000    2.286    1.429    6.000    0.000    4.571 
#    0.000    0.000    0.000    0.000    0.000    0.000 
#    0.000    1.143    0.000    3.714    0.000    5.429 
#
# Total GULP energy -694056.344092 kJ/mol
# GULP energy per Si atom -12393.863287 kJ/mol
# Density = 1.598444 g / cm^3
# Si number density = 16.020908 Si / 1000 Ang^3
#
#
#
# Elastic Constant Matrix: (Units=GPa)
#
#
# Indices 1 2 3 4 5 6 
#
# 1 51.5667 15.6603 45.9568 0.0000 0.0000 0.0000
# 2 15.6603 58.7230 49.2714 0.0000 0.0000 0.0000
# 3 45.9568 49.2714 162.0771 0.0000 0.0000 0.0000
# 4 0.0000 0.0000 0.0000 32.1465 0.0000 0.0000
# 5 0.0000 0.0000 0.0000 0.0000 17.2475 0.0000
# 6 0.0000 0.0000 0.0000 0.0000 0.0000 17.0253
#
#
#
# Elastic Compliance Matrix: (Units=1/GPa)
#
#
# Indices 1 2 3 4 5 6 
#
# 1 0.025994 -0.001004 -0.007065 0.000000 0.000000 0.000000
# 2 -0.001004 0.022899 -0.006677 0.000000 0.000000 0.000000
# 3 -0.007065 -0.006677 0.010203 0.000000 0.000000 0.000000
# 4 0.000000 0.000000 0.000000 0.031108 0.000000 0.000000
# 5 0.000000 0.000000 0.000000 0.000000 0.057979 0.000000
# 6 0.000000 0.000000 0.000000 0.000000 0.000000 0.058736
#
#
# Mechanical properties :
#
#
# Convention : Reuss Voigt Hill
#
# Bulk Modulus (GPa) = 33.77921 54.90487 44.34204
# Shear Modulus (GPa) = 20.30222 24.04908 22.17565
#
# Velocity S-wave (km/s) = 3.56368 3.87861 3.72448
# Velocity P-wave (km/s) = 6.16955 7.37586 6.79951
#
# Compressibility (1/GPa) = 0.02960401
#
# Stress axis : x y z
#
# Youngs Moduli (GPa) = 38.47049 43.67039 98.01076
#
# Poissons Ratio (x) = 0.04384 0.69248
# Poissons Ratio (y) = 0.03862 0.65438
# Poissons Ratio (z) = 0.27181 0.29157
#
# Static dielectric constant tensor:
#      x y z
#    x 2.260190 0.000000 0.000000 
#    y 0.000000 3.029380 0.000000 
#    z 0.000000 0.000000 3.743870 
# 
# 
# High freq. dielectric constant tensor:
#      x y z
#    x 1.533960 0.000000 0.000000 
#    y 0.000000 1.623780 0.000000 
#    z 0.000000 0.000000 1.639820 
# 
# From -- ./inp_files/24881.got.cif
#   From: 2010.03.12/outbox.cif.g09.slc.cpg/sg62_13_cif.got.tgz:24881.got - 2010.04.10 19:12:36.
