data_PCOD8250240
_publ_section_title
;
Structure prediction by ZEFSAII (Michael W. Deem and Ramdas Pophale) SiO2 
 PCOD8250240
Probable space group: P N M A
;
_chemical_formula_sum "Si O2"
_cell_formula_units_Z 48
_cell_length_a 5.233717
_cell_length_b 17.600959
_cell_length_c 38.258256
_cell_angle_alpha 90.000000
_cell_angle_beta 90.000000
_cell_angle_gamma 90.000000
_cell_volume 3524.290796
_symmetry_space_group_name_H-M "P N M A"
_symmetry_group_IT_number 62
_symmetry_cell_setting 'orthorhombic'
loop_
_space_group_symop_operation_xyz
x,y,z
1/2-x,-y,1/2+z
1/2+x,1/2-y,1/2-z
-x,1/2+y,-z
-x,-y,-z
1/2+x,y,1/2-z
1/2-x,1/2+y,1/2+z
x,1/2-y,z
loop_
_atom_site_type_symbol
_atom_site_label
_atom_site_fract_x
_atom_site_fract_y
_atom_site_fract_z
Si Si1 0.701357 0.920708 0.470072
Si Si2 0.032394 0.840255 0.889165
Si Si3 0.467754 0.159816 0.151456
Si Si4 0.060842 0.082623 0.038950
Si Si5 0.039354 0.840626 0.730146
Si Si6 0.289680 0.160808 0.977927
O O1 0.675653 0.934141 0.512256
O O2 0.463351 0.868044 0.457287
O O3 0.964523 0.879276 0.460896
O O4 0.693804 0.002500 0.451006
O O5 0.033468 0.750000 0.893265
O O6 0.779728 0.869454 0.869385
O O7 0.048206 0.876655 0.927196
O O8 0.277277 0.869228 0.867627
O O9 0.465796 0.250000 0.153057
O O10 0.461774 0.127031 0.190748
O O11 0.263034 0.137950 0.019037
O O12 0.290071 0.871538 0.749820
O O13 0.039004 0.750000 0.729814
O O14 0.323220 0.250000 0.974173
#
# Coordination Sequence:
#
# PCOD8250240 Si02
#       6
#     8   8   8   8   8   8
#     4   9  20  30  43  56  76  94 126 161 187 242
#     4  10  19  27  39  54  75  99 120 155 197 238
#     4   9  18  28  35  54  76  90 119 156 188 225
#     4   9  20  30  43  55  76 100 127 150 201 241
#     4   9  15  24  39  51  65  92 119 146 184 222
#     4  10  18  29  43  59  73  91 121 160 196 232
#
# _framework density 13.619762
#
# number of rings (size 3 to 8) (size 9 to 14) (size 15 to 20)
#    1.000    1.667    0.000    2.500    2.333    4.000 
#    0.000    0.000    0.000    0.000    0.000    0.000 
#    0.000    0.000    0.000    0.000    0.000    0.000 
#
# Total GULP energy -594892.386829 kJ/mol
# GULP energy per Si atom -12393.591392 kJ/mol
# Density = 1.358876 g / cm^3
# Si number density = 13.619762 Si / 1000 Ang^3
#
#
#
# Elastic Constant Matrix: (Units=GPa)
#
#
# Indices 1 2 3 4 5 6 
#
# 1 97.9226 5.6643 21.8765 0.0000 0.0000 0.0000
# 2 5.6643 37.4956 1.5644 0.0000 0.0000 0.0000
# 3 21.8765 1.5644 53.1054 0.0000 0.0000 0.0000
# 4 0.0000 0.0000 0.0000 5.7943 0.0000 0.0000
# 5 0.0000 0.0000 0.0000 0.0000 15.4854 0.0000
# 6 0.0000 0.0000 0.0000 0.0000 0.0000 12.8270
#
#
#
# Elastic Compliance Matrix: (Units=1/GPa)
#
#
# Indices 1 2 3 4 5 6 
#
# 1 0.011333 -0.001519 -0.004624 0.000000 0.000000 0.000000
# 2 -0.001519 0.026906 -0.000167 0.000000 0.000000 0.000000
# 3 -0.004624 -0.000167 0.020740 0.000000 0.000000 0.000000
# 4 0.000000 0.000000 0.000000 0.172582 0.000000 0.000000
# 5 0.000000 0.000000 0.000000 0.000000 0.064577 0.000000
# 6 0.000000 0.000000 0.000000 0.000000 0.000000 0.077960
#
#
# Mechanical properties :
#
#
# Convention : Reuss Voigt Hill
#
# Bulk Modulus (GPa) = 21.57036 27.41487 24.49262
# Shear Modulus (GPa) = 12.43250 17.44924 14.94087
#
# Velocity S-wave (km/s) = 3.02458 3.58323 3.31569
# Velocity P-wave (km/s) = 5.29805 6.10670 5.71669
#
# Compressibility (1/GPa) = 0.04635992
#
# Stress axis : x y z
#
# Youngs Moduli (GPa) = 88.23779 37.16610 48.21562
#
# Poissons Ratio (x) = 0.05646 0.22294
# Poissons Ratio (y) = 0.13404 0.00804
# Poissons Ratio (z) = 0.40800 0.00620
#
# Static dielectric constant tensor:
#      x y z
#    x 2.826880 0.000000 0.000000 
#    y 0.000000 2.347440 0.000000 
#    z 0.000000 0.000000 2.507550 
# 
# 
# High freq. dielectric constant tensor:
#      x y z
#    x 1.536490 0.000000 0.000000 
#    y 0.000000 1.471230 0.000000 
#    z 0.000000 0.000000 1.485930 
# 
# From -- ./inp_files/31651.got.cif
#   From: 2010.03.12/outbox.cif.g09.slc.cpg/sg62_16_cif.got.tgz:31651.got - 2010.04.10 19:12:36.
