data_PCOD8250793
_publ_section_title
;
Structure prediction by ZEFSAII (Michael W. Deem and Ramdas Pophale) SiO2 
 PCOD8250793
Probable space group: P N M A
;
_chemical_formula_sum "Si O2"
_cell_formula_units_Z 56
_cell_length_a 28.743253
_cell_length_b 9.083751
_cell_length_c 13.643151
_cell_angle_alpha 90.000000
_cell_angle_beta 90.000000
_cell_angle_gamma 90.000000
_cell_volume 3562.179701
_symmetry_space_group_name_H-M "P N M A"
_symmetry_group_IT_number 62
_symmetry_cell_setting 'orthorhombic'
loop_
_space_group_symop_operation_xyz
x,y,z
1/2-x,-y,1/2+z
1/2+x,1/2-y,1/2-z
-x,1/2+y,-z
-x,-y,-z
1/2+x,y,1/2-z
1/2-x,1/2+y,1/2+z
x,1/2-y,z
loop_
_atom_site_type_symbol
_atom_site_label
_atom_site_fract_x
_atom_site_fract_y
_atom_site_fract_z
Si Si1 0.321373 0.576910 0.277039
Si Si2 0.092924 0.923283 0.877330
Si Si3 0.273969 0.078193 0.106622
Si Si4 0.226706 0.921363 0.382266
Si Si5 0.003934 0.079984 0.897747
Si Si6 0.679590 0.078966 0.286982
Si Si7 0.099139 0.582938 0.105900
O O1 0.331704 0.750000 0.274368
O O2 0.365716 0.490378 0.314908
O O3 0.310035 0.519562 0.168097
O O4 0.278676 0.536984 0.348511
O O5 0.089785 0.750000 0.859440
O O6 0.044965 0.998141 0.837836
O O7 0.100180 0.962248 0.991567
O O8 0.285036 0.250000 0.122974
O O9 0.221402 0.041522 0.138829
O O10 0.279458 0.030498 0.994302
O O11 0.217733 0.750000 0.367417
O O12 0.188431 0.005403 0.318254
O O13 0.017523 0.250000 0.913352
O O14 0.952891 0.067105 0.848319
O O15 0.000000 0.000000 0.000000
O O16 0.674430 0.250000 0.268221
O O17 0.631981 0.022840 0.333033
O O18 0.116906 0.750000 0.116905
#
# Coordination Sequence:
#
# PCOD8250793 Si02
#       7
#     8   8   8   8   8   8   8
#     4  10  19  30  46  68  91 118 151 186 224 266
#     4  10  19  30  45  66  92 122 152 184 222 266
#     4   9  18  32  46  63  89 120 152 186 221 260
#     4   9  18  32  47  63  89 122 153 185 223 264
#     4   9  17  29  44  64  90 119 150 184 222 266
#     4  10  19  29  45  68  91 116 150 187 222 262
#     4   9  18  30  44  64  91 121 150 180 219 264
#
# _framework density 15.720711
#
# number of rings (size 3 to 8) (size 9 to 14) (size 15 to 20)
#    0.000    2.571    0.000    3.429    0.000    6.286 
#    0.000    0.000    0.000    0.000    0.000    1.000 
#    0.000    0.000    0.000    0.000    0.000    0.000 
#
# Total GULP energy -694332.792576 kJ/mol
# GULP energy per Si atom -12398.799867 kJ/mol
# Density = 1.568493 g / cm^3
# Si number density = 15.720711 Si / 1000 Ang^3
#
#
#
# Elastic Constant Matrix: (Units=GPa)
#
#
# Indices 1 2 3 4 5 6 
#
# 1 104.9646 56.8316 48.9239 0.0000 0.0000 0.0000
# 2 56.8316 84.9588 46.7397 0.0000 0.0000 0.0000
# 3 48.9239 46.7397 92.1131 0.0000 0.0000 0.0000
# 4 0.0000 0.0000 0.0000 24.8520 0.0000 0.0000
# 5 0.0000 0.0000 0.0000 0.0000 20.8863 0.0000
# 6 0.0000 0.0000 0.0000 0.0000 0.0000 31.3350
#
#
#
# Elastic Compliance Matrix: (Units=1/GPa)
#
#
# Indices 1 2 3 4 5 6 
#
# 1 0.016064 -0.008395 -0.004272 0.000000 0.000000 0.000000
# 2 -0.008395 0.020716 -0.006053 0.000000 0.000000 0.000000
# 3 -0.004272 -0.006053 0.016196 0.000000 0.000000 0.000000
# 4 0.000000 0.000000 0.000000 0.040238 0.000000 0.000000
# 5 0.000000 0.000000 0.000000 0.000000 0.047878 0.000000
# 6 0.000000 0.000000 0.000000 0.000000 0.000000 0.031913
#
#
# Mechanical properties :
#
#
# Convention : Reuss Voigt Hill
#
# Bulk Modulus (GPa) = 64.36545 65.22520 64.79533
# Shear Modulus (GPa) = 23.18841 24.05073 23.61957
#
# Velocity S-wave (km/s) = 3.84477 3.91561 3.88035
# Velocity P-wave (km/s) = 7.79369 7.87545 7.83468
#
# Compressibility (1/GPa) = 0.01553629
#
# Stress axis : x y z
#
# Youngs Moduli (GPa) = 62.25220 48.27138 61.74185
#
# Poissons Ratio (x) = 0.40525 0.26376
# Poissons Ratio (y) = 0.52263 0.37371
# Poissons Ratio (z) = 0.26594 0.29218
#
# Static dielectric constant tensor:
#      x y z
#    x 3.083430 0.000000 0.000000 
#    y 0.000000 3.127350 0.000000 
#    z 0.000000 0.000000 2.826870 
# 
# 
# High freq. dielectric constant tensor:
#      x y z
#    x 1.600650 0.000000 0.000000 
#    y 0.000000 1.617800 0.000000 
#    z 0.000000 0.000000 1.570990 
# 
# From -- ./inp_files/21170.got.cif
#   From: 2010.03.12/outbox.cif.g09.slc.cpg/sg62_11_cif.got.tgz:21170.got - 2010.04.10 19:12:36.
