data_PCOD8250639
_publ_section_title
;
Structure prediction by ZEFSAII (Michael W. Deem and Ramdas Pophale) SiO2 
 PCOD8250639
Probable space group: P N M A
;
_chemical_formula_sum "Si O2"
_cell_formula_units_Z 52
_cell_length_a 19.574055
_cell_length_b 12.451102
_cell_length_c 11.203155
_cell_angle_alpha 90.000000
_cell_angle_beta 90.000000
_cell_angle_gamma 90.000000
_cell_volume 2730.416752
_symmetry_space_group_name_H-M "P N M A"
_symmetry_group_IT_number 62
_symmetry_cell_setting 'orthorhombic'
loop_
_space_group_symop_operation_xyz
x,y,z
1/2-x,-y,1/2+z
1/2+x,1/2-y,1/2-z
-x,1/2+y,-z
-x,-y,-z
1/2+x,y,1/2-z
1/2-x,1/2+y,1/2+z
x,1/2-y,z
loop_
_atom_site_type_symbol
_atom_site_label
_atom_site_fract_x
_atom_site_fract_y
_atom_site_fract_z
Si Si1 0.421779 0.750000 0.295954
Si Si2 0.152988 0.631438 0.084240
Si Si3 0.415151 0.931597 0.106369
Si Si4 0.995481 0.871954 0.619598
Si Si5 0.531960 0.750000 0.478018
Si Si6 0.862462 0.928869 0.767422
Si Si7 0.210216 0.375011 0.461116
Si Si8 0.112255 0.250000 0.054743
O O1 0.407616 0.857586 0.222275
O O2 0.499657 0.750000 0.343975
O O3 0.371628 0.750000 0.412968
O O4 0.171893 0.750000 0.136962
O O5 0.080948 0.643910 0.011214
O O6 0.143932 0.552038 0.194575
O O7 0.212541 0.593039 0.994641
O O8 0.439798 0.050912 0.143158
O O9 0.470767 0.879304 0.017458
O O10 0.341558 0.942790 0.043455
O O11 0.017726 0.750000 0.647341
O O12 0.934241 0.907808 0.704818
O O13 0.471214 0.750000 0.575160
O O14 0.800573 0.902899 0.677687
O O15 0.855795 0.855272 0.884886
O O16 0.193720 0.250000 0.482184
#
# Coordination Sequence:
#
# PCOD8250639 Si02
#       8
#     4   8   8   8   4   8   8   4
#     4  10  18  34  52  92 118 143 194 257 296 354
#     4   9  21  40  59  84 119 160 205 241 294 366
#     4  10  18  33  58  88 115 152 202 241 299 352
#     4  10  19  33  58  85 119 158 193 250 300 361
#     4   8  20  36  50  88 112 151 186 240 303 338
#     4  11  19  40  61  86 120 157 204 240 314 362
#     4  10  19  39  65  84 116 166 203 245 297 367
#     4  10  22  34  60  88 116 154 196 247 305 360
#
# _framework density 19.044709999999998
#
# number of rings (size 3 to 8) (size 9 to 14) (size 15 to 20)
#    0.923    1.231    3.077    1.846    0.000    0.615 
#    2.769    0.000    1.692    0.000    0.000    0.000 
#    0.000    0.000    0.000    0.000    0.000    0.000 
#
# Total GULP energy -644496.612371 kJ/mol
# GULP energy per Si atom -12394.165623 kJ/mol
# Density = 1.900136 g / cm^3
# Si number density = 19.044710 Si / 1000 Ang^3
#
#
#
# Elastic Constant Matrix: (Units=GPa)
#
#
# Indices 1 2 3 4 5 6 
#
# 1 61.3544 31.2761 30.2006 0.0000 0.0000 0.0000
# 2 31.2761 126.0424 52.9262 0.0000 0.0000 0.0000
# 3 30.2006 52.9262 111.8723 0.0000 0.0000 0.0000
# 4 0.0000 0.0000 0.0000 27.7155 0.0000 0.0000
# 5 0.0000 0.0000 0.0000 0.0000 17.8396 0.0000
# 6 0.0000 0.0000 0.0000 0.0000 0.0000 21.6661
#
#
#
# Elastic Compliance Matrix: (Units=1/GPa)
#
#
# Indices 1 2 3 4 5 6 
#
# 1 0.019863 -0.003341 -0.003782 0.000000 0.000000 0.000000
# 2 -0.003341 0.010463 -0.004048 0.000000 0.000000 0.000000
# 3 -0.003782 -0.004048 0.011875 0.000000 0.000000 0.000000
# 4 0.000000 0.000000 0.000000 0.036081 0.000000 0.000000
# 5 0.000000 0.000000 0.000000 0.000000 0.056055 0.000000
# 6 0.000000 0.000000 0.000000 0.000000 0.000000 0.046155
#
#
# Mechanical properties :
#
#
# Convention : Reuss Voigt Hill
#
# Bulk Modulus (GPa) = 50.35339 58.67498 54.51418
# Shear Modulus (GPa) = 23.87177 25.76865 24.82021
#
# Velocity S-wave (km/s) = 3.54426 3.68239 3.61399
# Velocity P-wave (km/s) = 6.57617 6.99685 6.78977
#
# Compressibility (1/GPa) = 0.01985964
#
# Stress axis : x y z
#
# Youngs Moduli (GPa) = 50.34419 95.57856 84.21278
#
# Poissons Ratio (x) = 0.31932 0.31846
# Poissons Ratio (y) = 0.16820 0.34089
# Poissons Ratio (z) = 0.19038 0.38689
#
# Static dielectric constant tensor:
#      x y z
#    x 3.330180 0.000000 0.000000 
#    y 0.000000 3.414340 0.000000 
#    z 0.000000 0.000000 3.356050 
# 
# 
# High freq. dielectric constant tensor:
#      x y z
#    x 1.720770 0.000000 0.000000 
#    y 0.000000 1.734000 0.000000 
#    z 0.000000 0.000000 1.729710 
# 
# From -- ./inp_files/14931.got.cif
#   From: 2010.03.12/outbox.cif.g09.slc.cpg/sg62_8_cif.got.tgz:14931.got - 2010.04.10 19:12:36.
