data_PCOD8250605
_publ_section_title
;
Structure prediction by ZEFSAII (Michael W. Deem and Ramdas Pophale) SiO2 
 PCOD8250605
Probable space group: P N M A
;
_chemical_formula_sum "Si O2"
_cell_formula_units_Z 56
_cell_length_a 19.111849
_cell_length_b 8.856693
_cell_length_c 19.242264
_cell_angle_alpha 90.000000
_cell_angle_beta 90.000000
_cell_angle_gamma 90.000000
_cell_volume 3257.095295
_symmetry_space_group_name_H-M "P N M A"
_symmetry_group_IT_number 62
_symmetry_cell_setting 'orthorhombic'
loop_
_space_group_symop_operation_xyz
x,y,z
1/2-x,-y,1/2+z
1/2+x,1/2-y,1/2-z
-x,1/2+y,-z
-x,-y,-z
1/2+x,y,1/2-z
1/2-x,1/2+y,1/2+z
x,1/2-y,z
loop_
_atom_site_type_symbol
_atom_site_label
_atom_site_fract_x
_atom_site_fract_y
_atom_site_fract_z
Si Si1 0.943775 0.927545 0.449974
Si Si2 0.365611 0.425558 0.777060
Si Si3 0.351446 0.428164 0.271844
Si Si4 0.786997 0.925649 0.482560
Si Si5 0.246365 0.071222 0.878423
Si Si6 0.979419 0.929527 0.294532
Si Si7 0.246453 0.924374 0.169328
O O1 0.951969 0.750000 0.455270
O O2 0.866728 0.980018 0.472905
O O3 0.957024 0.980902 0.371480
O O4 0.000000 0.000000 0.500000
O O5 0.374857 0.250000 0.790961
O O6 0.315526 0.489767 0.838078
O O7 0.442818 0.496668 0.780242
O O8 0.329795 0.458031 0.702252
O O9 0.353681 0.250000 0.278926
O O10 0.321509 0.497726 0.343043
O O11 0.429318 0.491922 0.261406
O O12 0.304715 0.474009 0.205758
O O13 0.783895 0.750000 0.502420
O O14 0.743787 0.959414 0.412283
O O15 0.750050 0.022747 0.541825
O O16 0.239575 0.250000 0.872069
O O17 0.974885 0.750000 0.285063
O O18 0.268376 0.750000 0.182449
#
# Coordination Sequence:
#
# PCOD8250605 Si02
#       7
#     8   8   8   8   8   8   8
#     4  10  20  31  46  71 107 144 170 206 255 310
#     4   8  16  30  53  76  96 130 173 211 250 304
#     4  11  21  33  51  76 102 133 174 215 256 304
#     4  10  19  32  50  73 104 137 169 210 260 305
#     4  10  20  35  54  75 101 134 173 215 259 310
#     4  10  18  33  52  73 102 137 172 207 254 308
#     4   9  17  34  54  74 102 137 174 212 257 307
#
# _framework density 17.193234
#
# number of rings (size 3 to 8) (size 9 to 14) (size 15 to 20)
#    0.000    2.286    1.429    3.429    0.000    2.857 
#    0.000    3.571    0.000    0.857    0.000    0.000 
#    0.000    0.000    0.000    0.000    0.000    0.000 
#
# Total GULP energy -694404.471379 kJ/mol
# GULP energy per Si atom -12400.079846 kJ/mol
# Density = 1.715410 g / cm^3
# Si number density = 17.193234 Si / 1000 Ang^3
#
#
#
# Elastic Constant Matrix: (Units=GPa)
#
#
# Indices 1 2 3 4 5 6 
#
# 1 69.7195 22.9369 45.4868 0.0000 0.0000 0.0000
# 2 22.9369 54.4560 32.5739 0.0000 0.0000 0.0000
# 3 45.4868 32.5739 115.9791 0.0000 0.0000 0.0000
# 4 0.0000 0.0000 0.0000 25.6349 0.0000 0.0000
# 5 0.0000 0.0000 0.0000 0.0000 28.9158 0.0000
# 6 0.0000 0.0000 0.0000 0.0000 0.0000 20.5335
#
#
#
# Elastic Compliance Matrix: (Units=1/GPa)
#
#
# Indices 1 2 3 4 5 6 
#
# 1 0.020161 -0.004522 -0.006637 0.000000 0.000000 0.000000
# 2 -0.004522 0.023086 -0.004710 0.000000 0.000000 0.000000
# 3 -0.006637 -0.004710 0.012548 0.000000 0.000000 0.000000
# 4 0.000000 0.000000 0.000000 0.039009 0.000000 0.000000
# 5 0.000000 0.000000 0.000000 0.000000 0.034583 0.000000
# 6 0.000000 0.000000 0.000000 0.000000 0.000000 0.048701
#
#
# Mechanical properties :
#
#
# Convention : Reuss Voigt Hill
#
# Bulk Modulus (GPa) = 41.56901 49.12775 45.34838
# Shear Modulus (GPa) = 22.95204 24.29399 23.62301
#
# Velocity S-wave (km/s) = 3.65766 3.76306 3.71073
# Velocity P-wave (km/s) = 6.48598 6.89324 6.69271
#
# Compressibility (1/GPa) = 0.02405638
#
# Stress axis : x y z
#
# Youngs Moduli (GPa) = 49.60067 43.31705 79.69214
#
# Poissons Ratio (x) = 0.19587 0.52893
# Poissons Ratio (y) = 0.22428 0.37538
# Poissons Ratio (z) = 0.32921 0.20404
#
# Static dielectric constant tensor:
#      x y z
#    x 3.334170 0.000000 0.000000 
#    y 0.000000 3.000960 0.000000 
#    z 0.000000 0.000000 3.200150 
# 
# 
# High freq. dielectric constant tensor:
#      x y z
#    x 1.657270 0.000000 0.000000 
#    y 0.000000 1.647740 0.000000 
#    z 0.000000 0.000000 1.658050 
# 
# From -- ./inp_files/27587.got.cif
#   From: 2010.03.12/outbox.cif.g09.slc.cpg/sg62_14_cif.got.tgz:27587.got - 2010.04.10 19:12:36.
