data_PCOD8250667
_publ_section_title
;
Structure prediction by ZEFSAII (Michael W. Deem and Ramdas Pophale) SiO2 
 PCOD8250667
Probable space group: P N M A
;
_chemical_formula_sum "Si O2"
_cell_formula_units_Z 36
_cell_length_a 12.141741
_cell_length_b 14.088766
_cell_length_c 11.455799
_cell_angle_alpha 90.000000
_cell_angle_beta 90.000000
_cell_angle_gamma 90.000000
_cell_volume 1959.653581
_symmetry_space_group_name_H-M "P N M A"
_symmetry_group_IT_number 62
_symmetry_cell_setting 'orthorhombic'
loop_
_space_group_symop_operation_xyz
x,y,z
1/2-x,-y,1/2+z
1/2+x,1/2-y,1/2-z
-x,1/2+y,-z
-x,-y,-z
1/2+x,y,1/2-z
1/2-x,1/2+y,1/2+z
x,1/2-y,z
loop_
_atom_site_type_symbol
_atom_site_label
_atom_site_fract_x
_atom_site_fract_y
_atom_site_fract_z
Si Si1 0.034743 0.750000 0.252223
Si Si2 0.415059 0.951496 0.582940
Si Si3 0.988034 0.039268 0.679181
Si Si4 0.557364 0.250000 0.507308
Si Si5 0.200524 0.750000 0.443914
Si Si6 0.165240 0.551716 0.533125
O O1 0.036501 0.750000 0.109810
O O2 0.981791 0.650969 0.299806
O O3 0.155993 0.750000 0.310585
O O4 0.443872 0.839877 0.578261
O O5 0.292753 0.978937 0.539217
O O6 0.500000 0.000000 0.500000
O O7 0.432934 0.990962 0.710517
O O8 0.896662 0.014256 0.581811
O O9 0.102843 0.987950 0.647251
O O10 0.669930 0.250000 0.581427
O O11 0.159407 0.664960 0.525580
#
# Coordination Sequence:
#
# PCOD8250667 Si02
#       6
#     4   8   8   4   4   8
#     4  10  18  34  56  82 110 143 192 231 277 328
#     4  11  22  36  59  81 115 147 188 237 283 335
#     4  10  21  37  60  83 114 151 187 235 284 340
#     4  10  20  37  51  85 110 148 194 226 285 332
#     4   8  18  35  57  75 114 151 182 235 276 334
#     4   9  21  38  58  85 111 150 191 228 288 338
#
# _framework density 18.370593
#
# number of rings (size 3 to 8) (size 9 to 14) (size 15 to 20)
#    0.000    2.222    2.222    0.000    3.111    2.667 
#    0.000    1.111    0.000    0.000    0.000    0.000 
#    0.000    0.000    0.000    0.000    0.000    0.000 
#
# Total GULP energy -446024.287556 kJ/mol
# GULP energy per Si atom -12389.563543 kJ/mol
# Density = 1.832878 g / cm^3
# Si number density = 18.370593 Si / 1000 Ang^3
#
#
#
# Elastic Constant Matrix: (Units=GPa)
#
#
# Indices 1 2 3 4 5 6 
#
# 1 117.4529 59.9845 47.8813 0.0000 0.0000 0.0000
# 2 59.9845 110.9196 44.5273 0.0000 0.0000 0.0000
# 3 47.8813 44.5273 89.7146 0.0000 0.0000 0.0000
# 4 0.0000 0.0000 0.0000 29.3384 0.0000 0.0000
# 5 0.0000 0.0000 0.0000 0.0000 28.4598 0.0000
# 6 0.0000 0.0000 0.0000 0.0000 0.0000 23.8802
#
#
#
# Elastic Compliance Matrix: (Units=1/GPa)
#
#
# Indices 1 2 3 4 5 6 
#
# 1 0.012965 -0.005287 -0.004296 0.000000 0.000000 0.000000
# 2 -0.005287 0.013415 -0.003836 0.000000 0.000000 0.000000
# 3 -0.004296 -0.003836 0.015343 0.000000 0.000000 0.000000
# 4 0.000000 0.000000 0.000000 0.034085 0.000000 0.000000
# 5 0.000000 0.000000 0.000000 0.000000 0.035137 0.000000
# 6 0.000000 0.000000 0.000000 0.000000 0.000000 0.041876
#
#
# Mechanical properties :
#
#
# Convention : Reuss Voigt Hill
#
# Bulk Modulus (GPa) = 67.18066 69.20815 68.19441
# Shear Modulus (GPa) = 27.08247 27.38194 27.23220
#
# Velocity S-wave (km/s) = 3.84374 3.86493 3.85435
# Velocity P-wave (km/s) = 7.50654 7.59421 7.55050
#
# Compressibility (1/GPa) = 0.01488524
#
# Stress axis : x y z
#
# Youngs Moduli (GPa) = 77.12805 74.54431 65.17601
#
# Poissons Ratio (x) = 0.39413 0.27997
# Poissons Ratio (y) = 0.40779 0.25003
# Poissons Ratio (z) = 0.33131 0.28597
#
# Static dielectric constant tensor:
#      x y z
#    x 3.403210 0.000000 0.000000 
#    y 0.000000 3.937820 0.000000 
#    z 0.000000 0.000000 2.877540 
# 
# 
# High freq. dielectric constant tensor:
#      x y z
#    x 1.707800 0.000000 0.000000 
#    y 0.000000 1.723250 0.000000 
#    z 0.000000 0.000000 1.703710 
# 
# From -- ./inp_files/11892.got.cif
#   From: 2010.03.12/outbox.cif.g09.slc.cpg/sg62_6_cif.got.tgz:11892.got - 2010.04.10 19:12:36.
