data_PCOD8250242
_publ_section_title
;
Structure prediction by ZEFSAII (Michael W. Deem and Ramdas Pophale) SiO2 
 PCOD8250242
Probable space group: P N M A
;
_chemical_formula_sum "Si O2"
_cell_formula_units_Z 64
_cell_length_a 18.144509
_cell_length_b 9.152359
_cell_length_c 26.419515
_cell_angle_alpha 90.000000
_cell_angle_beta 90.000000
_cell_angle_gamma 90.000000
_cell_volume 4387.358350
_symmetry_space_group_name_H-M "P N M A"
_symmetry_group_IT_number 62
_symmetry_cell_setting 'orthorhombic'
loop_
_space_group_symop_operation_xyz
x,y,z
1/2-x,-y,1/2+z
1/2+x,1/2-y,1/2-z
-x,1/2+y,-z
-x,-y,-z
1/2+x,y,1/2-z
1/2-x,1/2+y,1/2+z
x,1/2-y,z
loop_
_atom_site_type_symbol
_atom_site_label
_atom_site_fract_x
_atom_site_fract_y
_atom_site_fract_z
Si Si1 0.674154 0.581656 0.647041
Si Si2 0.847287 0.918315 0.856162
Si Si3 0.288747 0.417497 0.797404
Si Si4 0.578086 0.920374 0.442132
Si Si5 0.716985 0.585828 0.790082
Si Si6 0.574793 0.579116 0.263968
Si Si7 0.572485 0.914973 0.743484
Si Si8 0.572442 0.579792 0.557809
O O1 0.693044 0.750000 0.643261
O O2 0.753329 0.503641 0.655248
O O3 0.617982 0.547784 0.692688
O O4 0.637771 0.527017 0.594708
O O5 0.871112 0.750000 0.862133
O O6 0.759563 0.931884 0.843501
O O7 0.859436 0.002435 0.908633
O O8 0.896828 0.987823 0.811913
O O9 0.274078 0.250000 0.808794
O O10 0.247372 0.461812 0.746353
O O11 0.375138 0.449355 0.786238
O O12 0.576111 0.750000 0.429547
O O13 0.597893 0.950793 0.500540
O O14 0.499252 0.987359 0.427955
O O15 0.733964 0.750000 0.768219
O O16 0.628067 0.567925 0.791943
O O17 0.575296 0.750000 0.278422
O O18 0.493059 0.528811 0.249571
O O19 0.540967 0.750000 0.740730
O O20 0.553359 0.750000 0.566322
#
# Coordination Sequence:
#
# PCOD8250242 Si02
#       8
#     8   8   8   8   8   8   8   8
#     4   9  17  29  43  57  76 105 138 166 194 231
#     4  10  18  29  44  58  77 108 140 167 198 235
#     4   9  17  27  39  57  80 103 129 163 198 233
#     4  10  19  29  42  61  83 106 135 170 203 234
#     4   8  16  29  42  56  75 102 135 166 195 232
#     4  10  19  28  39  59  84 107 133 164 198 237
#     4   9  16  26  41  60  80 103 133 166 197 233
#     4   9  18  31  44  59  81 108 137 169 201 233
#
# _framework density 14.587365999999999
#
# number of rings (size 3 to 8) (size 9 to 14) (size 15 to 20)
#    0.000    2.750    0.000    3.000    0.000    6.000 
#    0.000    0.000    0.000    0.000    0.000    0.000 
#    0.000    1.000    0.000    2.250    0.000    4.000 
#
# Total GULP energy -793152.669618 kJ/mol
# GULP energy per Si atom -12393.010463 kJ/mol
# Density = 1.455416 g / cm^3
# Si number density = 14.587366 Si / 1000 Ang^3
#
#
#
# Elastic Constant Matrix: (Units=GPa)
#
#
# Indices 1 2 3 4 5 6 
#
# 1 76.4255 40.5860 42.7784 0.0000 0.0000 0.0000
# 2 40.5860 67.8389 35.7257 0.0000 0.0000 0.0000
# 3 42.7784 35.7257 73.0405 0.0000 0.0000 0.0000
# 4 0.0000 0.0000 0.0000 21.0454 0.0000 0.0000
# 5 0.0000 0.0000 0.0000 0.0000 26.4434 0.0000
# 6 0.0000 0.0000 0.0000 0.0000 0.0000 22.8858
#
#
#
# Elastic Compliance Matrix: (Units=1/GPa)
#
#
# Indices 1 2 3 4 5 6 
#
# 1 0.022886 -0.008935 -0.009034 0.000000 0.000000 0.000000
# 2 -0.008935 0.023343 -0.006185 0.000000 0.000000 0.000000
# 3 -0.009034 -0.006185 0.022007 0.000000 0.000000 0.000000
# 4 0.000000 0.000000 0.000000 0.047516 0.000000 0.000000
# 5 0.000000 0.000000 0.000000 0.000000 0.037817 0.000000
# 6 0.000000 0.000000 0.000000 0.000000 0.000000 0.043695
#
#
# Mechanical properties :
#
#
# Convention : Reuss Voigt Hill
#
# Bulk Modulus (GPa) = 50.17600 50.60944 50.39272
# Shear Modulus (GPa) = 19.82445 20.62259 20.22352
#
# Velocity S-wave (km/s) = 3.69048 3.76404 3.72744
# Velocity P-wave (km/s) = 7.25473 7.32530 7.29010
#
# Compressibility (1/GPa) = 0.01992985
#
# Stress axis : x y z
#
# Youngs Moduli (GPa) = 43.69506 42.83905 45.43995
#
# Poissons Ratio (x) = 0.38275 0.41049
# Poissons Ratio (y) = 0.39040 0.28104
# Poissons Ratio (z) = 0.39473 0.26495
#
# Static dielectric constant tensor:
#      x y z
#    x 2.927240 0.000000 0.000000 
#    y 0.000000 2.928990 0.000000 
#    z 0.000000 0.000000 2.750010 
# 
# 
# High freq. dielectric constant tensor:
#      x y z
#    x 1.543430 0.000000 0.000000 
#    y 0.000000 1.570710 0.000000 
#    z 0.000000 0.000000 1.523600 
# 
# From -- ./inp_files/31346.got.cif
#   From: 2010.03.12/outbox.cif.g09.slc.cpg/sg62_16_cif.got.tgz:31346.got - 2010.04.10 19:12:36.
