data_PCOD8250659
_publ_section_title
;
Structure prediction by ZEFSAII (Michael W. Deem and Ramdas Pophale) SiO2 
 PCOD8250659
Probable space group: P N M A
;
_chemical_formula_sum "Si O2"
_cell_formula_units_Z 64
_cell_length_a 17.178341
_cell_length_b 32.544622
_cell_length_c 5.960718
_cell_angle_alpha 90.000000
_cell_angle_beta 90.000000
_cell_angle_gamma 90.000000
_cell_volume 3332.414589
_symmetry_space_group_name_H-M "P N M A"
_symmetry_group_IT_number 62
_symmetry_cell_setting 'orthorhombic'
loop_
_space_group_symop_operation_xyz
x,y,z
1/2-x,-y,1/2+z
1/2+x,1/2-y,1/2-z
-x,1/2+y,-z
-x,-y,-z
1/2+x,y,1/2-z
1/2-x,1/2+y,1/2+z
x,1/2-y,z
loop_
_atom_site_type_symbol
_atom_site_label
_atom_site_fract_x
_atom_site_fract_y
_atom_site_fract_z
Si Si1 0.792309 0.999500 0.177884
Si Si2 0.910090 0.854630 0.576622
Si Si3 0.855747 0.296539 0.427518
Si Si4 0.821816 0.911979 0.272491
Si Si5 0.727008 0.356951 0.390054
Si Si6 0.675193 0.912871 0.577308
Si Si7 0.547769 0.851340 0.612909
Si Si8 0.997298 0.703339 0.270273
O O1 0.844191 0.040627 0.156144
O O2 0.752685 0.002615 0.431827
O O3 0.843678 0.957889 0.188486
O O4 0.886577 0.896199 0.445487
O O5 0.835117 0.839311 0.714016
O O6 0.932024 0.814024 0.436943
O O7 0.986609 0.869232 0.709355
O O8 0.836488 0.250000 0.360154
O O9 0.775626 0.319204 0.496331
O O10 0.891271 0.318622 0.210732
O O11 0.915723 0.298422 0.631832
O O12 0.733999 0.912615 0.368579
O O13 0.824762 0.879467 0.073832
O O14 0.786667 0.389731 0.287177
O O15 0.595251 0.889790 0.507802
O O16 0.494782 0.826961 0.438607
O O17 0.974909 0.750000 0.205437
#
# Coordination Sequence:
#
# PCOD8250659 Si02
#       8
#     8   8   8   8   8   8   8   8
#     4  10  19  35  59  91 122 154 200 254 302 362
#     4  10  22  35  52  79 111 153 188 231 285 357
#     4   9  19  33  54  82 104 134 182 237 287 340
#     4  10  19  34  56  80 115 148 191 237 298 346
#     4  10  18  34  55  77 113 144 182 234 292 344
#     4   9  19  33  56  88 105 148 192 244 289 347
#     4  10  19  36  57  77 112 145 192 229 290 344
#     4  10  20  36  56  78 107 148 191 233 285 349
#
# _framework density 19.205293000000001
#
# number of rings (size 3 to 8) (size 9 to 14) (size 15 to 20)
#    0.000    2.250    1.250    1.875    0.000    1.000 
#    0.000    2.500    0.000    3.000    0.000    0.000 
#    0.000    0.000    0.000    0.000    0.000    0.000 
#
# Total GULP energy -792923.696064 kJ/mol
# GULP energy per Si atom -12389.432751 kJ/mol
# Density = 1.916158 g / cm^3
# Si number density = 19.205293 Si / 1000 Ang^3
#
#
#
# Elastic Constant Matrix: (Units=GPa)
#
#
# Indices 1 2 3 4 5 6 
#
# 1 69.6599 66.3219 21.2897 0.0000 0.0000 0.0000
# 2 66.3219 160.0448 44.8531 0.0000 0.0000 0.0000
# 3 21.2897 44.8531 85.9598 0.0000 0.0000 0.0000
# 4 0.0000 0.0000 0.0000 25.8300 0.0000 0.0000
# 5 0.0000 0.0000 0.0000 0.0000 13.4318 0.0000
# 6 0.0000 0.0000 0.0000 0.0000 0.0000 23.7044
#
#
#
# Elastic Compliance Matrix: (Units=1/GPa)
#
#
# Indices 1 2 3 4 5 6 
#
# 1 0.023766 -0.009603 -0.000875 0.000000 0.000000 0.000000
# 2 -0.009603 0.011199 -0.003465 0.000000 0.000000 0.000000
# 3 -0.000875 -0.003465 0.013658 0.000000 0.000000 0.000000
# 4 0.000000 0.000000 0.000000 0.038715 0.000000 0.000000
# 5 0.000000 0.000000 0.000000 0.000000 0.074450 0.000000
# 6 0.000000 0.000000 0.000000 0.000000 0.000000 0.042186
#
#
# Mechanical properties :
#
#
# Convention : Reuss Voigt Hill
#
# Bulk Modulus (GPa) = 48.22533 64.51043 56.36788
# Shear Modulus (GPa) = 20.94036 24.80657 22.87346
#
# Velocity S-wave (km/s) = 3.30562 3.59786 3.45483
# Velocity P-wave (km/s) = 6.30352 7.13598 6.73263
#
# Compressibility (1/GPa) = 0.02073599
#
# Stress axis : x y z
#
# Youngs Moduli (GPa) = 42.07688 89.29462 73.21639
#
# Poissons Ratio (x) = 0.85752 0.06408
# Poissons Ratio (y) = 0.40407 0.25370
# Poissons Ratio (z) = 0.03683 0.30941
#
# Static dielectric constant tensor:
#      x y z
#    x 3.291820 0.000000 0.000000 
#    y 0.000000 3.713270 0.000000 
#    z 0.000000 0.000000 3.690470 
# 
# 
# High freq. dielectric constant tensor:
#      x y z
#    x 1.718830 0.000000 0.000000 
#    y 0.000000 1.752940 0.000000 
#    z 0.000000 0.000000 1.750500 
# 
# From -- ./inp_files/1901.got.cif
#   From: 2010.03.12/outbox.cif.g09.slc.cpg/sg62_1_cif.got.tgz:1901.got - 2010.04.10 19:12:36.
