data_PCOD8250052
_publ_section_title
;
Structure prediction by ZEFSAII (Michael W. Deem and Ramdas Pophale) SiO2 
 PCOD8250052
Probable space group: P N M A
;
_chemical_formula_sum "Si O2"
_cell_formula_units_Z 64
_cell_length_a 16.723754
_cell_length_b 13.227905
_cell_length_c 16.924315
_cell_angle_alpha 90.000000
_cell_angle_beta 90.000000
_cell_angle_gamma 90.000000
_cell_volume 3744.000843
_symmetry_space_group_name_H-M "P N M A"
_symmetry_group_IT_number 62
_symmetry_cell_setting 'orthorhombic'
loop_
_space_group_symop_operation_xyz
x,y,z
1/2-x,-y,1/2+z
1/2+x,1/2-y,1/2-z
-x,1/2+y,-z
-x,-y,-z
1/2+x,y,1/2-z
1/2-x,1/2+y,1/2+z
x,1/2-y,z
loop_
_atom_site_type_symbol
_atom_site_label
_atom_site_fract_x
_atom_site_fract_y
_atom_site_fract_z
Si Si1 0.892830 0.861855 0.415417
Si Si2 0.709353 0.554210 0.145176
Si Si3 0.034204 0.870984 0.315187
Si Si4 0.159027 0.365332 0.958828
Si Si5 0.252424 0.363876 0.694822
Si Si6 0.855516 0.051598 0.939711
Si Si7 0.276451 0.867948 0.951696
Si Si8 0.494827 0.632086 0.361152
O O1 0.915750 0.750000 0.444263
O O2 0.834654 0.855247 0.340832
O O3 0.846035 0.911980 0.489219
O O4 0.972295 0.916129 0.381347
O O5 0.619318 0.589569 0.157317
O O6 0.751596 0.614458 0.073639
O O7 0.759156 0.579259 0.223048
O O8 0.715143 0.433862 0.127712
O O9 0.030393 0.750000 0.316222
O O10 0.011199 0.911292 0.227352
O O11 0.150713 0.250000 0.986593
O O12 0.095169 0.392154 0.889774
O O13 0.145081 0.433971 0.036021
O O14 0.288795 0.250000 0.705584
O O15 0.311857 0.431647 0.643387
O O16 0.946911 0.084408 0.927373
O O17 0.810314 0.117456 0.007265
O O18 0.287378 0.750000 0.931564
O O19 0.512028 0.750000 0.359970
#
# Coordination Sequence:
#
# PCOD8250052 Si02
#       8
#     8   8   8   8   8   8   8   8
#     4   8  16  30  48  69  95 125 154 193 238 282
#     4  11  20  30  49  73  96 126 157 200 245 282
#     4  10  18  28  47  75  99 120 156 197 239 281
#     4  10  21  33  46  71 106 131 153 193 248 291
#     4  10  17  30  51  73  97 122 157 203 245 280
#     4  10  18  31  52  73  94 126 165 195 233 283
#     4   9  19  34  49  68  94 128 166 197 232 284
#     4  10  18  30  49  73 100 127 157 199 239 283
#
# _framework density 17.094013
#
# number of rings (size 3 to 8) (size 9 to 14) (size 15 to 20)
#    0.000    2.250    1.250    4.125    0.000    2.500 
#    0.000    0.625    0.000    0.000    0.000    2.625 
#    0.000    0.000    0.000    0.000    0.000    0.000 
#
# Total GULP energy -793151.736226 kJ/mol
# GULP energy per Si atom -12392.995879 kJ/mol
# Density = 1.705511 g / cm^3
# Si number density = 17.094013 Si / 1000 Ang^3
#
#
#
# Elastic Constant Matrix: (Units=GPa)
#
#
# Indices 1 2 3 4 5 6 
#
# 1 74.0401 30.5985 19.2849 0.0000 0.0000 0.0000
# 2 30.5985 81.3439 49.9310 0.0000 0.0000 0.0000
# 3 19.2849 49.9310 74.0217 0.0000 0.0000 0.0000
# 4 0.0000 0.0000 0.0000 28.7219 0.0000 0.0000
# 5 0.0000 0.0000 0.0000 0.0000 19.5800 0.0000
# 6 0.0000 0.0000 0.0000 0.0000 0.0000 16.1008
#
#
#
# Elastic Compliance Matrix: (Units=1/GPa)
#
#
# Indices 1 2 3 4 5 6 
#
# 1 0.015994 -0.005902 -0.000185 0.000000 0.000000 0.000000
# 2 -0.005902 0.023159 -0.014084 0.000000 0.000000 0.000000
# 3 -0.000185 -0.014084 0.023058 0.000000 0.000000 0.000000
# 4 0.000000 0.000000 0.000000 0.034817 0.000000 0.000000
# 5 0.000000 0.000000 0.000000 0.000000 0.051073 0.000000
# 6 0.000000 0.000000 0.000000 0.000000 0.000000 0.062109
#
#
# Mechanical properties :
#
#
# Convention : Reuss Voigt Hill
#
# Bulk Modulus (GPa) = 45.73063 47.67050 46.70057
# Shear Modulus (GPa) = 19.39176 21.51995 20.45585
#
# Velocity S-wave (km/s) = 3.37177 3.55197 3.46304
# Velocity P-wave (km/s) = 6.47834 6.69102 6.58554
#
# Compressibility (1/GPa) = 0.02186718
#
# Stress axis : x y z
#
# Youngs Moduli (GPa) = 62.52429 43.17998 43.36865
#
# Poissons Ratio (x) = 0.25487 0.00804
# Poissons Ratio (y) = 0.36905 0.61080
# Poissons Ratio (z) = 0.01159 0.60814
#
# Static dielectric constant tensor:
#      x y z
#    x 3.354290 0.000000 0.000000 
#    y 0.000000 2.992610 0.000000 
#    z 0.000000 0.000000 3.199290 
# 
# 
# High freq. dielectric constant tensor:
#      x y z
#    x 1.672470 0.000000 0.000000 
#    y 0.000000 1.625990 0.000000 
#    z 0.000000 0.000000 1.647350 
# 
# From -- ./inp_files/19951.got.cif
#   From: 2010.03.12/outbox.cif.g09.slc.cpg/sg62_10_cif.got.tgz:19951.got - 2010.04.10 19:12:36.
