data_PCOD8250622
_publ_section_title
;
Structure prediction by ZEFSAII (Michael W. Deem and Ramdas Pophale) SiO2 
 PCOD8250622
Probable space group: P N M A
;
_chemical_formula_sum "Si O2"
_cell_formula_units_Z 64
_cell_length_a 29.204546
_cell_length_b 8.880031
_cell_length_c 11.973428
_cell_angle_alpha 90.000000
_cell_angle_beta 90.000000
_cell_angle_gamma 90.000000
_cell_volume 3105.156176
_symmetry_space_group_name_H-M "P N M A"
_symmetry_group_IT_number 62
_symmetry_cell_setting 'orthorhombic'
loop_
_space_group_symop_operation_xyz
x,y,z
1/2-x,-y,1/2+z
1/2+x,1/2-y,1/2-z
-x,1/2+y,-z
-x,-y,-z
1/2+x,y,1/2-z
1/2-x,1/2+y,1/2+z
x,1/2-y,z
loop_
_atom_site_type_symbol
_atom_site_label
_atom_site_fract_x
_atom_site_fract_y
_atom_site_fract_z
Si Si1 0.435457 0.920056 0.034244
Si Si2 0.319980 0.921757 0.508454
Si Si3 0.664287 0.424179 0.240009
Si Si4 0.717972 0.575820 0.040870
Si Si5 0.115752 0.926952 0.845447
Si Si6 0.160041 0.078832 0.634785
Si Si7 0.939464 0.571166 0.710716
Si Si8 0.472158 0.570431 0.264816
O O1 0.452792 0.750000 0.032423
O O2 0.380712 0.927508 0.044728
O O3 0.458992 0.996446 0.141778
O O4 0.448344 0.993334 0.915359
O O5 0.336331 0.750000 0.490426
O O6 0.313464 0.954069 0.639631
O O7 0.272113 0.951363 0.445516
O O8 0.358648 0.031836 0.459926
O O9 0.666956 0.250000 0.203850
O O10 0.692869 0.518187 0.151060
O O11 0.611340 0.476492 0.247160
O O12 0.706055 0.750000 0.024849
O O13 0.703396 0.491412 0.927404
O O14 0.109458 0.750000 0.834462
O O15 0.147036 0.986943 0.744773
O O16 0.065444 0.003395 0.849269
O O17 0.170607 0.250000 0.671357
O O18 0.945660 0.750000 0.718082
O O19 0.976769 0.490406 0.791242
O O20 0.469740 0.750000 0.272208
#
# Coordination Sequence:
#
# PCOD8250622 Si02
#       8
#     8   8   8   8   8   8   8   8
#     4   8  15  29  50  79 116 154 193 234 291 354
#     4  10  24  44  63  87 120 161 205 254 307 364
#     4  10  22  42  65  87 121 165 207 251 309 367
#     4  11  23  38  60  93 125 155 202 253 304 366
#     4  11  23  40  62  89 120 158 206 256 303 359
#     4  10  19  36  60  87 122 162 198 240 303 362
#     4  10  18  33  56  84 116 156 204 253 299 358
#     4  10  20  34  55  85 121 162 199 245 307 370
#
# _framework density 20.610878
#
# number of rings (size 3 to 8) (size 9 to 14) (size 15 to 20)
#    0.000    2.000    1.250    3.375    1.750    2.000 
#    0.000    1.250    0.000    0.000    0.000    0.000 
#    0.000    0.000    0.000    0.000    0.000    0.000 
#
# Total GULP energy -793543.148264 kJ/mol
# GULP energy per Si atom -12399.111692 kJ/mol
# Density = 2.056397 g / cm^3
# Si number density = 20.610878 Si / 1000 Ang^3
#
#
#
# Elastic Constant Matrix: (Units=GPa)
#
#
# Indices 1 2 3 4 5 6 
#
# 1 108.4333 46.4998 27.3731 0.0000 0.0000 0.0000
# 2 46.4998 102.2804 26.5313 0.0000 0.0000 0.0000
# 3 27.3731 26.5313 47.7103 0.0000 0.0000 0.0000
# 4 0.0000 0.0000 0.0000 27.1228 0.0000 0.0000
# 5 0.0000 0.0000 0.0000 0.0000 20.5303 0.0000
# 6 0.0000 0.0000 0.0000 0.0000 0.0000 32.4822
#
#
#
# Elastic Compliance Matrix: (Units=1/GPa)
#
#
# Indices 1 2 3 4 5 6 
#
# 1 0.012262 -0.004382 -0.004599 0.000000 0.000000 0.000000
# 2 -0.004382 0.012991 -0.004710 0.000000 0.000000 0.000000
# 3 -0.004599 -0.004710 0.026217 0.000000 0.000000 0.000000
# 4 0.000000 0.000000 0.000000 0.036869 0.000000 0.000000
# 5 0.000000 0.000000 0.000000 0.000000 0.048708 0.000000
# 6 0.000000 0.000000 0.000000 0.000000 0.000000 0.030786
#
#
# Mechanical properties :
#
#
# Convention : Reuss Voigt Hill
#
# Bulk Modulus (GPa) = 41.51185 51.02583 46.26884
# Shear Modulus (GPa) = 24.60079 26.56172 25.58126
#
# Velocity S-wave (km/s) = 3.45857 3.59377 3.52682
# Velocity P-wave (km/s) = 6.01111 6.48311 6.25157
#
# Compressibility (1/GPa) = 0.02408951
#
# Stress axis : x y z
#
# Youngs Moduli (GPa) = 81.55111 76.97634 38.14257
#
# Poissons Ratio (x) = 0.33731 0.17540
# Poissons Ratio (y) = 0.35735 0.17966
# Poissons Ratio (z) = 0.37502 0.36257
#
# Static dielectric constant tensor:
#      x y z
#    x 3.800980 0.000000 0.000000 
#    y 0.000000 3.539610 0.000000 
#    z 0.000000 0.000000 3.589560 
# 
# 
# High freq. dielectric constant tensor:
#      x y z
#    x 1.812550 0.000000 0.000000 
#    y 0.000000 1.791180 0.000000 
#    z 0.000000 0.000000 1.790940 
# 
# From -- ./inp_files/15879.got.cif
#   From: 2010.03.12/outbox.cif.g09.slc.cpg/sg62_8_cif.got.tgz:15879.got - 2010.04.10 19:12:36.
