data_PCOD8250616
_publ_section_title
;
Structure prediction by ZEFSAII (Michael W. Deem and Ramdas Pophale) SiO2 
 PCOD8250616
Probable space group: P N M A
;
_chemical_formula_sum "Si O2"
_cell_formula_units_Z 64
_cell_length_a 19.778486
_cell_length_b 9.342490
_cell_length_c 20.017255
_cell_angle_alpha 90.000000
_cell_angle_beta 90.000000
_cell_angle_gamma 90.000000
_cell_volume 3698.794538
_symmetry_space_group_name_H-M "P N M A"
_symmetry_group_IT_number 62
_symmetry_cell_setting 'orthorhombic'
loop_
_space_group_symop_operation_xyz
x,y,z
1/2-x,-y,1/2+z
1/2+x,1/2-y,1/2-z
-x,1/2+y,-z
-x,-y,-z
1/2+x,y,1/2-z
1/2-x,1/2+y,1/2+z
x,1/2-y,z
loop_
_atom_site_type_symbol
_atom_site_label
_atom_site_fract_x
_atom_site_fract_y
_atom_site_fract_z
Si Si1 0.681497 0.418822 0.666375
Si Si2 0.423004 0.081896 0.732112
Si Si3 0.071350 0.417074 0.731103
Si Si4 0.450532 0.915552 0.086049
Si Si5 0.320723 0.581495 0.825930
Si Si6 0.558684 0.914836 0.419618
Si Si7 0.917801 0.914787 0.558033
Si Si8 0.909178 0.584435 0.042894
O O1 0.695960 0.250000 0.676050
O O2 0.629170 0.480972 0.721489
O O3 0.748634 0.508103 0.676622
O O4 0.651428 0.451436 0.593381
O O5 0.414816 0.250000 0.749834
O O6 0.496928 0.022298 0.752549
O O7 0.412139 0.054098 0.653567
O O8 0.367572 0.989207 0.770065
O O9 0.068379 0.250000 0.747215
O O10 0.090625 0.451518 0.653781
O O11 0.470428 0.750000 0.085498
O O12 0.521016 0.997168 0.088740
O O13 0.406618 0.956361 0.020303
O O14 0.314398 0.750000 0.811382
O O15 0.350642 0.551925 0.900003
O O16 0.566069 0.750000 0.438303
O O17 0.479935 0.961418 0.422679
O O18 0.602748 0.000669 0.473847
O O19 0.938484 0.750000 0.564529
O O20 0.910044 0.750000 0.024700
#
# Coordination Sequence:
#
# PCOD8250616 Si02
#       8
#     8   8   8   8   8   8   8   8
#     4  10  20  36  55  75 103 142 183 220 260 313
#     4  10  18  33  56  80 103 134 177 221 262 315
#     4   9  16  30  55  81 101 127 174 225 259 299
#     4   9  16  29  53  78  98 125 165 212 256 300
#     4  11  23  36  49  73 111 146 175 216 269 321
#     4   9  17  30  52  80 106 129 165 217 265 309
#     4   9  18  31  47  73 105 132 161 204 257 309
#     4   9  17  31  51  76 105 135 169 213 262 314
#
# _framework density 17.302934
#
# number of rings (size 3 to 8) (size 9 to 14) (size 15 to 20)
#    0.000    2.500    2.500    0.375    0.000    1.500 
#    0.000    2.500    0.000    3.000    0.000    0.000 
#    0.000    0.000    0.000    0.000    0.000    0.000 
#
# Total GULP energy -793399.618666 kJ/mol
# GULP energy per Si atom -12396.869042 kJ/mol
# Density = 1.726355 g / cm^3
# Si number density = 17.302934 Si / 1000 Ang^3
#
#
#
# Elastic Constant Matrix: (Units=GPa)
#
#
# Indices 1 2 3 4 5 6 
#
# 1 119.0842 51.8711 71.3668 0.0000 0.0000 0.0000
# 2 51.8711 58.1617 54.7345 0.0000 0.0000 0.0000
# 3 71.3668 54.7345 133.9746 0.0000 0.0000 0.0000
# 4 0.0000 0.0000 0.0000 27.5521 0.0000 0.0000
# 5 0.0000 0.0000 0.0000 0.0000 24.3767 0.0000
# 6 0.0000 0.0000 0.0000 0.0000 0.0000 23.4420
#
#
#
# Elastic Compliance Matrix: (Units=1/GPa)
#
#
# Indices 1 2 3 4 5 6 
#
# 1 0.015002 -0.009519 -0.004103 0.000000 0.000000 0.000000
# 2 -0.009519 0.033972 -0.008809 0.000000 0.000000 0.000000
# 3 -0.004103 -0.008809 0.013248 0.000000 0.000000 0.000000
# 4 0.000000 0.000000 0.000000 0.036295 0.000000 0.000000
# 5 0.000000 0.000000 0.000000 0.000000 0.041023 0.000000
# 6 0.000000 0.000000 0.000000 0.000000 0.000000 0.042658
#
#
# Mechanical properties :
#
#
# Convention : Reuss Voigt Hill
#
# Bulk Modulus (GPa) = 57.59494 74.12949 65.86222
# Shear Modulus (GPa) = 21.47333 23.95737 22.71535
#
# Velocity S-wave (km/s) = 3.52664 3.72504 3.62719
# Velocity P-wave (km/s) = 7.06692 7.83814 7.46250
#
# Compressibility (1/GPa) = 0.01736264
#
# Stress axis : x y z
#
# Youngs Moduli (GPa) = 66.65594 29.43581 75.48132
#
# Poissons Ratio (x) = 0.28019 0.30968
# Poissons Ratio (y) = 0.63448 0.66489
# Poissons Ratio (z) = 0.27347 0.25929
#
# Static dielectric constant tensor:
#      x y z
#    x 3.017330 0.000000 0.000000 
#    y 0.000000 3.101200 0.000000 
#    z 0.000000 0.000000 3.545520 
# 
# 
# High freq. dielectric constant tensor:
#      x y z
#    x 1.639420 0.000000 0.000000 
#    y 0.000000 1.653290 0.000000 
#    z 0.000000 0.000000 1.685550 
# 
# From -- ./inp_files/27640.got.cif
#   From: 2010.03.12/outbox.cif.g09.slc.cpg/sg62_14_cif.got.tgz:27640.got - 2010.04.10 19:12:36.
