data_PCOD8250789
_publ_section_title
;
Structure prediction by ZEFSAII (Michael W. Deem and Ramdas Pophale) SiO2 
 PCOD8250789
Probable space group: P N M A
;
_chemical_formula_sum "Si O2"
_cell_formula_units_Z 56
_cell_length_a 19.163721
_cell_length_b 9.220183
_cell_length_c 19.370549
_cell_angle_alpha 90.000000
_cell_angle_beta 90.000000
_cell_angle_gamma 90.000000
_cell_volume 3422.640697
_symmetry_space_group_name_H-M "P N M A"
_symmetry_group_IT_number 62
_symmetry_cell_setting 'orthorhombic'
loop_
_space_group_symop_operation_xyz
x,y,z
1/2-x,-y,1/2+z
1/2+x,1/2-y,1/2-z
-x,1/2+y,-z
-x,-y,-z
1/2+x,y,1/2-z
1/2-x,1/2+y,1/2+z
x,1/2-y,z
loop_
_atom_site_type_symbol
_atom_site_label
_atom_site_fract_x
_atom_site_fract_y
_atom_site_fract_z
Si Si1 0.947297 0.921319 0.550617
Si Si2 0.631717 0.582538 0.770520
Si Si3 0.707408 0.420448 0.017424
Si Si4 0.025200 0.080457 0.291634
Si Si5 0.742433 0.917931 0.660870
Si Si6 0.153742 0.579466 0.242544
Si Si7 0.235007 0.079533 0.632822
O O1 0.954305 0.750000 0.539716
O O2 0.869936 0.980124 0.533357
O O3 0.965356 0.965014 0.628893
O O4 0.000000 0.000000 0.500000
O O5 0.637840 0.750000 0.791886
O O6 0.551594 0.534855 0.766092
O O7 0.667416 0.553274 0.695905
O O8 0.669615 0.492301 0.829535
O O9 0.701682 0.250000 0.010108
O O10 0.760194 0.461260 0.079916
O O11 0.737708 0.482521 0.945399
O O12 0.039498 0.250000 0.281330
O O13 0.077816 0.992935 0.242384
O O14 0.765265 0.750000 0.669448
O O15 0.801759 0.015098 0.694910
O O16 0.146316 0.750000 0.253383
O O17 0.192205 0.540899 0.170409
O O18 0.221334 0.250000 0.635162
#
# Coordination Sequence:
#
# PCOD8250789 Si02
#       7
#     8   8   8   8   8   8   8
#     4  10  19  29  43  65  94 124 149 178 223 278
#     4   9  18  30  48  71  93 119 154 194 233 272
#     4   9  16  29  48  66  88 122 155 183 225 278
#     4  10  19  32  47  67  95 125 157 191 227 277
#     4   9  16  31  51  68  89 121 157 192 231 276
#     4  10  19  30  46  69  92 120 157 194 232 272
#     4   9  18  31  47  68  94 120 153 193 230 276
#
# _framework density 16.361637000000002
#
# number of rings (size 3 to 8) (size 9 to 14) (size 15 to 20)
#    0.000    2.571    1.429    1.286    0.000    1.714 
#    0.000    0.714    0.000    0.857    0.000    0.000 
#    0.000    0.000    0.000    0.000    0.000    0.429 
#
# Total GULP energy -694268.419485 kJ/mol
# GULP energy per Si atom -12397.650348 kJ/mol
# Density = 1.632440 g / cm^3
# Si number density = 16.361637 Si / 1000 Ang^3
#
#
#
# Elastic Constant Matrix: (Units=GPa)
#
#
# Indices 1 2 3 4 5 6 
#
# 1 129.8889 40.6210 83.9306 0.0000 0.0000 0.0000
# 2 40.6210 37.8349 35.7259 0.0000 0.0000 0.0000
# 3 83.9306 35.7259 138.7228 0.0000 0.0000 0.0000
# 4 0.0000 0.0000 0.0000 17.5836 0.0000 0.0000
# 5 0.0000 0.0000 0.0000 0.0000 24.9417 0.0000
# 6 0.0000 0.0000 0.0000 0.0000 0.0000 22.3148
#
#
#
# Elastic Compliance Matrix: (Units=1/GPa)
#
#
# Indices 1 2 3 4 5 6 
#
# 1 0.015039 -0.009982 -0.006528 0.000000 0.000000 0.000000
# 2 -0.009982 0.041549 -0.004661 0.000000 0.000000 0.000000
# 3 -0.006528 -0.004661 0.012359 0.000000 0.000000 0.000000
# 4 0.000000 0.000000 0.000000 0.056871 0.000000 0.000000
# 5 0.000000 0.000000 0.000000 0.000000 0.040093 0.000000
# 6 0.000000 0.000000 0.000000 0.000000 0.000000 0.044813
#
#
# Mechanical properties :
#
#
# Convention : Reuss Voigt Hill
#
# Bulk Modulus (GPa) = 37.58815 69.66687 53.62751
# Shear Modulus (GPa) = 19.08870 22.71262 20.90066
#
# Velocity S-wave (km/s) = 3.41937 3.72985 3.57798
# Velocity P-wave (km/s) = 6.21391 7.82438 7.06518
#
# Compressibility (1/GPa) = 0.02660413
#
# Stress axis : x y z
#
# Youngs Moduli (GPa) = 66.49374 24.06809 80.91485
#
# Poissons Ratio (x) = 0.24025 0.52823
# Poissons Ratio (y) = 0.66375 0.37713
# Poissons Ratio (z) = 0.43409 0.11218
#
# Static dielectric constant tensor:
#      x y z
#    x 3.156400 0.000000 0.000000 
#    y 0.000000 2.974930 0.000000 
#    z 0.000000 0.000000 3.341220 
# 
# 
# High freq. dielectric constant tensor:
#      x y z
#    x 1.622000 0.000000 0.000000 
#    y 0.000000 1.616500 0.000000 
#    z 0.000000 0.000000 1.625730 
# 
# From -- ./inp_files/24442.got.cif
#   From: 2010.03.12/outbox.cif.g09.slc.cpg/sg62_13_cif.got.tgz:24442.got - 2010.04.10 19:12:36.
