data_PCOD8250081
_publ_section_title
;
Structure prediction by ZEFSAII (Michael W. Deem and Ramdas Pophale) SiO2 
 PCOD8250081
Probable space group: P N M A
;
_chemical_formula_sum "Si O2"
_cell_formula_units_Z 64
_cell_length_a 23.741088
_cell_length_b 8.908501
_cell_length_c 15.420886
_cell_angle_alpha 90.000000
_cell_angle_beta 90.000000
_cell_angle_gamma 90.000000
_cell_volume 3261.478932
_symmetry_space_group_name_H-M "P N M A"
_symmetry_group_IT_number 62
_symmetry_cell_setting 'orthorhombic'
loop_
_space_group_symop_operation_xyz
x,y,z
1/2-x,-y,1/2+z
1/2+x,1/2-y,1/2-z
-x,1/2+y,-z
-x,-y,-z
1/2+x,y,1/2-z
1/2-x,1/2+y,1/2+z
x,1/2-y,z
loop_
_atom_site_type_symbol
_atom_site_label
_atom_site_fract_x
_atom_site_fract_y
_atom_site_fract_z
Si Si1 0.115310 0.425021 0.412286
Si Si2 0.876409 0.427704 0.412144
Si Si3 0.696125 0.074624 0.249072
Si Si4 0.814058 0.572210 0.253841
Si Si5 0.501263 0.428456 0.348888
Si Si6 0.503520 0.927777 0.846173
Si Si7 0.121905 0.074249 0.095058
Si Si8 0.109006 0.074320 0.904000
O O1 0.114290 0.250000 0.435961
O O2 0.141448 0.515408 0.492972
O O3 0.152876 0.456035 0.328410
O O4 0.052280 0.488089 0.394330
O O5 0.870720 0.250000 0.406398
O O6 0.834230 0.497747 0.342618
O O7 0.940378 0.483108 0.394998
O O8 0.711842 0.250000 0.255725
O O9 0.668378 0.011451 0.338123
O O10 0.751388 0.978648 0.231445
O O11 0.816652 0.750000 0.263087
O O12 0.852674 0.514219 0.174410
O O13 0.498269 0.250000 0.353132
O O14 0.494247 0.490243 0.251298
O O15 0.560070 0.492609 0.385456
O O16 0.451019 0.493764 0.406219
O O17 0.499994 0.750000 0.842464
O O18 0.117966 0.250000 0.113413
O O19 0.139481 0.037784 0.995965
O O20 0.098039 0.250000 0.894973
#
# Coordination Sequence:
#
# PCOD8250081 Si02
#       8
#     8   8   8   8   8   8   8   8
#     4  10  20  37  60  87 118 150 187 233 288 343
#     4  11  22  37  59  86 115 150 193 235 282 343
#     4  10  21  39  62  83 108 150 196 234 278 340
#     4  11  24  40  56  79 115 153 191 242 289 330
#     4  10  17  32  59  86 114 147 185 224 270 337
#     4   9  17  32  57  86 115 148 185 228 279 341
#     4   9  18  35  60  86 112 147 185 224 277 340
#     4  10  21  36  55  83 116 147 181 226 284 335
#
# _framework density 19.623000000000001
#
# number of rings (size 3 to 8) (size 9 to 14) (size 15 to 20)
#    0.000    2.000    2.500    1.500    0.000    2.000 
#    0.000    3.750    0.000    0.000    0.000    0.000 
#    0.000    0.000    0.000    0.000    0.000    0.000 
#
# Total GULP energy -793678.470452 kJ/mol
# GULP energy per Si atom -12401.226101 kJ/mol
# Density = 1.957834 g / cm^3
# Si number density = 19.623000 Si / 1000 Ang^3
#
#
#
# Elastic Constant Matrix: (Units=GPa)
#
#
# Indices 1 2 3 4 5 6 
#
# 1 92.6928 23.7620 21.7260 0.0000 0.0000 0.0000
# 2 23.7620 41.1562 26.4073 0.0000 0.0000 0.0000
# 3 21.7260 26.4073 114.9292 0.0000 0.0000 0.0000
# 4 0.0000 0.0000 0.0000 21.6365 0.0000 0.0000
# 5 0.0000 0.0000 0.0000 0.0000 18.1191 0.0000
# 6 0.0000 0.0000 0.0000 0.0000 0.0000 26.1874
#
#
#
# Elastic Compliance Matrix: (Units=1/GPa)
#
#
# Indices 1 2 3 4 5 6 
#
# 1 0.012732 -0.006811 -0.000842 0.000000 0.000000 0.000000
# 2 -0.006811 0.032143 -0.006098 0.000000 0.000000 0.000000
# 3 -0.000842 -0.006098 0.010261 0.000000 0.000000 0.000000
# 4 0.000000 0.000000 0.000000 0.046218 0.000000 0.000000
# 5 0.000000 0.000000 0.000000 0.000000 0.055190 0.000000
# 6 0.000000 0.000000 0.000000 0.000000 0.000000 0.038186
#
#
# Mechanical properties :
#
#
# Convention : Reuss Voigt Hill
#
# Bulk Modulus (GPa) = 36.18651 43.61878 39.90264
# Shear Modulus (GPa) = 21.60365 24.98079 23.29222
#
# Velocity S-wave (km/s) = 3.32163 3.57183 3.44900
# Velocity P-wave (km/s) = 5.76124 6.26796 6.01993
#
# Compressibility (1/GPa) = 0.02763461
#
# Stress axis : x y z
#
# Youngs Moduli (GPa) = 78.54509 31.11145 97.45365
#
# Poissons Ratio (x) = 0.21189 0.08205
# Poissons Ratio (y) = 0.53493 0.59427
# Poissons Ratio (z) = 0.06613 0.18972
#
# Static dielectric constant tensor:
#      x y z
#    x 3.600340 0.000000 0.000000 
#    y 0.000000 3.205970 0.000000 
#    z 0.000000 0.000000 3.720740 
# 
# 
# High freq. dielectric constant tensor:
#      x y z
#    x 1.763290 0.000000 0.000000 
#    y 0.000000 1.731730 0.000000 
#    z 0.000000 0.000000 1.780900 
# 
# From -- ./inp_files/20843.got.cif
#   From: 2010.03.12/outbox.cif.g09.slc.cpg/sg62_11_cif.got.tgz:20843.got - 2010.04.10 19:12:36.
