data_PCOD8250160
_publ_section_title
;
Structure prediction by ZEFSAII (Michael W. Deem and Ramdas Pophale) SiO2 
 PCOD8250160
Probable space group: P N M A
;
_chemical_formula_sum "Si O2"
_cell_formula_units_Z 64
_cell_length_a 26.365314
_cell_length_b 8.945481
_cell_length_c 18.017779
_cell_angle_alpha 90.000000
_cell_angle_beta 90.000000
_cell_angle_gamma 90.000000
_cell_volume 4249.500663
_symmetry_space_group_name_H-M "P N M A"
_symmetry_group_IT_number 62
_symmetry_cell_setting 'orthorhombic'
loop_
_space_group_symop_operation_xyz
x,y,z
1/2-x,-y,1/2+z
1/2+x,1/2-y,1/2-z
-x,1/2+y,-z
-x,-y,-z
1/2+x,y,1/2-z
1/2-x,1/2+y,1/2+z
x,1/2-y,z
loop_
_atom_site_type_symbol
_atom_site_label
_atom_site_fract_x
_atom_site_fract_y
_atom_site_fract_z
Si Si1 0.353738 0.073636 0.839673
Si Si2 0.441683 0.576670 0.919111
Si Si3 0.442517 0.422764 0.071893
Si Si4 0.799580 0.583510 0.201457
Si Si5 0.259977 0.926904 0.919433
Si Si6 0.148860 0.577403 0.673762
Si Si7 0.254513 0.423499 0.075239
Si Si8 0.200895 0.584393 0.197445
O O1 0.348951 0.250000 0.853348
O O2 0.344581 0.034568 0.752611
O O3 0.409571 0.015850 0.859380
O O4 0.313117 0.994982 0.892881
O O5 0.427871 0.750000 0.912445
O O6 0.500481 0.544963 0.901078
O O7 0.428098 0.523548 0.001796
O O8 0.435609 0.250000 0.048338
O O9 0.405336 0.465564 0.139048
O O10 0.815171 0.750000 0.175950
O O11 0.787521 0.484253 0.129337
O O12 0.845171 0.513964 0.249905
O O13 0.750263 0.588100 0.251861
O O14 0.263186 0.750000 0.913473
O O15 0.249688 0.975464 0.003163
O O16 0.152261 0.750000 0.695431
O O17 0.192113 0.538328 0.613875
O O18 0.249858 0.250000 0.054236
O O19 0.208304 0.467484 0.130597
O O20 0.190727 0.750000 0.164524
#
# Coordination Sequence:
#
# PCOD8250160 Si02
#       8
#     8   8   8   8   8   8   8   8
#     4  10  19  31  45  60  83 113 143 177 215 251
#     4  10  19  29  43  63  85 112 147 182 214 249
#     4   9  18  31  44  60  86 116 145 180 216 248
#     4   9  17  29  43  60  83 108 137 173 210 247
#     4  11  20  29  43  62  85 112 143 174 205 249
#     4   9  17  29  44  60  81 112 145 174 209 249
#     4  10  18  27  42  63  86 111 139 172 209 248
#     4   8  16  29  42  57  79 108 139 171 208 249
#
# _framework density 15.060593000000001
#
# number of rings (size 3 to 8) (size 9 to 14) (size 15 to 20)
#    0.000    2.500    0.000    4.125    0.000    6.000 
#    0.000    0.000    0.000    0.000    0.000    0.000 
#    0.000    1.000    0.000    3.000    0.000    4.625 
#
# Total GULP energy -793559.543352 kJ/mol
# GULP energy per Si atom -12399.367865 kJ/mol
# Density = 1.502631 g / cm^3
# Si number density = 15.060593 Si / 1000 Ang^3
#
#
#
# Elastic Constant Matrix: (Units=GPa)
#
#
# Indices 1 2 3 4 5 6 
#
# 1 71.6207 38.2437 46.5776 0.0000 0.0000 0.0000
# 2 38.2437 96.1271 49.6628 0.0000 0.0000 0.0000
# 3 46.5776 49.6628 77.1543 0.0000 0.0000 0.0000
# 4 0.0000 0.0000 0.0000 28.3112 0.0000 0.0000
# 5 0.0000 0.0000 0.0000 0.0000 24.7306 0.0000
# 6 0.0000 0.0000 0.0000 0.0000 0.0000 20.4215
#
#
#
# Elastic Compliance Matrix: (Units=1/GPa)
#
#
# Indices 1 2 3 4 5 6 
#
# 1 0.023564 -0.003035 -0.012272 0.000000 0.000000 0.000000
# 2 -0.003035 0.015977 -0.008452 0.000000 0.000000 0.000000
# 3 -0.012272 -0.008452 0.025810 0.000000 0.000000 0.000000
# 4 0.000000 0.000000 0.000000 0.035322 0.000000 0.000000
# 5 0.000000 0.000000 0.000000 0.000000 0.040436 0.000000
# 6 0.000000 0.000000 0.000000 0.000000 0.000000 0.048968
#
#
# Mechanical properties :
#
#
# Convention : Reuss Voigt Hill
#
# Bulk Modulus (GPa) = 56.07469 57.09672 56.58571
# Shear Modulus (GPa) = 20.53070 22.05386 21.29228
#
# Velocity S-wave (km/s) = 3.69617 3.83082 3.76410
# Velocity P-wave (km/s) = 7.45179 7.58687 7.51963
#
# Compressibility (1/GPa) = 0.01783336
#
# Stress axis : x y z
#
# Youngs Moduli (GPa) = 42.43801 62.59067 38.74465
#
# Poissons Ratio (x) = 0.18994 0.47548
# Poissons Ratio (y) = 0.12878 0.32747
# Poissons Ratio (z) = 0.52080 0.52902
#
# Static dielectric constant tensor:
#      x y z
#    x 2.815190 0.000000 0.000000 
#    y 0.000000 3.043810 0.000000 
#    z 0.000000 0.000000 2.892640 
# 
# 
# High freq. dielectric constant tensor:
#      x y z
#    x 1.543240 0.000000 0.000000 
#    y 0.000000 1.591350 0.000000 
#    z 0.000000 0.000000 1.562030 
# 
# From -- ./inp_files/24975.got.cif
#   From: 2010.03.12/outbox.cif.g09.slc.cpg/sg62_13_cif.got.tgz:24975.got - 2010.04.10 19:12:36.
