data_PCOD8250328
_publ_section_title
;
Structure prediction by ZEFSAII (Michael W. Deem and Ramdas Pophale) SiO2 
 PCOD8250328
Probable space group: P N M A
;
_chemical_formula_sum "Si O2"
_cell_formula_units_Z 64
_cell_length_a 18.504875
_cell_length_b 8.794635
_cell_length_c 26.599487
_cell_angle_alpha 90.000000
_cell_angle_beta 90.000000
_cell_angle_gamma 90.000000
_cell_volume 4328.896840
_symmetry_space_group_name_H-M "P N M A"
_symmetry_group_IT_number 62
_symmetry_cell_setting 'orthorhombic'
loop_
_space_group_symop_operation_xyz
x,y,z
1/2-x,-y,1/2+z
1/2+x,1/2-y,1/2-z
-x,1/2+y,-z
-x,-y,-z
1/2+x,y,1/2-z
1/2-x,1/2+y,1/2+z
x,1/2-y,z
loop_
_atom_site_type_symbol
_atom_site_label
_atom_site_fract_x
_atom_site_fract_y
_atom_site_fract_z
Si Si1 0.919158 0.926433 0.556985
Si Si2 0.704789 0.582040 0.296073
Si Si3 0.070413 0.432511 0.746411
Si Si4 0.340895 0.929947 0.151214
Si Si5 0.928698 0.572542 0.443014
Si Si6 0.340126 0.431451 0.854018
Si Si7 0.797100 0.915865 0.195963
Si Si8 0.582876 0.071279 0.239728
O O1 0.911734 0.750000 0.569700
O O2 0.900306 0.962204 0.498982
O O3 0.862273 0.018658 0.590392
O O4 0.000042 0.977773 0.569518
O O5 0.675381 0.750000 0.311547
O O6 0.758725 0.510279 0.338622
O O7 0.753768 0.601062 0.247397
O O8 0.637815 0.471397 0.284788
O O9 0.062728 0.250000 0.748243
O O10 0.101189 0.487926 0.692434
O O11 0.125846 0.493124 0.790431
O O12 0.994931 0.512321 0.756766
O O13 0.336577 0.750000 0.155901
O O14 0.366862 0.980659 0.095862
O O15 0.948018 0.750000 0.436606
O O16 0.340704 0.250000 0.849131
O O17 0.258476 0.497522 0.843081
O O18 0.396360 0.495051 0.813210
O O19 0.814803 0.750000 0.173745
O O20 0.582100 0.250000 0.232101
#
# Coordination Sequence:
#
# PCOD8250328 Si02
#       8
#     8   8   8   8   8   8   8   8
#     4  10  19  28  39  60  86 108 135 170 203 234
#     4   8  14  27  43  57  74 100 134 165 193 228
#     4   9  15  26  43  60  78 102 133 165 196 232
#     4   8  14  26  45  61  73 100 141 172 192 224
#     4   9  17  29  43  59  82 111 139 168 200 232
#     4  10  18  30  45  57  74 106 142 169 198 234
#     4   7  13  25  41  58  73  95 132 170 195 226
#     4  11  20  27  37  59  86 107 130 160 197 239
#
# _framework density 14.784368000000001
#
# number of rings (size 3 to 8) (size 9 to 14) (size 15 to 20)
#    0.000    3.000    0.000    4.875    0.000    1.500 
#    0.000    6.875    0.000    0.000    0.000    0.000 
#    0.000    1.000    0.000    2.000    0.000    2.750 
#
# Total GULP energy -792897.157338 kJ/mol
# GULP energy per Si atom -12389.018083 kJ/mol
# Density = 1.475072 g / cm^3
# Si number density = 14.784368 Si / 1000 Ang^3
#
#
#
# Elastic Constant Matrix: (Units=GPa)
#
#
# Indices 1 2 3 4 5 6 
#
# 1 111.1609 32.6829 58.7801 0.0000 0.0000 0.0000
# 2 32.6829 51.1660 24.5066 0.0000 0.0000 0.0000
# 3 58.7801 24.5066 82.3554 0.0000 0.0000 0.0000
# 4 0.0000 0.0000 0.0000 16.9751 0.0000 0.0000
# 5 0.0000 0.0000 0.0000 0.0000 27.2311 0.0000
# 6 0.0000 0.0000 0.0000 0.0000 0.0000 9.1109
#
#
#
# Elastic Compliance Matrix: (Units=1/GPa)
#
#
# Indices 1 2 3 4 5 6 
#
# 1 0.015638 -0.005415 -0.009550 0.000000 0.000000 0.000000
# 2 -0.005415 0.024668 -0.003476 0.000000 0.000000 0.000000
# 3 -0.009550 -0.003476 0.019993 0.000000 0.000000 0.000000
# 4 0.000000 0.000000 0.000000 0.058910 0.000000 0.000000
# 5 0.000000 0.000000 0.000000 0.000000 0.036723 0.000000
# 6 0.000000 0.000000 0.000000 0.000000 0.000000 0.109759
#
#
# Mechanical properties :
#
#
# Convention : Reuss Voigt Hill
#
# Bulk Modulus (GPa) = 42.70300 52.95795 47.83048
# Shear Modulus (GPa) = 16.10946 19.24427 17.67686
#
# Velocity S-wave (km/s) = 3.30453 3.61177 3.46156
# Velocity P-wave (km/s) = 6.59595 7.30008 6.95693
#
# Compressibility (1/GPa) = 0.02341756
#
# Stress axis : x y z
#
# Youngs Moduli (GPa) = 63.94714 40.53890 50.01755
#
# Poissons Ratio (x) = 0.21951 0.47767
# Poissons Ratio (y) = 0.34626 0.17384
# Poissons Ratio (z) = 0.61070 0.14090
#
# Static dielectric constant tensor:
#      x y z
#    x 3.107000 0.000000 0.000000 
#    y 0.000000 2.694760 0.000000 
#    z 0.000000 0.000000 2.869310 
# 
# 
# High freq. dielectric constant tensor:
#      x y z
#    x 1.559000 0.000000 0.000000 
#    y 0.000000 1.549110 0.000000 
#    z 0.000000 0.000000 1.534640 
# 
# From -- ./inp_files/31338.got.cif
#   From: 2010.03.12/outbox.cif.g09.slc.cpg/sg62_16_cif.got.tgz:31338.got - 2010.04.10 19:12:36.
