data_PCOD8250500
_publ_section_title
;
Structure prediction by ZEFSAII (Michael W. Deem and Ramdas Pophale) SiO2 
 PCOD8250500
Probable space group: P N M A
;
_chemical_formula_sum "Si O2"
_cell_formula_units_Z 64
_cell_length_a 21.988870
_cell_length_b 9.142141
_cell_length_c 16.780863
_cell_angle_alpha 90.000000
_cell_angle_beta 90.000000
_cell_angle_gamma 90.000000
_cell_volume 3373.378857
_symmetry_space_group_name_H-M "P N M A"
_symmetry_group_IT_number 62
_symmetry_cell_setting 'orthorhombic'
loop_
_space_group_symop_operation_xyz
x,y,z
1/2-x,-y,1/2+z
1/2+x,1/2-y,1/2-z
-x,1/2+y,-z
-x,-y,-z
1/2+x,y,1/2-z
1/2-x,1/2+y,1/2+z
x,1/2-y,z
loop_
_atom_site_type_symbol
_atom_site_label
_atom_site_fract_x
_atom_site_fract_y
_atom_site_fract_z
Si Si1 0.690840 0.424012 0.961157
Si Si2 0.362600 0.078846 0.179658
Si Si3 0.706952 0.413773 0.693386
Si Si4 0.626852 0.583179 0.578385
Si Si5 0.165281 0.914031 0.379048
Si Si6 0.595242 0.922816 0.271002
Si Si7 0.971462 0.417142 0.203072
Si Si8 0.823886 0.419104 0.912106
O O1 0.687163 0.250000 0.957186
O O2 0.639475 0.495068 0.904510
O O3 0.757683 0.485549 0.935472
O O4 0.674333 0.471718 0.050470
O O5 0.353298 0.250000 0.165797
O O6 0.425536 0.044625 0.224795
O O7 0.307048 0.017453 0.232116
O O8 0.682603 0.250000 0.710960
O O9 0.676732 0.474231 0.613318
O O10 0.778471 0.411586 0.681309
O O11 0.646369 0.750000 0.599474
O O12 0.561285 0.551959 0.618015
O O13 0.627246 0.557714 0.483655
O O14 0.154409 0.750000 0.413521
O O15 0.110368 0.964319 0.320746
O O16 0.593825 0.750000 0.282587
O O17 0.645165 0.989357 0.333420
O O18 0.529138 0.980845 0.291863
O O19 0.992749 0.250000 0.209187
O O20 0.811266 0.250000 0.896437
#
# Coordination Sequence:
#
# PCOD8250500 Si02
#       8
#     8   8   8   8   8   8   8   8
#     4  11  21  35  59  87 112 140 183 228 272 337
#     4  10  21  37  57  79 110 146 180 225 283 329
#     4  10  18  31  54  82 111 140 181 225 266 328
#     4   9  17  33  55  79 112 150 180 217 277 329
#     4  10  21  36  53  78 115 148 178 225 285 331
#     4  10  21  37  56  77 107 149 187 226 272 325
#     4   9  20  37  55  77 108 146 188 230 268 322
#     4   9  18  34  56  83 115 146 177 218 278 336
#
# _framework density 18.972075
#
# number of rings (size 3 to 8) (size 9 to 14) (size 15 to 20)
#    0.000    2.250    1.250    2.625    0.000    6.000 
#    0.000    3.750    0.000    0.000    0.000    0.000 
#    0.000    0.000    0.000    0.000    0.000    0.000 
#
# Total GULP energy -793400.383546 kJ/mol
# GULP energy per Si atom -12396.880993 kJ/mol
# Density = 1.892889 g / cm^3
# Si number density = 18.972075 Si / 1000 Ang^3
#
#
#
# Elastic Constant Matrix: (Units=GPa)
#
#
# Indices 1 2 3 4 5 6 
#
# 1 62.2005 27.3115 41.6308 0.0000 0.0000 0.0000
# 2 27.3115 68.3777 41.4781 0.0000 0.0000 0.0000
# 3 41.6308 41.4781 111.9858 0.0000 0.0000 0.0000
# 4 0.0000 0.0000 0.0000 30.0256 0.0000 0.0000
# 5 0.0000 0.0000 0.0000 0.0000 22.6338 0.0000
# 6 0.0000 0.0000 0.0000 0.0000 0.0000 27.2704
#
#
#
# Elastic Compliance Matrix: (Units=1/GPa)
#
#
# Indices 1 2 3 4 5 6 
#
# 1 0.022698 -0.005092 -0.006552 0.000000 0.000000 0.000000
# 2 -0.005092 0.020005 -0.005517 0.000000 0.000000 0.000000
# 3 -0.006552 -0.005517 0.013409 0.000000 0.000000 0.000000
# 4 0.000000 0.000000 0.000000 0.033305 0.000000 0.000000
# 5 0.000000 0.000000 0.000000 0.000000 0.044182 0.000000
# 6 0.000000 0.000000 0.000000 0.000000 0.000000 0.036670
#
#
# Mechanical properties :
#
#
# Convention : Reuss Voigt Hill
#
# Bulk Modulus (GPa) = 45.89099 51.48942 48.69021
# Shear Modulus (GPa) = 23.60133 24.79554 24.19843
#
# Velocity S-wave (km/s) = 3.53087 3.61910 3.57526
# Velocity P-wave (km/s) = 6.39249 6.68299 6.53935
#
# Compressibility (1/GPa) = 0.02179077
#
# Stress axis : x y z
#
# Youngs Moduli (GPa) = 44.05670 49.98799 74.57783
#
# Poissons Ratio (x) = 0.25451 0.48865
# Poissons Ratio (y) = 0.22432 0.41143
# Poissons Ratio (z) = 0.28867 0.27577
#
# Static dielectric constant tensor:
#      x y z
#    x 3.320580 0.000000 0.000000 
#    y 0.000000 3.376130 0.000000 
#    z 0.000000 0.000000 3.606770 
# 
# 
# High freq. dielectric constant tensor:
#      x y z
#    x 1.717400 0.000000 0.000000 
#    y 0.000000 1.725300 0.000000 
#    z 0.000000 0.000000 1.744510 
# 
# From -- ./inp_files/20979.got.cif
#   From: 2010.03.12/outbox.cif.g09.slc.cpg/sg62_11_cif.got.tgz:20979.got - 2010.04.10 19:12:36.
