data_PCOD8250720
_publ_section_title
;
Structure prediction by ZEFSAII (Michael W. Deem and Ramdas Pophale) SiO2 
 PCOD8250720
Probable space group: P N M A
;
_chemical_formula_sum "Si O2"
_cell_formula_units_Z 56
_cell_length_a 9.618186
_cell_length_b 20.371307
_cell_length_c 14.495982
_cell_angle_alpha 90.000000
_cell_angle_beta 90.000000
_cell_angle_gamma 90.000000
_cell_volume 2840.270520
_symmetry_space_group_name_H-M "P N M A"
_symmetry_group_IT_number 62
_symmetry_cell_setting 'orthorhombic'
loop_
_space_group_symop_operation_xyz
x,y,z
1/2-x,-y,1/2+z
1/2+x,1/2-y,1/2-z
-x,1/2+y,-z
-x,-y,-z
1/2+x,y,1/2-z
1/2-x,1/2+y,1/2+z
x,1/2-y,z
loop_
_atom_site_type_symbol
_atom_site_label
_atom_site_fract_x
_atom_site_fract_y
_atom_site_fract_z
Si Si1 0.913155 0.605584 0.799517
Si Si2 0.303554 0.326633 0.318720
Si Si3 0.809581 0.013055 0.890096
Si Si4 0.987338 0.986051 0.631125
Si Si5 0.181352 0.397503 0.490593
Si Si6 0.363608 0.399404 0.772727
Si Si7 0.375126 0.673219 0.183029
O O1 0.771454 0.642744 0.770869
O O2 0.874299 0.559957 0.888414
O O3 0.966694 0.561860 0.716613
O O4 0.034258 0.655712 0.826357
O O5 0.289179 0.250000 0.309883
O O6 0.223516 0.349311 0.409640
O O7 0.894804 0.057814 0.818590
O O8 0.644600 0.011708 0.864385
O O9 0.810151 0.051384 0.988222
O O10 0.949835 0.944124 0.538732
O O11 0.882076 0.048847 0.642279
O O12 0.147888 0.354161 0.579897
O O13 0.214512 0.365198 0.760683
O O14 0.468117 0.338690 0.784880
O O15 0.340269 0.750000 0.183450
#
# Coordination Sequence:
#
# PCOD8250720 Si02
#       7
#     8   8   8   8   8   8   8
#     4  10  21  36  60  86 112 148 190 239 289 335
#     4  11  22  39  58  82 115 155 194 230 280 353
#     4  10  19  35  59  87 115 141 189 243 291 336
#     4  10  18  36  60  88 115 142 189 246 290 339
#     4  10  22  35  62  86 114 156 189 240 298 342
#     4  10  20  34  59  86 112 149 192 240 288 335
#     4  11  22  39  58  85 119 158 199 234 281 355
#
# _framework density 19.716431
#
# number of rings (size 3 to 8) (size 9 to 14) (size 15 to 20)
#    0.000    1.714    4.286    1.714    0.000    0.571 
#    0.000    1.429    0.000    0.000    0.000    0.000 
#    0.000    0.000    0.000    0.000    0.000    0.000 
#
# Total GULP energy -693805.237098 kJ/mol
# GULP energy per Si atom -12389.379234 kJ/mol
# Density = 1.967156 g / cm^3
# Si number density = 19.716431 Si / 1000 Ang^3
#
#
#
# Elastic Constant Matrix: (Units=GPa)
#
#
# Indices 1 2 3 4 5 6 
#
# 1 49.8966 13.4431 17.0039 0.0000 0.0000 0.0000
# 2 13.4431 113.2027 23.1446 0.0000 0.0000 0.0000
# 3 17.0039 23.1446 26.3240 0.0000 0.0000 0.0000
# 4 0.0000 0.0000 0.0000 28.4413 0.0000 0.0000
# 5 0.0000 0.0000 0.0000 0.0000 19.3124 0.0000
# 6 0.0000 0.0000 0.0000 0.0000 0.0000 34.8932
#
#
#
# Elastic Compliance Matrix: (Units=1/GPa)
#
#
# Indices 1 2 3 4 5 6 
#
# 1 0.025714 0.000417 -0.016977 0.000000 0.000000 0.000000
# 2 0.000417 0.010776 -0.009744 0.000000 0.000000 0.000000
# 3 -0.016977 -0.009744 0.057522 0.000000 0.000000 0.000000
# 4 0.000000 0.000000 0.000000 0.035160 0.000000 0.000000
# 5 0.000000 0.000000 0.000000 0.000000 0.051780 0.000000
# 6 0.000000 0.000000 0.000000 0.000000 0.000000 0.028659
#
#
# Mechanical properties :
#
#
# Convention : Reuss Voigt Hill
#
# Bulk Modulus (GPa) = 24.15201 32.95630 28.55415
# Shear Modulus (GPa) = 18.11450 25.58483 21.84966
#
# Velocity S-wave (km/s) = 3.03438 3.60618 3.33257
# Velocity P-wave (km/s) = 4.95509 5.83874 5.41497
#
# Compressibility (1/GPa) = 0.04140443
#
# Stress axis : x y z
#
# Youngs Moduli (GPa) = 38.88859 92.79511 17.38468
#
# Poissons Ratio (x) = -0.03873 0.29514
# Poissons Ratio (y) = -0.01623 0.16940
# Poissons Ratio (z) = 0.66022 0.90424
#
# Static dielectric constant tensor:
#      x y z
#    x 3.535020 0.000000 0.000000 
#    y 0.000000 3.767100 0.000000 
#    z 0.000000 0.000000 3.575220 
# 
# 
# High freq. dielectric constant tensor:
#      x y z
#    x 1.757780 0.000000 0.000000 
#    y 0.000000 1.781080 0.000000 
#    z 0.000000 0.000000 1.750730 
# 
# From -- ./inp_files/17215.got.cif
#   From: 2010.03.12/outbox.cif.g09.slc.cpg/sg62_9_cif.got.tgz:17215.got - 2010.04.10 19:12:36.
