data_PCOD8250599
_publ_section_title
;
Structure prediction by ZEFSAII (Michael W. Deem and Ramdas Pophale) SiO2 
 PCOD8250599
Probable space group: P N M A
;
_chemical_formula_sum "Si O2"
_cell_formula_units_Z 32
_cell_length_a 12.557540
_cell_length_b 8.648181
_cell_length_c 14.189498
_cell_angle_alpha 90.000000
_cell_angle_beta 90.000000
_cell_angle_gamma 90.000000
_cell_volume 1540.977764
_symmetry_space_group_name_H-M "P N M A"
_symmetry_group_IT_number 62
_symmetry_cell_setting 'orthorhombic'
loop_
_space_group_symop_operation_xyz
x,y,z
1/2-x,-y,1/2+z
1/2+x,1/2-y,1/2-z
-x,1/2+y,-z
-x,-y,-z
1/2+x,y,1/2-z
1/2-x,1/2+y,1/2+z
x,1/2-y,z
loop_
_atom_site_type_symbol
_atom_site_label
_atom_site_fract_x
_atom_site_fract_y
_atom_site_fract_z
Si Si1 0.551161 0.571321 0.092217
Si Si2 0.961682 0.571798 0.209857
Si Si3 0.224811 0.932056 0.909384
Si Si4 0.594428 0.433240 0.437323
O O1 0.577849 0.750000 0.074535
O O2 0.467552 0.551441 0.177729
O O3 0.658187 0.482850 0.121154
O O4 0.500000 0.500000 0.000000
O O5 0.952082 0.750000 0.179891
O O6 0.857933 0.484337 0.171122
O O7 0.072045 0.502201 0.166491
O O8 0.217845 0.750000 0.919809
O O9 0.202079 0.007266 0.012691
O O10 0.500000 0.500000 0.500000
O O11 0.593871 0.250000 0.432602
#
# Coordination Sequence:
#
# PCOD8250599 Si02
#       4
#     8   8   8   8
#     4  11  25  43  62  86 120 158 197 244 296 351
#     4  10  21  39  62  88 119 155 198 246 296 351
#     4  11  22  38  62  89 120 157 197 243 295 351
#     4  10  18  32  57  87 118 150 191 241 289 343
#
# _framework density 20.766034999999999
#
# number of rings (size 3 to 8) (size 9 to 14) (size 15 to 20)
#    0.000    1.500    0.000    9.000    0.000    6.000 
#    0.000    2.500    0.000    0.000    0.000    0.000 
#    0.000    0.000    0.000    0.000    0.000    0.000 
#
# Total GULP energy -396778.921881 kJ/mol
# GULP energy per Si atom -12399.341309 kJ/mol
# Density = 2.071877 g / cm^3
# Si number density = 20.766035 Si / 1000 Ang^3
#
#
#
# Elastic Constant Matrix: (Units=GPa)
#
#
# Indices 1 2 3 4 5 6 
#
# 1 90.7528 35.1581 35.9443 0.0000 0.0000 0.0000
# 2 35.1581 179.1071 54.4653 0.0000 0.0000 0.0000
# 3 35.9443 54.4653 118.0334 0.0000 0.0000 0.0000
# 4 0.0000 0.0000 0.0000 35.3367 0.0000 0.0000
# 5 0.0000 0.0000 0.0000 0.0000 26.3899 0.0000
# 6 0.0000 0.0000 0.0000 0.0000 0.0000 35.7221
#
#
#
# Elastic Compliance Matrix: (Units=1/GPa)
#
#
# Indices 1 2 3 4 5 6 
#
# 1 0.012892 -0.001555 -0.003208 0.000000 0.000000 0.000000
# 2 -0.001555 0.006682 -0.002610 0.000000 0.000000 0.000000
# 3 -0.003208 -0.002610 0.010654 0.000000 0.000000 0.000000
# 4 0.000000 0.000000 0.000000 0.028299 0.000000 0.000000
# 5 0.000000 0.000000 0.000000 0.000000 0.037893 0.000000
# 6 0.000000 0.000000 0.000000 0.000000 0.000000 0.027994
#
#
# Mechanical properties :
#
#
# Convention : Reuss Voigt Hill
#
# Bulk Modulus (GPa) = 64.59472 71.00322 67.79897
# Shear Modulus (GPa) = 34.64495 36.97812 35.81154
#
# Velocity S-wave (km/s) = 4.08897 4.22441 4.15724
# Velocity P-wave (km/s) = 7.31207 7.61974 7.46749
#
# Compressibility (1/GPa) = 0.01548114
#
# Stress axis : x y z
#
# Youngs Moduli (GPa) = 77.56669 149.65275 93.86560
#
# Poissons Ratio (x) = 0.23271 0.30116
# Poissons Ratio (y) = 0.12062 0.24498
# Poissons Ratio (z) = 0.24887 0.39057
#
# Static dielectric constant tensor:
#      x y z
#    x 3.755670 0.000000 0.000000 
#    y 0.000000 3.955260 0.000000 
#    z 0.000000 0.000000 4.161220 
# 
# 
# High freq. dielectric constant tensor:
#      x y z
#    x 1.796310 0.000000 0.000000 
#    y 0.000000 1.833310 0.000000 
#    z 0.000000 0.000000 1.814180 
# 
# From -- ./inp_files/17577.got.cif
#   From: 2010.03.12/outbox.cif.g09.slc.cpg/sg62_9_cif.got.tgz:17577.got - 2010.04.10 19:12:36.
