data_PCOD8250238
_publ_section_title
;
Structure prediction by ZEFSAII (Michael W. Deem and Ramdas Pophale) SiO2 
 PCOD8250238
Probable space group: P N M A
;
_chemical_formula_sum "Si O2"
_cell_formula_units_Z 44
_cell_length_a 11.220474
_cell_length_b 7.739486
_cell_length_c 27.257080
_cell_angle_alpha 90.000000
_cell_angle_beta 90.000000
_cell_angle_gamma 90.000000
_cell_volume 2367.023946
_symmetry_space_group_name_H-M "P N M A"
_symmetry_group_IT_number 62
_symmetry_cell_setting 'orthorhombic'
loop_
_space_group_symop_operation_xyz
x,y,z
1/2-x,-y,1/2+z
1/2+x,1/2-y,1/2-z
-x,1/2+y,-z
-x,-y,-z
1/2+x,y,1/2-z
1/2-x,1/2+y,1/2+z
x,1/2-y,z
loop_
_atom_site_type_symbol
_atom_site_label
_atom_site_fract_x
_atom_site_fract_y
_atom_site_fract_z
Si Si1 0.828171 0.558128 0.115755
Si Si2 0.367284 0.750000 0.144141
Si Si3 0.750649 0.050092 0.410731
Si Si4 0.635634 0.047587 0.508817
Si Si5 0.140911 0.750000 0.333100
Si Si6 0.950337 0.939929 0.832304
Si Si7 0.657395 0.750000 0.279429
O O1 0.887543 0.750000 0.110806
O O2 0.819800 0.473159 0.061379
O O3 0.696494 0.579236 0.140015
O O4 0.912033 0.446812 0.151158
O O5 0.350026 0.576458 0.112002
O O6 0.499970 0.750000 0.164599
O O7 0.280806 0.750000 0.190955
O O8 0.795701 0.250000 0.409812
O O9 0.720385 0.978379 0.465164
O O10 0.629099 0.029475 0.380350
O O11 0.650793 0.250000 0.507239
O O12 0.500000 0.000000 0.500000
O O13 0.187495 0.750000 0.277592
O O14 0.926696 0.750000 0.809657
O O15 0.920621 0.080466 0.791125
#
# Coordination Sequence:
#
# PCOD8250238 Si02
#       7
#     8   4   8   8   4   8   4
#     4   9  19  34  55  82 122 147 184 241 289 343
#     4  10  22  38  60  80 112 158 204 235 283 364
#     4   9  19  34  55  86 114 149 192 237 286 349
#     4  10  18  28  53  85 118 151 180 233 298 339
#     4  10  23  40  61  80 114 161 204 240 295 342
#     4  10  18  33  58  89 115 141 185 244 297 346
#     4  10  21  38  63  80 110 153 198 243 302 340
#
# _framework density 18.588743000000001
#
# number of rings (size 3 to 8) (size 9 to 14) (size 15 to 20)
#    0.545    1.818    2.727    0.000    3.818    0.000 
#    0.000    3.636    0.000    0.000    0.000    0.000 
#    0.000    0.000    0.000    0.000    0.000    0.000 
#
# Total GULP energy -545315.972457 kJ/mol
# GULP energy per Si atom -12393.544829 kJ/mol
# Density = 1.854643 g / cm^3
# Si number density = 18.588743 Si / 1000 Ang^3
#
#
#
# Elastic Constant Matrix: (Units=GPa)
#
#
# Indices 1 2 3 4 5 6 
#
# 1 91.1735 27.3350 45.9386 0.0000 0.0000 0.0000
# 2 27.3350 80.7174 33.2733 0.0000 0.0000 0.0000
# 3 45.9386 33.2733 134.1385 0.0000 0.0000 0.0000
# 4 0.0000 0.0000 0.0000 14.2371 0.0000 0.0000
# 5 0.0000 0.0000 0.0000 0.0000 24.7068 0.0000
# 6 0.0000 0.0000 0.0000 0.0000 0.0000 19.5624
#
#
#
# Elastic Compliance Matrix: (Units=1/GPa)
#
#
# Indices 1 2 3 4 5 6 
#
# 1 0.013902 -0.003058 -0.004002 0.000000 0.000000 0.000000
# 2 -0.003058 0.014473 -0.002543 0.000000 0.000000 0.000000
# 3 -0.004002 -0.002543 0.009456 0.000000 0.000000 0.000000
# 4 0.000000 0.000000 0.000000 0.070239 0.000000 0.000000
# 5 0.000000 0.000000 0.000000 0.000000 0.040475 0.000000
# 6 0.000000 0.000000 0.000000 0.000000 0.000000 0.051118
#
#
# Mechanical properties :
#
#
# Convention : Reuss Voigt Hill
#
# Bulk Modulus (GPa) = 53.69248 57.68036 55.68642
# Shear Modulus (GPa) = 22.21464 25.00009 23.60737
#
# Velocity S-wave (km/s) = 3.46071 3.67127 3.56755
# Velocity P-wave (km/s) = 6.70193 7.00486 6.85507
#
# Compressibility (1/GPa) = 0.01862458
#
# Stress axis : x y z
#
# Youngs Moduli (GPa) = 71.93457 69.09595 105.74858
#
# Poissons Ratio (x) = 0.21129 0.42324
# Poissons Ratio (y) = 0.21997 0.26889
# Poissons Ratio (z) = 0.28791 0.17569
#
# Static dielectric constant tensor:
#      x y z
#    x 2.982640 0.000000 0.000000 
#    y 0.000000 3.458180 0.000000 
#    z 0.000000 0.000000 3.535660 
# 
# 
# High freq. dielectric constant tensor:
#      x y z
#    x 1.684420 0.000000 0.000000 
#    y 0.000000 1.712920 0.000000 
#    z 0.000000 0.000000 1.722090 
# 
# From -- ./inp_files/29207.got.cif
#   From: 2010.03.12/outbox.cif.g09.slc.cpg/sg62_15_cif.got.tgz:29207.got - 2010.04.10 19:12:36.
