data_PCOD8250490
_publ_section_title
;
Structure prediction by ZEFSAII (Michael W. Deem and Ramdas Pophale) SiO2 
 PCOD8250490
Probable space group: P N M A
;
_chemical_formula_sum "Si O2"
_cell_formula_units_Z 64
_cell_length_a 33.110172
_cell_length_b 9.343519
_cell_length_c 11.927852
_cell_angle_alpha 90.000000
_cell_angle_beta 90.000000
_cell_angle_gamma 90.000000
_cell_volume 3690.066150
_symmetry_space_group_name_H-M "P N M A"
_symmetry_group_IT_number 62
_symmetry_cell_setting 'orthorhombic'
loop_
_space_group_symop_operation_xyz
x,y,z
1/2-x,-y,1/2+z
1/2+x,1/2-y,1/2-z
-x,1/2+y,-z
-x,-y,-z
1/2+x,y,1/2-z
1/2-x,1/2+y,1/2+z
x,1/2-y,z
loop_
_atom_site_type_symbol
_atom_site_label
_atom_site_fract_x
_atom_site_fract_y
_atom_site_fract_z
Si Si1 0.885519 0.415761 0.733681
Si Si2 0.171026 0.082265 0.115324
Si Si3 0.311977 0.582772 0.365340
Si Si4 0.953373 0.082669 0.382768
Si Si5 0.660454 0.086812 0.051724
Si Si6 0.875945 0.914441 0.317293
Si Si7 0.765446 0.912942 0.694615
Si Si8 0.030622 0.586861 0.362593
O O1 0.873181 0.250000 0.740907
O O2 0.868628 0.498557 0.841959
O O3 0.867723 0.479268 0.619382
O O4 0.933957 0.434031 0.728460
O O5 0.160757 0.250000 0.116413
O O6 0.208566 0.046096 0.195756
O O7 0.181483 0.026638 0.991429
O O8 0.302943 0.750000 0.364095
O O9 0.351972 0.545338 0.295152
O O10 0.273648 0.510252 0.308541
O O11 0.953122 0.250000 0.357602
O O12 0.952090 0.046602 0.514671
O O13 0.914857 0.014098 0.322998
O O14 0.993825 0.015780 0.328799
O O15 0.648635 0.250000 0.084936
O O16 0.707243 0.060349 0.083888
O O17 0.654550 0.057601 0.920577
O O18 0.890366 0.750000 0.316411
O O19 0.750773 0.750000 0.701560
O O20 0.014920 0.750000 0.363992
#
# Coordination Sequence:
#
# PCOD8250490 Si02
#       8
#     8   8   8   8   8   8   8   8
#     4  10  18  31  53  79 103 131 170 212 253 300
#     4   9  20  38  53  72 104 137 172 213 259 308
#     4  10  22  37  54  75 100 138 179 213 256 311
#     4  10  19  31  49  76 109 139 170 208 255 311
#     4   9  18  32  50  73 104 137 168 206 258 311
#     4  10  20  34  52  74 104 142 175 210 258 310
#     4   9  19  34  52  74 101 133 169 217 263 301
#     4   9  18  31  48  76 109 137 166 206 255 308
#
# _framework density 17.343862000000001
#
# number of rings (size 3 to 8) (size 9 to 14) (size 15 to 20)
#    0.000    2.500    1.250    1.500    1.750    4.500 
#    0.000    0.000    0.000    0.750    0.000    0.000 
#    0.000    0.000    0.000    0.000    0.000    0.000 
#
# Total GULP energy -793671.190967 kJ/mol
# GULP energy per Si atom -12401.112359 kJ/mol
# Density = 1.730439 g / cm^3
# Si number density = 17.343862 Si / 1000 Ang^3
#
#
#
# Elastic Constant Matrix: (Units=GPa)
#
#
# Indices 1 2 3 4 5 6 
#
# 1 118.8381 67.6131 50.1889 0.0000 0.0000 0.0000
# 2 67.6131 83.2662 40.5223 0.0000 0.0000 0.0000
# 3 50.1889 40.5223 93.8932 0.0000 0.0000 0.0000
# 4 0.0000 0.0000 0.0000 18.5574 0.0000 0.0000
# 5 0.0000 0.0000 0.0000 0.0000 18.8785 0.0000
# 6 0.0000 0.0000 0.0000 0.0000 0.0000 36.7482
#
#
#
# Elastic Compliance Matrix: (Units=1/GPa)
#
#
# Indices 1 2 3 4 5 6 
#
# 1 0.016692 -0.011661 -0.003890 0.000000 0.000000 0.000000
# 2 -0.011661 0.023349 -0.003844 0.000000 0.000000 0.000000
# 3 -0.003890 -0.003844 0.014388 0.000000 0.000000 0.000000
# 4 0.000000 0.000000 0.000000 0.053887 0.000000 0.000000
# 5 0.000000 0.000000 0.000000 0.000000 0.052970 0.000000
# 6 0.000000 0.000000 0.000000 0.000000 0.000000 0.027212
#
#
# Mechanical properties :
#
#
# Convention : Reuss Voigt Hill
#
# Bulk Modulus (GPa) = 63.93672 68.07178 66.00425
# Shear Modulus (GPa) = 21.50511 24.01504 22.76008
#
# Velocity S-wave (km/s) = 3.52508 3.72511 3.62648
# Velocity P-wave (km/s) = 7.31522 7.60497 7.46150
#
# Compressibility (1/GPa) = 0.01564047
#
# Stress axis : x y z
#
# Youngs Moduli (GPa) = 59.90779 42.82767 69.49997
#
# Poissons Ratio (x) = 0.49943 0.27034
# Poissons Ratio (y) = 0.69860 0.26714
# Poissons Ratio (z) = 0.23303 0.16462
#
# Static dielectric constant tensor:
#      x y z
#    x 3.131190 0.000000 0.000000 
#    y 0.000000 3.216950 0.000000 
#    z 0.000000 0.000000 3.157320 
# 
# 
# High freq. dielectric constant tensor:
#      x y z
#    x 1.665880 0.000000 0.000000 
#    y 0.000000 1.673010 0.000000 
#    z 0.000000 0.000000 1.646730 
# 
# From -- ./inp_files/15862.got.cif
#   From: 2010.03.12/outbox.cif.g09.slc.cpg/sg62_8_cif.got.tgz:15862.got - 2010.04.10 19:12:36.
