data_PCOD8250693
_publ_section_title
;
Structure prediction by ZEFSAII (Michael W. Deem and Ramdas Pophale) SiO2 
 PCOD8250693
Probable space group: P N M A
;
_chemical_formula_sum "Si O2"
_cell_formula_units_Z 64
_cell_length_a 20.600301
_cell_length_b 9.020695
_cell_length_c 19.606729
_cell_angle_alpha 90.000000
_cell_angle_beta 90.000000
_cell_angle_gamma 90.000000
_cell_volume 3643.499475
_symmetry_space_group_name_H-M "P N M A"
_symmetry_group_IT_number 62
_symmetry_cell_setting 'orthorhombic'
loop_
_space_group_symop_operation_xyz
x,y,z
1/2-x,-y,1/2+z
1/2+x,1/2-y,1/2-z
-x,1/2+y,-z
-x,-y,-z
1/2+x,y,1/2-z
1/2-x,1/2+y,1/2+z
x,1/2-y,z
loop_
_atom_site_type_symbol
_atom_site_label
_atom_site_fract_x
_atom_site_fract_y
_atom_site_fract_z
Si Si1 0.307145 0.573866 0.210901
Si Si2 0.190572 0.424243 0.291415
Si Si3 0.770412 0.421917 0.425208
Si Si4 0.381955 0.578750 0.567519
Si Si5 0.922939 0.075680 0.213880
Si Si6 0.068016 0.424929 0.208547
Si Si7 0.728736 0.078998 0.060112
Si Si8 0.122091 0.920821 0.933432
O O1 0.303232 0.750000 0.211188
O O2 0.249161 0.510068 0.256231
O O3 0.304354 0.514594 0.134067
O O4 0.375867 0.522032 0.240461
O O5 0.202231 0.250000 0.277419
O O6 0.122318 0.482930 0.261349
O O7 0.187711 0.457107 0.372082
O O8 0.787987 0.250000 0.416671
O O9 0.693956 0.451245 0.421116
O O10 0.797500 0.479191 0.497961
O O11 0.397690 0.750000 0.559415
O O12 0.418734 0.509264 0.632954
O O13 0.407791 0.504077 0.498501
O O14 0.907678 0.250000 0.224530
O O15 0.915514 0.032003 0.134616
O O16 0.996474 0.033108 0.235127
O O17 0.075263 0.250000 0.202257
O O18 0.722014 0.250000 0.038649
O O19 0.802801 0.038000 0.077389
O O20 0.112462 0.750000 0.949066
#
# Coordination Sequence:
#
# PCOD8250693 Si02
#       8
#     8   8   8   8   8   8   8   8
#     4  12  23  34  53  80 107 138 179 223 264 310
#     4  10  18  35  58  80 106 140 177 219 267 316
#     4  10  19  33  54  77 106 137 171 218 267 313
#     4   9  17  30  49  74 104 137 175 214 251 305
#     4  10  20  36  54  74 104 144 181 217 262 316
#     4   9  18  33  55  78 102 138 183 217 257 316
#     4   9  17  30  51  78 107 134 168 214 265 315
#     4   9  17  29  46  71 104 141 175 208 253 307
#
# _framework density 17.565529999999999
#
# number of rings (size 3 to 8) (size 9 to 14) (size 15 to 20)
#    0.000    2.250    2.500    1.500    0.000    2.000 
#    0.000    1.250    0.000    0.750    0.000    0.000 
#    0.000    0.000    0.000    0.000    0.000    0.000 
#
# Total GULP energy -793570.128019 kJ/mol
# GULP energy per Si atom -12399.533250 kJ/mol
# Density = 1.752555 g / cm^3
# Si number density = 17.565530 Si / 1000 Ang^3
#
#
#
# Elastic Constant Matrix: (Units=GPa)
#
#
# Indices 1 2 3 4 5 6 
#
# 1 89.0988 39.2056 56.8093 0.0000 0.0000 0.0000
# 2 39.2056 69.3750 55.1012 0.0000 0.0000 0.0000
# 3 56.8093 55.1012 121.6159 0.0000 0.0000 0.0000
# 4 0.0000 0.0000 0.0000 30.9686 0.0000 0.0000
# 5 0.0000 0.0000 0.0000 0.0000 23.7895 0.0000
# 6 0.0000 0.0000 0.0000 0.0000 0.0000 8.7425
#
#
#
# Elastic Compliance Matrix: (Units=1/GPa)
#
#
# Indices 1 2 3 4 5 6 
#
# 1 0.017100 -0.005185 -0.005639 0.000000 0.000000 0.000000
# 2 -0.005185 0.024090 -0.008492 0.000000 0.000000 0.000000
# 3 -0.005639 -0.008492 0.014704 0.000000 0.000000 0.000000
# 4 0.000000 0.000000 0.000000 0.032291 0.000000 0.000000
# 5 0.000000 0.000000 0.000000 0.000000 0.042035 0.000000
# 6 0.000000 0.000000 0.000000 0.000000 0.000000 0.114383
#
#
# Mechanical properties :
#
#
# Convention : Reuss Voigt Hill
#
# Bulk Modulus (GPa) = 57.93139 64.70243 61.31691
# Shear Modulus (GPa) = 17.30161 21.29836 19.29998
#
# Velocity S-wave (km/s) = 3.14184 3.48589 3.31832
# Velocity P-wave (km/s) = 6.79803 7.28812 7.04734
#
# Compressibility (1/GPa) = 0.01726180
#
# Stress axis : x y z
#
# Youngs Moduli (GPa) = 58.47845 41.51124 68.00807
#
# Poissons Ratio (x) = 0.21525 0.38346
# Poissons Ratio (y) = 0.30324 0.57755
# Poissons Ratio (z) = 0.32973 0.35253
#
# Static dielectric constant tensor:
#      x y z
#    x 3.166100 0.000000 0.000000 
#    y 0.000000 3.131420 0.000000 
#    z 0.000000 0.000000 3.465440 
# 
# 
# High freq. dielectric constant tensor:
#      x y z
#    x 1.654830 0.000000 0.000000 
#    y 0.000000 1.661630 0.000000 
#    z 0.000000 0.000000 1.686740 
# 
# From -- ./inp_files/27891.got.cif
#   From: 2010.03.12/outbox.cif.g09.slc.cpg/sg62_14_cif.got.tgz:27891.got - 2010.04.10 19:12:36.
