data_PCOD8250068
_publ_section_title
;
Structure prediction by ZEFSAII (Michael W. Deem and Ramdas Pophale) SiO2 
 PCOD8250068
Probable space group: P N M A
;
_chemical_formula_sum "Si O2"
_cell_formula_units_Z 64
_cell_length_a 18.011658
_cell_length_b 21.480496
_cell_length_c 9.290872
_cell_angle_alpha 90.000000
_cell_angle_beta 90.000000
_cell_angle_gamma 90.000000
_cell_volume 3594.632316
_symmetry_space_group_name_H-M "P N M A"
_symmetry_group_IT_number 62
_symmetry_cell_setting 'orthorhombic'
loop_
_space_group_symop_operation_xyz
x,y,z
1/2-x,-y,1/2+z
1/2+x,1/2-y,1/2-z
-x,1/2+y,-z
-x,-y,-z
1/2+x,y,1/2-z
1/2-x,1/2+y,1/2+z
x,1/2-y,z
loop_
_atom_site_type_symbol
_atom_site_label
_atom_site_fract_x
_atom_site_fract_y
_atom_site_fract_z
Si Si1 0.564892 0.398184 0.824684
Si Si2 0.841191 0.394409 0.895164
Si Si3 0.621923 0.050726 0.115372
Si Si4 0.663179 0.585383 0.995944
Si Si5 0.969284 0.489890 0.839443
Si Si6 0.712194 0.931192 0.682751
Si Si7 0.576353 0.678398 0.177391
Si Si8 0.288071 0.574397 0.301078
O O1 0.532317 0.462973 0.764775
O O2 0.509272 0.340962 0.794704
O O3 0.638716 0.385088 0.730259
O O4 0.585675 0.405607 0.993062
O O5 0.902196 0.442853 0.846899
O O6 0.869425 0.331105 0.817305
O O7 0.762845 0.422203 0.841405
O O8 0.831777 0.389012 0.065903
O O9 0.699295 0.079501 0.172727
O O10 0.565209 0.049119 0.252773
O O11 0.636177 0.982730 0.045750
O O12 0.675861 0.592375 0.828412
O O13 0.603123 0.636261 0.043917
O O14 0.742414 0.603094 0.066925
O O15 0.000000 0.500000 0.000000
O O16 0.691216 0.003327 0.662036
O O17 0.579150 0.750000 0.133205
#
# Coordination Sequence:
#
# PCOD8250068 Si02
#       8
#     8   8   8   8   8   8   8   8
#     4  11  20  34  56  78 118 150 185 226 283 336
#     4  10  19  36  52  83 110 148 187 221 276 332
#     4  11  20  33  52  88 125 147 172 223 286 359
#     4  10  20  34  57  83 116 150 182 225 284 335
#     4  11  22  30  48  82 121 154 179 213 275 344
#     4  11  18  30  57  87 119 144 171 224 286 337
#     4  10  23  42  58  74 104 148 202 241 273 331
#     4  10  17  31  54  85 120 147 175 221 273 350
#
# _framework density 17.804323
#
# number of rings (size 3 to 8) (size 9 to 14) (size 15 to 20)
#    0.000    1.500    7.500    1.875    1.750    0.000 
#    0.000    3.125    0.000    0.750    0.000    0.000 
#    0.000    0.000    0.000    0.000    0.000    0.000 
#
# Total GULP energy -793148.535626 kJ/mol
# GULP energy per Si atom -12392.945869 kJ/mol
# Density = 1.776380 g / cm^3
# Si number density = 17.804323 Si / 1000 Ang^3
#
#
#
# Elastic Constant Matrix: (Units=GPa)
#
#
# Indices 1 2 3 4 5 6 
#
# 1 91.1646 16.7704 21.7478 0.0000 0.0000 0.0000
# 2 16.7704 51.2256 6.2870 0.0000 0.0000 0.0000
# 3 21.7478 6.2870 110.5131 0.0000 0.0000 0.0000
# 4 0.0000 0.0000 0.0000 10.4189 0.0000 0.0000
# 5 0.0000 0.0000 0.0000 0.0000 34.1186 0.0000
# 6 0.0000 0.0000 0.0000 0.0000 0.0000 10.1323
#
#
#
# Elastic Compliance Matrix: (Units=1/GPa)
#
#
# Indices 1 2 3 4 5 6 
#
# 1 0.012174 -0.003718 -0.002184 0.000000 0.000000 0.000000
# 2 -0.003718 0.020794 -0.000451 0.000000 0.000000 0.000000
# 3 -0.002184 -0.000451 0.009504 0.000000 0.000000 0.000000
# 4 0.000000 0.000000 0.000000 0.095979 0.000000 0.000000
# 5 0.000000 0.000000 0.000000 0.000000 0.029310 0.000000
# 6 0.000000 0.000000 0.000000 0.000000 0.000000 0.098695
#
#
# Mechanical properties :
#
#
# Convention : Reuss Voigt Hill
#
# Bulk Modulus (GPa) = 33.59540 38.05707 35.82624
# Shear Modulus (GPa) = 17.29602 24.80717 21.05159
#
# Velocity S-wave (km/s) = 3.12019 3.73677 3.44232
# Velocity P-wave (km/s) = 5.64721 6.32768 5.99711
#
# Compressibility (1/GPa) = 0.02976598
#
# Stress axis : x y z
#
# Youngs Moduli (GPa) = 82.14168 48.09092 105.21649
#
# Poissons Ratio (x) = 0.17878 0.22982
# Poissons Ratio (y) = 0.30536 0.04749
# Poissons Ratio (z) = 0.17942 0.02171
#
# Static dielectric constant tensor:
#      x y z
#    x 3.833920 0.000000 0.000000 
#    y 0.000000 2.793420 0.000000 
#    z 0.000000 0.000000 3.219360 
# 
# 
# High freq. dielectric constant tensor:
#      x y z
#    x 1.712150 0.000000 0.000000 
#    y 0.000000 1.609640 0.000000 
#    z 0.000000 0.000000 1.697920 
# 
# From -- ./inp_files/8158.got.cif
#   From: 2010.03.12/outbox.cif.g09.slc.cpg/sg62_5_cif.got.tgz:8158.got - 2010.04.10 19:12:36.
