data_PCOD8250992
_publ_section_title
;
Structure prediction by ZEFSAII (Michael W. Deem and Ramdas Pophale) SiO2 
 PCOD8250992
Probable space group: P N M A
;
_chemical_formula_sum "Si O2"
_cell_formula_units_Z 64
_cell_length_a 25.871480
_cell_length_b 12.602646
_cell_length_c 11.769817
_cell_angle_alpha 90.000000
_cell_angle_beta 90.000000
_cell_angle_gamma 90.000000
_cell_volume 3837.538286
_symmetry_space_group_name_H-M "P N M A"
_symmetry_group_IT_number 62
_symmetry_cell_setting 'orthorhombic'
loop_
_space_group_symop_operation_xyz
x,y,z
1/2-x,-y,1/2+z
1/2+x,1/2-y,1/2-z
-x,1/2+y,-z
-x,-y,-z
1/2+x,y,1/2-z
1/2-x,1/2+y,1/2+z
x,1/2-y,z
loop_
_atom_site_type_symbol
_atom_site_label
_atom_site_fract_x
_atom_site_fract_y
_atom_site_fract_z
Si Si1 0.396273 0.124072 0.235067
Si Si2 0.001830 0.996951 0.684337
Si Si3 0.660545 0.494871 0.952793
Si Si4 0.739678 0.626211 0.385718
Si Si5 0.426009 0.371558 0.680427
Si Si6 0.143037 0.624228 0.977633
Si Si7 0.672577 0.869266 0.168449
Si Si8 0.940604 0.874849 0.503112
O O1 0.399836 0.250000 0.228461
O O2 0.453656 0.077585 0.233919
O O3 0.368545 0.085060 0.350629
O O4 0.363549 0.083813 0.128652
O O5 0.959805 0.924708 0.620937
O O6 0.023756 0.085721 0.599713
O O7 0.975271 0.056482 0.789875
O O8 0.707979 0.439450 0.890645
O O9 0.618660 0.405722 0.982781
O O10 0.681000 0.550133 0.066134
O O11 0.752192 0.750000 0.401733
O O12 0.699927 0.585736 0.483449
O O13 0.714477 0.603146 0.263991
O O14 0.444120 0.250000 0.664532
O O15 0.400820 0.417839 0.564632
O O16 0.385101 0.379524 0.782843
O O17 0.142169 0.750000 0.988882
O O18 0.681411 0.750000 0.123680
O O19 0.945800 0.750000 0.511350
#
# Coordination Sequence:
#
# PCOD8250992 Si02
#       8
#     8   8   8   8   8   8   8   8
#     4  10  21  34  48  74 106 133 164 202 249 301
#     4  10  19  31  49  75  97 135 170 201 254 290
#     4  11  20  31  54  76  97 132 166 201 253 300
#     4   9  19  34  53  74  98 128 164 207 248 291
#     4   9  16  31  54  75  97 128 171 208 236 288
#     4   8  17  34  52  72 100 131 164 204 244 289
#     4   9  18  33  51  75 100 125 164 208 244 290
#     4  10  20  32  45  71 107 131 161 208 251 298
#
# _framework density 16.677358000000002
#
# number of rings (size 3 to 8) (size 9 to 14) (size 15 to 20)
#    0.000    2.500    1.250    3.000    1.750    0.500 
#    0.000    0.000    0.000    0.000    0.000    2.625 
#    0.000    0.000    0.000    0.000    0.000    0.000 
#
# Total GULP energy -793628.628200 kJ/mol
# GULP energy per Si atom -12400.447316 kJ/mol
# Density = 1.663940 g / cm^3
# Si number density = 16.677358 Si / 1000 Ang^3
#
#
#
# Elastic Constant Matrix: (Units=GPa)
#
#
# Indices 1 2 3 4 5 6 
#
# 1 105.0318 43.6150 34.0391 0.0000 0.0000 0.0000
# 2 43.6150 79.7251 31.7595 0.0000 0.0000 0.0000
# 3 34.0391 31.7595 66.9108 0.0000 0.0000 0.0000
# 4 0.0000 0.0000 0.0000 23.6406 0.0000 0.0000
# 5 0.0000 0.0000 0.0000 0.0000 21.3098 0.0000
# 6 0.0000 0.0000 0.0000 0.0000 0.0000 21.7222
#
#
#
# Elastic Compliance Matrix: (Units=1/GPa)
#
#
# Indices 1 2 3 4 5 6 
#
# 1 0.013149 -0.005584 -0.004038 0.000000 0.000000 0.000000
# 2 -0.005584 0.017840 -0.005627 0.000000 0.000000 0.000000
# 3 -0.004038 -0.005627 0.019670 0.000000 0.000000 0.000000
# 4 0.000000 0.000000 0.000000 0.042300 0.000000 0.000000
# 5 0.000000 0.000000 0.000000 0.000000 0.046927 0.000000
# 6 0.000000 0.000000 0.000000 0.000000 0.000000 0.046036
#
#
# Mechanical properties :
#
#
# Convention : Reuss Voigt Hill
#
# Bulk Modulus (GPa) = 49.60398 52.27721 50.94060
# Shear Modulus (GPa) = 22.40743 22.81814 22.61279
#
# Velocity S-wave (km/s) = 3.66947 3.70295 3.68625
# Velocity P-wave (km/s) = 6.91095 7.04959 6.98061
#
# Compressibility (1/GPa) = 0.02015967
#
# Stress axis : x y z
#
# Youngs Moduli (GPa) = 76.05332 56.05490 50.83786
#
# Poissons Ratio (x) = 0.31304 0.20530
# Poissons Ratio (y) = 0.42472 0.28605
# Poissons Ratio (z) = 0.30713 0.31540
#
# Static dielectric constant tensor:
#      x y z
#    x 3.114420 0.000000 0.000000 
#    y 0.000000 2.920500 0.000000 
#    z 0.000000 0.000000 3.162840 
# 
# 
# High freq. dielectric constant tensor:
#      x y z
#    x 1.643850 0.000000 0.000000 
#    y 0.000000 1.628360 0.000000 
#    z 0.000000 0.000000 1.641560 
# 
# From -- ./inp_files/15290.got.cif
#   From: 2010.03.12/outbox.cif.g09.slc.cpg/sg62_8_cif.got.tgz:15290.got - 2010.04.10 19:12:36.
