data_PCOD8250562
_publ_section_title
;
Structure prediction by ZEFSAII (Michael W. Deem and Ramdas Pophale) SiO2 
 PCOD8250562
Probable space group: P N M A
;
_chemical_formula_sum "Si O2"
_cell_formula_units_Z 64
_cell_length_a 19.992980
_cell_length_b 9.012267
_cell_length_c 19.998288
_cell_angle_alpha 90.000000
_cell_angle_beta 90.000000
_cell_angle_gamma 90.000000
_cell_volume 3603.333006
_symmetry_space_group_name_H-M "P N M A"
_symmetry_group_IT_number 62
_symmetry_cell_setting 'orthorhombic'
loop_
_space_group_symop_operation_xyz
x,y,z
1/2-x,-y,1/2+z
1/2+x,1/2-y,1/2-z
-x,1/2+y,-z
-x,-y,-z
1/2+x,y,1/2-z
1/2-x,1/2+y,1/2+z
x,1/2-y,z
loop_
_atom_site_type_symbol
_atom_site_label
_atom_site_fract_x
_atom_site_fract_y
_atom_site_fract_z
Si Si1 0.672169 0.573572 0.661002
Si Si2 0.426858 0.926168 0.722646
Si Si3 0.071620 0.575870 0.723891
Si Si4 0.447689 0.922281 0.091869
Si Si5 0.321907 0.575723 0.831300
Si Si6 0.558687 0.923922 0.414830
Si Si7 0.917749 0.921981 0.554787
Si Si8 0.908226 0.576030 0.047625
O O1 0.669136 0.750000 0.650417
O O2 0.626246 0.522291 0.722603
O O3 0.746939 0.513485 0.675429
O O4 0.648124 0.495597 0.593669
O O5 0.424496 0.750000 0.711718
O O6 0.498547 0.974980 0.751780
O O7 0.370035 0.986381 0.773117
O O8 0.413168 0.006948 0.653019
O O9 0.074909 0.750000 0.713101
O O10 0.089674 0.500745 0.653285
O O11 0.451955 0.750000 0.107728
O O12 0.522335 0.982337 0.084246
O O13 0.406112 0.954437 0.023763
O O14 0.319469 0.750000 0.822395
O O15 0.351123 0.534202 0.904504
O O16 0.573386 0.750000 0.416909
O O17 0.480064 0.959415 0.419986
O O18 0.597995 0.001137 0.475267
O O19 0.936808 0.750000 0.566692
O O20 0.895766 0.750000 0.040061
#
# Coordination Sequence:
#
# PCOD8250562 Si02
#       8
#     8   8   8   8   8   8   8   8
#     4  10  20  35  55  77 102 139 181 216 257 315
#     4  10  18  32  54  78 104 138 175 216 263 310
#     4  10  19  32  52  76 104 137 173 213 259 309
#     4  10  19  29  50  79 104 130 169 217 259 302
#     4   9  18  34  55  75 102 141 177 210 258 320
#     4  10  20  33  53  80 107 134 171 219 264 309
#     4   9  17  33  52  74 103 136 171 211 262 312
#     4  10  20  34  53  78 107 137 170 216 266 312
#
# _framework density 17.761333
#
# number of rings (size 3 to 8) (size 9 to 14) (size 15 to 20)
#    0.000    2.250    2.500    1.125    0.000    2.500 
#    0.000    2.500    0.000    3.000    0.000    0.000 
#    0.000    0.000    0.000    0.000    0.000    0.000 
#
# Total GULP energy -793660.489650 kJ/mol
# GULP energy per Si atom -12400.945151 kJ/mol
# Density = 1.772091 g / cm^3
# Si number density = 17.761333 Si / 1000 Ang^3
#
#
#
# Elastic Constant Matrix: (Units=GPa)
#
#
# Indices 1 2 3 4 5 6 
#
# 1 124.2156 32.0966 79.1210 0.0000 0.0000 0.0000
# 2 32.0966 47.5682 50.1291 0.0000 0.0000 0.0000
# 3 79.1210 50.1291 166.0528 0.0000 0.0000 0.0000
# 4 0.0000 0.0000 0.0000 36.2689 0.0000 0.0000
# 5 0.0000 0.0000 0.0000 0.0000 27.1421 0.0000
# 6 0.0000 0.0000 0.0000 0.0000 0.0000 14.5696
#
#
#
# Elastic Compliance Matrix: (Units=1/GPa)
#
#
# Indices 1 2 3 4 5 6 
#
# 1 0.011843 -0.002998 -0.004738 0.000000 0.000000 0.000000
# 2 -0.002998 0.031590 -0.008108 0.000000 0.000000 0.000000
# 3 -0.004738 -0.008108 0.010727 0.000000 0.000000 0.000000
# 4 0.000000 0.000000 0.000000 0.027572 0.000000 0.000000
# 5 0.000000 0.000000 0.000000 0.000000 0.036843 0.000000
# 6 0.000000 0.000000 0.000000 0.000000 0.000000 0.068636
#
#
# Mechanical properties :
#
#
# Convention : Reuss Voigt Hill
#
# Bulk Modulus (GPa) = 44.49914 73.39220 58.94567
# Shear Modulus (GPa) = 22.08572 27.36212 24.72392
#
# Velocity S-wave (km/s) = 3.53012 3.92923 3.73501
# Velocity P-wave (km/s) = 6.45941 7.87377 7.20139
#
# Compressibility (1/GPa) = 0.02247235
#
# Stress axis : x y z
#
# Youngs Moduli (GPa) = 84.43736 31.65560 93.21917
#
# Poissons Ratio (x) = 0.09491 0.44166
# Poissons Ratio (y) = 0.25315 0.75582
# Poissons Ratio (z) = 0.40006 0.25666
#
# Static dielectric constant tensor:
#      x y z
#    x 3.268140 0.000000 0.000000 
#    y 0.000000 3.143220 0.000000 
#    z 0.000000 0.000000 3.464670 
# 
# 
# High freq. dielectric constant tensor:
#      x y z
#    x 1.659470 0.000000 0.000000 
#    y 0.000000 1.675610 0.000000 
#    z 0.000000 0.000000 1.702430 
# 
# From -- ./inp_files/27642.got.cif
#   From: 2010.03.12/outbox.cif.g09.slc.cpg/sg62_14_cif.got.tgz:27642.got - 2010.04.10 19:12:36.
