data_PCOD8250413
_publ_section_title
;
Structure prediction by ZEFSAII (Michael W. Deem and Ramdas Pophale) SiO2 
 PCOD8250413
Probable space group: P N M A
;
_chemical_formula_sum "Si O2"
_cell_formula_units_Z 64
_cell_length_a 9.523098
_cell_length_b 13.970968
_cell_length_c 25.800104
_cell_angle_alpha 90.000000
_cell_angle_beta 90.000000
_cell_angle_gamma 90.000000
_cell_volume 3432.623790
_symmetry_space_group_name_H-M "P N M A"
_symmetry_group_IT_number 62
_symmetry_cell_setting 'orthorhombic'
loop_
_space_group_symop_operation_xyz
x,y,z
1/2-x,-y,1/2+z
1/2+x,1/2-y,1/2-z
-x,1/2+y,-z
-x,-y,-z
1/2+x,y,1/2-z
1/2-x,1/2+y,1/2+z
x,1/2-y,z
loop_
_atom_site_type_symbol
_atom_site_label
_atom_site_fract_x
_atom_site_fract_y
_atom_site_fract_z
Si Si1 0.843134 0.512868 0.400380
Si Si2 0.933239 0.860252 0.600531
Si Si3 0.232848 0.148008 0.976807
Si Si4 0.547608 0.353425 0.986180
Si Si5 0.745797 0.360742 0.701238
Si Si6 0.925686 0.860092 0.304727
Si Si7 0.560874 0.452075 0.448250
Si Si8 0.194309 0.997193 0.887105
O O1 0.927379 0.561044 0.447258
O O2 0.858511 0.576441 0.349545
O O3 0.681855 0.511470 0.418328
O O4 0.914503 0.409305 0.390305
O O5 0.939482 0.750000 0.620288
O O6 0.876240 0.865869 0.541310
O O7 0.815696 0.923155 0.630275
O O8 0.202140 0.250000 0.948913
O O9 0.385324 0.147416 0.002173
O O10 0.229470 0.062698 0.936276
O O11 0.129985 0.142372 0.026946
O O12 0.590540 0.250000 0.961400
O O13 0.725354 0.250000 0.684563
O O14 0.668023 0.381535 0.754773
O O15 0.669389 0.430168 0.660217
O O16 0.911209 0.385787 0.705593
O O17 0.912825 0.750000 0.321676
O O18 0.500000 0.500000 0.500000
O O19 0.443458 0.436041 0.403894
#
# Coordination Sequence:
#
# PCOD8250413 Si02
#       8
#     8   8   8   8   8   8   8   8
#     4  12  20  37  58  82 116 155 199 238 287 356
#     4  11  22  35  57  83 109 149 199 247 283 331
#     4  10  18  32  54  81 115 151 190 233 286 349
#     4  10  18  30  54  83 111 146 189 235 280 335
#     4  10  21  39  62  90 122 151 189 240 297 356
#     4  10  22  38  61  92 120 150 187 237 295 354
#     4  10  23  34  50  80 119 156 193 233 284 341
#     4  11  21  38  55  83 114 158 194 234 291 347
#
# _framework density 18.644631
#
# number of rings (size 3 to 8) (size 9 to 14) (size 15 to 20)
#    0.000    1.500    3.750    2.625    1.750    2.500 
#    0.000    6.875    0.000    0.750    0.000    0.000 
#    0.000    0.000    0.000    0.000    0.000    0.000 
#
# Total GULP energy -792916.299124 kJ/mol
# GULP energy per Si atom -12389.317174 kJ/mol
# Density = 1.860220 g / cm^3
# Si number density = 18.644631 Si / 1000 Ang^3
#
#
#
# Elastic Constant Matrix: (Units=GPa)
#
#
# Indices 1 2 3 4 5 6 
#
# 1 93.0309 24.3250 27.7008 0.0000 0.0000 0.0000
# 2 24.3250 90.7859 24.5604 0.0000 0.0000 0.0000
# 3 27.7008 24.5604 73.4167 0.0000 0.0000 0.0000
# 4 0.0000 0.0000 0.0000 30.1582 0.0000 0.0000
# 5 0.0000 0.0000 0.0000 0.0000 25.9655 0.0000
# 6 0.0000 0.0000 0.0000 0.0000 0.0000 19.0186
#
#
#
# Elastic Compliance Matrix: (Units=1/GPa)
#
#
# Indices 1 2 3 4 5 6 
#
# 1 0.012526 -0.002284 -0.003962 0.000000 0.000000 0.000000
# 2 -0.002284 0.012528 -0.003329 0.000000 0.000000 0.000000
# 3 -0.003962 -0.003329 0.016229 0.000000 0.000000 0.000000
# 4 0.000000 0.000000 0.000000 0.033158 0.000000 0.000000
# 5 0.000000 0.000000 0.000000 0.000000 0.038513 0.000000
# 6 0.000000 0.000000 0.000000 0.000000 0.000000 0.052580
#
#
# Mechanical properties :
#
#
# Convention : Reuss Voigt Hill
#
# Bulk Modulus (GPa) = 45.18262 45.60064 45.39163
# Shear Modulus (GPa) = 26.03317 27.07162 26.55239
#
# Velocity S-wave (km/s) = 3.74074 3.81462 3.77786
# Velocity P-wave (km/s) = 6.55314 6.62666 6.59001
#
# Compressibility (1/GPa) = 0.02213240
#
# Stress axis : x y z
#
# Youngs Moduli (GPa) = 79.83299 79.82378 61.61636
#
# Poissons Ratio (x) = 0.18235 0.24413
# Poissons Ratio (y) = 0.18237 0.20512
# Poissons Ratio (z) = 0.31630 0.26573
#
# Static dielectric constant tensor:
#      x y z
#    x 3.727910 0.000000 0.000000 
#    y 0.000000 3.613530 0.000000 
#    z 0.000000 0.000000 3.245640 
# 
# 
# High freq. dielectric constant tensor:
#      x y z
#    x 1.725700 0.000000 0.000000 
#    y 0.000000 1.719890 0.000000 
#    z 0.000000 0.000000 1.696590 
# 
# From -- ./inp_files/28959.got.cif
#   From: 2010.03.12/outbox.cif.g09.slc.cpg/sg62_15_cif.got.tgz:28959.got - 2010.04.10 19:12:36.
