data_PCOD8250417
_publ_section_title
;
Structure prediction by ZEFSAII (Michael W. Deem and Ramdas Pophale) SiO2 
 PCOD8250417
Probable space group: P N M A
;
_chemical_formula_sum "Si O2"
_cell_formula_units_Z 48
_cell_length_a 9.019229
_cell_length_b 24.888498
_cell_length_c 13.827445
_cell_angle_alpha 90.000000
_cell_angle_beta 90.000000
_cell_angle_gamma 90.000000
_cell_volume 3103.916587
_symmetry_space_group_name_H-M "P N M A"
_symmetry_group_IT_number 62
_symmetry_cell_setting 'orthorhombic'
loop_
_space_group_symop_operation_xyz
x,y,z
1/2-x,-y,1/2+z
1/2+x,1/2-y,1/2-z
-x,1/2+y,-z
-x,-y,-z
1/2+x,y,1/2-z
1/2-x,1/2+y,1/2+z
x,1/2-y,z
loop_
_atom_site_type_symbol
_atom_site_label
_atom_site_fract_x
_atom_site_fract_y
_atom_site_fract_z
Si Si1 0.253499 0.690855 0.622177
Si Si2 0.109612 0.979243 0.693750
Si Si3 0.421271 0.190669 0.308902
Si Si4 0.100126 0.919102 0.879454
Si Si5 0.289647 0.917789 0.531157
Si Si6 0.796303 0.013722 0.641189
O O1 0.247643 0.750000 0.572646
O O2 0.401931 0.684137 0.685668
O O3 0.247202 0.645128 0.540258
O O4 0.118631 0.683710 0.696509
O O5 0.198478 0.952427 0.607443
O O6 0.047561 0.934589 0.769579
O O7 0.219534 0.019439 0.753031
O O8 0.973217 0.012408 0.649601
O O9 0.370581 0.250000 0.346384
O O10 0.348611 0.143557 0.375324
O O11 0.964703 0.927154 0.953222
O O12 0.236051 0.958229 0.909977
O O13 0.248925 0.935328 0.423022
#
# Coordination Sequence:
#
# PCOD8250417 Si02
#       6
#     8   8   8   8   8   8
#     4   9  17  27  41  62  87 112 145 177 208 260
#     4  10  18  31  42  62  92 113 146 180 214 256
#     4   9  16  25  40  59  83 117 143 167 210 258
#     4   9  17  29  43  59  91 117 141 178 210 255
#     4  11  18  30  46  66  87 120 149 176 218 263
#     4  10  20  29  46  63  88 121 145 181 223 257
#
# _framework density 15.464333
#
# number of rings (size 3 to 8) (size 9 to 14) (size 15 to 20)
#    1.000    1.333    3.333    1.000    2.333    0.000 
#    0.000    0.000    0.000    0.000    0.000    1.167 
#    0.000    1.333    0.000    0.000    0.000    0.000 
#
# Total GULP energy -594746.959696 kJ/mol
# GULP energy per Si atom -12390.561660 kJ/mol
# Density = 1.542914 g / cm^3
# Si number density = 15.464333 Si / 1000 Ang^3
#
#
#
# Elastic Constant Matrix: (Units=GPa)
#
#
# Indices 1 2 3 4 5 6 
#
# 1 49.2330 28.4999 16.2542 0.0000 0.0000 0.0000
# 2 28.4999 94.2323 32.4254 0.0000 0.0000 0.0000
# 3 16.2542 32.4254 41.5128 0.0000 0.0000 0.0000
# 4 0.0000 0.0000 0.0000 23.8306 0.0000 0.0000
# 5 0.0000 0.0000 0.0000 0.0000 14.9197 0.0000
# 6 0.0000 0.0000 0.0000 0.0000 0.0000 17.5603
#
#
#
# Elastic Compliance Matrix: (Units=1/GPa)
#
#
# Indices 1 2 3 4 5 6 
#
# 1 0.025482 -0.005844 -0.005412 0.000000 0.000000 0.000000
# 2 -0.005844 0.015853 -0.010094 0.000000 0.000000 0.000000
# 3 -0.005412 -0.010094 0.034093 0.000000 0.000000 0.000000
# 4 0.000000 0.000000 0.000000 0.041963 0.000000 0.000000
# 5 0.000000 0.000000 0.000000 0.000000 0.067025 0.000000
# 6 0.000000 0.000000 0.000000 0.000000 0.000000 0.056947
#
#
# Mechanical properties :
#
#
# Convention : Reuss Voigt Hill
#
# Bulk Modulus (GPa) = 30.55724 37.70412 34.13068
# Shear Modulus (GPa) = 16.95069 18.44869 17.69969
#
# Velocity S-wave (km/s) = 3.31436 3.45771 3.38679
# Velocity P-wave (km/s) = 5.86935 6.35415 6.11656
#
# Compressibility (1/GPa) = 0.03272547
#
# Stress axis : x y z
#
# Youngs Moduli (GPa) = 39.24399 63.07877 29.33170
#
# Poissons Ratio (x) = 0.36866 0.15875
# Poissons Ratio (y) = 0.22936 0.29609
# Poissons Ratio (z) = 0.21240 0.63675
#
# Static dielectric constant tensor:
#      x y z
#    x 2.902460 0.000000 0.000000 
#    y 0.000000 3.081330 0.000000 
#    z 0.000000 0.000000 2.574410 
# 
# 
# High freq. dielectric constant tensor:
#      x y z
#    x 1.595650 0.000000 0.000000 
#    y 0.000000 1.585370 0.000000 
#    z 0.000000 0.000000 1.543260 
# 
# From -- ./inp_files/17267.got.cif
#   From: 2010.03.12/outbox.cif.g09.slc.cpg/sg62_9_cif.got.tgz:17267.got - 2010.04.10 19:12:36.
