data_PCOD8250863
_publ_section_title
;
Structure prediction by ZEFSAII (Michael W. Deem and Ramdas Pophale) SiO2 
 PCOD8250863
Probable space group: P N M A
;
_chemical_formula_sum "Si O2"
_cell_formula_units_Z 64
_cell_length_a 18.399968
_cell_length_b 8.945378
_cell_length_c 20.372670
_cell_angle_alpha 90.000000
_cell_angle_beta 90.000000
_cell_angle_gamma 90.000000
_cell_volume 3353.232874
_symmetry_space_group_name_H-M "P N M A"
_symmetry_group_IT_number 62
_symmetry_cell_setting 'orthorhombic'
loop_
_space_group_symop_operation_xyz
x,y,z
1/2-x,-y,1/2+z
1/2+x,1/2-y,1/2-z
-x,1/2+y,-z
-x,-y,-z
1/2+x,y,1/2-z
1/2-x,1/2+y,1/2+z
x,1/2-y,z
loop_
_atom_site_type_symbol
_atom_site_label
_atom_site_fract_x
_atom_site_fract_y
_atom_site_fract_z
Si Si1 0.428701 0.411553 0.492065
Si Si2 0.908667 0.417264 0.158766
Si Si3 0.619308 0.422432 0.169354
Si Si4 0.218333 0.925531 0.515172
Si Si5 0.174632 0.925612 0.100709
Si Si6 0.072633 0.078012 0.477055
Si Si7 0.056084 0.927800 0.207035
Si Si8 0.734638 0.426779 0.630241
O O1 0.500000 0.500000 0.500000
O O2 0.443846 0.250000 0.523986
O O3 0.405517 0.397687 0.418332
O O4 0.367034 0.484614 0.536058
O O5 0.905808 0.250000 0.190819
O O6 0.835587 0.512798 0.170773
O O7 0.981267 0.502863 0.180188
O O8 0.629436 0.250000 0.189869
O O9 0.577671 0.437769 0.101070
O O10 0.568825 0.508164 0.221083
O O11 0.697495 0.499893 0.167064
O O12 0.209475 0.750000 0.520867
O O13 0.262782 0.967704 0.447800
O O14 0.251068 0.985803 0.585023
O O15 0.139361 0.997715 0.512058
O O16 0.191901 0.750000 0.102888
O O17 0.126550 0.975223 0.163279
O O18 0.072375 0.250000 0.498856
O O19 0.000000 0.000000 0.500000
O O20 0.047166 0.750000 0.207928
O O21 0.737756 0.250000 0.640125
#
# Coordination Sequence:
#
# PCOD8250863 Si02
#       8
#     8   8   8   8   8   8   8   8
#     4  10  19  30  47  74 111 150 188 230 273 320
#     4  11  21  33  53  81 113 150 192 236 280 330
#     4  10  22  41  62  84 112 148 188 232 286 346
#     4  10  20  33  55  86 116 146 183 228 280 336
#     4  10  20  34  51  77 115 154 190 228 275 328
#     4  10  21  39  65  91 115 141 179 236 294 344
#     4  11  23  38  56  80 116 159 197 235 281 340
#     4  10  20  35  57  83 110 142 184 233 282 334
#
# _framework density 19.086058999999999
#
# number of rings (size 3 to 8) (size 9 to 14) (size 15 to 20)
#    0.000    1.750    2.500    2.250    0.000    4.500 
#    0.000    1.250    0.000    6.000    0.000    0.000 
#    0.000    0.000    0.000    0.000    0.000    0.000 
#
# Total GULP energy -793107.606844 kJ/mol
# GULP energy per Si atom -12392.306357 kJ/mol
# Density = 1.904262 g / cm^3
# Si number density = 19.086059 Si / 1000 Ang^3
#
#
#
# Elastic Constant Matrix: (Units=GPa)
#
#
# Indices 1 2 3 4 5 6 
#
# 1 126.6124 68.3328 41.3750 0.0000 0.0000 0.0000
# 2 68.3328 113.3699 33.6332 0.0000 0.0000 0.0000
# 3 41.3750 33.6332 51.7374 0.0000 0.0000 0.0000
# 4 0.0000 0.0000 0.0000 27.6491 0.0000 0.0000
# 5 0.0000 0.0000 0.0000 0.0000 23.9171 0.0000
# 6 0.0000 0.0000 0.0000 0.0000 0.0000 40.4599
#
#
#
# Elastic Compliance Matrix: (Units=1/GPa)
#
#
# Indices 1 2 3 4 5 6 
#
# 1 0.013376 -0.006057 -0.006759 0.000000 0.000000 0.000000
# 2 -0.006057 0.013671 -0.004043 0.000000 0.000000 0.000000
# 3 -0.006759 -0.004043 0.027362 0.000000 0.000000 0.000000
# 4 0.000000 0.000000 0.000000 0.036168 0.000000 0.000000
# 5 0.000000 0.000000 0.000000 0.000000 0.041811 0.000000
# 6 0.000000 0.000000 0.000000 0.000000 0.000000 0.024716
#
#
# Mechanical properties :
#
#
# Convention : Reuss Voigt Hill
#
# Bulk Modulus (GPa) = 48.33272 64.26686 56.29979
# Shear Modulus (GPa) = 25.28829 28.29712 26.79270
#
# Velocity S-wave (km/s) = 3.64395 3.85464 3.75078
# Velocity P-wave (km/s) = 6.56377 7.31821 6.95123
#
# Compressibility (1/GPa) = 0.02068992
#
# Stress axis : x y z
#
# Youngs Moduli (GPa) = 74.76120 73.14757 36.54644
#
# Poissons Ratio (x) = 0.44305 0.24703
# Poissons Ratio (y) = 0.45282 0.14777
# Poissons Ratio (z) = 0.50534 0.29576
#
# Static dielectric constant tensor:
#      x y z
#    x 3.481820 0.000000 0.000000 
#    y 0.000000 3.693500 0.000000 
#    z 0.000000 0.000000 3.316460 
# 
# 
# High freq. dielectric constant tensor:
#      x y z
#    x 1.746270 0.000000 0.000000 
#    y 0.000000 1.755600 0.000000 
#    z 0.000000 0.000000 1.716760 
# 
# From -- ./inp_files/27782.got.cif
#   From: 2010.03.12/outbox.cif.g09.slc.cpg/sg62_14_cif.got.tgz:27782.got - 2010.04.10 19:12:36.
