data_PCOD8250231
_publ_section_title
;
Structure prediction by ZEFSAII (Michael W. Deem and Ramdas Pophale) SiO2 
 PCOD8250231
Probable space group: P N M A
;
_chemical_formula_sum "Si O2"
_cell_formula_units_Z 64
_cell_length_a 23.575357
_cell_length_b 9.192106
_cell_length_c 14.287833
_cell_angle_alpha 90.000000
_cell_angle_beta 90.000000
_cell_angle_gamma 90.000000
_cell_volume 3096.276005
_symmetry_space_group_name_H-M "P N M A"
_symmetry_group_IT_number 62
_symmetry_cell_setting 'orthorhombic'
loop_
_space_group_symop_operation_xyz
x,y,z
1/2-x,-y,1/2+z
1/2+x,1/2-y,1/2-z
-x,1/2+y,-z
-x,-y,-z
1/2+x,y,1/2-z
1/2-x,1/2+y,1/2+z
x,1/2-y,z
loop_
_atom_site_type_symbol
_atom_site_label
_atom_site_fract_x
_atom_site_fract_y
_atom_site_fract_z
Si Si1 0.047418 0.080095 0.820316
Si Si2 0.278971 0.923205 0.174202
Si Si3 0.669696 0.420169 0.632098
Si Si4 0.642123 0.588523 0.962900
Si Si5 0.922239 0.418387 0.851402
Si Si6 0.581564 0.917325 0.136423
Si Si7 0.319871 0.921700 0.574052
Si Si8 0.026618 0.587547 0.636535
O O1 0.048001 0.250000 0.796830
O O2 0.103594 0.030718 0.876816
O O3 0.988318 0.042481 0.872999
O O4 0.052024 0.998587 0.723225
O O5 0.272426 0.750000 0.173187
O O6 0.298524 0.985526 0.276207
O O7 0.323860 0.968815 0.094677
O O8 0.219147 0.995351 0.148553
O O9 0.671061 0.250000 0.648302
O O10 0.699643 0.459793 0.533168
O O11 0.668968 0.750000 0.944758
O O12 0.575571 0.589337 0.940330
O O13 0.639066 0.553640 0.074832
O O14 0.909336 0.250000 0.874429
O O15 0.906613 0.456166 0.744151
O O16 0.884106 0.522426 0.915200
O O17 0.562812 0.750000 0.128790
O O18 0.529775 0.012815 0.096620
O O19 0.317501 0.750000 0.591920
O O20 0.010767 0.750000 0.668496
#
# Coordination Sequence:
#
# PCOD8250231 Si02
#       8
#     8   8   8   8   8   8   8   8
#     4   9  17  35  61  85 114 155 198 233 285 355
#     4  11  23  41  64  86 112 150 199 244 285 347
#     4   9  20  40  65  88 112 152 194 231 286 358
#     4  10  20  34  53  82 116 152 194 240 291 336
#     4   9  19  36  58  85 117 153 196 241 282 340
#     4   9  19  34  53  77 116 164 196 225 279 352
#     4  11  24  42  62  85 117 152 191 240 295 348
#     4  10  18  28  48  83 121 150 189 242 288 330
#
# _framework density 20.669992000000001
#
# number of rings (size 3 to 8) (size 9 to 14) (size 15 to 20)
#    0.000    2.250    1.250    2.250    0.000    4.500 
#    0.000    8.750    0.000    0.000    0.000    0.000 
#    0.000    0.000    0.000    0.000    0.000    0.000 
#
# Total GULP energy -793176.753391 kJ/mol
# GULP energy per Si atom -12393.386772 kJ/mol
# Density = 2.062295 g / cm^3
# Si number density = 20.669992 Si / 1000 Ang^3
#
#
#
# Elastic Constant Matrix: (Units=GPa)
#
#
# Indices 1 2 3 4 5 6 
#
# 1 87.0156 35.3780 42.0096 0.0000 0.0000 0.0000
# 2 35.3780 70.5571 26.8123 0.0000 0.0000 0.0000
# 3 42.0096 26.8123 81.8071 0.0000 0.0000 0.0000
# 4 0.0000 0.0000 0.0000 23.6150 0.0000 0.0000
# 5 0.0000 0.0000 0.0000 0.0000 28.7844 0.0000
# 6 0.0000 0.0000 0.0000 0.0000 0.0000 32.4762
#
#
#
# Elastic Compliance Matrix: (Units=1/GPa)
#
#
# Indices 1 2 3 4 5 6 
#
# 1 0.017276 -0.006044 -0.006891 0.000000 0.000000 0.000000
# 2 -0.006044 0.018304 -0.002895 0.000000 0.000000 0.000000
# 3 -0.006891 -0.002895 0.016711 0.000000 0.000000 0.000000
# 4 0.000000 0.000000 0.000000 0.042346 0.000000 0.000000
# 5 0.000000 0.000000 0.000000 0.000000 0.034741 0.000000
# 6 0.000000 0.000000 0.000000 0.000000 0.000000 0.030792
#
#
# Mechanical properties :
#
#
# Convention : Reuss Voigt Hill
#
# Bulk Modulus (GPa) = 48.47038 49.75328 49.11183
# Shear Modulus (GPa) = 25.16265 25.98712 25.57488
#
# Velocity S-wave (km/s) = 3.49284 3.54960 3.52134
# Velocity P-wave (km/s) = 6.30612 6.39704 6.35174
#
# Compressibility (1/GPa) = 0.02063115
#
# Stress axis : x y z
#
# Youngs Moduli (GPa) = 57.88301 54.63391 59.83943
#
# Poissons Ratio (x) = 0.33020 0.41234
# Poissons Ratio (y) = 0.34984 0.17326
# Poissons Ratio (z) = 0.39886 0.15818
#
# Static dielectric constant tensor:
#      x y z
#    x 3.804590 0.000000 0.000000 
#    y 0.000000 3.587390 0.000000 
#    z 0.000000 0.000000 3.792550 
# 
# 
# High freq. dielectric constant tensor:
#      x y z
#    x 1.804010 0.000000 0.000000 
#    y 0.000000 1.791400 0.000000 
#    z 0.000000 0.000000 1.808200 
# 
# From -- ./inp_files/20948.got.cif
#   From: 2010.03.12/outbox.cif.g09.slc.cpg/sg62_11_cif.got.tgz:20948.got - 2010.04.10 19:12:36.
