data_PCOD8250531
_publ_section_title
;
Structure prediction by ZEFSAII (Michael W. Deem and Ramdas Pophale) SiO2 
 PCOD8250531
Probable space group: P N M A
;
_chemical_formula_sum "Si O2"
_cell_formula_units_Z 64
_cell_length_a 23.400736
_cell_length_b 8.533721
_cell_length_c 19.050872
_cell_angle_alpha 90.000000
_cell_angle_beta 90.000000
_cell_angle_gamma 90.000000
_cell_volume 3804.370594
_symmetry_space_group_name_H-M "P N M A"
_symmetry_group_IT_number 62
_symmetry_cell_setting 'orthorhombic'
loop_
_space_group_symop_operation_xyz
x,y,z
1/2-x,-y,1/2+z
1/2+x,1/2-y,1/2-z
-x,1/2+y,-z
-x,-y,-z
1/2+x,y,1/2-z
1/2-x,1/2+y,1/2+z
x,1/2-y,z
loop_
_atom_site_type_symbol
_atom_site_label
_atom_site_fract_x
_atom_site_fract_y
_atom_site_fract_z
Si Si1 0.379355 0.065920 0.995437
Si Si2 0.828683 0.932043 0.276143
Si Si3 0.566161 0.065429 0.868880
Si Si4 0.438207 0.435294 0.854134
Si Si5 0.745605 0.431890 0.002369
Si Si6 0.727193 0.431501 0.362653
Si Si7 0.760881 0.432148 0.159431
Si Si8 0.658968 0.933270 0.245177
O O1 0.366068 0.250000 0.990853
O O2 0.418926 0.031170 0.061887
O O3 0.320779 0.972749 0.002777
O O4 0.412189 0.000806 0.926996
O O5 0.824902 0.750000 0.258067
O O6 0.890688 0.977726 0.306005
O O7 0.781335 0.971609 0.334536
O O8 0.817686 0.028533 0.204358
O O9 0.568370 0.250000 0.886260
O O10 0.503380 0.009634 0.844416
O O11 0.434531 0.250000 0.856928
O O12 0.400474 0.495418 0.788224
O O13 0.753543 0.250000 0.986620
O O14 0.781858 0.526940 0.944300
O O15 0.770913 0.477452 0.078432
O O16 0.740751 0.250000 0.353096
O O17 0.670756 0.476163 0.318079
O O18 0.745005 0.250000 0.167231
O O19 0.709018 0.534917 0.189197
O O20 0.656608 0.750000 0.261547
#
# Coordination Sequence:
#
# PCOD8250531 Si02
#       8
#     8   8   8   8   8   8   8   8
#     4  11  20  31  47  70  98 131 169 205 237 278
#     4  10  19  31  49  70  96 129 163 198 241 288
#     4  10  20  34  49  68  98 135 170 202 236 282
#     4   9  19  33  49  70  97 132 171 204 237 281
#     4  11  21  33  49  71  97 130 163 197 246 297
#     4  11  21  32  49  71  98 125 159 203 245 291
#     4  10  20  32  49  70  96 124 159 203 246 291
#     4  10  18  32  51  70  96 128 163 200 242 289
#
# _framework density 16.822755000000001
#
# number of rings (size 3 to 8) (size 9 to 14) (size 15 to 20)
#    0.000    1.750    2.500    4.875    0.000    2.000 
#    0.000    1.875    0.000    0.000    0.000    0.875 
#    0.000    0.000    0.000    0.000    0.000    0.000 
#
# Total GULP energy -793638.830582 kJ/mol
# GULP energy per Si atom -12400.606728 kJ/mol
# Density = 1.678447 g / cm^3
# Si number density = 16.822755 Si / 1000 Ang^3
#
#
#
# Elastic Constant Matrix: (Units=GPa)
#
#
# Indices 1 2 3 4 5 6 
#
# 1 79.3117 8.5693 49.9525 0.0000 0.0000 0.0000
# 2 8.5693 28.6845 17.7443 0.0000 0.0000 0.0000
# 3 49.9525 17.7443 117.6724 0.0000 0.0000 0.0000
# 4 0.0000 0.0000 0.0000 27.4409 0.0000 0.0000
# 5 0.0000 0.0000 0.0000 0.0000 25.7428 0.0000
# 6 0.0000 0.0000 0.0000 0.0000 0.0000 14.9628
#
#
#
# Elastic Compliance Matrix: (Units=1/GPa)
#
#
# Indices 1 2 3 4 5 6 
#
# 1 0.017222 -0.000686 -0.007207 0.000000 0.000000 0.000000
# 2 -0.000686 0.038476 -0.005511 0.000000 0.000000 0.000000
# 3 -0.007207 -0.005511 0.012389 0.000000 0.000000 0.000000
# 4 0.000000 0.000000 0.000000 0.036442 0.000000 0.000000
# 5 0.000000 0.000000 0.000000 0.000000 0.038846 0.000000
# 6 0.000000 0.000000 0.000000 0.000000 0.000000 0.066833
#
#
# Mechanical properties :
#
#
# Convention : Reuss Voigt Hill
#
# Bulk Modulus (GPa) = 24.22600 42.02232 33.12416
# Shear Modulus (GPa) = 19.93820 23.58946 21.76383
#
# Velocity S-wave (km/s) = 3.44640 3.74871 3.60073
# Velocity P-wave (km/s) = 5.50172 6.61595 6.08439
#
# Compressibility (1/GPa) = 0.04127796
#
# Stress axis : x y z
#
# Youngs Moduli (GPa) = 58.06529 25.99027 80.71899
#
# Poissons Ratio (x) = 0.01784 0.58177
# Poissons Ratio (y) = 0.03986 0.44480
# Poissons Ratio (z) = 0.41849 0.14322
#
# Static dielectric constant tensor:
#      x y z
#    x 3.145730 0.000000 0.000000 
#    y 0.000000 3.106170 0.000000 
#    z 0.000000 0.000000 3.388940 
# 
# 
# High freq. dielectric constant tensor:
#      x y z
#    x 1.617440 0.000000 0.000000 
#    y 0.000000 1.651620 0.000000 
#    z 0.000000 0.000000 1.646990 
# 
# From -- ./inp_files/24976.got.cif
#   From: 2010.03.12/outbox.cif.g09.slc.cpg/sg62_13_cif.got.tgz:24976.got - 2010.04.10 19:12:36.
