data_PCOD8250614
_publ_section_title
;
Structure prediction by ZEFSAII (Michael W. Deem and Ramdas Pophale) SiO2 
 PCOD8250614
Probable space group: P N M A
;
_chemical_formula_sum "Si O2"
_cell_formula_units_Z 56
_cell_length_a 17.159395
_cell_length_b 8.964722
_cell_length_c 19.001535
_cell_angle_alpha 90.000000
_cell_angle_beta 90.000000
_cell_angle_gamma 90.000000
_cell_volume 2922.991039
_symmetry_space_group_name_H-M "P N M A"
_symmetry_group_IT_number 62
_symmetry_cell_setting 'orthorhombic'
loop_
_space_group_symop_operation_xyz
x,y,z
1/2-x,-y,1/2+z
1/2+x,1/2-y,1/2-z
-x,1/2+y,-z
-x,-y,-z
1/2+x,y,1/2-z
1/2-x,1/2+y,1/2+z
x,1/2-y,z
loop_
_atom_site_type_symbol
_atom_site_label
_atom_site_fract_x
_atom_site_fract_y
_atom_site_fract_z
Si Si1 0.178720 0.425815 0.321859
Si Si2 0.577144 0.580375 0.783612
Si Si3 0.159819 0.424063 0.836550
Si Si4 0.509280 0.074393 0.575657
Si Si5 0.418962 0.914499 0.073535
Si Si6 0.901341 0.085835 0.556801
Si Si7 0.423158 0.918639 0.697443
O O1 0.175283 0.250000 0.332859
O O2 0.261557 0.485013 0.348698
O O3 0.114780 0.501980 0.370774
O O4 0.156205 0.464587 0.239856
O O5 0.607929 0.750000 0.775858
O O6 0.630063 0.467172 0.740115
O O7 0.585921 0.530114 0.863138
O O8 0.489077 0.568027 0.756997
O O9 0.178212 0.250000 0.839767
O O10 0.094447 0.469634 0.894200
O O11 0.500265 0.250000 0.567349
O O12 0.500000 0.000000 0.500000
O O13 0.441640 0.021113 0.629860
O O14 0.384128 0.750000 0.091709
O O15 0.507001 0.892331 0.049403
O O16 0.370387 0.987938 0.009173
O O17 0.861267 0.250000 0.555957
O O18 0.417124 0.750000 0.668762
#
# Coordination Sequence:
#
# PCOD8250614 Si02
#       7
#     8   8   8   8   8   8   8
#     4  11  21  36  56  82 113 148 186 230 283 340
#     4  10  18  33  55  79 107 141 180 225 271 324
#     4  10  22  38  56  82 113 146 185 231 283 339
#     4  10  21  38  62  87 113 146 190 239 287 339
#     4  10  19  31  50  77 108 141 180 224 267 318
#     4  10  20  32  50  76 109 147 182 221 269 324
#     4   9  19  34  56  83 111 142 182 227 276 332
#
# _framework density 19.158456999999999
#
# number of rings (size 3 to 8) (size 9 to 14) (size 15 to 20)
#    0.000    2.000    1.429    2.571    0.000    4.571 
#    0.000    1.429    0.000    5.143    0.000    0.000 
#    0.000    0.000    0.000    0.000    0.000    0.000 
#
# Total GULP energy -694162.542442 kJ/mol
# GULP energy per Si atom -12395.759686 kJ/mol
# Density = 1.911485 g / cm^3
# Si number density = 19.158457 Si / 1000 Ang^3
#
#
#
# Elastic Constant Matrix: (Units=GPa)
#
#
# Indices 1 2 3 4 5 6 
#
# 1 53.1585 37.2523 28.5327 0.0000 0.0000 0.0000
# 2 37.2523 117.5063 59.6705 0.0000 0.0000 0.0000
# 3 28.5327 59.6705 131.1995 0.0000 0.0000 0.0000
# 4 0.0000 0.0000 0.0000 36.3548 0.0000 0.0000
# 5 0.0000 0.0000 0.0000 0.0000 14.8494 0.0000
# 6 0.0000 0.0000 0.0000 0.0000 0.0000 26.3004
#
#
#
# Elastic Compliance Matrix: (Units=1/GPa)
#
#
# Indices 1 2 3 4 5 6 
#
# 1 0.024733 -0.006644 -0.002357 0.000000 0.000000 0.000000
# 2 -0.006644 0.012851 -0.004400 0.000000 0.000000 0.000000
# 3 -0.002357 -0.004400 0.010136 0.000000 0.000000 0.000000
# 4 0.000000 0.000000 0.000000 0.027507 0.000000 0.000000
# 5 0.000000 0.000000 0.000000 0.000000 0.067343 0.000000
# 6 0.000000 0.000000 0.000000 0.000000 0.000000 0.038022
#
#
# Mechanical properties :
#
#
# Convention : Reuss Voigt Hill
#
# Bulk Modulus (GPa) = 47.80655 61.41947 54.61301
# Shear Modulus (GPa) = 23.32476 27.26152 25.29314
#
# Velocity S-wave (km/s) = 3.49301 3.77629 3.63741
# Velocity P-wave (km/s) = 6.42460 7.15137 6.79771
#
# Compressibility (1/GPa) = 0.02091764
#
# Stress axis : x y z
#
# Youngs Moduli (GPa) = 40.43228 77.81709 98.66232
#
# Poissons Ratio (x) = 0.51701 0.23255
# Poissons Ratio (y) = 0.26863 0.43408
# Poissons Ratio (z) = 0.09530 0.34237
#
# Static dielectric constant tensor:
#      x y z
#    x 3.377230 0.000000 0.000000 
#    y 0.000000 3.750510 0.000000 
#    z 0.000000 0.000000 3.453280 
# 
# 
# High freq. dielectric constant tensor:
#      x y z
#    x 1.708580 0.000000 0.000000 
#    y 0.000000 1.762120 0.000000 
#    z 0.000000 0.000000 1.744690 
# 
# From -- ./inp_files/24642.got.cif
#   From: 2010.03.12/outbox.cif.g09.slc.cpg/sg62_13_cif.got.tgz:24642.got - 2010.04.10 19:12:36.
