data_PCOD8250583
_publ_section_title
;
Structure prediction by ZEFSAII (Michael W. Deem and Ramdas Pophale) SiO2 
 PCOD8250583
Probable space group: P N M A
;
_chemical_formula_sum "Si O2"
_cell_formula_units_Z 40
_cell_length_a 8.815372
_cell_length_b 8.318431
_cell_length_c 25.359279
_cell_angle_alpha 90.000000
_cell_angle_beta 90.000000
_cell_angle_gamma 90.000000
_cell_volume 1859.597545
_symmetry_space_group_name_H-M "P N M A"
_symmetry_group_IT_number 62
_symmetry_cell_setting 'orthorhombic'
loop_
_space_group_symop_operation_xyz
x,y,z
1/2-x,-y,1/2+z
1/2+x,1/2-y,1/2-z
-x,1/2+y,-z
-x,-y,-z
1/2+x,y,1/2-z
1/2-x,1/2+y,1/2+z
x,1/2-y,z
loop_
_atom_site_type_symbol
_atom_site_label
_atom_site_fract_x
_atom_site_fract_y
_atom_site_fract_z
Si Si1 0.908131 0.563731 0.813054
Si Si2 0.769997 0.565471 0.219386
Si Si3 0.107228 0.063970 0.379796
Si Si4 0.832479 0.440464 0.512314
Si Si5 0.779792 0.562499 0.405723
O O1 0.940765 0.750000 0.822900
O O2 0.779013 0.542661 0.768921
O O3 0.857546 0.482510 0.867585
O O4 0.058868 0.475946 0.794560
O O5 0.758996 0.750000 0.236753
O O6 0.659295 0.537164 0.170332
O O7 0.137004 0.250000 0.368350
O O8 0.209452 0.009719 0.430089
O O9 0.929363 0.035258 0.388946
O O10 0.821789 0.250000 0.513281
O O11 0.728531 0.511813 0.465183
O O12 0.000000 0.500000 0.500000
O O13 0.817581 0.750000 0.403380
#
# Coordination Sequence:
#
# PCOD8250583 Si02
#       5
#     8   8   8   8   8
#     4  12  25  43  63  88 118 154 195 242 294 351
#     4  12  25  43  63  88 118 154 195 242 294 351
#     4  11  21  37  60  89 121 158 198 243 291 345
#     4  10  18  32  55  86 119 156 197 242 288 342
#     4  11  21  37  60  89 121 158 198 243 291 345
#
# _framework density 21.51003
#
# number of rings (size 3 to 8) (size 9 to 14) (size 15 to 20)
#    0.000    0.800    0.000   12.600    0.000    0.000 
#    0.000    1.000    0.000    0.000    0.000    0.000 
#    0.000    0.000    0.000    0.000    0.000    0.000 
#
# Total GULP energy -496180.399295 kJ/mol
# GULP energy per Si atom -12404.509982 kJ/mol
# Density = 2.146107 g / cm^3
# Si number density = 21.510030 Si / 1000 Ang^3
#
#
#
# Elastic Constant Matrix: (Units=GPa)
#
#
# Indices 1 2 3 4 5 6 
#
# 1 37.9318 9.3390 -16.9537 0.0000 0.0000 0.0000
# 2 9.3390 119.5881 17.7524 0.0000 0.0000 0.0000
# 3 -16.9537 17.7524 61.1151 0.0000 0.0000 0.0000
# 4 0.0000 0.0000 0.0000 41.4997 0.0000 0.0000
# 5 0.0000 0.0000 0.0000 0.0000 29.1988 0.0000
# 6 0.0000 0.0000 0.0000 0.0000 0.0000 27.7119
#
#
#
# Elastic Compliance Matrix: (Units=1/GPa)
#
#
# Indices 1 2 3 4 5 6 
#
# 1 0.031796 -0.003963 0.009972 0.000000 0.000000 0.000000
# 2 -0.003963 0.009233 -0.003781 0.000000 0.000000 0.000000
# 3 0.009972 -0.003781 0.020227 0.000000 0.000000 0.000000
# 4 0.000000 0.000000 0.000000 0.024097 0.000000 0.000000
# 5 0.000000 0.000000 0.000000 0.000000 0.034248 0.000000
# 6 0.000000 0.000000 0.000000 0.000000 0.000000 0.036086
#
#
# Mechanical properties :
#
#
# Convention : Reuss Voigt Hill
#
# Bulk Modulus (GPa) = 15.21851 26.54561 20.88206
# Shear Modulus (GPa) = 28.87919 33.58190 31.23054
#
# Velocity S-wave (km/s) = 3.66811 3.95551 3.81452
# Velocity P-wave (km/s) = 5.00305 5.76449 5.39721
#
# Compressibility (1/GPa) = 0.06570947
#
# Stress axis : x y z
#
# Youngs Moduli (GPa) = 31.45083 108.30877 49.43865
#
# Poissons Ratio (x) = 0.42925 -0.49298
# Poissons Ratio (y) = 0.12465 0.18694
# Poissons Ratio (z) = -0.31361 0.40955
#
# Static dielectric constant tensor:
#      x y z
#    x 3.523010 0.000000 0.000000 
#    y 0.000000 4.015510 0.000000 
#    z 0.000000 0.000000 4.915150 
# 
# 
# High freq. dielectric constant tensor:
#      x y z
#    x 1.809670 0.000000 0.000000 
#    y 0.000000 1.863170 0.000000 
#    z 0.000000 0.000000 1.868390 
# 
# From -- ./inp_files/28592.got.cif
#   From: 2010.03.12/outbox.cif.g09.slc.cpg/sg62_15_cif.got.tgz:28592.got - 2010.04.10 19:12:36.
