data_PCOD8250335
_publ_section_title
;
Structure prediction by ZEFSAII (Michael W. Deem and Ramdas Pophale) SiO2 
 PCOD8250335
Probable space group: P N M A
;
_chemical_formula_sum "Si O2"
_cell_formula_units_Z 64
_cell_length_a 19.257270
_cell_length_b 8.740603
_cell_length_c 23.468409
_cell_angle_alpha 90.000000
_cell_angle_beta 90.000000
_cell_angle_gamma 90.000000
_cell_volume 3950.206169
_symmetry_space_group_name_H-M "P N M A"
_symmetry_group_IT_number 62
_symmetry_cell_setting 'orthorhombic'
loop_
_space_group_symop_operation_xyz
x,y,z
1/2-x,-y,1/2+z
1/2+x,1/2-y,1/2-z
-x,1/2+y,-z
-x,-y,-z
1/2+x,y,1/2-z
1/2-x,1/2+y,1/2+z
x,1/2-y,z
loop_
_atom_site_type_symbol
_atom_site_label
_atom_site_fract_x
_atom_site_fract_y
_atom_site_fract_z
Si Si1 0.352465 0.431147 0.062328
Si Si2 0.653219 0.570262 0.736489
Si Si3 0.360571 0.568057 0.940712
Si Si4 0.720819 0.428967 0.166514
Si Si5 0.734008 0.430313 0.840678
Si Si6 0.998273 0.069231 0.257481
Si Si7 0.355726 0.568622 0.720776
Si Si8 0.496168 0.068508 0.114675
O O1 0.349436 0.250000 0.066251
O O2 0.290616 0.500283 0.099706
O O3 0.426804 0.494416 0.084365
O O4 0.340095 0.484475 0.998264
O O5 0.659245 0.750000 0.750601
O O6 0.698397 0.529845 0.679999
O O7 0.682157 0.483567 0.791195
O O8 0.573379 0.520943 0.726171
O O9 0.356583 0.750000 0.949095
O O10 0.305532 0.504607 0.893568
O O11 0.437313 0.515022 0.921437
O O12 0.708614 0.250000 0.162697
O O13 0.674371 0.489455 0.218735
O O14 0.733361 0.250000 0.844866
O O15 0.812723 0.487400 0.829382
O O16 0.003639 0.250000 0.263455
O O17 0.063747 0.013866 0.219541
O O18 0.000441 0.999794 0.321350
O O19 0.347271 0.750000 0.713501
O O20 0.493921 0.250000 0.117958
#
# Coordination Sequence:
#
# PCOD8250335 Si02
#       8
#     8   8   8   8   8   8   8   8
#     4  11  21  33  47  64  90 126 167 202 232 270
#     4   9  16  29  50  72  94 122 158 193 229 279
#     4  10  18  30  46  66  94 126 161 194 230 273
#     4   8  14  25  44  67  90 120 154 186 223 273
#     4  11  21  32  45  66  94 124 156 196 240 276
#     4   9  14  25  49  75  94 120 156 191 226 273
#     4   9  16  29  50  70  90 121 156 189 230 279
#     4   9  16  27  45  68  94 123 158 194 223 264
#
# _framework density 16.201685000000001
#
# number of rings (size 3 to 8) (size 9 to 14) (size 15 to 20)
#    0.000    2.500    2.500    2.625    0.000    0.000 
#    0.000    3.750    0.000    0.000    0.000    0.875 
#    0.000    0.000    0.000    0.000    0.000    0.000 
#
# Total GULP energy -793261.902530 kJ/mol
# GULP energy per Si atom -12394.717227 kJ/mol
# Density = 1.616481 g / cm^3
# Si number density = 16.201685 Si / 1000 Ang^3
#
#
#
# Elastic Constant Matrix: (Units=GPa)
#
#
# Indices 1 2 3 4 5 6 
#
# 1 134.9130 27.7972 66.5832 0.0000 0.0000 0.0000
# 2 27.7972 44.3119 26.0935 0.0000 0.0000 0.0000
# 3 66.5832 26.0935 97.5187 0.0000 0.0000 0.0000
# 4 0.0000 0.0000 0.0000 20.8800 0.0000 0.0000
# 5 0.0000 0.0000 0.0000 0.0000 27.3040 0.0000
# 6 0.0000 0.0000 0.0000 0.0000 0.0000 10.4088
#
#
#
# Elastic Compliance Matrix: (Units=1/GPa)
#
#
# Indices 1 2 3 4 5 6 
#
# 1 0.011523 -0.003081 -0.007043 0.000000 0.000000 0.000000
# 2 -0.003081 0.027612 -0.005285 0.000000 0.000000 0.000000
# 3 -0.007043 -0.005285 0.016477 0.000000 0.000000 0.000000
# 4 0.000000 0.000000 0.000000 0.047893 0.000000 0.000000
# 5 0.000000 0.000000 0.000000 0.000000 0.036625 0.000000
# 6 0.000000 0.000000 0.000000 0.000000 0.000000 0.096072
#
#
# Mechanical properties :
#
#
# Convention : Reuss Voigt Hill
#
# Bulk Modulus (GPa) = 40.33125 57.52126 48.92625
# Shear Modulus (GPa) = 18.16302 22.13653 20.14977
#
# Velocity S-wave (km/s) = 3.35185 3.70037 3.53042
# Velocity P-wave (km/s) = 6.31879 7.33739 6.84706
#
# Compressibility (1/GPa) = 0.02479467
#
# Stress axis : x y z
#
# Youngs Moduli (GPa) = 86.78296 36.21620 60.68920
#
# Poissons Ratio (x) = 0.11158 0.42745
# Poissons Ratio (y) = 0.26738 0.32072
# Poissons Ratio (z) = 0.61123 0.19139
#
# Static dielectric constant tensor:
#      x y z
#    x 3.396500 0.000000 0.000000 
#    y 0.000000 2.720370 0.000000 
#    z 0.000000 0.000000 2.994800 
# 
# 
# High freq. dielectric constant tensor:
#      x y z
#    x 1.625280 0.000000 0.000000 
#    y 0.000000 1.590640 0.000000 
#    z 0.000000 0.000000 1.598250 
# 
# From -- ./inp_files/27941.got.cif
#   From: 2010.03.12/outbox.cif.g09.slc.cpg/sg62_14_cif.got.tgz:27941.got - 2010.04.10 19:12:36.
