data_PCOD8250055
_publ_section_title
;
Structure prediction by ZEFSAII (Michael W. Deem and Ramdas Pophale) SiO2 
 PCOD8250055
Probable space group: P N M A
;
_chemical_formula_sum "Si O2"
_cell_formula_units_Z 64
_cell_length_a 19.357649
_cell_length_b 9.361396
_cell_length_c 19.199245
_cell_angle_alpha 90.000000
_cell_angle_beta 90.000000
_cell_angle_gamma 90.000000
_cell_volume 3479.183847
_symmetry_space_group_name_H-M "P N M A"
_symmetry_group_IT_number 62
_symmetry_cell_setting 'orthorhombic'
loop_
_space_group_symop_operation_xyz
x,y,z
1/2-x,-y,1/2+z
1/2+x,1/2-y,1/2-z
-x,1/2+y,-z
-x,-y,-z
1/2+x,y,1/2-z
1/2-x,1/2+y,1/2+z
x,1/2-y,z
loop_
_atom_site_type_symbol
_atom_site_label
_atom_site_fract_x
_atom_site_fract_y
_atom_site_fract_z
Si Si1 0.971640 0.420033 0.306128
Si Si2 0.201760 0.080977 0.207938
Si Si3 0.305823 0.586102 0.982341
Si Si4 0.876225 0.579747 0.656915
Si Si5 0.147948 0.587869 0.960709
Si Si6 0.544007 0.917667 0.653008
Si Si7 0.667149 0.919442 0.876866
Si Si8 0.597084 0.080789 0.409398
O O1 0.972963 0.250000 0.304074
O O2 0.955490 0.485414 0.229984
O O3 0.909745 0.470790 0.356514
O O4 0.045932 0.478554 0.331368
O O5 0.198349 0.250000 0.211861
O O6 0.176443 0.020166 0.283182
O O7 0.278845 0.032615 0.184126
O O8 0.148872 0.024083 0.149805
O O9 0.323334 0.750000 0.001358
O O10 0.229153 0.571550 0.952536
O O11 0.314270 0.490861 0.050256
O O12 0.353851 0.527531 0.919799
O O13 0.874927 0.750000 0.659847
O O14 0.127079 0.750000 0.980269
O O15 0.117944 0.483361 0.017564
O O16 0.114818 0.544382 0.886473
O O17 0.534140 0.750000 0.662389
O O18 0.479071 0.976004 0.609189
O O19 0.671818 0.750000 0.887355
O O20 0.600905 0.250000 0.416278
#
# Coordination Sequence:
#
# PCOD8250055 Si02
#       8
#     8   8   8   8   8   8   8   8
#     4   9  17  30  50  76  99 122 162 214 250 277
#     4   9  16  28  49  75  98 122 158 203 243 282
#     4  10  21  34  50  72 101 134 163 199 246 295
#     4   9  17  31  50  74 100 127 163 204 248 290
#     4  10  20  31  45  72 105 132 160 198 243 294
#     4   9  17  29  47  75 104 126 159 206 249 286
#     4  10  20  33  53  77  99 126 164 207 246 285
#     4  10  17  30  52  73  98 132 162 197 244 294
#
# _framework density 18.395119000000001
#
# number of rings (size 3 to 8) (size 9 to 14) (size 15 to 20)
#    0.000    2.500    2.500    0.375    1.750    0.500 
#    0.000    0.000    0.000    3.000    0.000    0.000 
#    0.000    0.000    0.000    0.000    0.000    0.000 
#
# Total GULP energy -793294.074581 kJ/mol
# GULP energy per Si atom -12395.219915 kJ/mol
# Density = 1.835325 g / cm^3
# Si number density = 18.395119 Si / 1000 Ang^3
#
#
#
# Elastic Constant Matrix: (Units=GPa)
#
#
# Indices 1 2 3 4 5 6 
#
# 1 122.7538 18.2468 55.3843 0.0000 0.0000 0.0000
# 2 18.2468 19.7731 19.7353 0.0000 0.0000 0.0000
# 3 55.3843 19.7353 83.3860 0.0000 0.0000 0.0000
# 4 0.0000 0.0000 0.0000 13.8016 0.0000 0.0000
# 5 0.0000 0.0000 0.0000 0.0000 37.6352 0.0000
# 6 0.0000 0.0000 0.0000 0.0000 0.0000 13.3819
#
#
#
# Elastic Compliance Matrix: (Units=1/GPa)
#
#
# Indices 1 2 3 4 5 6 
#
# 1 0.011874 -0.004040 -0.006930 0.000000 0.000000 0.000000
# 2 -0.004040 0.067590 -0.013313 0.000000 0.000000 0.000000
# 3 -0.006930 -0.013313 0.019746 0.000000 0.000000 0.000000
# 4 0.000000 0.000000 0.000000 0.072455 0.000000 0.000000
# 5 0.000000 0.000000 0.000000 0.000000 0.026571 0.000000
# 6 0.000000 0.000000 0.000000 0.000000 0.000000 0.074728
#
#
# Mechanical properties :
#
#
# Convention : Reuss Voigt Hill
#
# Bulk Modulus (GPa) = 19.74627 45.84952 32.79790
# Shear Modulus (GPa) = 14.77488 21.80018 18.28753
#
# Velocity S-wave (km/s) = 2.83715 3.44627 3.15644
# Velocity P-wave (km/s) = 4.63577 6.38864 5.58144
#
# Compressibility (1/GPa) = 0.05064246
#
# Stress axis : x y z
#
# Youngs Moduli (GPa) = 84.21940 14.79512 50.64223
#
# Poissons Ratio (x) = 0.05977 0.35096
# Poissons Ratio (y) = 0.34026 0.67422
# Poissons Ratio (z) = 0.58366 0.19697
#
# Static dielectric constant tensor:
#      x y z
#    x 3.717480 0.000000 0.000000 
#    y 0.000000 2.828210 0.000000 
#    z 0.000000 0.000000 3.495620 
# 
# 
# High freq. dielectric constant tensor:
#      x y z
#    x 1.729070 0.000000 0.000000 
#    y 0.000000 1.645510 0.000000 
#    z 0.000000 0.000000 1.721440 
# 
# From -- ./inp_files/19873.got.cif
#   From: 2010.03.12/outbox.cif.g09.slc.cpg/sg62_10_cif.got.tgz:19873.got - 2010.04.10 19:12:36.
