data_PCOD8250099
_publ_section_title
;
Structure prediction by ZEFSAII (Michael W. Deem and Ramdas Pophale) SiO2 
 PCOD8250099
Probable space group: P N M A
;
_chemical_formula_sum "Si O2"
_cell_formula_units_Z 56
_cell_length_a 12.888717
_cell_length_b 17.273299
_cell_length_c 14.460164
_cell_angle_alpha 90.000000
_cell_angle_beta 90.000000
_cell_angle_gamma 90.000000
_cell_volume 3219.275891
_symmetry_space_group_name_H-M "P N M A"
_symmetry_group_IT_number 62
_symmetry_cell_setting 'orthorhombic'
loop_
_space_group_symop_operation_xyz
x,y,z
1/2-x,-y,1/2+z
1/2+x,1/2-y,1/2-z
-x,1/2+y,-z
-x,-y,-z
1/2+x,y,1/2-z
1/2-x,1/2+y,1/2+z
x,1/2-y,z
loop_
_atom_site_type_symbol
_atom_site_label
_atom_site_fract_x
_atom_site_fract_y
_atom_site_fract_z
Si Si1 0.149579 0.339116 0.698175
Si Si2 0.995820 0.334043 0.039460
Si Si3 0.488550 0.985862 0.648806
Si Si4 0.651559 0.392472 0.594482
Si Si5 0.667700 0.521648 0.011519
Si Si6 0.183501 0.904748 0.070105
Si Si7 0.977510 0.516515 0.355716
O O1 0.113624 0.250000 0.688280
O O2 0.172901 0.359641 0.804287
O O3 0.256701 0.352433 0.644492
O O4 0.059090 0.394108 0.656761
O O5 0.991380 0.250000 0.088070
O O6 0.022578 0.398672 0.114273
O O7 0.886690 0.348217 0.989793
O O8 0.085573 0.330326 0.962089
O O9 0.584950 0.027481 0.597706
O O10 0.382821 0.031548 0.626807
O O11 0.509660 0.977458 0.756933
O O12 0.758667 0.406787 0.539229
O O13 0.587260 0.511381 0.094323
O O14 0.736579 0.444689 0.000681
O O15 0.606855 0.533494 0.914195
#
# Coordination Sequence:
#
# PCOD8250099 Si02
#       7
#     8   8   8   8   8   8   8
#     4  10  20  33  51  83 113 137 170 220 277 324
#     4  11  20  32  52  78 108 137 172 229 275 305
#     4  10  18  35  52  79 101 141 182 221 258 318
#     4  10  18  33  53  76 107 140 176 213 263 330
#     4  10  17  35  54  81  98 138 186 214 256 311
#     4  10  18  33  56  77 105 140 181 218 259 331
#     4   9  21  32  56  77 105 143 180 220 257 322
#
# _framework density 17.395216000000001
#
# number of rings (size 3 to 8) (size 9 to 14) (size 15 to 20)
#    0.000    2.000    2.857    2.571    0.000    0.000 
#    0.000    6.429    0.000   12.000    0.000    0.000 
#    0.000    0.000    0.000    0.000    0.000    0.000 
#
# Total GULP energy -694294.761664 kJ/mol
# GULP energy per Si atom -12398.120744 kJ/mol
# Density = 1.735562 g / cm^3
# Si number density = 17.395216 Si / 1000 Ang^3
#
#
#
# Elastic Constant Matrix: (Units=GPa)
#
#
# Indices 1 2 3 4 5 6 
#
# 1 98.8944 31.9152 40.0450 0.0000 0.0000 0.0000
# 2 31.9152 100.0192 42.9676 0.0000 0.0000 0.0000
# 3 40.0450 42.9676 86.5037 0.0000 0.0000 0.0000
# 4 0.0000 0.0000 0.0000 19.1050 0.0000 0.0000
# 5 0.0000 0.0000 0.0000 0.0000 28.0238 0.0000
# 6 0.0000 0.0000 0.0000 0.0000 0.0000 8.2403
#
#
#
# Elastic Compliance Matrix: (Units=1/GPa)
#
#
# Indices 1 2 3 4 5 6 
#
# 1 0.012736 -0.001946 -0.004929 0.000000 0.000000 0.000000
# 2 -0.001946 0.013008 -0.005560 0.000000 0.000000 0.000000
# 3 -0.004929 -0.005560 0.016604 0.000000 0.000000 0.000000
# 4 0.000000 0.000000 0.000000 0.052342 0.000000 0.000000
# 5 0.000000 0.000000 0.000000 0.000000 0.035684 0.000000
# 6 0.000000 0.000000 0.000000 0.000000 0.000000 0.121356
#
#
# Mechanical properties :
#
#
# Convention : Reuss Voigt Hill
#
# Bulk Modulus (GPa) = 57.22015 57.25256 57.23636
# Shear Modulus (GPa) = 17.70379 22.43978 20.07178
#
# Velocity S-wave (km/s) = 3.19366 3.59555 3.40055
# Velocity P-wave (km/s) = 6.82385 7.08672 6.95652
#
# Compressibility (1/GPa) = 0.01747636
#
# Stress axis : x y z
#
# Youngs Moduli (GPa) = 78.51875 76.87734 60.22750
#
# Poissons Ratio (x) = 0.14964 0.29686
# Poissons Ratio (y) = 0.15283 0.33487
# Poissons Ratio (z) = 0.38702 0.42744
#
# Static dielectric constant tensor:
#      x y z
#    x 3.408330 0.000000 0.000000 
#    y 0.000000 3.005760 0.000000 
#    z 0.000000 0.000000 3.270550 
# 
# 
# High freq. dielectric constant tensor:
#      x y z
#    x 1.682490 0.000000 0.000000 
#    y 0.000000 1.645930 0.000000 
#    z 0.000000 0.000000 1.673150 
# 
# From -- ./inp_files/18109.got.cif
#   From: 2010.03.12/outbox.cif.g09.slc.cpg/sg62_10_cif.got.tgz:18109.got - 2010.04.10 19:12:36.
