data_PCOD8250955
_publ_section_title
;
Structure prediction by ZEFSAII (Michael W. Deem and Ramdas Pophale) SiO2 
 PCOD8250955
Probable space group: P N M A
;
_chemical_formula_sum "Si O2"
_cell_formula_units_Z 64
_cell_length_a 24.645549
_cell_length_b 9.441040
_cell_length_c 15.444221
_cell_angle_alpha 90.000000
_cell_angle_beta 90.000000
_cell_angle_gamma 90.000000
_cell_volume 3593.555380
_symmetry_space_group_name_H-M "P N M A"
_symmetry_group_IT_number 62
_symmetry_cell_setting 'orthorhombic'
loop_
_space_group_symop_operation_xyz
x,y,z
1/2-x,-y,1/2+z
1/2+x,1/2-y,1/2-z
-x,1/2+y,-z
-x,-y,-z
1/2+x,y,1/2-z
1/2-x,1/2+y,1/2+z
x,1/2-y,z
loop_
_atom_site_type_symbol
_atom_site_label
_atom_site_fract_x
_atom_site_fract_y
_atom_site_fract_z
Si Si1 0.644181 0.416889 0.676955
Si Si2 0.067742 0.082165 0.670313
Si Si3 0.656920 0.415494 0.488211
Si Si4 0.605778 0.913737 0.996943
Si Si5 0.943476 0.416480 0.674374
Si Si6 0.222513 0.909166 0.552897
Si Si7 0.258042 0.585442 0.213891
Si Si8 0.637340 0.582598 0.319460
O O1 0.637640 0.250000 0.674811
O O2 0.601652 0.476956 0.747363
O O3 0.632325 0.472102 0.579552
O O4 0.706368 0.456748 0.702319
O O5 0.075552 0.250000 0.657020
O O6 0.005570 0.042376 0.689513
O O7 0.086159 0.004382 0.584000
O O8 0.644518 0.250000 0.472637
O O9 0.721493 0.443980 0.495848
O O10 0.629942 0.504491 0.411144
O O11 0.589207 0.750000 0.981540
O O12 0.670878 0.927858 0.010397
O O13 0.577580 0.977843 0.082762
O O14 0.933717 0.250000 0.671521
O O15 0.908470 0.476680 0.754611
O O16 0.224661 0.750000 0.589755
O O17 0.213381 0.011292 0.633316
O O18 0.262817 0.750000 0.194091
O O19 0.195225 0.541226 0.223755
O O20 0.632490 0.750000 0.335994
#
# Coordination Sequence:
#
# PCOD8250955 Si02
#       8
#     8   8   8   8   8   8   8   8
#     4   9  17  29  49  73  94 125 164 198 235 283
#     4  10  19  34  52  71  98 129 164 201 238 285
#     4   9  18  32  49  70  98 128 159 198 245 291
#     4  10  19  31  48  73 100 127 158 194 241 293
#     4   9  19  33  51  72  96 130 166 200 240 288
#     4   9  17  28  45  69  98 125 151 190 239 288
#     4   9  16  28  48  70  94 124 159 195 233 281
#     4   9  18  33  51  71  96 126 164 205 240 280
#
# _framework density 17.809660000000001
#
# number of rings (size 3 to 8) (size 9 to 14) (size 15 to 20)
#    0.000    2.750    1.250    0.375    1.750    0.000 
#    0.000    3.125    0.000    0.000    0.000    0.000 
#    0.000    0.000    0.000    0.000    0.000    0.000 
#
# Total GULP energy -793253.531161 kJ/mol
# GULP energy per Si atom -12394.586424 kJ/mol
# Density = 1.776912 g / cm^3
# Si number density = 17.809660 Si / 1000 Ang^3
#
#
#
# Elastic Constant Matrix: (Units=GPa)
#
#
# Indices 1 2 3 4 5 6 
#
# 1 95.9902 25.6001 74.8463 0.0000 0.0000 0.0000
# 2 25.6001 28.4005 35.2339 0.0000 0.0000 0.0000
# 3 74.8463 35.2339 163.5291 0.0000 0.0000 0.0000
# 4 0.0000 0.0000 0.0000 26.0770 0.0000 0.0000
# 5 0.0000 0.0000 0.0000 0.0000 25.9143 0.0000
# 6 0.0000 0.0000 0.0000 0.0000 0.0000 16.3319
#
#
#
# Elastic Compliance Matrix: (Units=1/GPa)
#
#
# Indices 1 2 3 4 5 6 
#
# 1 0.017415 -0.007929 -0.006263 0.000000 0.000000 0.000000
# 2 -0.007929 0.051666 -0.007503 0.000000 0.000000 0.000000
# 3 -0.006263 -0.007503 0.010598 0.000000 0.000000 0.000000
# 4 0.000000 0.000000 0.000000 0.038348 0.000000 0.000000
# 5 0.000000 0.000000 0.000000 0.000000 0.038589 0.000000
# 6 0.000000 0.000000 0.000000 0.000000 0.000000 0.061230
#
#
# Mechanical properties :
#
#
# Convention : Reuss Voigt Hill
#
# Bulk Modulus (GPa) = 27.55527 62.14225 44.84876
# Shear Modulus (GPa) = 18.29281 23.81394 21.05337
#
# Velocity S-wave (km/s) = 3.20836 3.66065 3.44195
# Velocity P-wave (km/s) = 5.40652 7.26879 6.40569
#
# Compressibility (1/GPa) = 0.03629070
#
# Stress axis : x y z
#
# Youngs Moduli (GPa) = 57.42040 19.35516 94.35686
#
# Poissons Ratio (x) = 0.15346 0.59092
# Poissons Ratio (y) = 0.45527 0.70796
# Poissons Ratio (z) = 0.35960 0.14522
#
# Static dielectric constant tensor:
#      x y z
#    x 3.461440 0.000000 0.000000 
#    y 0.000000 3.049570 0.000000 
#    z 0.000000 0.000000 3.438580 
# 
# 
# High freq. dielectric constant tensor:
#      x y z
#    x 1.688860 0.000000 0.000000 
#    y 0.000000 1.656170 0.000000 
#    z 0.000000 0.000000 1.687080 
# 
# From -- ./inp_files/20912.got.cif
#   From: 2010.03.12/outbox.cif.g09.slc.cpg/sg62_11_cif.got.tgz:20912.got - 2010.04.10 19:12:36.
