data_PCOD8250444
_publ_section_title
;
Structure prediction by ZEFSAII (Michael W. Deem and Ramdas Pophale) SiO2 
 PCOD8250444
Probable space group: P N M A
;
_chemical_formula_sum "Si O2"
_cell_formula_units_Z 64
_cell_length_a 23.162512
_cell_length_b 9.081780
_cell_length_c 18.998630
_cell_angle_alpha 90.000000
_cell_angle_beta 90.000000
_cell_angle_gamma 90.000000
_cell_volume 3996.491738
_symmetry_space_group_name_H-M "P N M A"
_symmetry_group_IT_number 62
_symmetry_cell_setting 'orthorhombic'
loop_
_space_group_symop_operation_xyz
x,y,z
1/2-x,-y,1/2+z
1/2+x,1/2-y,1/2-z
-x,1/2+y,-z
-x,-y,-z
1/2+x,y,1/2-z
1/2-x,1/2+y,1/2+z
x,1/2-y,z
loop_
_atom_site_type_symbol
_atom_site_label
_atom_site_fract_x
_atom_site_fract_y
_atom_site_fract_z
Si Si1 0.768352 0.579268 0.140034
Si Si2 0.117381 0.076878 0.507831
Si Si3 0.248508 0.920367 0.996390
Si Si4 0.437668 0.923928 0.863895
Si Si5 0.342185 0.918473 0.229543
Si Si6 0.932743 0.075406 0.355658
Si Si7 0.331224 0.924388 0.774947
Si Si8 0.725273 0.921223 0.346732
O O1 0.751042 0.750000 0.136821
O O2 0.783177 0.518335 0.062606
O O3 0.824538 0.556985 0.189187
O O4 0.714887 0.489405 0.170912
O O5 0.108274 0.250000 0.520922
O O6 0.184337 0.039437 0.498338
O O7 0.083811 0.016265 0.439412
O O8 0.093708 0.989395 0.573825
O O9 0.239669 0.750000 0.977617
O O10 0.219118 0.958549 0.071080
O O11 0.437091 0.750000 0.869343
O O12 0.501649 0.982474 0.847133
O O13 0.394564 0.973636 0.801569
O O14 0.359255 0.750000 0.214652
O O15 0.289163 0.965006 0.179201
O O16 0.396908 0.019862 0.211880
O O17 0.930022 0.250000 0.359076
O O18 0.323794 0.750000 0.774440
O O19 0.322320 0.986660 0.696320
O O20 0.714765 0.750000 0.330700
#
# Coordination Sequence:
#
# PCOD8250444 Si02
#       8
#     8   8   8   8   8   8   8   8
#     4  10  20  32  48  70  96 120 155 201 237 276
#     4  10  18  33  48  62  95 136 162 185 231 282
#     4  10  18  31  51  70  95 131 157 183 237 292
#     4   9  19  33  47  65  94 128 162 198 233 271
#     4   9  18  34  48  63  93 129 154 187 241 283
#     4  11  21  31  46  70  94 122 166 207 226 260
#     4  10  18  32  50  67  91 127 161 191 238 287
#     4   9  18  32  48  69  96 122 153 195 237 279
#
# _framework density 16.014044999999999
#
# number of rings (size 3 to 8) (size 9 to 14) (size 15 to 20)
#    0.000    2.250    2.500    2.250    0.000    3.500 
#    0.000    3.125    0.000    0.000    0.000    0.875 
#    0.000    0.000    0.000    0.000    0.000    0.000 
#
# Total GULP energy -793588.031009 kJ/mol
# GULP energy per Si atom -12399.812985 kJ/mol
# Density = 1.597760 g / cm^3
# Si number density = 16.014045 Si / 1000 Ang^3
#
#
#
# Elastic Constant Matrix: (Units=GPa)
#
#
# Indices 1 2 3 4 5 6 
#
# 1 64.9224 35.6044 51.8771 0.0000 0.0000 0.0000
# 2 35.6044 61.3572 46.9454 0.0000 0.0000 0.0000
# 3 51.8771 46.9454 119.0993 0.0000 0.0000 0.0000
# 4 0.0000 0.0000 0.0000 31.4452 0.0000 0.0000
# 5 0.0000 0.0000 0.0000 0.0000 13.4835 0.0000
# 6 0.0000 0.0000 0.0000 0.0000 0.0000 19.3017
#
#
#
# Elastic Compliance Matrix: (Units=1/GPa)
#
#
# Indices 1 2 3 4 5 6 
#
# 1 0.027052 -0.009568 -0.008012 0.000000 0.000000 0.000000
# 2 -0.009568 0.026720 -0.006365 0.000000 0.000000 0.000000
# 3 -0.008012 -0.006365 0.014395 0.000000 0.000000 0.000000
# 4 0.000000 0.000000 0.000000 0.031801 0.000000 0.000000
# 5 0.000000 0.000000 0.000000 0.000000 0.074164 0.000000
# 6 0.000000 0.000000 0.000000 0.000000 0.000000 0.051809
#
#
# Mechanical properties :
#
#
# Convention : Reuss Voigt Hill
#
# Bulk Modulus (GPa) = 49.31431 57.13696 53.22564
# Shear Modulus (GPa) = 17.81961 20.24288 19.03125
#
# Velocity S-wave (km/s) = 3.33941 3.55923 3.45107
# Velocity P-wave (km/s) = 6.76241 7.25587 7.01348
#
# Compressibility (1/GPa) = 0.02027809
#
# Stress axis : x y z
#
# Youngs Moduli (GPa) = 36.96560 37.42567 69.46876
#
# Poissons Ratio (x) = 0.35808 0.55659
# Poissons Ratio (y) = 0.35368 0.44214
# Poissons Ratio (z) = 0.29617 0.23820
#
# Static dielectric constant tensor:
#      x y z
#    x 3.093540 0.000000 0.000000 
#    y 0.000000 2.978540 0.000000 
#    z 0.000000 0.000000 3.161110 
# 
# 
# High freq. dielectric constant tensor:
#      x y z
#    x 1.587100 0.000000 0.000000 
#    y 0.000000 1.612110 0.000000 
#    z 0.000000 0.000000 1.615730 
# 
# From -- ./inp_files/27896.got.cif
#   From: 2010.03.12/outbox.cif.g09.slc.cpg/sg62_14_cif.got.tgz:27896.got - 2010.04.10 19:12:36.
