data_PCOD8250189
_publ_section_title
;
Structure prediction by ZEFSAII (Michael W. Deem and Ramdas Pophale) SiO2 
 PCOD8250189
Probable space group: P N M A
;
_chemical_formula_sum "Si O2"
_cell_formula_units_Z 56
_cell_length_a 9.167811
_cell_length_b 28.926227
_cell_length_c 13.466990
_cell_angle_alpha 90.000000
_cell_angle_beta 90.000000
_cell_angle_gamma 90.000000
_cell_volume 3571.313530
_symmetry_space_group_name_H-M "P N M A"
_symmetry_group_IT_number 62
_symmetry_cell_setting 'orthorhombic'
loop_
_space_group_symop_operation_xyz
x,y,z
1/2-x,-y,1/2+z
1/2+x,1/2-y,1/2-z
-x,1/2+y,-z
-x,-y,-z
1/2+x,y,1/2-z
1/2-x,1/2+y,1/2+z
x,1/2-y,z
loop_
_atom_site_type_symbol
_atom_site_label
_atom_site_fract_x
_atom_site_fract_y
_atom_site_fract_z
Si Si1 0.828323 0.149864 0.170625
Si Si2 0.798000 0.521100 0.367097
Si Si3 0.132039 0.519404 0.328925
Si Si4 0.338830 0.850883 0.624618
Si Si5 0.634402 0.750000 0.692273
Si Si6 0.181285 0.571115 0.522705
Si Si7 0.678048 0.250000 0.371039
Si Si8 0.845458 0.573277 0.560830
O O1 0.772117 0.143527 0.283018
O O2 0.806995 0.203656 0.137847
O O3 0.737076 0.119057 0.094839
O O4 0.999325 0.136754 0.163692
O O5 0.688117 0.533207 0.279189
O O6 0.761653 0.470631 0.409314
O O7 0.780947 0.558810 0.453976
O O8 0.959233 0.521586 0.323406
O O9 0.191678 0.556604 0.407840
O O10 0.182573 0.467966 0.360621
O O11 0.289152 0.885954 0.539146
O O12 0.329801 0.799499 0.572200
O O13 0.676412 0.750000 0.807170
O O14 0.460350 0.750000 0.702530
O O15 0.016331 0.584068 0.551648
#
# Coordination Sequence:
#
# PCOD8250189 Si02
#       8
#     8   8   8   8   4   8   4   8
#     4  10  18  28  43  63  87 115 143 173 208 249
#     4   9  18  31  45  61  86 115 142 174 210 246
#     4   9  18  31  45  61  86 115 142 174 210 246
#     4  10  18  28  43  63  87 115 143 173 208 249
#     4   8  16  28  40  58  85 112 139 170 207 248
#     4   9  18  31  44  62  87 114 142 173 209 249
#     4   8  16  28  40  58  85 112 139 170 207 248
#     4   9  18  31  44  62  87 114 142 173 209 249
#
# _framework density 15.680505
#
# number of rings (size 3 to 8) (size 9 to 14) (size 15 to 20)
#    0.000    2.857    0.000    3.429    0.000    5.714 
#    0.000    2.857    0.000    0.000    0.000    1.000 
#    0.000    0.000    0.000    0.000    0.000    0.000 
#
# Total GULP energy -693988.557489 kJ/mol
# GULP energy per Si atom -12392.652812 kJ/mol
# Density = 1.564482 g / cm^3
# Si number density = 15.680505 Si / 1000 Ang^3
#
#
#
# Elastic Constant Matrix: (Units=GPa)
#
#
# Indices 1 2 3 4 5 6 
#
# 1 29.5283 22.0052 4.0392 0.0000 0.0000 0.0000
# 2 22.0052 81.9679 15.9403 0.0000 0.0000 0.0000
# 3 4.0392 15.9403 49.3457 0.0000 0.0000 0.0000
# 4 0.0000 0.0000 0.0000 20.1159 0.0000 0.0000
# 5 0.0000 0.0000 0.0000 0.0000 27.8923 0.0000
# 6 0.0000 0.0000 0.0000 0.0000 0.0000 26.6690
#
#
#
# Elastic Compliance Matrix: (Units=1/GPa)
#
#
# Indices 1 2 3 4 5 6 
#
# 1 0.042338 -0.011409 0.000220 0.000000 0.000000 0.000000
# 2 -0.011409 0.016092 -0.004264 0.000000 0.000000 0.000000
# 3 0.000220 -0.004264 0.021625 0.000000 0.000000 0.000000
# 4 0.000000 0.000000 0.000000 0.049712 0.000000 0.000000
# 5 0.000000 0.000000 0.000000 0.000000 0.035852 0.000000
# 6 0.000000 0.000000 0.000000 0.000000 0.000000 0.037497
#
#
# Mechanical properties :
#
#
# Convention : Reuss Voigt Hill
#
# Bulk Modulus (GPa) = 20.34676 27.20127 23.77402
# Shear Modulus (GPa) = 19.96767 22.85925 21.41346
#
# Velocity S-wave (km/s) = 3.57235 3.82227 3.69943
# Velocity P-wave (km/s) = 5.47902 6.07162 5.78291
#
# Compressibility (1/GPa) = 0.04914787
#
# Stress axis : x y z
#
# Youngs Moduli (GPa) = 23.61952 62.14254 46.24338
#
# Poissons Ratio (x) = 0.70897 -0.01017
# Poissons Ratio (y) = 0.26947 0.19720
# Poissons Ratio (z) = -0.00519 0.26500
#
# Static dielectric constant tensor:
#      x y z
#    x 2.974940 0.000000 0.000000 
#    y 0.000000 3.143400 0.000000 
#    z 0.000000 0.000000 2.692190 
# 
# 
# High freq. dielectric constant tensor:
#      x y z
#    x 1.608840 0.000000 0.000000 
#    y 0.000000 1.601780 0.000000 
#    z 0.000000 0.000000 1.563570 
# 
# From -- ./inp_files/17424.got.cif
#   From: 2010.03.12/outbox.cif.g09.slc.cpg/sg62_9_cif.got.tgz:17424.got - 2010.04.10 19:12:36.
