data_PCOD8250994
_publ_section_title
;
Structure prediction by ZEFSAII (Michael W. Deem and Ramdas Pophale) SiO2 
 PCOD8250994
Probable space group: P N M A
;
_chemical_formula_sum "Si O2"
_cell_formula_units_Z 64
_cell_length_a 22.418392
_cell_length_b 9.204019
_cell_length_c 16.972990
_cell_angle_alpha 90.000000
_cell_angle_beta 90.000000
_cell_angle_gamma 90.000000
_cell_volume 3502.194976
_symmetry_space_group_name_H-M "P N M A"
_symmetry_group_IT_number 62
_symmetry_cell_setting 'orthorhombic'
loop_
_space_group_symop_operation_xyz
x,y,z
1/2-x,-y,1/2+z
1/2+x,1/2-y,1/2-z
-x,1/2+y,-z
-x,-y,-z
1/2+x,y,1/2-z
1/2-x,1/2+y,1/2+z
x,1/2-y,z
loop_
_atom_site_type_symbol
_atom_site_label
_atom_site_fract_x
_atom_site_fract_y
_atom_site_fract_z
Si Si1 0.214462 0.577389 0.659645
Si Si2 0.618052 0.915390 0.718733
Si Si3 0.898879 0.423234 0.642889
Si Si4 0.935863 0.583293 0.086708
Si Si5 0.977361 0.082938 0.351214
Si Si6 0.842328 0.578415 0.786177
Si Si7 0.624753 0.922168 0.966830
Si Si8 0.555818 0.083671 0.408331
O O1 0.213935 0.750000 0.656648
O O2 0.173913 0.523546 0.732143
O O3 0.281356 0.520559 0.673569
O O4 0.184328 0.518501 0.578140
O O5 0.629043 0.750000 0.693960
O O6 0.557663 0.929969 0.769157
O O7 0.614670 0.008099 0.639113
O O8 0.898934 0.250000 0.651548
O O9 0.853502 0.493163 0.705273
O O10 0.875578 0.474145 0.556941
O O11 0.965333 0.481410 0.655638
O O12 0.938911 0.750000 0.110019
O O13 0.999713 0.516705 0.107196
O O14 0.918325 0.559318 0.995846
O O15 0.997288 0.250000 0.365167
O O16 0.935357 0.024636 0.422251
O O17 0.839649 0.750000 0.768434
O O18 0.893905 0.538374 0.847071
O O19 0.624448 0.750000 0.960460
O O20 0.535466 0.250000 0.396815
#
# Coordination Sequence:
#
# PCOD8250994 Si02
#       8
#     8   8   8   8   8   8   8   8
#     4   8  16  34  56  71  90 129 176 208 235 284
#     4   9  17  31  52  75  97 127 167 207 243 286
#     4  11  21  31  48  79 110 130 156 202 259 303
#     4  10  19  31  49  76 104 128 161 204 254 302
#     4   9  17  31  52  75 102 135 169 200 235 292
#     4  10  20  36  55  71  94 132 176 210 239 290
#     4   8  16  32  52  75 100 130 168 206 243 288
#     4   9  19  34  50  71  98 131 169 206 244 291
#
# _framework density 18.274253000000002
#
# number of rings (size 3 to 8) (size 9 to 14) (size 15 to 20)
#    0.000    2.750    0.000    3.375    0.000    4.500 
#    2.250    1.250    0.000    3.750    0.000    0.000 
#    0.000    0.000    0.000    0.000    0.000    0.000 
#
# Total GULP energy -793455.165373 kJ/mol
# GULP energy per Si atom -12397.736959 kJ/mol
# Density = 1.823266 g / cm^3
# Si number density = 18.274253 Si / 1000 Ang^3
#
#
#
# Elastic Constant Matrix: (Units=GPa)
#
#
# Indices 1 2 3 4 5 6 
#
# 1 60.9060 16.9172 28.4173 0.0000 0.0000 0.0000
# 2 16.9172 50.3196 32.8437 0.0000 0.0000 0.0000
# 3 28.4173 32.8437 95.8237 0.0000 0.0000 0.0000
# 4 0.0000 0.0000 0.0000 28.9335 0.0000 0.0000
# 5 0.0000 0.0000 0.0000 0.0000 17.4203 0.0000
# 6 0.0000 0.0000 0.0000 0.0000 0.0000 15.8245
#
#
#
# Elastic Compliance Matrix: (Units=1/GPa)
#
#
# Indices 1 2 3 4 5 6 
#
# 1 0.019547 -0.003591 -0.004566 0.000000 0.000000 0.000000
# 2 -0.003591 0.026260 -0.007936 0.000000 0.000000 0.000000
# 3 -0.004566 -0.007936 0.014510 0.000000 0.000000 0.000000
# 4 0.000000 0.000000 0.000000 0.034562 0.000000 0.000000
# 5 0.000000 0.000000 0.000000 0.000000 0.057404 0.000000
# 6 0.000000 0.000000 0.000000 0.000000 0.000000 0.063193
#
#
# Mechanical properties :
#
#
# Convention : Reuss Voigt Hill
#
# Bulk Modulus (GPa) = 35.54817 40.37841 37.96329
# Shear Modulus (GPa) = 19.45237 21.02707 20.23972
#
# Velocity S-wave (km/s) = 3.26616 3.39579 3.33160
# Velocity P-wave (km/s) = 5.80677 6.12527 5.96814
#
# Compressibility (1/GPa) = 0.02813084
#
# Stress axis : x y z
#
# Youngs Moduli (GPa) = 51.15989 38.08085 68.91910
#
# Poissons Ratio (x) = 0.13676 0.31467
# Poissons Ratio (y) = 0.18374 0.54691
# Poissons Ratio (z) = 0.23358 0.30219
#
# Static dielectric constant tensor:
#      x y z
#    x 3.406550 0.000000 0.000000 
#    y 0.000000 3.114150 0.000000 
#    z 0.000000 0.000000 3.630900 
# 
# 
# High freq. dielectric constant tensor:
#      x y z
#    x 1.697080 0.000000 0.000000 
#    y 0.000000 1.680460 0.000000 
#    z 0.000000 0.000000 1.719070 
# 
# From -- ./inp_files/24793.got.cif
#   From: 2010.03.12/outbox.cif.g09.slc.cpg/sg62_13_cif.got.tgz:24793.got - 2010.04.10 19:12:36.
