data_PCOD8250899
_publ_section_title
;
Structure prediction by ZEFSAII (Michael W. Deem and Ramdas Pophale) SiO2 
 PCOD8250899
Probable space group: P N M A
;
_chemical_formula_sum "Si O2"
_cell_formula_units_Z 64
_cell_length_a 23.125763
_cell_length_b 8.919546
_cell_length_c 18.927456
_cell_angle_alpha 90.000000
_cell_angle_beta 90.000000
_cell_angle_gamma 90.000000
_cell_volume 3904.191085
_symmetry_space_group_name_H-M "P N M A"
_symmetry_group_IT_number 62
_symmetry_cell_setting 'orthorhombic'
loop_
_space_group_symop_operation_xyz
x,y,z
1/2-x,-y,1/2+z
1/2+x,1/2-y,1/2-z
-x,1/2+y,-z
-x,-y,-z
1/2+x,y,1/2-z
1/2-x,1/2+y,1/2+z
x,1/2-y,z
loop_
_atom_site_type_symbol
_atom_site_label
_atom_site_fract_x
_atom_site_fract_y
_atom_site_fract_z
Si Si1 0.239147 0.576695 0.845556
Si Si2 0.842762 0.425136 0.734809
Si Si3 0.065292 0.072257 0.350695
Si Si4 0.620153 0.575493 0.015013
Si Si5 0.437168 0.073669 0.128703
Si Si6 0.826466 0.077398 0.291886
Si Si7 0.255657 0.923145 0.488167
Si Si8 0.724899 0.575790 0.371721
O O1 0.255932 0.750000 0.853627
O O2 0.295219 0.490008 0.818378
O O3 0.185849 0.554835 0.791172
O O4 0.219548 0.509976 0.920268
O O5 0.846805 0.250000 0.718846
O O6 0.904134 0.502454 0.718473
O O7 0.826381 0.458333 0.816001
O O8 0.065940 0.250000 0.344045
O O9 0.000115 0.005946 0.354069
O O10 0.099988 0.023634 0.419835
O O11 0.607346 0.750000 0.030249
O O12 0.586287 0.514108 0.946373
O O13 0.687699 0.548288 0.002047
O O14 0.443221 0.250000 0.122429
O O15 0.392508 0.030574 0.191371
O O16 0.815161 0.250000 0.314873
O O17 0.785319 0.973905 0.338239
O O18 0.270845 0.750000 0.479110
O O19 0.288679 0.985611 0.556952
O O20 0.728919 0.750000 0.389917
#
# Coordination Sequence:
#
# PCOD8250899 Si02
#       8
#     8   8   8   8   8   8   8   8
#     4  10  19  30  50  73  94 122 160 200 236 286
#     4  10  20  34  48  66  96 129 157 197 246 283
#     4  11  21  31  48  70  94 127 168 206 229 271
#     4  10  19  32  47  64  96 135 164 192 232 280
#     4   9  18  33  49  67  93 128 167 199 234 277
#     4   9  17  33  51  68  94 127 159 196 244 287
#     4  11  20  31  50  71  98 132 157 191 242 290
#     4  10  20  32  49  71  95 122 160 202 237 283
#
# _framework density 16.39264
#
# number of rings (size 3 to 8) (size 9 to 14) (size 15 to 20)
#    0.000    2.000    2.500    2.250    0.000    2.500 
#    0.000    1.875    0.000    0.000    0.000    0.875 
#    0.000    0.000    0.000    0.000    0.000    0.000 
#
# Total GULP energy -793649.268700 kJ/mol
# GULP energy per Si atom -12400.769823 kJ/mol
# Density = 1.635533 g / cm^3
# Si number density = 16.392640 Si / 1000 Ang^3
#
#
#
# Elastic Constant Matrix: (Units=GPa)
#
#
# Indices 1 2 3 4 5 6 
#
# 1 55.0933 21.7713 27.5846 0.0000 0.0000 0.0000
# 2 21.7713 64.6851 35.4220 0.0000 0.0000 0.0000
# 3 27.5846 35.4220 95.6875 0.0000 0.0000 0.0000
# 4 0.0000 0.0000 0.0000 25.7960 0.0000 0.0000
# 5 0.0000 0.0000 0.0000 0.0000 21.6588 0.0000
# 6 0.0000 0.0000 0.0000 0.0000 0.0000 16.5717
#
#
#
# Elastic Compliance Matrix: (Units=1/GPa)
#
#
# Indices 1 2 3 4 5 6 
#
# 1 0.022447 -0.005031 -0.004608 0.000000 0.000000 0.000000
# 2 -0.005031 0.020518 -0.006145 0.000000 0.000000 0.000000
# 3 -0.004608 -0.006145 0.014054 0.000000 0.000000 0.000000
# 4 0.000000 0.000000 0.000000 0.038766 0.000000 0.000000
# 5 0.000000 0.000000 0.000000 0.000000 0.046171 0.000000
# 6 0.000000 0.000000 0.000000 0.000000 0.000000 0.060344
#
#
# Mechanical properties :
#
#
# Convention : Reuss Voigt Hill
#
# Bulk Modulus (GPa) = 39.29409 42.78021 41.03715
# Shear Modulus (GPa) = 20.63125 21.51786 21.07455
#
# Velocity S-wave (km/s) = 3.55148 3.62699 3.58943
# Velocity P-wave (km/s) = 6.39061 6.61014 6.50130
#
# Compressibility (1/GPa) = 0.02544912
#
# Stress axis : x y z
#
# Youngs Moduli (GPa) = 44.55016 48.73777 71.15445
#
# Poissons Ratio (x) = 0.24522 0.32790
# Poissons Ratio (y) = 0.22415 0.43724
# Poissons Ratio (z) = 0.20530 0.29949
#
# Static dielectric constant tensor:
#      x y z
#    x 3.126190 0.000000 0.000000 
#    y 0.000000 3.087360 0.000000 
#    z 0.000000 0.000000 3.207390 
# 
# 
# High freq. dielectric constant tensor:
#      x y z
#    x 1.600880 0.000000 0.000000 
#    y 0.000000 1.633700 0.000000 
#    z 0.000000 0.000000 1.630180 
# 
# From -- ./inp_files/24970.got.cif
#   From: 2010.03.12/outbox.cif.g09.slc.cpg/sg62_13_cif.got.tgz:24970.got - 2010.04.10 19:12:36.
