data_PCOD8250991
_publ_section_title
;
Structure prediction by ZEFSAII (Michael W. Deem and Ramdas Pophale) SiO2 
 PCOD8250991
Probable space group: P N M A
;
_chemical_formula_sum "Si O2"
_cell_formula_units_Z 64
_cell_length_a 24.066017
_cell_length_b 22.593194
_cell_length_c 6.431080
_cell_angle_alpha 90.000000
_cell_angle_beta 90.000000
_cell_angle_gamma 90.000000
_cell_volume 3496.759494
_symmetry_space_group_name_H-M "P N M A"
_symmetry_group_IT_number 62
_symmetry_cell_setting 'orthorhombic'
loop_
_space_group_symop_operation_xyz
x,y,z
1/2-x,-y,1/2+z
1/2+x,1/2-y,1/2-z
-x,1/2+y,-z
-x,-y,-z
1/2+x,y,1/2-z
1/2-x,1/2+y,1/2+z
x,1/2-y,z
loop_
_atom_site_type_symbol
_atom_site_label
_atom_site_fract_x
_atom_site_fract_y
_atom_site_fract_z
Si Si1 0.585596 0.026196 0.876969
Si Si2 0.599520 0.685792 0.044586
Si Si3 0.289196 0.318213 0.718163
Si Si4 0.971771 0.075237 0.618858
Si Si5 0.743544 0.918550 0.985208
Si Si6 0.818447 0.520479 0.681984
Si Si7 0.160649 0.862309 0.818109
Si Si8 0.098092 0.961524 0.026530
O O1 0.538406 0.076090 0.912555
O O2 0.596803 0.016841 0.632023
O O3 0.641911 0.046016 0.997179
O O4 0.559865 0.963865 0.948411
O O5 0.573001 0.750000 0.079985
O O6 0.647692 0.673425 0.210554
O O7 0.549342 0.641312 0.084518
O O8 0.627678 0.686355 0.815619
O O9 0.268335 0.250000 0.749632
O O10 0.292806 0.334067 0.472383
O O11 0.249372 0.364223 0.847354
O O12 0.959423 0.047855 0.848054
O O13 0.796891 0.926330 0.832006
O O14 0.690591 0.906406 0.842021
O O15 0.733641 0.982422 0.094353
O O16 0.853855 0.473254 0.807962
O O17 0.112573 0.899184 0.926666
#
# Coordination Sequence:
#
# PCOD8250991 Si02
#       8
#     8   8   8   8   8   8   8   8
#     4  10  20  33  50  73 108 137 172 216 257 320
#     4  10  19  31  49  75 106 135 170 214 257 314
#     4  10  20  34  51  75 106 140 176 216 266 324
#     4  10  19  32  50  75 102 139 174 206 263 317
#     4  11  22  33  52  76 108 141 173 219 269 326
#     4  11  22  33  50  80 105 138 176 216 271 320
#     4  11  17  32  51  75 107 137 171 211 269 321
#     4  11  17  32  51  74 105 136 170 212 263 321
#
# _framework density 18.302661000000001
#
# number of rings (size 3 to 8) (size 9 to 14) (size 15 to 20)
#    0.000    1.500    5.000    3.000    0.000    0.500 
#    0.000    0.000    0.000    0.750    0.000    0.875 
#    0.000    0.000    0.000    0.000    0.000    0.000 
#
# Total GULP energy -793210.005290 kJ/mol
# GULP energy per Si atom -12393.906333 kJ/mol
# Density = 1.826100 g / cm^3
# Si number density = 18.302661 Si / 1000 Ang^3
#
#
#
# Elastic Constant Matrix: (Units=GPa)
#
#
# Indices 1 2 3 4 5 6 
#
# 1 55.0130 24.5925 19.6393 0.0000 0.0000 0.0000
# 2 24.5925 84.1971 24.6973 0.0000 0.0000 0.0000
# 3 19.6393 24.6973 95.4581 0.0000 0.0000 0.0000
# 4 0.0000 0.0000 0.0000 21.0460 0.0000 0.0000
# 5 0.0000 0.0000 0.0000 0.0000 23.7703 0.0000
# 6 0.0000 0.0000 0.0000 0.0000 0.0000 24.0501
#
#
#
# Elastic Compliance Matrix: (Units=1/GPa)
#
#
# Indices 1 2 3 4 5 6 
#
# 1 0.021702 -0.005442 -0.003057 0.000000 0.000000 0.000000
# 2 -0.005442 0.014217 -0.002559 0.000000 0.000000 0.000000
# 3 -0.003057 -0.002559 0.011767 0.000000 0.000000 0.000000
# 4 0.000000 0.000000 0.000000 0.047515 0.000000 0.000000
# 5 0.000000 0.000000 0.000000 0.000000 0.042069 0.000000
# 6 0.000000 0.000000 0.000000 0.000000 0.000000 0.041580
#
#
# Mechanical properties :
#
#
# Convention : Reuss Voigt Hill
#
# Bulk Modulus (GPa) = 39.10799 41.39180 40.24990
# Shear Modulus (GPa) = 23.86776 24.82256 24.34516
#
# Velocity S-wave (km/s) = 3.61509 3.68669 3.65107
# Velocity P-wave (km/s) = 6.23209 6.38644 6.30974
#
# Compressibility (1/GPa) = 0.02557022
#
# Stress axis : x y z
#
# Youngs Moduli (GPa) = 46.07972 70.33872 84.98571
#
# Poissons Ratio (x) = 0.38278 0.25979
# Poissons Ratio (y) = 0.25076 0.21745
# Poissons Ratio (z) = 0.14086 0.17997
#
# Static dielectric constant tensor:
#      x y z
#    x 3.113820 0.000000 0.000000 
#    y 0.000000 3.146400 0.000000 
#    z 0.000000 0.000000 3.777080 
# 
# 
# High freq. dielectric constant tensor:
#      x y z
#    x 1.670700 0.000000 0.000000 
#    y 0.000000 1.679110 0.000000 
#    z 0.000000 0.000000 1.733360 
# 
# From -- ./inp_files/2894.got.cif
#   From: 2010.03.12/outbox.cif.g09.slc.cpg/sg62_2_cif.got.tgz:2894.got - 2010.04.10 19:12:36.
