data_PCOD8250216
_publ_section_title
;
Structure prediction by ZEFSAII (Michael W. Deem and Ramdas Pophale) SiO2 
 PCOD8250216
Probable space group: P N M A
;
_chemical_formula_sum "Si O2"
_cell_formula_units_Z 64
_cell_length_a 23.415168
_cell_length_b 8.821968
_cell_length_c 19.253373
_cell_angle_alpha 90.000000
_cell_angle_beta 90.000000
_cell_angle_gamma 90.000000
_cell_volume 3977.128113
_symmetry_space_group_name_H-M "P N M A"
_symmetry_group_IT_number 62
_symmetry_cell_setting 'orthorhombic'
loop_
_space_group_symop_operation_xyz
x,y,z
1/2-x,-y,1/2+z
1/2+x,1/2-y,1/2-z
-x,1/2+y,-z
-x,-y,-z
1/2+x,y,1/2-z
1/2-x,1/2+y,1/2+z
x,1/2-y,z
loop_
_atom_site_type_symbol
_atom_site_label
_atom_site_fract_x
_atom_site_fract_y
_atom_site_fract_z
Si Si1 0.268569 0.571627 0.846828
Si Si2 0.756249 0.429256 0.002204
Si Si3 0.059175 0.571743 0.140205
Si Si4 0.384618 0.430197 0.498076
Si Si5 0.438604 0.070780 0.355027
Si Si6 0.660789 0.070206 0.726066
Si Si7 0.272965 0.570987 0.144404
Si Si8 0.665581 0.572745 0.268084
O O1 0.259623 0.750000 0.837077
O O2 0.277968 0.528224 0.927857
O O3 0.211171 0.488580 0.823013
O O4 0.323996 0.515378 0.804373
O O5 0.761857 0.250000 0.995263
O O6 0.820496 0.496678 0.004048
O O7 0.722744 0.494838 0.934280
O O8 0.046728 0.750000 0.136118
O O9 0.083199 0.510526 0.066781
O O10 0.103731 0.533819 0.201464
O O11 0.002339 0.483038 0.159625
O O12 0.382769 0.250000 0.499139
O O13 0.418257 0.489655 0.430329
O O14 0.434902 0.250000 0.351104
O O15 0.399018 0.002916 0.294712
O O16 0.657133 0.250000 0.718838
O O17 0.674853 0.019544 0.805831
O O18 0.272306 0.750000 0.140800
O O19 0.212959 0.516323 0.177018
O O20 0.672504 0.750000 0.253030
#
# Coordination Sequence:
#
# PCOD8250216 Si02
#       8
#     8   8   8   8   8   8   8   8
#     4  10  18  28  47  70  95 121 148 187 235 280
#     4   9  14  25  46  70  92 120 153 183 224 275
#     4  10  19  32  50  67  88 126 168 199 222 260
#     4   9  16  28  45  65  93 126 160 190 221 265
#     4  11  21  32  46  66  95 127 156 193 236 274
#     4  10  19  31  47  67  90 120 159 195 226 268
#     4   8  14  26  46  67  87 115 153 191 223 264
#     4   9  17  30  47  66  90 121 156 192 227 266
#
# _framework density 16.092013999999999
#
# number of rings (size 3 to 8) (size 9 to 14) (size 15 to 20)
#    0.000    2.500    2.500    2.250    0.000    0.500 
#    0.000    0.625    0.000    7.500    0.000    0.875 
#    0.000    0.000    0.000    0.000    0.000    0.000 
#
# Total GULP energy -793285.409279 kJ/mol
# GULP energy per Si atom -12395.084520 kJ/mol
# Density = 1.605539 g / cm^3
# Si number density = 16.092014 Si / 1000 Ang^3
#
#
#
# Elastic Constant Matrix: (Units=GPa)
#
#
# Indices 1 2 3 4 5 6 
#
# 1 93.2563 32.1838 73.2398 0.0000 0.0000 0.0000
# 2 32.1838 41.0584 32.9928 0.0000 0.0000 0.0000
# 3 73.2398 32.9928 144.5553 0.0000 0.0000 0.0000
# 4 0.0000 0.0000 0.0000 18.7492 0.0000 0.0000
# 5 0.0000 0.0000 0.0000 0.0000 24.6226 0.0000
# 6 0.0000 0.0000 0.0000 0.0000 0.0000 22.9671
#
#
#
# Elastic Compliance Matrix: (Units=1/GPa)
#
#
# Indices 1 2 3 4 5 6 
#
# 1 0.020403 -0.009413 -0.008189 0.000000 0.000000 0.000000
# 2 -0.009413 0.034168 -0.003029 0.000000 0.000000 0.000000
# 3 -0.008189 -0.003029 0.011758 0.000000 0.000000 0.000000
# 4 0.000000 0.000000 0.000000 0.053336 0.000000 0.000000
# 5 0.000000 0.000000 0.000000 0.000000 0.040613 0.000000
# 6 0.000000 0.000000 0.000000 0.000000 0.000000 0.043541
#
#
# Mechanical properties :
#
#
# Convention : Reuss Voigt Hill
#
# Bulk Modulus (GPa) = 39.89298 61.74477 50.81887
# Shear Modulus (GPa) = 19.72890 22.63136 21.18013
#
# Velocity S-wave (km/s) = 3.50523 3.75423 3.63187
# Velocity P-wave (km/s) = 6.42079 7.56607 7.01684
#
# Compressibility (1/GPa) = 0.02506707
#
# Stress axis : x y z
#
# Youngs Moduli (GPa) = 49.01312 29.26721 85.04749
#
# Poissons Ratio (x) = 0.27548 0.69644
# Poissons Ratio (y) = 0.46134 0.25765
# Poissons Ratio (z) = 0.40136 0.08866
#
# Static dielectric constant tensor:
#      x y z
#    x 2.913310 0.000000 0.000000 
#    y 0.000000 2.807790 0.000000 
#    z 0.000000 0.000000 3.437310 
# 
# 
# High freq. dielectric constant tensor:
#      x y z
#    x 1.592710 0.000000 0.000000 
#    y 0.000000 1.594670 0.000000 
#    z 0.000000 0.000000 1.620750 
# 
# From -- ./inp_files/27934.got.cif
#   From: 2010.03.12/outbox.cif.g09.slc.cpg/sg62_14_cif.got.tgz:27934.got - 2010.04.10 19:12:36.
