data_PCOD8250255
_publ_section_title
;
Structure prediction by ZEFSAII (Michael W. Deem and Ramdas Pophale) SiO2 
 PCOD8250255
Probable space group: P N M A
;
_chemical_formula_sum "Si O2"
_cell_formula_units_Z 64
_cell_length_a 18.155883
_cell_length_b 8.949396
_cell_length_c 26.304020
_cell_angle_alpha 90.000000
_cell_angle_beta 90.000000
_cell_angle_gamma 90.000000
_cell_volume 4273.987297
_symmetry_space_group_name_H-M "P N M A"
_symmetry_group_IT_number 62
_symmetry_cell_setting 'orthorhombic'
loop_
_space_group_symop_operation_xyz
x,y,z
1/2-x,-y,1/2+z
1/2+x,1/2-y,1/2-z
-x,1/2+y,-z
-x,-y,-z
1/2+x,y,1/2-z
1/2-x,1/2+y,1/2+z
x,1/2-y,z
loop_
_atom_site_type_symbol
_atom_site_label
_atom_site_fract_x
_atom_site_fract_y
_atom_site_fract_z
Si Si1 0.419832 0.076641 0.760092
Si Si2 0.917567 0.574600 0.446380
Si Si3 0.653106 0.079256 0.144619
Si Si4 0.217293 0.920798 0.200031
Si Si5 0.568072 0.917891 0.752721
Si Si6 0.086293 0.925325 0.449608
Si Si7 0.214911 0.581695 0.790373
Si Si8 0.838412 0.421785 0.354227
O O1 0.416091 0.250000 0.775960
O O2 0.369529 0.046663 0.709856
O O3 0.394764 0.978783 0.808027
O O4 0.502682 0.034318 0.745016
O O5 0.908035 0.750000 0.452069
O O6 0.888281 0.499734 0.497895
O O7 0.869400 0.518466 0.399925
O O8 0.002394 0.529621 0.436520
O O9 0.629635 0.250000 0.134531
O O10 0.741047 0.066912 0.156487
O O11 0.638797 0.982958 0.094839
O O12 0.231301 0.750000 0.184524
O O13 0.254754 0.953068 0.254091
O O14 0.254403 0.024932 0.157082
O O15 0.535858 0.750000 0.752975
O O16 0.626295 0.938938 0.705868
O O17 0.611249 0.950544 0.805044
O O18 0.095945 0.750000 0.455219
O O19 0.229525 0.750000 0.767531
O O20 0.837110 0.250000 0.370555
#
# Coordination Sequence:
#
# PCOD8250255 Si02
#       8
#     8   8   8   8   8   8   8   8
#     4  10  19  28  40  61  86 111 141 174 207 245
#     4  10  20  32  45  61  83 111 141 174 210 244
#     4  10  18  29  45  61  81 111 143 173 208 248
#     4   9  17  28  41  58  81 108 138 172 207 244
#     4   9  17  28  42  60  83 111 141 171 204 244
#     4  10  20  32  45  62  84 109 140 176 209 243
#     4   8  16  29  42  58  80 107 139 172 205 244
#     4  10  19  30  44  61  82 110 143 175 208 247
#
# _framework density 14.974308000000001
#
# number of rings (size 3 to 8) (size 9 to 14) (size 15 to 20)
#    0.000    2.500    0.000    3.750    0.000    8.000 
#    0.000    0.000    0.000    0.000    0.000    0.000 
#    0.000    1.000    0.000    3.000    0.000    4.625 
#
# Total GULP energy -793307.032078 kJ/mol
# GULP energy per Si atom -12395.422376 kJ/mol
# Density = 1.494023 g / cm^3
# Si number density = 14.974308 Si / 1000 Ang^3
#
#
#
# Elastic Constant Matrix: (Units=GPa)
#
#
# Indices 1 2 3 4 5 6 
#
# 1 80.9959 33.5583 38.2079 0.0000 0.0000 0.0000
# 2 33.5583 63.3151 28.4349 0.0000 0.0000 0.0000
# 3 38.2079 28.4349 66.8627 0.0000 0.0000 0.0000
# 4 0.0000 0.0000 0.0000 25.3507 0.0000 0.0000
# 5 0.0000 0.0000 0.0000 0.0000 20.8615 0.0000
# 6 0.0000 0.0000 0.0000 0.0000 0.0000 22.4580
#
#
#
# Elastic Compliance Matrix: (Units=1/GPa)
#
#
# Indices 1 2 3 4 5 6 
#
# 1 0.018757 -0.006339 -0.008023 0.000000 0.000000 0.000000
# 2 -0.006339 0.021665 -0.005591 0.000000 0.000000 0.000000
# 3 -0.008023 -0.005591 0.021918 0.000000 0.000000 0.000000
# 4 0.000000 0.000000 0.000000 0.039447 0.000000 0.000000
# 5 0.000000 0.000000 0.000000 0.000000 0.047935 0.000000
# 6 0.000000 0.000000 0.000000 0.000000 0.000000 0.044528
#
#
# Mechanical properties :
#
#
# Convention : Reuss Voigt Hill
#
# Bulk Modulus (GPa) = 44.57383 45.73064 45.15224
# Shear Modulus (GPa) = 20.69250 21.13220 20.91235
#
# Velocity S-wave (km/s) = 3.72138 3.76071 3.74110
# Velocity P-wave (km/s) = 6.94956 7.03299 6.99140
#
# Compressibility (1/GPa) = 0.02243469
#
# Stress axis : x y z
#
# Youngs Moduli (GPa) = 53.31306 46.15819 45.62367
#
# Poissons Ratio (x) = 0.29258 0.36604
# Poissons Ratio (y) = 0.33793 0.25509
# Poissons Ratio (z) = 0.42773 0.25808
#
# Static dielectric constant tensor:
#      x y z
#    x 2.997180 0.000000 0.000000 
#    y 0.000000 2.997660 0.000000 
#    z 0.000000 0.000000 2.691230 
# 
# 
# High freq. dielectric constant tensor:
#      x y z
#    x 1.560620 0.000000 0.000000 
#    y 0.000000 1.591750 0.000000 
#    z 0.000000 0.000000 1.535770 
# 
# From -- ./inp_files/30031.got.cif
#   From: 2010.03.12/outbox.cif.g09.slc.cpg/sg62_16_cif.got.tgz:30031.got - 2010.04.10 19:12:36.
