data_PCOD8250324
_publ_section_title
;
Structure prediction by ZEFSAII (Michael W. Deem and Ramdas Pophale) SiO2 
 PCOD8250324
Probable space group: P N M A
;
_chemical_formula_sum "Si O2"
_cell_formula_units_Z 64
_cell_length_a 5.444129
_cell_length_b 17.670764
_cell_length_c 30.305132
_cell_angle_alpha 90.000000
_cell_angle_beta 90.000000
_cell_angle_gamma 90.000000
_cell_volume 2915.411846
_symmetry_space_group_name_H-M "P N M A"
_symmetry_group_IT_number 62
_symmetry_cell_setting 'orthorhombic'
loop_
_space_group_symop_operation_xyz
x,y,z
1/2-x,-y,1/2+z
1/2+x,1/2-y,1/2-z
-x,1/2+y,-z
-x,-y,-z
1/2+x,y,1/2-z
1/2-x,1/2+y,1/2+z
x,1/2-y,z
loop_
_atom_site_type_symbol
_atom_site_label
_atom_site_fract_x
_atom_site_fract_y
_atom_site_fract_z
Si Si1 0.607363 0.836530 0.060566
Si Si2 0.736499 0.535507 0.432614
Si Si3 0.860089 0.591841 0.135643
Si Si4 0.950647 0.953423 0.639855
Si Si5 0.444044 0.067198 0.235082
Si Si6 0.186342 0.385514 0.025464
Si Si7 0.311631 0.663327 0.926819
Si Si8 0.493416 0.897252 0.269819
O O1 0.524382 0.750000 0.053524
O O2 0.381845 0.892161 0.049037
O O3 0.683445 0.845924 0.112392
O O4 0.821974 0.859626 0.025831
O O5 0.501425 0.563995 0.407151
O O6 0.675519 0.477641 0.472434
O O7 0.882866 0.484605 0.398534
O O8 0.013306 0.622398 0.177503
O O9 0.722186 0.520703 0.157096
O O10 0.109335 0.932192 0.682726
O O11 0.802512 0.883066 0.619226
O O12 0.207053 0.109360 0.256448
O O13 0.494274 0.985940 0.258101
O O14 0.439275 0.353244 0.045954
O O15 0.938744 0.353503 0.046970
O O16 0.312687 0.750000 0.912946
O O17 0.240646 0.860090 0.251031
#
# Coordination Sequence:
#
# PCOD8250324 Si02
#       8
#     8   8   8   8   8   8   8   8
#     4  11  26  42  60  90 131 171 207 260 332 394
#     4  10  22  39  64  92 123 165 213 271 316 369
#     4  11  21  37  62  91 123 158 208 263 316 372
#     4  10  20  35  57  91 124 157 206 265 310 367
#     4  10  18  29  53  85 119 151 199 252 306 357
#     4  11  24  44  67  91 122 168 225 264 311 373
#     4  11  23  40  64  91 127 169 214 264 320 379
#     4  10  19  32  58  89 118 149 200 257 306 361
#
# _framework density 21.952302
#
# number of rings (size 3 to 8) (size 9 to 14) (size 15 to 20)
#    0.000    1.500    3.750    3.000    3.500    1.000 
#    0.000    0.000    0.000    1.500    0.000    0.000 
#    0.000    0.000    0.000    0.000    0.000    0.000 
#
# Total GULP energy -792962.669653 kJ/mol
# GULP energy per Si atom -12390.041713 kJ/mol
# Density = 2.190234 g / cm^3
# Si number density = 21.952302 Si / 1000 Ang^3
#
#
#
# Elastic Constant Matrix: (Units=GPa)
#
#
# Indices 1 2 3 4 5 6 
#
# 1 125.2058 24.6358 17.6162 0.0000 0.0000 0.0000
# 2 24.6358 94.1499 50.2586 0.0000 0.0000 0.0000
# 3 17.6162 50.2586 106.9862 0.0000 0.0000 0.0000
# 4 0.0000 0.0000 0.0000 -17.4803 0.0000 0.0000
# 5 0.0000 0.0000 0.0000 0.0000 98.2604 0.0000
# 6 0.0000 0.0000 0.0000 0.0000 0.0000 19.0136
#
#
#
# Elastic Compliance Matrix: (Units=1/GPa)
#
#
# Indices 1 2 3 4 5 6 
#
# 1 0.008438 -0.001957 -0.000470 0.000000 0.000000 0.000000
# 2 -0.001957 0.014630 -0.006551 0.000000 0.000000 0.000000
# 3 -0.000470 -0.006551 0.012502 0.000000 0.000000 0.000000
# 4 0.000000 0.000000 0.000000 -0.057207 0.000000 0.000000
# 5 0.000000 0.000000 0.000000 0.000000 0.010177 0.000000
# 6 0.000000 0.000000 0.000000 0.000000 0.000000 0.052594
#
#
# Mechanical properties :
#
#
# Convention : Reuss Voigt Hill
#
# Bulk Modulus (GPa) = 56.77095 56.81812 56.79454
# Shear Modulus (GPa) = 76.97000 35.54750 56.25875
#
# Velocity S-wave (km/s) = 5.92777 4.02843 5.06788
# Velocity P-wave (km/s) = 8.53045 6.89756 7.75709
#
# Compressibility (1/GPa) = 0.01761464
#
# Stress axis : x y z
#
# Youngs Moduli (GPa) = 118.51069 68.35168 79.98961
#
# Poissons Ratio (x) = 0.13377 0.03760
# Poissons Ratio (y) = 0.23193 0.52398
# Poissons Ratio (z) = 0.05571 0.44774
#
# Static dielectric constant tensor:
#      x y z
#    x 4.846160 0.000000 0.000000 
#    y 0.000000 3.637390 0.000000 
#    z 0.000000 0.000000 4.142120 
# 
# 
# High freq. dielectric constant tensor:
#      x y z
#    x 1.876170 0.000000 0.000000 
#    y 0.000000 1.812350 0.000000 
#    z 0.000000 0.000000 1.874080 
# 
# From -- ./inp_files/31693.got.cif
#   From: 2010.03.12/outbox.cif.g09.slc.cpg/sg62_16_cif.got.tgz:31693.got - 2010.04.10 19:12:36.
