data_PCOD8250400
_publ_section_title
;
Structure prediction by ZEFSAII (Michael W. Deem and Ramdas Pophale) SiO2 
 PCOD8250400
Probable space group: P N M A
;
_chemical_formula_sum "Si O2"
_cell_formula_units_Z 64
_cell_length_a 22.155068
_cell_length_b 8.940111
_cell_length_c 16.782344
_cell_angle_alpha 90.000000
_cell_angle_beta 90.000000
_cell_angle_gamma 90.000000
_cell_volume 3324.058186
_symmetry_space_group_name_H-M "P N M A"
_symmetry_group_IT_number 62
_symmetry_cell_setting 'orthorhombic'
loop_
_space_group_symop_operation_xyz
x,y,z
1/2-x,-y,1/2+z
1/2+x,1/2-y,1/2-z
-x,1/2+y,-z
-x,-y,-z
1/2+x,y,1/2-z
1/2-x,1/2+y,1/2+z
x,1/2-y,z
loop_
_atom_site_type_symbol
_atom_site_label
_atom_site_fract_x
_atom_site_fract_y
_atom_site_fract_z
Si Si1 0.305192 0.427311 0.034807
Si Si2 0.470251 0.577245 0.293959
Si Si3 0.665840 0.574158 0.141311
Si Si4 0.280271 0.418697 0.313498
Si Si5 0.371396 0.580170 0.419064
Si Si6 0.675183 0.422971 0.414088
Si Si7 0.621704 0.580015 0.816471
Si Si8 0.404871 0.572472 0.729305
O O1 0.297472 0.250000 0.028921
O O2 0.324490 0.489473 0.948149
O O3 0.240404 0.495876 0.063372
O O4 0.359765 0.470529 0.094494
O O5 0.487286 0.750000 0.282294
O O6 0.435762 0.549081 0.377744
O O7 0.428718 0.528843 0.219220
O O8 0.529338 0.477673 0.298405
O O9 0.655382 0.750000 0.141756
O O10 0.723908 0.529336 0.193442
O O11 0.608534 0.496532 0.183549
O O12 0.257229 0.250000 0.327745
O O13 0.322304 0.465562 0.386509
O O14 0.316025 0.431183 0.231470
O O15 0.350380 0.750000 0.399156
O O16 0.373180 0.555106 0.513956
O O17 0.686759 0.250000 0.396827
O O18 0.644065 0.490826 0.334948
O O19 0.596770 0.750000 0.814517
O O20 0.403519 0.750000 0.734175
#
# Coordination Sequence:
#
# PCOD8250400 Si02
#       8
#     8   8   8   8   8   8   8   8
#     4   9  17  32  57  84 108 138 178 222 270 328
#     4  10  21  37  56  80 111 145 186 230 273 325
#     4  11  21  35  56  79 110 146 181 223 278 333
#     4  10  18  30  52  82 113 141 175 220 270 325
#     4   9  17  33  57  81 109 147 183 219 268 325
#     4   9  17  33  57  84 112 145 181 218 271 332
#     4   9  18  34  57  81 105 141 187 227 266 320
#     4  11  23  38  57  79 108 147 189 231 272 324
#
# _framework density 19.253572999999999
#
# number of rings (size 3 to 8) (size 9 to 14) (size 15 to 20)
#    0.000    2.250    1.250    2.250    0.000    3.500 
#    0.000    3.125    0.000    0.000    0.000    0.000 
#    0.000    0.000    0.000    0.000    0.000    0.000 
#
# Total GULP energy -793418.612098 kJ/mol
# GULP energy per Si atom -12397.165814 kJ/mol
# Density = 1.920975 g / cm^3
# Si number density = 19.253573 Si / 1000 Ang^3
#
#
#
# Elastic Constant Matrix: (Units=GPa)
#
#
# Indices 1 2 3 4 5 6 
#
# 1 65.4636 18.5000 46.1695 0.0000 0.0000 0.0000
# 2 18.5000 54.5794 30.8713 0.0000 0.0000 0.0000
# 3 46.1695 30.8713 111.8332 0.0000 0.0000 0.0000
# 4 0.0000 0.0000 0.0000 21.3113 0.0000 0.0000
# 5 0.0000 0.0000 0.0000 0.0000 21.6832 0.0000
# 6 0.0000 0.0000 0.0000 0.0000 0.0000 31.6641
#
#
#
# Elastic Compliance Matrix: (Units=1/GPa)
#
#
# Indices 1 2 3 4 5 6 
#
# 1 0.021890 -0.002735 -0.008282 0.000000 0.000000 0.000000
# 2 -0.002735 0.022054 -0.004959 0.000000 0.000000 0.000000
# 3 -0.008282 -0.004959 0.013730 0.000000 0.000000 0.000000
# 4 0.000000 0.000000 0.000000 0.046924 0.000000 0.000000
# 5 0.000000 0.000000 0.000000 0.000000 0.046119 0.000000
# 6 0.000000 0.000000 0.000000 0.000000 0.000000 0.031581
#
#
# Mechanical properties :
#
#
# Convention : Reuss Voigt Hill
#
# Bulk Modulus (GPa) = 38.87776 46.99533 42.93654
# Shear Modulus (GPa) = 22.43939 24.02074 23.23007
#
# Velocity S-wave (km/s) = 3.41760 3.53597 3.47729
# Velocity P-wave (km/s) = 5.98411 6.41345 6.20250
#
# Compressibility (1/GPa) = 0.02572165
#
# Stress axis : x y z
#
# Youngs Moduli (GPa) = 45.68377 45.34375 72.83392
#
# Poissons Ratio (x) = 0.12402 0.60321
# Poissons Ratio (y) = 0.12495 0.36116
# Poissons Ratio (z) = 0.37835 0.22485
#
# Static dielectric constant tensor:
#      x y z
#    x 3.413980 0.000000 0.000000 
#    y 0.000000 3.323650 0.000000 
#    z 0.000000 0.000000 3.729260 
# 
# 
# High freq. dielectric constant tensor:
#      x y z
#    x 1.734910 0.000000 0.000000 
#    y 0.000000 1.725330 0.000000 
#    z 0.000000 0.000000 1.753600 
# 
# From -- ./inp_files/24750.got.cif
#   From: 2010.03.12/outbox.cif.g09.slc.cpg/sg62_13_cif.got.tgz:24750.got - 2010.04.10 19:12:36.
