data_PCOD8250606
_publ_section_title
;
Structure prediction by ZEFSAII (Michael W. Deem and Ramdas Pophale) SiO2 
 PCOD8250606
Probable space group: P N M A
;
_chemical_formula_sum "Si O2"
_cell_formula_units_Z 64
_cell_length_a 12.306867
_cell_length_b 12.941557
_cell_length_c 23.602779
_cell_angle_alpha 90.000000
_cell_angle_beta 90.000000
_cell_angle_gamma 90.000000
_cell_volume 3759.215102
_symmetry_space_group_name_H-M "P N M A"
_symmetry_group_IT_number 62
_symmetry_cell_setting 'orthorhombic'
loop_
_space_group_symop_operation_xyz
x,y,z
1/2-x,-y,1/2+z
1/2+x,1/2-y,1/2-z
-x,1/2+y,-z
-x,-y,-z
1/2+x,y,1/2-z
1/2-x,1/2+y,1/2+z
x,1/2-y,z
loop_
_atom_site_type_symbol
_atom_site_label
_atom_site_fract_x
_atom_site_fract_y
_atom_site_fract_z
Si Si1 0.061190 0.465096 0.054886
Si Si2 0.229237 0.007186 0.503190
Si Si3 0.372573 0.131928 0.912316
Si Si4 0.618576 0.130192 0.897611
Si Si5 0.252790 0.368986 0.712222
Si Si6 0.854260 0.368807 0.092369
Si Si7 0.038194 0.866312 0.145890
Si Si8 0.194922 0.049923 0.828804
O O1 0.182720 0.432520 0.035491
O O2 0.986114 0.378196 0.084936
O O3 0.077341 0.563552 0.094693
O O4 0.000000 0.500000 0.000000
O O5 0.148681 0.935756 0.467860
O O6 0.157927 0.068368 0.547908
O O7 0.292046 0.087703 0.462465
O O8 0.363963 0.250000 0.931472
O O9 0.491581 0.106851 0.887906
O O10 0.286088 0.110337 0.863523
O O11 0.641832 0.250000 0.909442
O O12 0.681531 0.094746 0.841335
O O13 0.225488 0.250000 0.728994
O O14 0.380365 0.381094 0.698650
O O15 0.227098 0.447998 0.763014
O O16 0.823320 0.250000 0.102255
O O17 0.817410 0.432920 0.148096
O O18 0.045351 0.750000 0.122749
O O19 0.917364 0.889803 0.165404
#
# Coordination Sequence:
#
# PCOD8250606 Si02
#       8
#     8   8   8   8   8   8   8   8
#     4   9  18  29  47  77 106 132 167 210 258 307
#     4  10  18  33  52  77 106 137 173 215 262 310
#     4  10  21  34  50  75 107 140 173 212 260 309
#     4  10  20  33  51  77 106 138 175 211 254 314
#     4  10  20  32  52  78 102 134 169 211 263 312
#     4   9  19  34  54  76 101 140 182 218 257 306
#     4  10  19  32  51  76 106 135 167 210 260 316
#     4  10  21  35  52  77 106 136 174 217 261 311
#
# _framework density 17.024830000000001
#
# number of rings (size 3 to 8) (size 9 to 14) (size 15 to 20)
#    0.000    2.250    1.250    2.625    1.750    2.500 
#    0.000    0.000    0.000    3.750    0.000    0.000 
#    0.000    0.000    0.000    0.000    0.000    0.000 
#
# Total GULP energy -793387.657461 kJ/mol
# GULP energy per Si atom -12396.682148 kJ/mol
# Density = 1.698608 g / cm^3
# Si number density = 17.024830 Si / 1000 Ang^3
#
#
#
# Elastic Constant Matrix: (Units=GPa)
#
#
# Indices 1 2 3 4 5 6 
#
# 1 113.5879 33.1534 43.7639 0.0000 0.0000 0.0000
# 2 33.1534 77.8187 46.1835 0.0000 0.0000 0.0000
# 3 43.7639 46.1835 113.9082 0.0000 0.0000 0.0000
# 4 0.0000 0.0000 0.0000 18.8882 0.0000 0.0000
# 5 0.0000 0.0000 0.0000 0.0000 -5.7054 0.0000
# 6 0.0000 0.0000 0.0000 0.0000 0.0000 19.9053
#
#
#
# Elastic Compliance Matrix: (Units=1/GPa)
#
#
# Indices 1 2 3 4 5 6 
#
# 1 0.010781 -0.002811 -0.003002 0.000000 0.000000 0.000000
# 2 -0.002811 0.017655 -0.006078 0.000000 0.000000 0.000000
# 3 -0.003002 -0.006078 0.012397 0.000000 0.000000 0.000000
# 4 0.000000 0.000000 0.000000 0.052943 0.000000 0.000000
# 5 0.000000 0.000000 0.000000 0.000000 -0.175272 0.000000
# 6 0.000000 0.000000 0.000000 0.000000 0.000000 0.050238
#
#
# Mechanical properties :
#
#
# Convention : Reuss Voigt Hill
#
# Bulk Modulus (GPa) = 58.65195 61.27960 59.96577
# Shear Modulus (GPa) = -2791.28009 18.76523 -1386.25743
#
# Velocity S-wave (km/s) = -40.53510 3.32358 -28.56613
# Velocity P-wave (km/s) = 46.43562 7.12746 32.44585
#
# Compressibility (1/GPa) = 0.01704973
#
# Stress axis : x y z
#
# Youngs Moduli (GPa) = 92.75543 56.64020 80.66576
#
# Poissons Ratio (x) = 0.15923 0.24218
# Poissons Ratio (y) = 0.26076 0.49030
# Poissons Ratio (z) = 0.27848 0.34427
#
# Static dielectric constant tensor:
#      x y z
#    x 3.527000 0.000000 0.000000 
#    y 0.000000 2.959600 0.000000 
#    z 0.000000 0.000000 3.155540 
# 
# 
# High freq. dielectric constant tensor:
#      x y z
#    x 1.674670 0.000000 0.000000 
#    y 0.000000 1.627320 0.000000 
#    z 0.000000 0.000000 1.653210 
# 
# From -- ./inp_files/29493.got.cif
#   From: 2010.03.12/outbox.cif.g09.slc.cpg/sg62_15_cif.got.tgz:29493.got - 2010.04.10 19:12:36.
