data_PCOD8250952
_publ_section_title
;
Structure prediction by ZEFSAII (Michael W. Deem and Ramdas Pophale) SiO2 
 PCOD8250952
Probable space group: P N M A
;
_chemical_formula_sum "Si O2"
_cell_formula_units_Z 64
_cell_length_a 14.156610
_cell_length_b 9.154252
_cell_length_c 29.651508
_cell_angle_alpha 90.000000
_cell_angle_beta 90.000000
_cell_angle_gamma 90.000000
_cell_volume 3842.633077
_symmetry_space_group_name_H-M "P N M A"
_symmetry_group_IT_number 62
_symmetry_cell_setting 'orthorhombic'
loop_
_space_group_symop_operation_xyz
x,y,z
1/2-x,-y,1/2+z
1/2+x,1/2-y,1/2-z
-x,1/2+y,-z
-x,-y,-z
1/2+x,y,1/2-z
1/2-x,1/2+y,1/2+z
x,1/2-y,z
loop_
_atom_site_type_symbol
_atom_site_label
_atom_site_fract_x
_atom_site_fract_y
_atom_site_fract_z
Si Si1 0.390516 0.918788 0.542327
Si Si2 0.723859 0.920809 0.218114
Si Si3 0.986375 0.912182 0.824394
Si Si4 0.851143 0.580387 0.133237
Si Si5 0.153448 0.077591 0.695145
Si Si6 0.790704 0.917878 0.865856
Si Si7 0.890882 0.080414 0.047560
Si Si8 0.473008 0.584386 0.778945
O O1 0.380907 0.750000 0.528888
O O2 0.322532 0.960241 0.583723
O O3 0.498472 0.952991 0.556231
O O4 0.358121 0.014705 0.500071
O O5 0.700421 0.750000 0.222334
O O6 0.774619 0.958377 0.171094
O O7 0.789843 0.970250 0.259815
O O8 0.628234 0.010528 0.217363
O O9 0.010436 0.750000 0.844350
O O10 0.009157 0.917280 0.772023
O O11 0.876608 0.945502 0.831578
O O12 0.046098 0.034945 0.849168
O O13 0.852964 0.750000 0.121851
O O14 0.829237 0.493674 0.087174
O O15 0.140434 0.250000 0.693088
O O16 0.206913 0.022636 0.650336
O O17 0.050294 0.005037 0.692932
O O18 0.757033 0.750000 0.863651
O O19 0.867492 0.250000 0.046935
O O20 0.466177 0.750000 0.797187
#
# Coordination Sequence:
#
# PCOD8250952 Si02
#       8
#     8   8   8   8   8   8   8   8
#     4   9  18  32  49  71 102 136 168 208 254 301
#     4  10  22  36  50  72 102 136 173 212 252 300
#     4  10  19  31  48  72 102 134 171 213 251 292
#     4  11  21  33  50  73 102 138 175 208 253 305
#     4  11  22  35  51  74 104 136 172 211 255 303
#     4  10  19  34  51  73 103 136 176 212 250 298
#     4  10  19  32  49  73 103 133 169 210 254 303
#     4  11  22  35  53  73  99 136 175 216 256 295
#
# _framework density 16.655246999999999
#
# number of rings (size 3 to 8) (size 9 to 14) (size 15 to 20)
#    0.000    1.750    3.750    1.500    0.000    3.500 
#    0.000    0.000    0.000    0.000    0.000    0.875 
#    0.000    0.000    0.000    0.000    0.000    0.000 
#
# Total GULP energy -793714.165063 kJ/mol
# GULP energy per Si atom -12401.783829 kJ/mol
# Density = 1.661734 g / cm^3
# Si number density = 16.655247 Si / 1000 Ang^3
#
#
#
# Elastic Constant Matrix: (Units=GPa)
#
#
# Indices 1 2 3 4 5 6 
#
# 1 62.7532 42.8937 24.5830 0.0000 0.0000 0.0000
# 2 42.8937 83.1686 49.7376 0.0000 0.0000 0.0000
# 3 24.5830 49.7376 86.3249 0.0000 0.0000 0.0000
# 4 0.0000 0.0000 0.0000 29.9116 0.0000 0.0000
# 5 0.0000 0.0000 0.0000 0.0000 23.3211 0.0000
# 6 0.0000 0.0000 0.0000 0.0000 0.0000 28.9248
#
#
#
# Elastic Compliance Matrix: (Units=1/GPa)
#
#
# Indices 1 2 3 4 5 6 
#
# 1 0.024624 -0.012978 0.000465 0.000000 0.000000 0.000000
# 2 -0.012978 0.025185 -0.010815 0.000000 0.000000 0.000000
# 3 0.000465 -0.010815 0.017683 0.000000 0.000000 0.000000
# 4 0.000000 0.000000 0.000000 0.033432 0.000000 0.000000
# 5 0.000000 0.000000 0.000000 0.000000 0.042880 0.000000
# 6 0.000000 0.000000 0.000000 0.000000 0.000000 0.034572
#
#
# Mechanical properties :
#
#
# Convention : Reuss Voigt Hill
#
# Bulk Modulus (GPa) = 47.99289 51.85284 49.92286
# Shear Modulus (GPa) = 21.55396 24.10032 22.82714
#
# Velocity S-wave (km/s) = 3.60130 3.80809 3.70613
# Velocity P-wave (km/s) = 6.79489 7.10887 6.95365
#
# Compressibility (1/GPa) = 0.02083642
#
# Stress axis : x y z
#
# Youngs Moduli (GPa) = 40.61082 39.70671 56.55195
#
# Poissons Ratio (x) = 0.51531 -0.02631
# Poissons Ratio (y) = 0.52704 0.61160
# Poissons Ratio (z) = -0.01889 0.42942
#
# Static dielectric constant tensor:
#      x y z
#    x 2.858010 0.000000 0.000000 
#    y 0.000000 3.190560 0.000000 
#    z 0.000000 0.000000 3.135240 
# 
# 
# High freq. dielectric constant tensor:
#      x y z
#    x 1.610250 0.000000 0.000000 
#    y 0.000000 1.651740 0.000000 
#    z 0.000000 0.000000 1.635330 
# 
# From -- ./inp_files/32708.got.cif
#   From: 2010.03.12/outbox.cif.g09.slc.cpg/sg62_17_cif.got.tgz:32708.got - 2010.04.10 19:12:36.
