data_PCOD8250611
_publ_section_title
;
Structure prediction by ZEFSAII (Michael W. Deem and Ramdas Pophale) SiO2 
 PCOD8250611
Probable space group: P N M A
;
_chemical_formula_sum "Si O2"
_cell_formula_units_Z 64
_cell_length_a 14.406932
_cell_length_b 19.614745
_cell_length_c 12.107509
_cell_angle_alpha 90.000000
_cell_angle_beta 90.000000
_cell_angle_gamma 90.000000
_cell_volume 3421.440354
_symmetry_space_group_name_H-M "P N M A"
_symmetry_group_IT_number 62
_symmetry_cell_setting 'orthorhombic'
loop_
_space_group_symop_operation_xyz
x,y,z
1/2-x,-y,1/2+z
1/2+x,1/2-y,1/2-z
-x,1/2+y,-z
-x,-y,-z
1/2+x,y,1/2-z
1/2-x,1/2+y,1/2+z
x,1/2-y,z
loop_
_atom_site_type_symbol
_atom_site_label
_atom_site_fract_x
_atom_site_fract_y
_atom_site_fract_z
Si Si1 0.364611 0.913304 0.382136
Si Si2 0.064637 0.173343 0.301411
Si Si3 0.842422 0.432150 0.576116
Si Si4 0.899719 0.423662 0.337884
Si Si5 0.330261 0.914250 0.955056
Si Si6 0.468233 0.828342 0.552251
Si Si7 0.541026 0.075236 0.845523
Si Si8 0.631479 0.932045 0.590436
O O1 0.252739 0.908287 0.364508
O O2 0.392237 0.853470 0.465485
O O3 0.420264 0.897212 0.270167
O O4 0.393748 0.988173 0.428985
O O5 0.055495 0.250000 0.341619
O O6 0.153553 0.140503 0.359009
O O7 0.079751 0.167426 0.170952
O O8 0.971422 0.137604 0.342097
O O9 0.833048 0.415605 0.444448
O O10 0.856166 0.512288 0.593178
O O11 0.934987 0.399025 0.631785
O O12 0.957129 0.493474 0.349139
O O13 0.845026 0.422605 0.221445
O O14 0.220960 0.913113 0.982803
O O15 0.390820 0.894519 0.061458
O O16 0.499306 0.750000 0.527160
O O17 0.553542 0.880928 0.547250
#
# Coordination Sequence:
#
# PCOD8250611 Si02
#       8
#     8   8   8   8   8   8   8   8
#     4  10  22  35  56  87 109 150 198 234 273 338
#     4  10  19  32  53  79 109 147 184 224 275 334
#     4  10  18  33  57  83 112 146 184 235 287 328
#     4   9  16  33  53  78 113 146 179 230 285 329
#     4  10  18  33  54  86 113 143 180 233 286 327
#     4  10  22  40  55  75 117 155 181 228 288 339
#     4  10  18  34  57  79 113 146 182 236 286 321
#     4   9  20  33  57  89 111 144 190 236 282 335
#
# _framework density 18.705573000000001
#
# number of rings (size 3 to 8) (size 9 to 14) (size 15 to 20)
#    0.000    2.250    2.500    1.125    1.750    1.500 
#    2.250    1.250    0.000    1.500    0.000    0.000 
#    0.000    0.000    0.000    0.000    0.000    0.000 
#
# Total GULP energy -793299.485166 kJ/mol
# GULP energy per Si atom -12395.304456 kJ/mol
# Density = 1.866300 g / cm^3
# Si number density = 18.705573 Si / 1000 Ang^3
#
#
#
# Elastic Constant Matrix: (Units=GPa)
#
#
# Indices 1 2 3 4 5 6 
#
# 1 97.6888 29.1743 48.7419 0.0000 0.0000 0.0000
# 2 29.1743 68.1580 40.7323 0.0000 0.0000 0.0000
# 3 48.7419 40.7323 78.3945 0.0000 0.0000 0.0000
# 4 0.0000 0.0000 0.0000 23.7254 0.0000 0.0000
# 5 0.0000 0.0000 0.0000 0.0000 24.8863 0.0000
# 6 0.0000 0.0000 0.0000 0.0000 0.0000 15.5024
#
#
#
# Elastic Compliance Matrix: (Units=1/GPa)
#
#
# Indices 1 2 3 4 5 6 
#
# 1 0.014910 -0.001221 -0.008636 0.000000 0.000000 0.000000
# 2 -0.001221 0.021379 -0.010349 0.000000 0.000000 0.000000
# 3 -0.008636 -0.010349 0.023503 0.000000 0.000000 0.000000
# 4 0.000000 0.000000 0.000000 0.042149 0.000000 0.000000
# 5 0.000000 0.000000 0.000000 0.000000 0.040183 0.000000
# 6 0.000000 0.000000 0.000000 0.000000 0.000000 0.064506
#
#
# Mechanical properties :
#
#
# Convention : Reuss Voigt Hill
#
# Bulk Modulus (GPa) = 51.60016 53.50424 52.55220
# Shear Modulus (GPa) = 19.72374 21.19569 20.45971
#
# Velocity S-wave (km/s) = 3.25072 3.36984 3.31082
# Velocity P-wave (km/s) = 6.46026 6.61865 6.53993
#
# Compressibility (1/GPa) = 0.01937978
#
# Stress axis : x y z
#
# Youngs Moduli (GPa) = 67.06828 46.77449 42.54864
#
# Poissons Ratio (x) = 0.05712 0.36745
# Poissons Ratio (y) = 0.08190 0.44033
# Poissons Ratio (z) = 0.57920 0.48407
#
# Static dielectric constant tensor:
#      x y z
#    x 3.343860 0.000000 0.000000 
#    y 0.000000 3.289930 0.000000 
#    z 0.000000 0.000000 3.501880 
# 
# 
# High freq. dielectric constant tensor:
#      x y z
#    x 1.721840 0.000000 0.000000 
#    y 0.000000 1.696450 0.000000 
#    z 0.000000 0.000000 1.721170 
# 
# From -- ./inp_files/13601.got.cif
#   From: 2010.03.12/outbox.cif.g09.slc.cpg/sg62_7_cif.got.tgz:13601.got - 2010.04.10 19:12:36.
