data_PCOD8250206
_publ_section_title
;
Structure prediction by ZEFSAII (Michael W. Deem and Ramdas Pophale) SiO2 
 PCOD8250206
Probable space group: P N M A
;
_chemical_formula_sum "Si O2"
_cell_formula_units_Z 56
_cell_length_a 20.688177
_cell_length_b 9.118608
_cell_length_c 18.238253
_cell_angle_alpha 90.000000
_cell_angle_beta 90.000000
_cell_angle_gamma 90.000000
_cell_volume 3440.598577
_symmetry_space_group_name_H-M "P N M A"
_symmetry_group_IT_number 62
_symmetry_cell_setting 'orthorhombic'
loop_
_space_group_symop_operation_xyz
x,y,z
1/2-x,-y,1/2+z
1/2+x,1/2-y,1/2-z
-x,1/2+y,-z
-x,-y,-z
1/2+x,y,1/2-z
1/2-x,1/2+y,1/2+z
x,1/2-y,z
loop_
_atom_site_type_symbol
_atom_site_label
_atom_site_fract_x
_atom_site_fract_y
_atom_site_fract_z
Si Si1 0.621922 0.085270 0.145110
Si Si2 0.260954 0.080563 0.426665
Si Si3 0.255115 0.417747 0.074311
Si Si4 0.188681 0.418237 0.796991
Si Si5 0.298723 0.585473 0.723733
Si Si6 0.627867 0.419951 0.849326
Si Si7 0.005246 0.578499 0.422942
O O1 0.598751 0.250000 0.125632
O O2 0.689139 0.051005 0.103794
O O3 0.632989 0.068310 0.233401
O O4 0.568928 0.970447 0.119991
O O5 0.275759 0.250000 0.437279
O O6 0.270147 0.003695 0.504299
O O7 0.314686 0.016045 0.370428
O O8 0.268511 0.250000 0.052534
O O9 0.197845 0.429302 0.135612
O O10 0.321823 0.482677 0.105304
O O11 0.190784 0.250000 0.821656
O O12 0.253029 0.457212 0.752334
O O13 0.130888 0.448906 0.738747
O O14 0.271302 0.750000 0.743642
O O15 0.643498 0.250000 0.866738
O O16 0.556327 0.463884 0.874022
O O17 0.009617 0.750000 0.437457
O O18 0.000000 0.500000 0.500000
#
# Coordination Sequence:
#
# PCOD8250206 Si02
#       7
#     8   8   8   8   8   8   8
#     4   9  18  32  46  61  87 121 150 178 216 258
#     4  10  19  30  44  65  94 120 142 179 228 265
#     4  10  18  28  46  70  91 115 149 182 216 265
#     4   9  16  28  46  64  83 112 149 182 217 265
#     4   8  16  30  45  63  89 116 142 179 224 263
#     4   9  19  33  45  61  90 122 148 182 225 259
#     4  11  22  33  45  64  90 120 153 184 214 251
#
# _framework density 16.276236999999998
#
# number of rings (size 3 to 8) (size 9 to 14) (size 15 to 20)
#    0.000    2.571    0.000    3.429    0.000    8.571 
#    0.000    0.000    0.000    0.000    0.000    1.000 
#    0.000    0.000    0.000    0.000    0.000    0.000 
#
# Total GULP energy -694041.060521 kJ/mol
# GULP energy per Si atom -12393.590366 kJ/mol
# Density = 1.623919 g / cm^3
# Si number density = 16.276237 Si / 1000 Ang^3
#
#
#
# Elastic Constant Matrix: (Units=GPa)
#
#
# Indices 1 2 3 4 5 6 
#
# 1 58.9374 36.8246 47.9588 0.0000 0.0000 0.0000
# 2 36.8246 92.4743 63.4028 0.0000 0.0000 0.0000
# 3 47.9588 63.4028 133.3686 0.0000 0.0000 0.0000
# 4 0.0000 0.0000 0.0000 30.2187 0.0000 0.0000
# 5 0.0000 0.0000 0.0000 0.0000 24.7224 0.0000
# 6 0.0000 0.0000 0.0000 0.0000 0.0000 20.3761
#
#
#
# Elastic Compliance Matrix: (Units=1/GPa)
#
#
# Indices 1 2 3 4 5 6 
#
# 1 0.025950 -0.005839 -0.006556 0.000000 0.000000 0.000000
# 2 -0.005839 0.017357 -0.006152 0.000000 0.000000 0.000000
# 3 -0.006556 -0.006152 0.012780 0.000000 0.000000 0.000000
# 4 0.000000 0.000000 0.000000 0.033092 0.000000 0.000000
# 5 0.000000 0.000000 0.000000 0.000000 0.040449 0.000000
# 6 0.000000 0.000000 0.000000 0.000000 0.000000 0.049077
#
#
# Mechanical properties :
#
#
# Convention : Reuss Voigt Hill
#
# Bulk Modulus (GPa) = 52.64821 64.57253 58.61037
# Shear Modulus (GPa) = 22.50952 24.16973 23.33963
#
# Velocity S-wave (km/s) = 3.72286 3.85771 3.79089
# Velocity P-wave (km/s) = 7.13418 7.72021 7.43297
#
# Compressibility (1/GPa) = 0.01899400
#
# Stress axis : x y z
#
# Youngs Moduli (GPa) = 38.53590 57.61476 78.24804
#
# Poissons Ratio (x) = 0.33640 0.51297
# Poissons Ratio (y) = 0.22501 0.48135
# Poissons Ratio (z) = 0.25263 0.35443
#
# Static dielectric constant tensor:
#      x y z
#    x 2.792600 0.000000 0.000000 
#    y 0.000000 3.213700 0.000000 
#    z 0.000000 0.000000 3.374930 
# 
# 
# High freq. dielectric constant tensor:
#      x y z
#    x 1.573560 0.000000 0.000000 
#    y 0.000000 1.642040 0.000000 
#    z 0.000000 0.000000 1.635810 
# 
# From -- ./inp_files/24554.got.cif
#   From: 2010.03.12/outbox.cif.g09.slc.cpg/sg62_13_cif.got.tgz:24554.got - 2010.04.10 19:12:36.
