data_PCOD8250484
_publ_section_title
;
Structure prediction by ZEFSAII (Michael W. Deem and Ramdas Pophale) SiO2 
 PCOD8250484
Probable space group: P N M A
;
_chemical_formula_sum "Si O2"
_cell_formula_units_Z 64
_cell_length_a 8.841146
_cell_length_b 18.485628
_cell_length_c 20.462643
_cell_angle_alpha 90.000000
_cell_angle_beta 90.000000
_cell_angle_gamma 90.000000
_cell_volume 3344.294380
_symmetry_space_group_name_H-M "P N M A"
_symmetry_group_IT_number 62
_symmetry_cell_setting 'orthorhombic'
loop_
_space_group_symop_operation_xyz
x,y,z
1/2-x,-y,1/2+z
1/2+x,1/2-y,1/2-z
-x,1/2+y,-z
-x,-y,-z
1/2+x,y,1/2-z
1/2-x,1/2+y,1/2+z
x,1/2-y,z
loop_
_atom_site_type_symbol
_atom_site_label
_atom_site_fract_x
_atom_site_fract_y
_atom_site_fract_z
Si Si1 0.999232 0.067492 0.423227
Si Si2 0.005282 0.527965 0.098257
Si Si3 0.059012 0.467309 0.690624
Si Si4 0.202055 0.622214 0.255699
Si Si5 0.563560 0.586102 0.708217
Si Si6 0.971644 0.672887 0.166323
Si Si7 0.746546 0.513157 0.004545
Si Si8 0.127939 0.336146 0.312044
O O1 0.853908 0.077814 0.471471
O O2 0.029431 0.133708 0.373596
O O3 0.956543 0.994300 0.383384
O O4 0.142654 0.052596 0.469408
O O5 0.006310 0.460165 0.148192
O O6 0.042839 0.604281 0.130769
O O7 0.841205 0.541599 0.066154
O O8 0.136078 0.518038 0.046743
O O9 0.183732 0.404707 0.698172
O O10 0.121609 0.531239 0.736869
O O11 0.891447 0.444939 0.714067
O O12 0.299213 0.659054 0.312816
O O13 0.083437 0.680852 0.228653
O O14 0.440538 0.639265 0.742086
O O15 0.702301 0.633870 0.681483
O O16 0.977355 0.750000 0.127896
O O17 0.127615 0.250000 0.316240
#
# Coordination Sequence:
#
# PCOD8250484 Si02
#       8
#     8   8   8   8   8   8   8   8
#     4  10  20  36  59  84 116 147 194 248 293 339
#     4  11  21  38  61  83 116 151 207 249 286 346
#     4  10  18  31  59  89 107 142 187 237 289 335
#     4  10  18  31  52  83 115 141 174 220 280 354
#     4  11  21  36  63  89 119 153 193 247 301 368
#     4  11  22  34  52  81 118 148 175 227 290 349
#     4  10  22  37  59  87 105 152 210 255 274 330
#     4  11  24  39  59  93 129 157 191 249 322 378
#
# _framework density 19.137070000000001
#
# number of rings (size 3 to 8) (size 9 to 14) (size 15 to 20)
#    0.000    1.500    3.750    3.750    3.500    0.000 
#    0.000    1.250    0.000    0.000    0.000    0.000 
#    0.000    0.000    0.000    0.000    0.000    0.000 
#
# Total GULP energy -793031.097277 kJ/mol
# GULP energy per Si atom -12391.110895 kJ/mol
# Density = 1.909351 g / cm^3
# Si number density = 19.137070 Si / 1000 Ang^3
#
#
#
# Elastic Constant Matrix: (Units=GPa)
#
#
# Indices 1 2 3 4 5 6 
#
# 1 89.3907 25.4600 25.8140 0.0000 0.0000 0.0000
# 2 25.4600 114.1048 31.4310 0.0000 0.0000 0.0000
# 3 25.8140 31.4310 80.6190 0.0000 0.0000 0.0000
# 4 0.0000 0.0000 0.0000 13.0308 0.0000 0.0000
# 5 0.0000 0.0000 0.0000 0.0000 32.9572 0.0000
# 6 0.0000 0.0000 0.0000 0.0000 0.0000 7.6459
#
#
#
# Elastic Compliance Matrix: (Units=1/GPa)
#
#
# Indices 1 2 3 4 5 6 
#
# 1 0.012691 -0.001918 -0.003316 0.000000 0.000000 0.000000
# 2 -0.001918 0.010108 -0.003327 0.000000 0.000000 0.000000
# 3 -0.003316 -0.003327 0.014763 0.000000 0.000000 0.000000
# 4 0.000000 0.000000 0.000000 0.076741 0.000000 0.000000
# 5 0.000000 0.000000 0.000000 0.000000 0.030342 0.000000
# 6 0.000000 0.000000 0.000000 0.000000 0.000000 0.130790
#
#
# Mechanical properties :
#
#
# Convention : Reuss Voigt Hill
#
# Bulk Modulus (GPa) = 48.92284 49.94715 49.43500
# Shear Modulus (GPa) = 16.70177 24.15408 20.42793
#
# Velocity S-wave (km/s) = 2.95743 3.55655 3.27073
# Velocity P-wave (km/s) = 6.10588 6.55909 6.33654
#
# Compressibility (1/GPa) = 0.02044035
#
# Stress axis : x y z
#
# Youngs Moduli (GPa) = 78.79787 98.92901 67.73853
#
# Poissons Ratio (x) = 0.18978 0.22460
# Poissons Ratio (y) = 0.15116 0.22534
# Poissons Ratio (z) = 0.26126 0.32910
#
# Static dielectric constant tensor:
#      x y z
#    x 3.797740 0.000000 0.000000 
#    y 0.000000 3.253860 0.000000 
#    z 0.000000 0.000000 3.617990 
# 
# 
# High freq. dielectric constant tensor:
#      x y z
#    x 1.768020 0.000000 0.000000 
#    y 0.000000 1.709170 0.000000 
#    z 0.000000 0.000000 1.735730 
# 
# From -- ./inp_files/26282.got.cif
#   From: 2010.03.12/outbox.cif.g09.slc.cpg/sg62_14_cif.got.tgz:26282.got - 2010.04.10 19:12:36.
