data_PCOD8250407
_publ_section_title
;
Structure prediction by ZEFSAII (Michael W. Deem and Ramdas Pophale) SiO2 
 PCOD8250407
Probable space group: P N M A
;
_chemical_formula_sum "Si O2"
_cell_formula_units_Z 64
_cell_length_a 15.343415
_cell_length_b 9.034243
_cell_length_c 24.873083
_cell_angle_alpha 90.000000
_cell_angle_beta 90.000000
_cell_angle_gamma 90.000000
_cell_volume 3447.810744
_symmetry_space_group_name_H-M "P N M A"
_symmetry_group_IT_number 62
_symmetry_cell_setting 'orthorhombic'
loop_
_space_group_symop_operation_xyz
x,y,z
1/2-x,-y,1/2+z
1/2+x,1/2-y,1/2-z
-x,1/2+y,-z
-x,-y,-z
1/2+x,y,1/2-z
1/2-x,1/2+y,1/2+z
x,1/2-y,z
loop_
_atom_site_type_symbol
_atom_site_label
_atom_site_fract_x
_atom_site_fract_y
_atom_site_fract_z
Si Si1 0.491622 0.074233 0.662059
Si Si2 0.184318 0.425233 0.859638
Si Si3 0.495763 0.425227 0.895192
Si Si4 0.182240 0.925207 0.445992
Si Si5 0.679426 0.425005 0.350920
Si Si6 0.965656 0.576101 0.278309
Si Si7 0.828628 0.424508 0.432692
Si Si8 0.226344 0.075312 0.740995
O O1 0.479821 0.250000 0.656750
O O2 0.584043 0.020218 0.637191
O O3 0.487854 0.017734 0.724344
O O4 0.413520 0.992410 0.630743
O O5 0.182163 0.250000 0.862344
O O6 0.240450 0.492484 0.908902
O O7 0.230445 0.470864 0.803642
O O8 0.506831 0.250000 0.900953
O O9 0.411501 0.486491 0.926487
O O10 0.483683 0.470320 0.832357
O O11 0.580822 0.498802 0.919577
O O12 0.181119 0.750000 0.438835
O O13 0.199470 0.971913 0.507208
O O14 0.672891 0.250000 0.349539
O O15 0.752348 0.479313 0.393217
O O16 0.700320 0.487727 0.291735
O O17 0.959799 0.750000 0.270995
O O18 0.866199 0.520355 0.282657
O O19 0.843071 0.250000 0.428330
O O20 0.242452 0.250000 0.733440
#
# Coordination Sequence:
#
# PCOD8250407 Si02
#       8
#     8   8   8   8   8   8   8   8
#     4   9  18  33  54  77 102 130 167 216 263 303
#     4   8  16  32  55  80 100 124 167 220 264 300
#     4  10  18  30  53  81 104 130 167 210 255 303
#     4   9  18  32  53  77 100 132 173 215 256 300
#     4  11  22  33  47  72 106 143 175 202 246 303
#     4   8  15  28  48  78 104 123 155 204 257 299
#     4  10  21  36  50  70 106 144 174 205 246 301
#     4   9  16  30  53  76 100 128 162 209 257 300
#
# _framework density 18.562505000000002
#
# number of rings (size 3 to 8) (size 9 to 14) (size 15 to 20)
#    0.000    2.750    1.250    2.250    1.750    0.500 
#    0.000    3.750    0.000    2.250    0.000    0.000 
#    0.000    0.000    0.000    0.000    0.000    0.000 
#
# Total GULP energy -793285.757542 kJ/mol
# GULP energy per Si atom -12395.089962 kJ/mol
# Density = 1.852026 g / cm^3
# Si number density = 18.562505 Si / 1000 Ang^3
#
#
#
# Elastic Constant Matrix: (Units=GPa)
#
#
# Indices 1 2 3 4 5 6 
#
# 1 148.8850 31.0867 71.3852 0.0000 0.0000 0.0000
# 2 31.0867 27.9120 23.3707 0.0000 0.0000 0.0000
# 3 71.3852 23.3707 104.0527 0.0000 0.0000 0.0000
# 4 0.0000 0.0000 0.0000 14.9751 0.0000 0.0000
# 5 0.0000 0.0000 0.0000 0.0000 26.4771 0.0000
# 6 0.0000 0.0000 0.0000 0.0000 0.0000 17.8781
#
#
#
# Elastic Compliance Matrix: (Units=1/GPa)
#
#
# Indices 1 2 3 4 5 6 
#
# 1 0.011122 -0.007387 -0.005971 0.000000 0.000000 0.000000
# 2 -0.007387 0.049032 -0.005945 0.000000 0.000000 0.000000
# 3 -0.005971 -0.005945 0.015042 0.000000 0.000000 0.000000
# 4 0.000000 0.000000 0.000000 0.066778 0.000000 0.000000
# 5 0.000000 0.000000 0.000000 0.000000 0.037769 0.000000
# 6 0.000000 0.000000 0.000000 0.000000 0.000000 0.055934
#
#
# Mechanical properties :
#
#
# Convention : Reuss Voigt Hill
#
# Bulk Modulus (GPa) = 27.32988 59.17054 43.25021
# Shear Modulus (GPa) = 17.45327 22.19986 19.82657
#
# Velocity S-wave (km/s) = 3.06967 3.46201 3.27172
# Velocity P-wave (km/s) = 5.22675 6.92288 6.13372
#
# Compressibility (1/GPa) = 0.03658999
#
# Stress axis : x y z
#
# Youngs Moduli (GPa) = 89.91250 20.39480 66.48034
#
# Poissons Ratio (x) = 0.15067 0.39695
# Poissons Ratio (y) = 0.66423 0.39520
# Poissons Ratio (z) = 0.53686 0.12124
#
# Static dielectric constant tensor:
#      x y z
#    x 3.590340 0.000000 0.000000 
#    y 0.000000 2.933740 0.000000 
#    z 0.000000 0.000000 3.732150 
# 
# 
# High freq. dielectric constant tensor:
#      x y z
#    x 1.728260 0.000000 0.000000 
#    y 0.000000 1.670530 0.000000 
#    z 0.000000 0.000000 1.716690 
# 
# From -- ./inp_files/29810.got.cif
#   From: 2010.03.12/outbox.cif.g09.slc.cpg/sg62_15_cif.got.tgz:29810.got - 2010.04.10 19:12:36.
