data_PCOD8250218
_publ_section_title
;
Structure prediction by ZEFSAII (Michael W. Deem and Ramdas Pophale) SiO2 
 PCOD8250218
Probable space group: P N M A
;
_chemical_formula_sum "Si O2"
_cell_formula_units_Z 48
_cell_length_a 16.521535
_cell_length_b 9.289463
_cell_length_c 18.208109
_cell_angle_alpha 90.000000
_cell_angle_beta 90.000000
_cell_angle_gamma 90.000000
_cell_volume 2794.511162
_symmetry_space_group_name_H-M "P N M A"
_symmetry_group_IT_number 62
_symmetry_cell_setting 'orthorhombic'
loop_
_space_group_symop_operation_xyz
x,y,z
1/2-x,-y,1/2+z
1/2+x,1/2-y,1/2-z
-x,1/2+y,-z
-x,-y,-z
1/2+x,y,1/2-z
1/2-x,1/2+y,1/2+z
x,1/2-y,z
loop_
_atom_site_type_symbol
_atom_site_label
_atom_site_fract_x
_atom_site_fract_y
_atom_site_fract_z
Si Si1 0.499636 0.581601 0.075788
Si Si2 0.822291 0.918660 0.409553
Si Si3 0.744050 0.581815 0.556806
Si Si4 0.331704 0.078959 0.668577
Si Si5 0.579753 0.581857 0.476124
Si Si6 0.153500 0.920872 0.332366
O O1 0.507116 0.750000 0.058955
O O2 0.413717 0.545184 0.114979
O O3 0.571069 0.528105 0.128306
O O4 0.500000 0.500000 0.000000
O O5 0.805961 0.750000 0.413857
O O6 0.802894 0.975740 0.491656
O O7 0.758137 0.982092 0.351100
O O8 0.756777 0.750000 0.573074
O O9 0.651365 0.549508 0.534296
O O10 0.768515 0.492902 0.629333
O O11 0.331324 0.250000 0.669901
O O12 0.394296 0.027709 0.605488
O O13 0.354558 0.020775 0.749035
O O14 0.500000 0.500000 0.500000
O O15 0.560091 0.750000 0.474439
O O16 0.165017 0.750000 0.335203
#
# Coordination Sequence:
#
# PCOD8250218 Si02
#       6
#     8   8   8   8   8   8
#     4  10  18  28  47  73  97 124 159 196 234 283
#     4   8  14  28  48  65  88 128 162 181 223 289
#     4   9  17  31  51  69  92 130 163 187 233 300
#     4   8  16  32  49  69  98 128 159 198 243 287
#     4   9  18  34  55  74  95 127 168 207 242 290
#     4  10  19  30  47  76 103 120 156 210 246 275
#
# _framework density 17.176528999999999
#
# number of rings (size 3 to 8) (size 9 to 14) (size 15 to 20)
#    0.000    3.000    1.667    2.000    0.000    0.667 
#    3.000    0.833    0.000    2.000    0.000    0.000 
#    0.000    0.000    0.000    0.000    0.000    0.000 
#
# Total GULP energy -594850.631241 kJ/mol
# GULP energy per Si atom -12392.721484 kJ/mol
# Density = 1.713743 g / cm^3
# Si number density = 17.176529 Si / 1000 Ang^3
#
#
#
# Elastic Constant Matrix: (Units=GPa)
#
#
# Indices 1 2 3 4 5 6 
#
# 1 131.0126 38.8246 80.6436 0.0000 0.0000 0.0000
# 2 38.8246 28.3857 33.1570 0.0000 0.0000 0.0000
# 3 80.6436 33.1570 146.8840 0.0000 0.0000 0.0000
# 4 0.0000 0.0000 0.0000 21.0559 0.0000 0.0000
# 5 0.0000 0.0000 0.0000 0.0000 25.2924 0.0000
# 6 0.0000 0.0000 0.0000 0.0000 0.0000 25.9494
#
#
#
# Elastic Compliance Matrix: (Units=1/GPa)
#
#
# Indices 1 2 3 4 5 6 
#
# 1 0.015062 -0.014860 -0.004915 0.000000 0.000000 0.000000
# 2 -0.014860 0.062505 -0.005951 0.000000 0.000000 0.000000
# 3 -0.004915 -0.005951 0.010850 0.000000 0.000000 0.000000
# 4 0.000000 0.000000 0.000000 0.047493 0.000000 0.000000
# 5 0.000000 0.000000 0.000000 0.000000 0.039538 0.000000
# 6 0.000000 0.000000 0.000000 0.000000 0.000000 0.038537
#
#
# Mechanical properties :
#
#
# Convention : Reuss Voigt Hill
#
# Bulk Modulus (GPa) = 27.05264 67.94807 47.50036
# Shear Modulus (GPa) = 18.00136 24.70336 21.35236
#
# Velocity S-wave (km/s) = 3.24083 3.79648 3.52961
# Velocity P-wave (km/s) = 5.45783 7.67217 6.65771
#
# Compressibility (1/GPa) = 0.03696496
#
# Stress axis : x y z
#
# Youngs Moduli (GPa) = 66.39320 15.99873 92.16608
#
# Poissons Ratio (x) = 0.23774 0.45300
# Poissons Ratio (y) = 0.98658 0.54850
# Poissons Ratio (z) = 0.32632 0.09521
#
# Static dielectric constant tensor:
#      x y z
#    x 3.583820 0.000000 0.000000 
#    y 0.000000 2.826500 0.000000 
#    z 0.000000 0.000000 3.441940 
# 
# 
# High freq. dielectric constant tensor:
#      x y z
#    x 1.671180 0.000000 0.000000 
#    y 0.000000 1.624540 0.000000 
#    z 0.000000 0.000000 1.654930 
# 
# From -- ./inp_files/18921.got.cif
#   From: 2010.03.12/outbox.cif.g09.slc.cpg/sg62_10_cif.got.tgz:18921.got - 2010.04.10 19:12:36.
