data_PCOD8250302
_publ_section_title
;
Structure prediction by ZEFSAII (Michael W. Deem and Ramdas Pophale) SiO2 
 PCOD8250302
Probable space group: P N M A
;
_chemical_formula_sum "Si O2"
_cell_formula_units_Z 56
_cell_length_a 20.164445
_cell_length_b 9.209908
_cell_length_c 16.652653
_cell_angle_alpha 90.000000
_cell_angle_beta 90.000000
_cell_angle_gamma 90.000000
_cell_volume 3092.608873
_symmetry_space_group_name_H-M "P N M A"
_symmetry_group_IT_number 62
_symmetry_cell_setting 'orthorhombic'
loop_
_space_group_symop_operation_xyz
x,y,z
1/2-x,-y,1/2+z
1/2+x,1/2-y,1/2-z
-x,1/2+y,-z
-x,-y,-z
1/2+x,y,1/2-z
1/2-x,1/2+y,1/2+z
x,1/2-y,z
loop_
_atom_site_type_symbol
_atom_site_label
_atom_site_fract_x
_atom_site_fract_y
_atom_site_fract_z
Si Si1 0.951237 0.422295 0.939111
Si Si2 0.881645 0.922114 0.308757
Si Si3 0.242730 0.577519 0.242574
Si Si4 0.335684 0.921053 0.016566
Si Si5 0.518484 0.577433 0.258903
Si Si6 0.195663 0.921767 0.073782
Si Si7 0.133007 0.921799 0.360213
O O1 0.960079 0.250000 0.947244
O O2 0.967757 0.476283 0.849116
O O3 0.875726 0.472640 0.960189
O O4 0.000000 0.500000 0.000000
O O5 0.885597 0.750000 0.304856
O O6 0.818990 0.977556 0.255543
O O7 0.871382 0.969550 0.401045
O O8 0.948628 0.989248 0.271771
O O9 0.241525 0.750000 0.236339
O O10 0.206242 0.514468 0.163378
O O11 0.203145 0.527769 0.321535
O O12 0.342049 0.750000 0.003017
O O13 0.257829 0.969449 0.018183
O O14 0.374093 0.002641 0.945960
O O15 0.517615 0.750000 0.257863
O O16 0.574985 0.521773 0.198252
O O17 0.195269 0.750000 0.081175
O O18 0.129071 0.750000 0.372379
#
# Coordination Sequence:
#
# PCOD8250302 Si02
#       7
#     8   8   8   8   8   8   8
#     4  10  19  32  51  73  99 128 161 199 245 293
#     4   8  15  28  47  70  95 124 163 201 232 277
#     4   8  13  25  46  66  85 120 164 198 225 270
#     4   9  18  31  48  70  95 126 163 199 237 283
#     4   9  17  30  48  70  96 128 162 198 239 285
#     4   8  14  29  49  65  87 124 163 192 227 284
#     4  10  18  29  49  74  97 122 160 202 242 282
#
# _framework density 18.107689000000001
#
# number of rings (size 3 to 8) (size 9 to 14) (size 15 to 20)
#    0.000    3.143    1.429    1.714    0.000    1.714 
#    0.000    2.857    0.000    4.286    0.000    0.000 
#    0.000    0.000    0.000    0.000    0.000    0.000 
#
# Total GULP energy -693932.976100 kJ/mol
# GULP energy per Si atom -12391.660288 kJ/mol
# Density = 1.806647 g / cm^3
# Si number density = 18.107689 Si / 1000 Ang^3
#
#
#
# Elastic Constant Matrix: (Units=GPa)
#
#
# Indices 1 2 3 4 5 6 
#
# 1 143.7023 19.0664 65.6226 0.0000 0.0000 0.0000
# 2 19.0664 16.4724 19.0632 0.0000 0.0000 0.0000
# 3 65.6226 19.0632 94.5457 0.0000 0.0000 0.0000
# 4 0.0000 0.0000 0.0000 22.4520 0.0000 0.0000
# 5 0.0000 0.0000 0.0000 0.0000 31.2309 0.0000
# 6 0.0000 0.0000 0.0000 0.0000 0.0000 14.2795
#
#
#
# Elastic Compliance Matrix: (Units=1/GPa)
#
#
# Indices 1 2 3 4 5 6 
#
# 1 0.010476 -0.004840 -0.006295 0.000000 0.000000 0.000000
# 2 -0.004840 0.081421 -0.013057 0.000000 0.000000 0.000000
# 3 -0.006295 -0.013057 0.017579 0.000000 0.000000 0.000000
# 4 0.000000 0.000000 0.000000 0.044539 0.000000 0.000000
# 5 0.000000 0.000000 0.000000 0.000000 0.032020 0.000000
# 6 0.000000 0.000000 0.000000 0.000000 0.000000 0.070030
#
#
# Mechanical properties :
#
#
# Convention : Reuss Voigt Hill
#
# Bulk Modulus (GPa) = 16.36915 51.35828 33.86372
# Shear Modulus (GPa) = 15.39342 23.65703 19.52522
#
# Velocity S-wave (km/s) = 2.91882 3.61842 3.28729
# Velocity P-wave (km/s) = 4.51872 6.77360 5.75762
#
# Compressibility (1/GPa) = 0.06109051
#
# Stress axis : x y z
#
# Youngs Moduli (GPa) = 95.45875 12.28182 56.88615
#
# Poissons Ratio (x) = 0.05945 0.35810
# Poissons Ratio (y) = 0.46204 0.74278
# Poissons Ratio (z) = 0.60092 0.16037
#
# Static dielectric constant tensor:
#      x y z
#    x 3.921190 0.000000 0.000000 
#    y 0.000000 2.669180 0.000000 
#    z 0.000000 0.000000 3.307960 
# 
# 
# High freq. dielectric constant tensor:
#      x y z
#    x 1.717880 0.000000 0.000000 
#    y 0.000000 1.631150 0.000000 
#    z 0.000000 0.000000 1.698400 
# 
# From -- ./inp_files/24430.got.cif
#   From: 2010.03.12/outbox.cif.g09.slc.cpg/sg62_13_cif.got.tgz:24430.got - 2010.04.10 19:12:36.
