data_PCOD8250756
_publ_section_title
;
Structure prediction by ZEFSAII (Michael W. Deem and Ramdas Pophale) SiO2 
 PCOD8250756
Probable space group: P N M A
;
_chemical_formula_sum "Si O2"
_cell_formula_units_Z 64
_cell_length_a 26.118394
_cell_length_b 9.092481
_cell_length_c 18.558609
_cell_angle_alpha 90.000000
_cell_angle_beta 90.000000
_cell_angle_gamma 90.000000
_cell_volume 4407.317046
_symmetry_space_group_name_H-M "P N M A"
_symmetry_group_IT_number 62
_symmetry_cell_setting 'orthorhombic'
loop_
_space_group_symop_operation_xyz
x,y,z
1/2-x,-y,1/2+z
1/2+x,1/2-y,1/2-z
-x,1/2+y,-z
-x,-y,-z
1/2+x,y,1/2-z
1/2-x,1/2+y,1/2+z
x,1/2-y,z
loop_
_atom_site_type_symbol
_atom_site_label
_atom_site_fract_x
_atom_site_fract_y
_atom_site_fract_z
Si Si1 0.250224 0.924176 0.408084
Si Si2 0.559567 0.577489 0.426810
Si Si3 0.703463 0.077098 0.804230
Si Si4 0.854789 0.582569 0.848079
Si Si5 0.249217 0.422277 0.073207
Si Si6 0.147353 0.077044 0.830450
Si Si7 0.209303 0.419810 0.283377
Si Si8 0.943491 0.576903 0.074629
O O1 0.242911 0.750000 0.398701
O O2 0.246110 0.972343 0.490900
O O3 0.304935 0.981443 0.378038
O O4 0.205487 0.010533 0.363684
O O5 0.566589 0.750000 0.435970
O O6 0.596852 0.519694 0.364544
O O7 0.574199 0.501480 0.501701
O O8 0.501537 0.535953 0.404417
O O9 0.707916 0.250000 0.816419
O O10 0.653633 0.036525 0.754751
O O11 0.704445 0.998950 0.882147
O O12 0.751100 0.021234 0.758606
O O13 0.868348 0.750000 0.868775
O O14 0.805901 0.529920 0.895224
O O15 0.843411 0.569525 0.762210
O O16 0.256560 0.250000 0.082963
O O17 0.147849 0.250000 0.839484
O O18 0.093587 0.016919 0.861672
O O19 0.227499 0.250000 0.286571
O O20 0.937309 0.750000 0.061888
#
# Coordination Sequence:
#
# PCOD8250756 Si02
#       8
#     8   8   8   8   8   8   8   8
#     4   9  16  26  41  59  78 102 131 160 189 226
#     4  10  19  27  39  60  79  98 131 171 199 221
#     4   9  16  26  40  57  76 100 131 164 193 224
#     4   9  17  29  42  53  74 109 136 155 188 234
#     4   9  17  28  41  58  80 107 134 157 192 238
#     4   8  14  26  42  55  71 102 136 157 183 227
#     4   9  17  28  40  55  76 103 132 160 194 233
#     4   9  17  30  43  54  76 107 133 160 196 235
#
# _framework density 14.521305
#
# number of rings (size 3 to 8) (size 9 to 14) (size 15 to 20)
#    0.000    3.000    0.000    3.375    0.000    5.500 
#    0.000    5.625    0.000    0.000    0.000    0.000 
#    0.000    1.000    0.000    2.250    0.000    3.500 
#
# Total GULP energy -793043.858900 kJ/mol
# GULP energy per Si atom -12391.310295 kJ/mol
# Density = 1.448825 g / cm^3
# Si number density = 14.521305 Si / 1000 Ang^3
#
#
#
# Elastic Constant Matrix: (Units=GPa)
#
#
# Indices 1 2 3 4 5 6 
#
# 1 65.6445 26.9631 50.3699 0.0000 0.0000 0.0000
# 2 26.9631 36.9613 35.8421 0.0000 0.0000 0.0000
# 3 50.3699 35.8421 117.4699 0.0000 0.0000 0.0000
# 4 0.0000 0.0000 0.0000 26.2188 0.0000 0.0000
# 5 0.0000 0.0000 0.0000 0.0000 24.4245 0.0000
# 6 0.0000 0.0000 0.0000 0.0000 0.0000 17.0322
#
#
#
# Elastic Compliance Matrix: (Units=1/GPa)
#
#
# Indices 1 2 3 4 5 6 
#
# 1 0.025719 -0.011458 -0.007532 0.000000 0.000000 0.000000
# 2 -0.011458 0.043529 -0.008368 0.000000 0.000000 0.000000
# 3 -0.007532 -0.008368 0.014296 0.000000 0.000000 0.000000
# 4 0.000000 0.000000 0.000000 0.038141 0.000000 0.000000
# 5 0.000000 0.000000 0.000000 0.000000 0.040942 0.000000
# 6 0.000000 0.000000 0.000000 0.000000 0.000000 0.058712
#
#
# Mechanical properties :
#
#
# Convention : Reuss Voigt Hill
#
# Bulk Modulus (GPa) = 34.68971 49.60288 42.14630
# Shear Modulus (GPa) = 17.50298 20.66182 19.08240
#
# Velocity S-wave (km/s) = 3.47555 3.77618 3.62898
# Velocity P-wave (km/s) = 6.32824 7.29695 6.82980
#
# Compressibility (1/GPa) = 0.02882699
#
# Stress axis : x y z
#
# Youngs Moduli (GPa) = 38.88108 22.97327 69.95042
#
# Poissons Ratio (x) = 0.26323 0.52688
# Poissons Ratio (y) = 0.44550 0.58536
# Poissons Ratio (z) = 0.29286 0.19225
#
# Static dielectric constant tensor:
#      x y z
#    x 2.794390 0.000000 0.000000 
#    y 0.000000 2.820440 0.000000 
#    z 0.000000 0.000000 3.136570 
# 
# 
# High freq. dielectric constant tensor:
#      x y z
#    x 1.516470 0.000000 0.000000 
#    y 0.000000 1.554650 0.000000 
#    z 0.000000 0.000000 1.549840 
# 
# From -- ./inp_files/28031.got.cif
#   From: 2010.03.12/outbox.cif.g09.slc.cpg/sg62_15_cif.got.tgz:28031.got - 2010.04.10 19:12:36.
