data_PCOD8250132
_publ_section_title
;
Structure prediction by ZEFSAII (Michael W. Deem and Ramdas Pophale) SiO2 
 PCOD8250132
Probable space group: P N M A
;
_chemical_formula_sum "Si O2"
_cell_formula_units_Z 64
_cell_length_a 18.699857
_cell_length_b 9.021049
_cell_length_c 26.229681
_cell_angle_alpha 90.000000
_cell_angle_beta 90.000000
_cell_angle_gamma 90.000000
_cell_volume 4424.745906
_symmetry_space_group_name_H-M "P N M A"
_symmetry_group_IT_number 62
_symmetry_cell_setting 'orthorhombic'
loop_
_space_group_symop_operation_xyz
x,y,z
1/2-x,-y,1/2+z
1/2+x,1/2-y,1/2-z
-x,1/2+y,-z
-x,-y,-z
1/2+x,y,1/2-z
1/2-x,1/2+y,1/2+z
x,1/2-y,z
loop_
_atom_site_type_symbol
_atom_site_label
_atom_site_fract_x
_atom_site_fract_y
_atom_site_fract_z
Si Si1 0.200040 0.912267 0.805618
Si Si2 0.278482 0.586083 0.698273
Si Si3 0.348332 0.922484 0.155912
Si Si4 0.587995 0.073737 0.244875
Si Si5 0.422631 0.920730 0.050904
Si Si6 0.836660 0.927682 0.643435
Si Si7 0.928136 0.072024 0.253593
Si Si8 0.586162 0.577265 0.051893
O O1 0.182887 0.750000 0.827678
O O2 0.240304 0.898497 0.752211
O O3 0.255269 0.989260 0.845244
O O4 0.123457 0.989824 0.792501
O O5 0.283215 0.750000 0.672973
O O6 0.233571 0.477920 0.661564
O O7 0.357883 0.519719 0.710227
O O8 0.352320 0.750000 0.169495
O O9 0.371941 0.954816 0.098394
O O10 0.402405 0.009491 0.192414
O O11 0.590399 0.250000 0.243875
O O12 0.611694 0.015650 0.189008
O O13 0.508379 0.015526 0.257183
O O14 0.418292 0.750000 0.033679
O O15 0.504178 0.960954 0.065608
O O16 0.395398 0.022105 0.004780
O O17 0.836098 0.750000 0.640980
O O18 0.862149 0.993150 0.590479
O O19 0.923315 0.250000 0.256737
O O20 0.602461 0.750000 0.055680
#
# Coordination Sequence:
#
# PCOD8250132 Si02
#       8
#     8   8   8   8   8   8   8   8
#     4   7  12  22  36  53  74 101 129 154 180 219
#     4   8  14  26  40  55  76 101 131 162 189 221
#     4  10  18  27  39  56  78 104 132 159 192 230
#     4   8  14  24  41  61  78 102 135 164 188 222
#     4   9  19  32  41  52  75 102 126 157 194 230
#     4   9  15  25  39  54  76 105 131 154 188 227
#     4   9  15  25  41  59  79 104 134 163 189 220
#     4  10  19  29  41  57  74  95 128 165 194 221
#
# _framework density 14.464107
#
# number of rings (size 3 to 8) (size 9 to 14) (size 15 to 20)
#    0.000    3.250    0.000    3.750    0.000    1.500 
#    0.000    6.250    0.000    0.000    0.000    0.000 
#    0.000    1.000    0.000    2.000    0.000    2.625 
#
# Total GULP energy -792877.716289 kJ/mol
# GULP energy per Si atom -12388.714317 kJ/mol
# Density = 1.443119 g / cm^3
# Si number density = 14.464107 Si / 1000 Ang^3
#
#
#
# Elastic Constant Matrix: (Units=GPa)
#
#
# Indices 1 2 3 4 5 6 
#
# 1 123.6695 27.0924 52.1287 0.0000 0.0000 0.0000
# 2 27.0924 34.9374 25.8768 0.0000 0.0000 0.0000
# 3 52.1287 25.8768 66.0857 0.0000 0.0000 0.0000
# 4 0.0000 0.0000 0.0000 19.1106 0.0000 0.0000
# 5 0.0000 0.0000 0.0000 0.0000 24.3337 0.0000
# 6 0.0000 0.0000 0.0000 0.0000 0.0000 14.5970
#
#
#
# Elastic Compliance Matrix: (Units=1/GPa)
#
#
# Indices 1 2 3 4 5 6 
#
# 1 0.012384 -0.003335 -0.008462 0.000000 0.000000 0.000000
# 2 -0.003335 0.041213 -0.013507 0.000000 0.000000 0.000000
# 3 -0.008462 -0.013507 0.027096 0.000000 0.000000 0.000000
# 4 0.000000 0.000000 0.000000 0.052327 0.000000 0.000000
# 5 0.000000 0.000000 0.000000 0.000000 0.041095 0.000000
# 6 0.000000 0.000000 0.000000 0.000000 0.000000 0.068507
#
#
# Mechanical properties :
#
#
# Convention : Reuss Voigt Hill
#
# Bulk Modulus (GPa) = 33.24053 48.32094 40.78073
# Shear Modulus (GPa) = 16.48761 19.58125 18.03443
#
# Velocity S-wave (km/s) = 3.37990 3.68337 3.53489
# Velocity P-wave (km/s) = 6.18570 7.18120 6.70196
#
# Compressibility (1/GPa) = 0.03008376
#
# Stress axis : x y z
#
# Youngs Moduli (GPa) = 80.75092 24.26433 36.90616
#
# Poissons Ratio (x) = 0.08093 0.31231
# Poissons Ratio (y) = 0.26932 0.49848
# Poissons Ratio (z) = 0.68335 0.32773
#
# Static dielectric constant tensor:
#      x y z
#    x 3.315090 0.000000 0.000000 
#    y 0.000000 2.644340 0.000000 
#    z 0.000000 0.000000 2.596720 
# 
# 
# High freq. dielectric constant tensor:
#      x y z
#    x 1.551440 0.000000 0.000000 
#    y 0.000000 1.534170 0.000000 
#    z 0.000000 0.000000 1.517400 
# 
# From -- ./inp_files/30084.got.cif
#   From: 2010.03.12/outbox.cif.g09.slc.cpg/sg62_16_cif.got.tgz:30084.got - 2010.04.10 19:12:36.
