data_PCOD8250879
_publ_section_title
;
Structure prediction by ZEFSAII (Michael W. Deem and Ramdas Pophale) SiO2 
 PCOD8250879
Probable space group: P N M A
;
_chemical_formula_sum "Si O2"
_cell_formula_units_Z 64
_cell_length_a 16.099585
_cell_length_b 9.072522
_cell_length_c 22.686328
_cell_angle_alpha 90.000000
_cell_angle_beta 90.000000
_cell_angle_gamma 90.000000
_cell_volume 3313.652163
_symmetry_space_group_name_H-M "P N M A"
_symmetry_group_IT_number 62
_symmetry_cell_setting 'orthorhombic'
loop_
_space_group_symop_operation_xyz
x,y,z
1/2-x,-y,1/2+z
1/2+x,1/2-y,1/2-z
-x,1/2+y,-z
-x,-y,-z
1/2+x,y,1/2-z
1/2-x,1/2+y,1/2+z
x,1/2-y,z
loop_
_atom_site_type_symbol
_atom_site_label
_atom_site_fract_x
_atom_site_fract_y
_atom_site_fract_z
Si Si1 0.254387 0.075538 0.092855
Si Si2 0.548403 0.574506 0.052491
Si Si3 0.886706 0.416638 0.842488
Si Si4 0.718613 0.078295 0.029156
Si Si5 0.033946 0.582765 0.775031
Si Si6 0.363592 0.088111 0.382979
Si Si7 0.506856 0.407028 0.555982
Si Si8 0.936891 0.078351 0.357566
O O1 0.237381 0.250000 0.085003
O O2 0.348220 0.044167 0.113339
O O3 0.196273 0.013340 0.146201
O O4 0.239983 0.992088 0.029951
O O5 0.546005 0.750000 0.046780
O O6 0.641465 0.518581 0.048339
O O7 0.507210 0.522439 0.113107
O O8 0.500000 0.500000 0.000000
O O9 0.866019 0.250000 0.819788
O O10 0.955226 0.488734 0.799048
O O11 0.922220 0.407165 0.908165
O O12 0.697151 0.250000 0.016097
O O13 0.773277 0.066312 0.089050
O O14 0.000952 0.750000 0.774127
O O15 0.121024 0.573881 0.812416
O O16 0.061441 0.530183 0.710560
O O17 0.396372 0.250000 0.403202
O O18 0.418551 0.956442 0.404443
O O19 0.500000 0.500000 0.500000
O O20 0.530605 0.250000 0.531340
O O21 0.959383 0.250000 0.365879
#
# Coordination Sequence:
#
# PCOD8250879 Si02
#       8
#     8   8   8   8   8   8   8   8
#     4  11  22  36  58  88 119 155 199 245 299 359
#     4  12  24  40  63  88 118 153 194 242 299 358
#     4  10  21  36  54  81 118 154 193 242 294 348
#     4  11  22  37  59  90 125 155 191 243 302 358
#     4   9  19  40  64  84 113 155 203 247 291 352
#     4   9  19  35  56  82 113 150 189 234 286 342
#     4  10  19  30  48  75 109 150 190 232 281 338
#     4  10  22  41  64  87 114 152 200 250 300 353
#
# _framework density 19.314036000000002
#
# number of rings (size 3 to 8) (size 9 to 14) (size 15 to 20)
#    0.000    1.750    1.250    3.375    0.000    6.500 
#    2.250    0.000    0.000    0.000    0.000    0.000 
#    0.000    0.000    0.000    0.000    0.000    0.000 
#
# Total GULP energy -792852.238613 kJ/mol
# GULP energy per Si atom -12388.316228 kJ/mol
# Density = 1.927008 g / cm^3
# Si number density = 19.314036 Si / 1000 Ang^3
#
#
#
# Elastic Constant Matrix: (Units=GPa)
#
#
# Indices 1 2 3 4 5 6 
#
# 1 83.5427 40.3000 34.8557 0.0000 0.0000 0.0000
# 2 40.3000 128.8874 46.6072 0.0000 0.0000 0.0000
# 3 34.8557 46.6072 118.2703 0.0000 0.0000 0.0000
# 4 0.0000 0.0000 0.0000 27.3122 0.0000 0.0000
# 5 0.0000 0.0000 0.0000 0.0000 26.4653 0.0000
# 6 0.0000 0.0000 0.0000 0.0000 0.0000 25.7819
#
#
#
# Elastic Compliance Matrix: (Units=1/GPa)
#
#
# Indices 1 2 3 4 5 6 
#
# 1 0.014951 -0.003594 -0.002990 0.000000 0.000000 0.000000
# 2 -0.003594 0.009912 -0.002847 0.000000 0.000000 0.000000
# 3 -0.002990 -0.002847 0.010458 0.000000 0.000000 0.000000
# 4 0.000000 0.000000 0.000000 0.036614 0.000000 0.000000
# 5 0.000000 0.000000 0.000000 0.000000 0.037785 0.000000
# 6 0.000000 0.000000 0.000000 0.000000 0.000000 0.038787
#
#
# Mechanical properties :
#
#
# Convention : Reuss Voigt Hill
#
# Bulk Modulus (GPa) = 60.75360 63.80293 62.27826
# Shear Modulus (GPa) = 28.92601 29.84104 29.38353
#
# Velocity S-wave (km/s) = 3.87417 3.93497 3.90469
# Velocity P-wave (km/s) = 7.17887 7.33154 7.25561
#
# Compressibility (1/GPa) = 0.01645993
#
# Stress axis : x y z
#
# Youngs Moduli (GPa) = 66.88543 100.88978 95.61766
#
# Poissons Ratio (x) = 0.36255 0.28591
# Poissons Ratio (y) = 0.24036 0.27222
# Poissons Ratio (z) = 0.19999 0.28723
#
# Static dielectric constant tensor:
#      x y z
#    x 3.343160 0.000000 0.000000 
#    y 0.000000 3.784010 0.000000 
#    z 0.000000 0.000000 3.612040 
# 
# 
# High freq. dielectric constant tensor:
#      x y z
#    x 1.743930 0.000000 0.000000 
#    y 0.000000 1.765780 0.000000 
#    z 0.000000 0.000000 1.746910 
# 
# From -- ./inp_files/29839.got.cif
#   From: 2010.03.12/outbox.cif.g09.slc.cpg/sg62_15_cif.got.tgz:29839.got - 2010.04.10 19:12:36.
