data_PCOD8250678
_publ_section_title
;
Structure prediction by ZEFSAII (Michael W. Deem and Ramdas Pophale) SiO2 
 PCOD8250678
Probable space group: P N M A
;
_chemical_formula_sum "Si O2"
_cell_formula_units_Z 48
_cell_length_a 9.558016
_cell_length_b 17.575878
_cell_length_c 14.821364
_cell_angle_alpha 90.000000
_cell_angle_beta 90.000000
_cell_angle_gamma 90.000000
_cell_volume 2489.848692
_symmetry_space_group_name_H-M "P N M A"
_symmetry_group_IT_number 62
_symmetry_cell_setting 'orthorhombic'
loop_
_space_group_symop_operation_xyz
x,y,z
1/2-x,-y,1/2+z
1/2+x,1/2-y,1/2-z
-x,1/2+y,-z
-x,-y,-z
1/2+x,y,1/2-z
1/2-x,1/2+y,1/2+z
x,1/2-y,z
loop_
_atom_site_type_symbol
_atom_site_label
_atom_site_fract_x
_atom_site_fract_y
_atom_site_fract_z
Si Si1 0.795877 0.927990 0.580736
Si Si2 0.490937 0.580510 0.548982
Si Si3 0.382156 0.576920 0.227242
Si Si4 0.134391 0.472327 0.230052
Si Si5 0.465953 0.663897 0.058451
Si Si6 0.264494 0.604831 0.418632
O O1 0.648442 0.886330 0.556468
O O2 0.917923 0.891832 0.521389
O O3 0.834955 0.916064 0.685971
O O4 0.782771 0.018118 0.562731
O O5 0.500000 0.500000 0.500000
O O6 0.433602 0.575480 0.650371
O O7 0.385261 0.631440 0.489452
O O8 0.278600 0.509647 0.195332
O O9 0.535573 0.541609 0.238908
O O10 0.328572 0.614804 0.319292
O O11 0.388877 0.641132 0.151026
O O12 0.424067 0.750000 0.035036
O O13 0.632989 0.659502 0.068499
#
# Coordination Sequence:
#
# PCOD8250678 Si02
#       6
#     8   8   8   8   8   8
#     4  10  21  36  60  89 116 153 204 256 297 352
#     4  10  18  34  59  94 119 144 187 260 307 351
#     4  11  20  36  56  90 123 152 194 244 302 359
#     4  11  19  34  62  96 118 146 196 252 310 349
#     4  12  26  40  56  84 127 171 203 245 309 375
#     4  10  21  37  62  88 120 154 205 252 294 357
#
# _framework density 19.278279000000001
#
# number of rings (size 3 to 8) (size 9 to 14) (size 15 to 20)
#    0.000    1.333    8.333    2.500    2.333    0.667 
#    0.000    0.833    0.000    4.000    0.000    0.000 
#    0.000    0.000    0.000    0.000    0.000    0.000 
#
# Total GULP energy -595171.238890 kJ/mol
# GULP energy per Si atom -12399.400810 kJ/mol
# Density = 1.923440 g / cm^3
# Si number density = 19.278279 Si / 1000 Ang^3
#
#
#
# Elastic Constant Matrix: (Units=GPa)
#
#
# Indices 1 2 3 4 5 6 
#
# 1 103.2730 15.1369 55.6955 0.0000 0.0000 0.0000
# 2 15.1369 42.9121 27.7379 0.0000 0.0000 0.0000
# 3 55.6955 27.7379 114.6604 0.0000 0.0000 0.0000
# 4 0.0000 0.0000 0.0000 10.6677 0.0000 0.0000
# 5 0.0000 0.0000 0.0000 0.0000 45.3154 0.0000
# 6 0.0000 0.0000 0.0000 0.0000 0.0000 12.4339
#
#
#
# Elastic Compliance Matrix: (Units=1/GPa)
#
#
# Indices 1 2 3 4 5 6 
#
# 1 0.013133 -0.000603 -0.006233 0.000000 0.000000 0.000000
# 2 -0.000603 0.027651 -0.006396 0.000000 0.000000 0.000000
# 3 -0.006233 -0.006396 0.013296 0.000000 0.000000 0.000000
# 4 0.000000 0.000000 0.000000 0.093741 0.000000 0.000000
# 5 0.000000 0.000000 0.000000 0.000000 0.022068 0.000000
# 6 0.000000 0.000000 0.000000 0.000000 0.000000 0.080425
#
#
# Mechanical properties :
#
#
# Convention : Reuss Voigt Hill
#
# Bulk Modulus (GPa) = 36.21252 50.88735 43.54993
# Shear Modulus (GPa) = 17.48345 24.50173 20.99259
#
# Velocity S-wave (km/s) = 3.01474 3.56891 3.30347
# Velocity P-wave (km/s) = 5.56265 6.59062 6.09834
#
# Compressibility (1/GPa) = 0.02761476
#
# Stress axis : x y z
#
# Youngs Moduli (GPa) = 76.14284 36.16557 75.20777
#
# Poissons Ratio (x) = 0.02182 0.46880
# Poissons Ratio (y) = 0.04595 0.48102
# Poissons Ratio (z) = 0.47463 0.23131
#
# Static dielectric constant tensor:
#      x y z
#    x 4.030880 0.000000 0.000000 
#    y 0.000000 2.826400 0.000000 
#    z 0.000000 0.000000 3.793230 
# 
# 
# High freq. dielectric constant tensor:
#      x y z
#    x 1.776910 0.000000 0.000000 
#    y 0.000000 1.671900 0.000000 
#    z 0.000000 0.000000 1.765130 
# 
# From -- ./inp_files/16913.got.cif
#   From: 2010.03.12/outbox.cif.g09.slc.cpg/sg62_9_cif.got.tgz:16913.got - 2010.04.10 19:12:36.
