data_PCOD8250331
_publ_section_title
;
Structure prediction by ZEFSAII (Michael W. Deem and Ramdas Pophale) SiO2 
 PCOD8250331
Probable space group: P N M A
;
_chemical_formula_sum "Si O2"
_cell_formula_units_Z 48
_cell_length_a 9.023891
_cell_length_b 14.514133
_cell_length_c 22.409451
_cell_angle_alpha 90.000000
_cell_angle_beta 90.000000
_cell_angle_gamma 90.000000
_cell_volume 2935.054408
_symmetry_space_group_name_H-M "P N M A"
_symmetry_group_IT_number 62
_symmetry_cell_setting 'orthorhombic'
loop_
_space_group_symop_operation_xyz
x,y,z
1/2-x,-y,1/2+z
1/2+x,1/2-y,1/2-z
-x,1/2+y,-z
-x,-y,-z
1/2+x,y,1/2-z
1/2-x,1/2+y,1/2+z
x,1/2-y,z
loop_
_atom_site_type_symbol
_atom_site_label
_atom_site_fract_x
_atom_site_fract_y
_atom_site_fract_z
Si Si1 0.424142 0.644429 0.892011
Si Si2 0.783025 0.353444 0.993145
Si Si3 0.134700 0.522684 0.542281
Si Si4 0.105200 0.142431 0.039182
Si Si5 0.232342 0.859277 0.781915
Si Si6 0.078428 0.359535 0.174185
O O1 0.481325 0.750000 0.886429
O O2 0.567470 0.578679 0.901673
O O3 0.350793 0.608554 0.831328
O O4 0.302879 0.637357 0.944325
O O5 0.767892 0.250000 0.967650
O O6 0.715305 0.424411 0.944169
O O7 0.954212 0.379095 0.004355
O O8 0.257349 0.587622 0.509365
O O9 0.000000 0.500000 0.500000
O O10 0.141166 0.250000 0.037528
O O11 0.097436 0.103663 0.107118
O O12 0.223318 0.750000 0.784393
O O13 0.285695 0.892006 0.716339
O O14 0.071983 0.901316 0.797038
O O15 0.065437 0.250000 0.172182
#
# Coordination Sequence:
#
# PCOD8250331 Si02
#       6
#     8   8   8   8   8   8
#     4   9  16  28  43  61  90 121 145 177 216 257
#     4   9  17  31  46  58  81 116 152 188 225 256
#     4  10  20  29  42  64  85 113 154 190 221 256
#     4  10  18  30  46  64  88 121 151 177 217 267
#     4   9  16  26  39  59  89 122 150 174 203 248
#     4   9  17  26  40  62  88 120 151 173 202 250
#
# _framework density 16.354040000000001
#
# number of rings (size 3 to 8) (size 9 to 14) (size 15 to 20)
#    0.000    2.667    1.667    1.000    2.333    0.667 
#    0.000    0.000    0.000    0.000    0.000    0.000 
#    0.000    1.333    0.000    1.000    0.000    0.333 
#
# Total GULP energy -594748.248802 kJ/mol
# GULP energy per Si atom -12390.588517 kJ/mol
# Density = 1.631682 g / cm^3
# Si number density = 16.354040 Si / 1000 Ang^3
#
#
#
# Elastic Constant Matrix: (Units=GPa)
#
#
# Indices 1 2 3 4 5 6 
#
# 1 101.7715 43.8515 15.8932 0.0000 0.0000 0.0000
# 2 43.8515 58.0620 15.7353 0.0000 0.0000 0.0000
# 3 15.8932 15.7353 31.7311 0.0000 0.0000 0.0000
# 4 0.0000 0.0000 0.0000 8.7090 0.0000 0.0000
# 5 0.0000 0.0000 0.0000 0.0000 20.6838 0.0000
# 6 0.0000 0.0000 0.0000 0.0000 0.0000 30.9661
#
#
#
# Elastic Compliance Matrix: (Units=1/GPa)
#
#
# Indices 1 2 3 4 5 6 
#
# 1 0.014691 -0.010515 -0.002144 0.000000 0.000000 0.000000
# 2 -0.010515 0.027422 -0.008332 0.000000 0.000000 0.000000
# 3 -0.002144 -0.008332 0.036721 0.000000 0.000000 0.000000
# 4 0.000000 0.000000 0.000000 0.114824 0.000000 0.000000
# 5 0.000000 0.000000 0.000000 0.000000 0.048347 0.000000
# 6 0.000000 0.000000 0.000000 0.000000 0.000000 0.032293
#
#
# Mechanical properties :
#
#
# Convention : Reuss Voigt Hill
#
# Bulk Modulus (GPa) = 27.13536 38.05827 32.59681
# Shear Modulus (GPa) = 15.21773 19.81077 17.51425
#
# Velocity S-wave (km/s) = 3.05375 3.48425 3.27608
# Velocity P-wave (km/s) = 5.39095 6.28559 5.85538
#
# Compressibility (1/GPa) = 0.03685228
#
# Stress axis : x y z
#
# Youngs Moduli (GPa) = 68.06738 36.46689 27.23258
#
# Poissons Ratio (x) = 0.38343 0.05840
# Poissons Ratio (y) = 0.71570 0.22690
# Poissons Ratio (z) = 0.14596 0.30384
#
# Static dielectric constant tensor:
#      x y z
#    x 3.431560 0.000000 0.000000 
#    y 0.000000 3.059490 0.000000 
#    z 0.000000 0.000000 2.948990 
# 
# 
# High freq. dielectric constant tensor:
#      x y z
#    x 1.657770 0.000000 0.000000 
#    y 0.000000 1.584240 0.000000 
#    z 0.000000 0.000000 1.590580 
# 
# From -- ./inp_files/25851.got.cif
#   From: 2010.03.12/outbox.cif.g09.slc.cpg/sg62_13_cif.got.tgz:25851.got - 2010.04.10 19:12:36.
