data_PCOD8250677
_publ_section_title
;
Structure prediction by ZEFSAII (Michael W. Deem and Ramdas Pophale) SiO2 
 PCOD8250677
Probable space group: P N M A
;
_chemical_formula_sum "Si O2"
_cell_formula_units_Z 64
_cell_length_a 23.822156
_cell_length_b 9.038111
_cell_length_c 15.473131
_cell_angle_alpha 90.000000
_cell_angle_beta 90.000000
_cell_angle_gamma 90.000000
_cell_volume 3331.477906
_symmetry_space_group_name_H-M "P N M A"
_symmetry_group_IT_number 62
_symmetry_cell_setting 'orthorhombic'
loop_
_space_group_symop_operation_xyz
x,y,z
1/2-x,-y,1/2+z
1/2+x,1/2-y,1/2-z
-x,1/2+y,-z
-x,-y,-z
1/2+x,y,1/2-z
1/2-x,1/2+y,1/2+z
x,1/2-y,z
loop_
_atom_site_type_symbol
_atom_site_label
_atom_site_fract_x
_atom_site_fract_y
_atom_site_fract_z
Si Si1 0.932286 0.925529 0.745043
Si Si2 0.634531 0.079549 0.077991
Si Si3 0.861401 0.425462 0.403814
Si Si4 0.248363 0.920922 0.839956
Si Si5 0.129251 0.919536 0.100269
Si Si6 0.752178 0.919657 0.337391
Si Si7 0.130031 0.574313 0.909034
Si Si8 0.558702 0.925854 0.750087
O O1 0.930689 0.750000 0.748582
O O2 0.899576 0.982531 0.660388
O O3 0.995694 0.987426 0.741207
O O4 0.902512 0.981701 0.830827
O O5 0.619090 0.250000 0.060671
O O6 0.700914 0.060659 0.092951
O O7 0.616219 0.984744 0.995315
O O8 0.858148 0.250000 0.406380
O O9 0.800112 0.487818 0.384377
O O10 0.904417 0.482065 0.330572
O O11 0.241888 0.750000 0.810887
O O12 0.192089 0.982659 0.884320
O O13 0.261638 0.017866 0.756642
O O14 0.110706 0.750000 0.114026
O O15 0.196200 0.934393 0.106288
O O16 0.112650 0.979420 0.004757
O O17 0.771739 0.750000 0.330473
O O18 0.131584 0.750000 0.908501
O O19 0.085623 0.512738 0.839008
O O20 0.558408 0.750000 0.748456
#
# Coordination Sequence:
#
# PCOD8250677 Si02
#       8
#     8   8   8   8   8   8   8   8
#     4  10  21  38  59  81 110 148 190 237 283 330
#     4  10  21  36  56  83 115 147 185 233 290 340
#     4  11  22  37  59  84 112 150 193 230 278 342
#     4  10  18  34  59  82 108 151 190 219 278 348
#     4  10  21  36  57  83 113 149 185 226 280 338
#     4  11  21  34  55  85 118 145 181 233 285 333
#     4   9  17  33  57  80 108 146 184 221 271 336
#     4   9  19  36  58  82 108 146 195 236 275 333
#
# _framework density 19.210695000000001
#
# number of rings (size 3 to 8) (size 9 to 14) (size 15 to 20)
#    0.000    2.000    2.500    1.500    0.000    4.500 
#    0.000    1.875    0.000    0.000    0.000    0.000 
#    0.000    0.000    0.000    0.000    0.000    0.000 
#
# Total GULP energy -793707.633468 kJ/mol
# GULP energy per Si atom -12401.681773 kJ/mol
# Density = 1.916697 g / cm^3
# Si number density = 19.210695 Si / 1000 Ang^3
#
#
#
# Elastic Constant Matrix: (Units=GPa)
#
#
# Indices 1 2 3 4 5 6 
#
# 1 114.6117 23.6593 54.4968 0.0000 0.0000 0.0000
# 2 23.6593 45.7385 38.4744 0.0000 0.0000 0.0000
# 3 54.4968 38.4744 160.5409 0.0000 0.0000 0.0000
# 4 0.0000 0.0000 0.0000 30.3965 0.0000 0.0000
# 5 0.0000 0.0000 0.0000 0.0000 13.9224 0.0000
# 6 0.0000 0.0000 0.0000 0.0000 0.0000 13.6711
#
#
#
# Elastic Compliance Matrix: (Units=1/GPa)
#
#
# Indices 1 2 3 4 5 6 
#
# 1 0.010749 -0.003120 -0.002901 0.000000 0.000000 0.000000
# 2 -0.003120 0.028289 -0.005721 0.000000 0.000000 0.000000
# 3 -0.002901 -0.005721 0.008585 0.000000 0.000000 0.000000
# 4 0.000000 0.000000 0.000000 0.032899 0.000000 0.000000
# 5 0.000000 0.000000 0.000000 0.000000 0.071827 0.000000
# 6 0.000000 0.000000 0.000000 0.000000 0.000000 0.073147
#
#
# Mechanical properties :
#
#
# Convention : Reuss Voigt Hill
#
# Bulk Modulus (GPa) = 41.42538 61.57247 51.49892
# Shear Modulus (GPa) = 19.45343 25.21536 22.33440
#
# Velocity S-wave (km/s) = 3.18565 3.62687 3.41339
# Velocity P-wave (km/s) = 5.92804 7.04696 6.51158
#
# Compressibility (1/GPa) = 0.02413979
#
# Stress axis : x y z
#
# Youngs Moduli (GPa) = 93.03616 35.34912 116.48615
#
# Poissons Ratio (x) = 0.11028 0.33793
# Poissons Ratio (y) = 0.29024 0.66638
# Poissons Ratio (z) = 0.26990 0.20222
#
# Static dielectric constant tensor:
#      x y z
#    x 3.647760 0.000000 0.000000 
#    y 0.000000 3.243110 0.000000 
#    z 0.000000 0.000000 3.701110 
# 
# 
# High freq. dielectric constant tensor:
#      x y z
#    x 1.747210 0.000000 0.000000 
#    y 0.000000 1.715510 0.000000 
#    z 0.000000 0.000000 1.761830 
# 
# From -- ./inp_files/20809.got.cif
#   From: 2010.03.12/outbox.cif.g09.slc.cpg/sg62_11_cif.got.tgz:20809.got - 2010.04.10 19:12:36.
