data_PCOD8250560
_publ_section_title
;
Structure prediction by ZEFSAII (Michael W. Deem and Ramdas Pophale) SiO2 
 PCOD8250560
Probable space group: P N M A
;
_chemical_formula_sum "Si O2"
_cell_formula_units_Z 48
_cell_length_a 20.244706
_cell_length_b 9.071949
_cell_length_c 14.443627
_cell_angle_alpha 90.000000
_cell_angle_beta 90.000000
_cell_angle_gamma 90.000000
_cell_volume 2652.701230
_symmetry_space_group_name_H-M "P N M A"
_symmetry_group_IT_number 62
_symmetry_cell_setting 'orthorhombic'
loop_
_space_group_symop_operation_xyz
x,y,z
1/2-x,-y,1/2+z
1/2+x,1/2-y,1/2-z
-x,1/2+y,-z
-x,-y,-z
1/2+x,y,1/2-z
1/2-x,1/2+y,1/2+z
x,1/2-y,z
loop_
_atom_site_type_symbol
_atom_site_label
_atom_site_fract_x
_atom_site_fract_y
_atom_site_fract_z
Si Si1 0.421533 0.920905 0.669432
Si Si2 0.703036 0.075762 0.211935
Si Si3 0.322538 0.925038 0.184335
Si Si4 0.568340 0.579235 0.707893
Si Si5 0.730782 0.423678 0.008934
Si Si6 0.879106 0.075775 0.008889
O O1 0.412917 0.750000 0.645759
O O2 0.362902 0.977083 0.735974
O O3 0.490542 0.949580 0.721645
O O4 0.422016 0.007127 0.573178
O O5 0.714937 0.250000 0.221858
O O6 0.766147 0.993141 0.251690
O O7 0.695410 0.028868 0.104363
O O8 0.319976 0.750000 0.193177
O O9 0.311670 0.979085 0.078551
O O10 0.393791 0.983565 0.215556
O O11 0.586808 0.750000 0.722277
O O12 0.589476 0.526635 0.605843
O O13 0.737935 0.250000 0.005257
O O14 0.804830 0.489086 0.003441
O O15 0.881188 0.250000 0.997275
#
# Coordination Sequence:
#
# PCOD8250560 Si02
#       6
#     8   8   8   8   8   8
#     4  10  21  34  54  82 108 138 179 220 257 311
#     4  10  19  36  57  76 105 142 173 211 265 315
#     4  11  21  34  54  79 103 134 180 221 253 307
#     4  10  21  37  53  76 110 145 176 210 265 320
#     4   9  18  33  53  77 104 138 172 208 265 320
#     4  10  18  32  54  76 109 145 168 208 269 324
#
# _framework density 18.094763
#
# number of rings (size 3 to 8) (size 9 to 14) (size 15 to 20)
#    0.000    2.000    3.333    1.000    0.000    1.333 
#    0.000    2.500    0.000    0.000    0.000    0.000 
#    0.000    0.000    0.000    0.000    0.000    0.000 
#
# Total GULP energy -595256.617724 kJ/mol
# GULP energy per Si atom -12401.179536 kJ/mol
# Density = 1.805358 g / cm^3
# Si number density = 18.094763 Si / 1000 Ang^3
#
#
#
# Elastic Constant Matrix: (Units=GPa)
#
#
# Indices 1 2 3 4 5 6 
#
# 1 77.1914 13.9711 18.0461 0.0000 0.0000 0.0000
# 2 13.9711 30.5149 19.6257 0.0000 0.0000 0.0000
# 3 18.0461 19.6257 94.1156 0.0000 0.0000 0.0000
# 4 0.0000 0.0000 0.0000 21.3506 0.0000 0.0000
# 5 0.0000 0.0000 0.0000 0.0000 30.5711 0.0000
# 6 0.0000 0.0000 0.0000 0.0000 0.0000 22.8525
#
#
#
# Elastic Compliance Matrix: (Units=1/GPa)
#
#
# Indices 1 2 3 4 5 6 
#
# 1 0.014329 -0.005536 -0.001593 0.000000 0.000000 0.000000
# 2 -0.005536 0.039985 -0.007277 0.000000 0.000000 0.000000
# 3 -0.001593 -0.007277 0.012448 0.000000 0.000000 0.000000
# 4 0.000000 0.000000 0.000000 0.046837 0.000000 0.000000
# 5 0.000000 0.000000 0.000000 0.000000 0.032711 0.000000
# 6 0.000000 0.000000 0.000000 0.000000 0.000000 0.043759
#
#
# Mechanical properties :
#
#
# Convention : Reuss Voigt Hill
#
# Bulk Modulus (GPa) = 26.34951 33.90084 30.12518
# Shear Modulus (GPa) = 21.59538 24.96678 23.28108
#
# Velocity S-wave (km/s) = 3.45840 3.71857 3.59084
# Velocity P-wave (km/s) = 5.52638 6.10023 5.82038
#
# Compressibility (1/GPa) = 0.03795137
#
# Stress axis : x y z
#
# Youngs Moduli (GPa) = 69.78740 25.00916 80.33372
#
# Poissons Ratio (x) = 0.13845 0.12798
# Poissons Ratio (y) = 0.38634 0.58455
# Poissons Ratio (z) = 0.11118 0.18198
#
# Static dielectric constant tensor:
#      x y z
#    x 3.411540 0.000000 0.000000 
#    y 0.000000 3.140570 0.000000 
#    z 0.000000 0.000000 3.566450 
# 
# 
# High freq. dielectric constant tensor:
#      x y z
#    x 1.700990 0.000000 0.000000 
#    y 0.000000 1.680050 0.000000 
#    z 0.000000 0.000000 1.702870 
# 
# From -- ./inp_files/19600.got.cif
#   From: 2010.03.12/outbox.cif.g09.slc.cpg/sg62_10_cif.got.tgz:19600.got - 2010.04.10 19:12:36.
