data_PCOD8250476
_publ_section_title
;
Structure prediction by ZEFSAII (Michael W. Deem and Ramdas Pophale) SiO2 
 PCOD8250476
Probable space group: P N M A
;
_chemical_formula_sum "Si O2"
_cell_formula_units_Z 48
_cell_length_a 20.229110
_cell_length_b 9.185342
_cell_length_c 14.810167
_cell_angle_alpha 90.000000
_cell_angle_beta 90.000000
_cell_angle_gamma 90.000000
_cell_volume 2751.896290
_symmetry_space_group_name_H-M "P N M A"
_symmetry_group_IT_number 62
_symmetry_cell_setting 'orthorhombic'
loop_
_space_group_symop_operation_xyz
x,y,z
1/2-x,-y,1/2+z
1/2+x,1/2-y,1/2-z
-x,1/2+y,-z
-x,-y,-z
1/2+x,y,1/2-z
1/2-x,1/2+y,1/2+z
x,1/2-y,z
loop_
_atom_site_type_symbol
_atom_site_label
_atom_site_fract_x
_atom_site_fract_y
_atom_site_fract_z
Si Si1 0.459343 0.082927 0.925660
Si Si2 0.528117 0.583816 0.275079
Si Si3 0.306015 0.578702 0.505498
Si Si4 0.312165 0.077127 0.882962
Si Si5 0.839049 0.921733 0.795859
Si Si6 0.054064 0.418317 0.942348
O O1 0.463050 0.250000 0.952627
O O2 0.492194 0.051419 0.828116
O O3 0.383132 0.030941 0.923243
O O4 0.500000 0.000000 0.000000
O O5 0.554903 0.750000 0.282412
O O6 0.585969 0.476791 0.307370
O O7 0.463343 0.560787 0.336567
O O8 0.306367 0.750000 0.491690
O O9 0.243140 0.515318 0.451513
O O10 0.300614 0.539473 0.611384
O O11 0.373552 0.514854 0.461923
O O12 0.308221 0.250000 0.868728
O O13 0.301564 0.001880 0.785780
O O14 0.840270 0.750000 0.777813
O O15 0.052055 0.250000 0.971236
O O16 0.000000 0.500000 0.000000
#
# Coordination Sequence:
#
# PCOD8250476 Si02
#       6
#     8   8   8   8   8   8
#     4   9  18  33  52  72  96 130 169 209 249 295
#     4   9  18  32  51  74 102 133 165 200 248 308
#     4   9  18  33  53  74 102 136 168 204 252 303
#     4   9  19  37  54  71 100 139 172 202 251 309
#     4  10  18  31  53  77  99 129 169 209 249 293
#     4  10  18  31  52  78 104 133 166 204 249 301
#
# _framework density 17.442519000000001
#
# number of rings (size 3 to 8) (size 9 to 14) (size 15 to 20)
#    0.000    2.667    1.667    1.500    0.000    2.667 
#    3.000    2.500    0.000    0.000    0.000    0.000 
#    0.000    0.000    0.000    0.000    0.000    0.000 
#
# Total GULP energy -595056.452272 kJ/mol
# GULP energy per Si atom -12397.009422 kJ/mol
# Density = 1.740282 g / cm^3
# Si number density = 17.442519 Si / 1000 Ang^3
#
#
#
# Elastic Constant Matrix: (Units=GPa)
#
#
# Indices 1 2 3 4 5 6 
#
# 1 113.7283 32.9222 90.6309 0.0000 0.0000 0.0000
# 2 32.9222 45.3068 45.1745 0.0000 0.0000 0.0000
# 3 90.6309 45.1745 151.6772 0.0000 0.0000 0.0000
# 4 0.0000 0.0000 0.0000 29.3890 0.0000 0.0000
# 5 0.0000 0.0000 0.0000 0.0000 35.7096 0.0000
# 6 0.0000 0.0000 0.0000 0.0000 0.0000 20.7349
#
#
#
# Elastic Compliance Matrix: (Units=1/GPa)
#
#
# Indices 1 2 3 4 5 6 
#
# 1 0.017103 -0.003184 -0.009271 0.000000 0.000000 0.000000
# 2 -0.003184 0.031988 -0.007625 0.000000 0.000000 0.000000
# 3 -0.009271 -0.007625 0.014404 0.000000 0.000000 0.000000
# 4 0.000000 0.000000 0.000000 0.034026 0.000000 0.000000
# 5 0.000000 0.000000 0.000000 0.000000 0.028004 0.000000
# 6 0.000000 0.000000 0.000000 0.000000 0.000000 0.048228
#
#
# Mechanical properties :
#
#
# Convention : Reuss Voigt Hill
#
# Bulk Modulus (GPa) = 42.85408 72.01860 57.43634
# Shear Modulus (GPa) = 22.55413 26.63232 24.59323
#
# Velocity S-wave (km/s) = 3.59981 3.91175 3.75902
# Velocity P-wave (km/s) = 6.47304 7.86010 7.20005
#
# Compressibility (1/GPa) = 0.02333500
#
# Stress axis : x y z
#
# Youngs Moduli (GPa) = 58.47038 31.26215 69.42746
#
# Poissons Ratio (x) = 0.09953 0.64367
# Poissons Ratio (y) = 0.18615 0.52936
# Poissons Ratio (z) = 0.54208 0.23836
#
# Static dielectric constant tensor:
#      x y z
#    x 3.401580 0.000000 0.000000 
#    y 0.000000 3.096780 0.000000 
#    z 0.000000 0.000000 3.519500 
# 
# 
# High freq. dielectric constant tensor:
#      x y z
#    x 1.657760 0.000000 0.000000 
#    y 0.000000 1.656900 0.000000 
#    z 0.000000 0.000000 1.684690 
# 
# From -- ./inp_files/20028.got.cif
#   From: 2010.03.12/outbox.cif.g09.slc.cpg/sg62_11_cif.got.tgz:20028.got - 2010.04.10 19:12:36.
