data_PCOD8250208
_publ_section_title
;
Structure prediction by ZEFSAII (Michael W. Deem and Ramdas Pophale) SiO2 
 PCOD8250208
Probable space group: P N M A
;
_chemical_formula_sum "Si O2"
_cell_formula_units_Z 56
_cell_length_a 20.940404
_cell_length_b 8.829832
_cell_length_c 18.423564
_cell_angle_alpha 90.000000
_cell_angle_beta 90.000000
_cell_angle_gamma 90.000000
_cell_volume 3406.521577
_symmetry_space_group_name_H-M "P N M A"
_symmetry_group_IT_number 62
_symmetry_cell_setting 'orthorhombic'
loop_
_space_group_symop_operation_xyz
x,y,z
1/2-x,-y,1/2+z
1/2+x,1/2-y,1/2-z
-x,1/2+y,-z
-x,-y,-z
1/2+x,y,1/2-z
1/2-x,1/2+y,1/2+z
x,1/2-y,z
loop_
_atom_site_type_symbol
_atom_site_label
_atom_site_fract_x
_atom_site_fract_y
_atom_site_fract_z
Si Si1 0.997053 0.926071 0.078329
Si Si2 0.820997 0.415638 0.296939
Si Si3 0.750808 0.928725 0.928232
Si Si4 0.622343 0.568235 0.655008
Si Si5 0.313666 0.582333 0.782174
Si Si6 0.366680 0.074852 0.648749
Si Si7 0.752797 0.927228 0.092859
O O1 0.980352 0.750000 0.069861
O O2 0.062997 0.952887 0.119085
O O3 0.943897 0.007356 0.126159
O O4 0.000000 0.000000 0.000000
O O5 0.849313 0.250000 0.313240
O O6 0.805748 0.495512 0.374729
O O7 0.868622 0.494593 0.238667
O O8 0.753637 0.404667 0.256812
O O9 0.758187 0.750000 0.913040
O O10 0.818384 0.003460 0.909458
O O11 0.731536 0.962510 0.010544
O O12 0.623985 0.750000 0.653565
O O13 0.679863 0.509381 0.605238
O O14 0.340010 0.750000 0.800634
O O15 0.363038 0.499376 0.728556
O O16 0.304240 0.488973 0.856609
O O17 0.349707 0.250000 0.656622
O O18 0.762390 0.750000 0.106952
#
# Coordination Sequence:
#
# PCOD8250208 Si02
#       7
#     8   8   8   8   8   8   8
#     4  11  23  35  47  66  93 124 158 194 230 273
#     4   7  13  27  44  62  84 113 148 181 218 266
#     4   9  17  29  46  68  94 122 149 183 229 276
#     4  10  19  31  47  65  90 125 160 192 227 270
#     4   9  17  30  47  65  89 120 152 188 231 278
#     4  10  20  32  46  65  90 121 157 194 230 272
#     4  10  18  28  46  71  97 123 152 188 230 275
#
# _framework density 16.439056000000001
#
# number of rings (size 3 to 8) (size 9 to 14) (size 15 to 20)
#    0.000    2.571    0.000    4.714    0.000    5.714 
#    0.000    0.714    0.000    0.000    0.000    1.000 
#    0.000    0.000    0.000    0.000    0.000    0.000 
#
# Total GULP energy -693926.329233 kJ/mol
# GULP energy per Si atom -12391.541593 kJ/mol
# Density = 1.640164 g / cm^3
# Si number density = 16.439056 Si / 1000 Ang^3
#
#
#
# Elastic Constant Matrix: (Units=GPa)
#
#
# Indices 1 2 3 4 5 6 
#
# 1 52.4798 38.2340 53.0837 0.0000 0.0000 0.0000
# 2 38.2340 91.5320 60.6230 0.0000 0.0000 0.0000
# 3 53.0837 60.6230 147.3418 0.0000 0.0000 0.0000
# 4 0.0000 0.0000 0.0000 25.6854 0.0000 0.0000
# 5 0.0000 0.0000 0.0000 0.0000 24.7378 0.0000
# 6 0.0000 0.0000 0.0000 0.0000 0.0000 22.2852
#
#
#
# Elastic Compliance Matrix: (Units=1/GPa)
#
#
# Indices 1 2 3 4 5 6 
#
# 1 0.034107 -0.008397 -0.008833 0.000000 0.000000 0.000000
# 2 -0.008397 0.017085 -0.004004 0.000000 0.000000 0.000000
# 3 -0.008833 -0.004004 0.011617 0.000000 0.000000 0.000000
# 4 0.000000 0.000000 0.000000 0.038933 0.000000 0.000000
# 5 0.000000 0.000000 0.000000 0.000000 0.040424 0.000000
# 6 0.000000 0.000000 0.000000 0.000000 0.000000 0.044873
#
#
# Mechanical properties :
#
#
# Convention : Reuss Voigt Hill
#
# Bulk Modulus (GPa) = 49.16324 66.13723 57.65023
# Shear Modulus (GPa) = 21.16076 23.83587 22.49831
#
# Velocity S-wave (km/s) = 3.59168 3.81196 3.70346
# Velocity P-wave (km/s) = 6.86815 7.72618 7.30977
#
# Compressibility (1/GPa) = 0.02034040
#
# Stress axis : x y z
#
# Youngs Moduli (GPa) = 29.31938 58.53228 86.08154
#
# Poissons Ratio (x) = 0.49147 0.76038
# Poissons Ratio (y) = 0.24618 0.34469
# Poissons Ratio (z) = 0.25899 0.23438
#
# Static dielectric constant tensor:
#      x y z
#    x 2.883620 0.000000 0.000000 
#    y 0.000000 3.213640 0.000000 
#    z 0.000000 0.000000 3.473560 
# 
# 
# High freq. dielectric constant tensor:
#      x y z
#    x 1.590230 0.000000 0.000000 
#    y 0.000000 1.635940 0.000000 
#    z 0.000000 0.000000 1.643670 
# 
# From -- ./inp_files/24569.got.cif
#   From: 2010.03.12/outbox.cif.g09.slc.cpg/sg62_13_cif.got.tgz:24569.got - 2010.04.10 19:12:36.
