data_PCOD8250927
_publ_section_title
;
Structure prediction by ZEFSAII (Michael W. Deem and Ramdas Pophale) SiO2 
 PCOD8250927
Probable space group: P N M A
;
_chemical_formula_sum "Si O2"
_cell_formula_units_Z 64
_cell_length_a 22.758102
_cell_length_b 8.967707
_cell_length_c 19.214443
_cell_angle_alpha 90.000000
_cell_angle_beta 90.000000
_cell_angle_gamma 90.000000
_cell_volume 3921.437063
_symmetry_space_group_name_H-M "P N M A"
_symmetry_group_IT_number 62
_symmetry_cell_setting 'orthorhombic'
loop_
_space_group_symop_operation_xyz
x,y,z
1/2-x,-y,1/2+z
1/2+x,1/2-y,1/2-z
-x,1/2+y,-z
-x,-y,-z
1/2+x,y,1/2-z
1/2-x,1/2+y,1/2+z
x,1/2-y,z
loop_
_atom_site_type_symbol
_atom_site_label
_atom_site_fract_x
_atom_site_fract_y
_atom_site_fract_z
Si Si1 0.663056 0.412946 0.208916
Si Si2 0.561861 0.076003 0.301070
Si Si3 0.073540 0.923625 0.802795
Si Si4 0.242908 0.413304 0.859195
Si Si5 0.668589 0.082791 0.780594
Si Si6 0.234360 0.082859 0.149465
Si Si7 0.129331 0.572380 0.077943
Si Si8 0.129616 0.071015 0.932854
O O1 0.652520 0.250000 0.177732
O O2 0.600412 0.480336 0.234433
O O3 0.695220 0.500931 0.146744
O O4 0.704930 0.407881 0.275500
O O5 0.577226 0.250000 0.316126
O O6 0.494230 0.052933 0.283055
O O7 0.579660 0.980091 0.368128
O O8 0.089272 0.750000 0.813266
O O9 0.110488 0.989444 0.738504
O O10 0.085729 0.012720 0.873602
O O11 0.260676 0.250000 0.884449
O O12 0.210751 0.407879 0.785499
O O13 0.196502 0.481535 0.914477
O O14 0.651042 0.250000 0.804234
O O15 0.702831 0.999870 0.843309
O O16 0.243732 0.250000 0.119585
O O17 0.193582 0.989463 0.097280
O O18 0.131135 0.750000 0.075022
O O19 0.110093 0.505158 0.004099
O O20 0.125053 0.250000 0.936438
#
# Coordination Sequence:
#
# PCOD8250927 Si02
#       8
#     8   8   8   8   8   8   8   8
#     4   8  14  25  42  61  80 104 134 171 213 255
#     4   9  19  33  45  60  86 119 151 181 216 259
#     4  10  19  31  46  63  85 116 153 186 216 255
#     4   8  15  26  41  60  80 104 133 170 215 258
#     4   9  16  27  43  64  87 109 138 177 220 261
#     4   9  16  28  45  63  84 110 139 174 219 263
#     4  11  21  31  45  64  85 113 150 186 220 259
#     4  10  20  33  45  59  85 117 148 183 221 260
#
# _framework density 16.320547000000001
#
# number of rings (size 3 to 8) (size 9 to 14) (size 15 to 20)
#    0.000    2.750    0.000    4.125    0.000    8.000 
#    0.000    0.000    0.000    0.000    0.000    0.000 
#    0.000    1.000    0.000    3.000    0.000    5.125 
#
# Total GULP energy -793216.299841 kJ/mol
# GULP energy per Si atom -12394.004685 kJ/mol
# Density = 1.628340 g / cm^3
# Si number density = 16.320547 Si / 1000 Ang^3
#
#
#
# Elastic Constant Matrix: (Units=GPa)
#
#
# Indices 1 2 3 4 5 6 
#
# 1 101.5555 44.6721 21.6585 0.0000 0.0000 0.0000
# 2 44.6721 102.3654 12.6491 0.0000 0.0000 0.0000
# 3 21.6585 12.6491 7.8968 0.0000 0.0000 0.0000
# 4 0.0000 0.0000 0.0000 20.5941 0.0000 0.0000
# 5 0.0000 0.0000 0.0000 0.0000 13.7996 0.0000
# 6 0.0000 0.0000 0.0000 0.0000 0.0000 24.6219
#
#
#
# Elastic Compliance Matrix: (Units=1/GPa)
#
#
# Indices 1 2 3 4 5 6 
#
# 1 0.024426 -0.002969 -0.062236 0.000000 0.000000 0.000000
# 2 -0.002969 0.012541 -0.011944 0.000000 0.000000 0.000000
# 3 -0.062236 -0.011944 0.316460 0.000000 0.000000 0.000000
# 4 0.000000 0.000000 0.000000 0.048558 0.000000 0.000000
# 5 0.000000 0.000000 0.000000 0.000000 0.072466 0.000000
# 6 0.000000 0.000000 0.000000 0.000000 0.000000 0.040614
#
#
# Mechanical properties :
#
#
# Convention : Reuss Voigt Hill
#
# Bulk Modulus (GPa) = 5.02193 41.08633 23.05413
# Shear Modulus (GPa) = 6.79589 20.65899 13.72744
#
# Velocity S-wave (km/s) = 2.04280 3.56171 2.90334
# Velocity P-wave (km/s) = 2.94071 6.49181 5.03941
#
# Compressibility (1/GPa) = 0.19912656
#
# Stress axis : x y z
#
# Youngs Moduli (GPa) = 40.94027 79.74148 3.15996
#
# Poissons Ratio (x) = 0.23675 0.19666
# Poissons Ratio (y) = 0.12155 0.03774
# Poissons Ratio (z) = 2.54798 0.95246
#
# Static dielectric constant tensor:
#      x y z
#    x 3.101480 0.000000 0.000000 
#    y 0.000000 3.318940 0.000000 
#    z 0.000000 0.000000 2.769400 
# 
# 
# High freq. dielectric constant tensor:
#      x y z
#    x 1.616070 0.000000 0.000000 
#    y 0.000000 1.640590 0.000000 
#    z 0.000000 0.000000 1.576850 
# 
# From -- ./inp_files/24973.got.cif
#   From: 2010.03.12/outbox.cif.g09.slc.cpg/sg62_13_cif.got.tgz:24973.got - 2010.04.10 19:12:36.
