data_PCOD8250345
_publ_section_title
;
Structure prediction by ZEFSAII (Michael W. Deem and Ramdas Pophale) SiO2 
 PCOD8250345
Probable space group: P N M A
;
_chemical_formula_sum "Si O2"
_cell_formula_units_Z 56
_cell_length_a 19.369787
_cell_length_b 8.946111
_cell_length_c 19.289074
_cell_angle_alpha 90.000000
_cell_angle_beta 90.000000
_cell_angle_gamma 90.000000
_cell_volume 3342.493002
_symmetry_space_group_name_H-M "P N M A"
_symmetry_group_IT_number 62
_symmetry_cell_setting 'orthorhombic'
loop_
_space_group_symop_operation_xyz
x,y,z
1/2-x,-y,1/2+z
1/2+x,1/2-y,1/2-z
-x,1/2+y,-z
-x,-y,-z
1/2+x,y,1/2-z
1/2-x,1/2+y,1/2+z
x,1/2-y,z
loop_
_atom_site_type_symbol
_atom_site_label
_atom_site_fract_x
_atom_site_fract_y
_atom_site_fract_z
Si Si1 0.273087 0.574001 0.345275
Si Si2 0.949599 0.072784 0.554975
Si Si3 0.229482 0.575330 0.632826
Si Si4 0.297063 0.072512 0.981997
Si Si5 0.168288 0.422218 0.245944
Si Si6 0.125484 0.925779 0.749055
Si Si7 0.477545 0.576705 0.801016
O O1 0.280697 0.750000 0.338949
O O2 0.259106 0.522829 0.424548
O O3 0.206657 0.524855 0.301280
O O4 0.343898 0.500057 0.318531
O O5 0.954784 0.250000 0.549264
O O6 0.872684 0.013276 0.539029
O O7 0.971422 0.023442 0.631334
O O8 0.000000 0.000000 0.500000
O O9 0.218249 0.750000 0.622893
O O10 0.224860 0.501593 0.556415
O O11 0.303523 0.539827 0.668626
O O12 0.168324 0.514168 0.682418
O O13 0.299615 0.250000 0.985367
O O14 0.185936 0.250000 0.263780
O O15 0.086632 0.452558 0.249401
O O16 0.135242 0.750000 0.757001
O O17 0.045839 0.971639 0.740799
O O18 0.482066 0.750000 0.823720
#
# Coordination Sequence:
#
# PCOD8250345 Si02
#       7
#     8   8   8   8   8   8   8
#     4  10  18  30  48  70  94 124 163 203 242 292
#     4  11  21  32  46  70 103 137 166 197 244 299
#     4   8  14  27  46  66  89 121 160 195 232 283
#     4   9  17  29  46  68  96 128 159 195 243 292
#     4   9  17  30  50  72  93 123 164 204 242 290
#     4   9  18  32  49  68  94 127 161 201 244 291
#     4  10  19  32  50  72  97 127 164 205 249 296
#
# _framework density 16.753962000000001
#
# number of rings (size 3 to 8) (size 9 to 14) (size 15 to 20)
#    0.000    2.571    1.429    2.571    0.000    2.857 
#    0.000    0.000    0.000    8.571    0.000    0.000 
#    0.000    0.000    0.000    0.000    0.000    0.143 
#
# Total GULP energy -694187.731159 kJ/mol
# GULP energy per Si atom -12396.209485 kJ/mol
# Density = 1.671583 g / cm^3
# Si number density = 16.753962 Si / 1000 Ang^3
#
#
#
# Elastic Constant Matrix: (Units=GPa)
#
#
# Indices 1 2 3 4 5 6 
#
# 1 135.9735 28.8108 66.5936 0.0000 0.0000 0.0000
# 2 28.8108 38.1213 26.7229 0.0000 0.0000 0.0000
# 3 66.5936 26.7229 94.7728 0.0000 0.0000 0.0000
# 4 0.0000 0.0000 0.0000 21.4902 0.0000 0.0000
# 5 0.0000 0.0000 0.0000 0.0000 27.8969 0.0000
# 6 0.0000 0.0000 0.0000 0.0000 0.0000 19.3387
#
#
#
# Elastic Compliance Matrix: (Units=1/GPa)
#
#
# Indices 1 2 3 4 5 6 
#
# 1 0.011643 -0.003819 -0.007104 0.000000 0.000000 0.000000
# 2 -0.003819 0.033947 -0.006888 0.000000 0.000000 0.000000
# 3 -0.007104 -0.006888 0.017486 0.000000 0.000000 0.000000
# 4 0.000000 0.000000 0.000000 0.046533 0.000000 0.000000
# 5 0.000000 0.000000 0.000000 0.000000 0.035846 0.000000
# 6 0.000000 0.000000 0.000000 0.000000 0.000000 0.051710
#
#
# Mechanical properties :
#
#
# Convention : Reuss Voigt Hill
#
# Bulk Modulus (GPa) = 36.42691 57.01356 46.72024
# Shear Modulus (GPa) = 20.66635 23.52784 22.09710
#
# Velocity S-wave (km/s) = 3.51596 3.75148 3.63563
# Velocity P-wave (km/s) = 6.18645 7.27108 6.75058
#
# Compressibility (1/GPa) = 0.02745223
#
# Stress axis : x y z
#
# Youngs Moduli (GPa) = 85.88905 29.45749 57.18965
#
# Poissons Ratio (x) = 0.11251 0.40628
# Poissons Ratio (y) = 0.32804 0.39394
# Poissons Ratio (z) = 0.61017 0.20291
#
# Static dielectric constant tensor:
#      x y z
#    x 3.293210 0.000000 0.000000 
#    y 0.000000 2.922770 0.000000 
#    z 0.000000 0.000000 3.502020 
# 
# 
# High freq. dielectric constant tensor:
#      x y z
#    x 1.641710 0.000000 0.000000 
#    y 0.000000 1.622720 0.000000 
#    z 0.000000 0.000000 1.638440 
# 
# From -- ./inp_files/24612.got.cif
#   From: 2010.03.12/outbox.cif.g09.slc.cpg/sg62_13_cif.got.tgz:24612.got - 2010.04.10 19:12:36.
