data_PCOD8250421
_publ_section_title
;
Structure prediction by ZEFSAII (Michael W. Deem and Ramdas Pophale) SiO2 
 PCOD8250421
Probable space group: P N M A
;
_chemical_formula_sum "Si O2"
_cell_formula_units_Z 64
_cell_length_a 8.543446
_cell_length_b 19.041773
_cell_length_c 20.601609
_cell_angle_alpha 90.000000
_cell_angle_beta 90.000000
_cell_angle_gamma 90.000000
_cell_volume 3351.518359
_symmetry_space_group_name_H-M "P N M A"
_symmetry_group_IT_number 62
_symmetry_cell_setting 'orthorhombic'
loop_
_space_group_symop_operation_xyz
x,y,z
1/2-x,-y,1/2+z
1/2+x,1/2-y,1/2-z
-x,1/2+y,-z
-x,-y,-z
1/2+x,y,1/2-z
1/2-x,1/2+y,1/2+z
x,1/2-y,z
loop_
_atom_site_type_symbol
_atom_site_label
_atom_site_fract_x
_atom_site_fract_y
_atom_site_fract_z
Si Si1 0.306572 0.921639 0.436526
Si Si2 0.041063 0.438382 0.342608
Si Si3 0.700920 0.672627 0.341955
Si Si4 0.987226 0.591292 0.388689
Si Si5 0.230877 0.963426 0.735742
Si Si6 0.000501 0.549962 0.186738
Si Si7 0.559719 0.671347 0.484673
Si Si8 0.818247 0.929406 0.524331
O O1 0.433675 0.949061 0.385423
O O2 0.391419 0.867955 0.485637
O O3 0.162655 0.879318 0.402426
O O4 0.242330 0.990801 0.472219
O O5 0.010311 0.521924 0.345908
O O6 0.883809 0.410894 0.305435
O O7 0.193500 0.423285 0.297698
O O8 0.069268 0.408704 0.414672
O O9 0.707469 0.750000 0.310249
O O10 0.879218 0.644593 0.348364
O O11 0.588803 0.623760 0.297300
O O12 0.625220 0.676306 0.412501
O O13 0.912218 0.574504 0.458200
O O14 0.134501 0.031405 0.762151
O O15 0.366996 0.989476 0.687755
O O16 0.541167 0.750000 0.513697
O O17 0.677777 0.626234 0.528468
#
# Coordination Sequence:
#
# PCOD8250421 Si02
#       8
#     8   8   8   8   8   8   8   8
#     4  10  18  31  49  76 102 131 170 209 258 307
#     4  10  18  32  48  76  98 129 165 206 268 301
#     4   9  18  32  48  66  94 137 176 204 248 302
#     4  10  18  32  50  75 106 132 166 217 266 303
#     4  10  19  30  50  68 100 130 165 213 263 302
#     4  10  18  31  48  65  96 129 164 215 255 294
#     4   9  19  33  50  72 102 137 165 203 258 311
#     4  10  19  33  52  78 106 131 173 215 260 313
#
# _framework density 19.095824
#
# number of rings (size 3 to 8) (size 9 to 14) (size 15 to 20)
#    0.000    2.250    3.750    1.875    0.000    0.500 
#    2.250    0.625    0.000    0.000    0.000    0.875 
#    0.000    0.000    0.000    0.000    0.000    0.000 
#
# Total GULP energy -792936.818745 kJ/mol
# GULP energy per Si atom -12389.637793 kJ/mol
# Density = 1.905236 g / cm^3
# Si number density = 19.095824 Si / 1000 Ang^3
#
#
#
# Elastic Constant Matrix: (Units=GPa)
#
#
# Indices 1 2 3 4 5 6 
#
# 1 105.8157 13.8588 16.9593 0.0000 0.0000 0.0000
# 2 13.8588 35.7887 -4.6875 0.0000 0.0000 0.0000
# 3 16.9593 -4.6875 34.7584 0.0000 0.0000 0.0000
# 4 0.0000 0.0000 0.0000 13.9492 0.0000 0.0000
# 5 0.0000 0.0000 0.0000 0.0000 35.9288 0.0000
# 6 0.0000 0.0000 0.0000 0.0000 0.0000 14.8323
#
#
#
# Elastic Compliance Matrix: (Units=1/GPa)
#
#
# Indices 1 2 3 4 5 6 
#
# 1 0.011096 -0.005096 -0.006101 0.000000 0.000000 0.000000
# 2 -0.005096 0.030784 0.006638 0.000000 0.000000 0.000000
# 3 -0.006101 0.006638 0.032642 0.000000 0.000000 0.000000
# 4 0.000000 0.000000 0.000000 0.071689 0.000000 0.000000
# 5 0.000000 0.000000 0.000000 0.000000 0.027833 0.000000
# 6 0.000000 0.000000 0.000000 0.000000 0.000000 0.067421
#
#
# Mechanical properties :
#
#
# Convention : Reuss Voigt Hill
#
# Bulk Modulus (GPa) = 15.28948 25.40264 20.34606
# Shear Modulus (GPa) = 18.35648 22.95753 20.65701
#
# Velocity S-wave (km/s) = 3.10382 3.47108 3.29257
# Velocity P-wave (km/s) = 4.56826 5.42182 5.01324
#
# Compressibility (1/GPa) = 0.06540446
#
# Stress axis : x y z
#
# Youngs Moduli (GPa) = 90.12586 32.48389 30.63542
#
# Poissons Ratio (x) = 0.16553 0.18691
# Poissons Ratio (y) = 0.45926 -0.20335
# Poissons Ratio (z) = 0.54985 -0.21562
#
# Static dielectric constant tensor:
#      x y z
#    x 4.026030 0.000000 0.000000 
#    y 0.000000 3.245760 0.000000 
#    z 0.000000 0.000000 3.386340 
# 
# 
# High freq. dielectric constant tensor:
#      x y z
#    x 1.766900 0.000000 0.000000 
#    y 0.000000 1.677220 0.000000 
#    z 0.000000 0.000000 1.730740 
# 
# From -- ./inp_files/29057.got.cif
#   From: 2010.03.12/outbox.cif.g09.slc.cpg/sg62_15_cif.got.tgz:29057.got - 2010.04.10 19:12:36.
