data_PCOD8250163
_publ_section_title
;
Structure prediction by ZEFSAII (Michael W. Deem and Ramdas Pophale) SiO2 
 PCOD8250163
Probable space group: P N M A
;
_chemical_formula_sum "Si O2"
_cell_formula_units_Z 56
_cell_length_a 18.507958
_cell_length_b 8.952555
_cell_length_c 20.735068
_cell_angle_alpha 90.000000
_cell_angle_beta 90.000000
_cell_angle_gamma 90.000000
_cell_volume 3435.666237
_symmetry_space_group_name_H-M "P N M A"
_symmetry_group_IT_number 62
_symmetry_cell_setting 'orthorhombic'
loop_
_space_group_symop_operation_xyz
x,y,z
1/2-x,-y,1/2+z
1/2+x,1/2-y,1/2-z
-x,1/2+y,-z
-x,-y,-z
1/2+x,y,1/2-z
1/2-x,1/2+y,1/2+z
x,1/2-y,z
loop_
_atom_site_type_symbol
_atom_site_label
_atom_site_fract_x
_atom_site_fract_y
_atom_site_fract_z
Si Si1 0.077366 0.925251 0.003380
Si Si2 0.222380 0.579453 0.697854
Si Si3 0.421996 0.422212 0.252170
Si Si4 0.353237 0.918356 0.620962
Si Si5 0.210284 0.924864 0.316359
Si Si6 0.080020 0.423459 0.261233
Si Si7 0.162260 0.572990 0.877607
O O1 0.065508 0.750000 0.000341
O O2 0.118458 0.965892 0.068874
O O3 0.125416 0.981015 0.943532
O O4 0.000000 0.000000 0.000000
O O5 0.237035 0.750000 0.723435
O O6 0.135530 0.554986 0.693060
O O7 0.266130 0.558124 0.630875
O O8 0.252094 0.461176 0.748628
O O9 0.439148 0.250000 0.264980
O O10 0.499184 0.495210 0.234741
O O11 0.387615 0.485950 0.318400
O O12 0.369843 0.750000 0.597248
O O13 0.391882 0.949412 0.688794
O O14 0.206013 0.750000 0.328389
O O15 0.129105 0.991003 0.313779
O O16 0.258266 0.998719 0.373203
O O17 0.081641 0.250000 0.280012
O O18 0.172043 0.750000 0.874790
#
# Coordination Sequence:
#
# PCOD8250163 Si02
#       7
#     8   8   8   8   8   8   8
#     4  11  22  33  47  66  90 120 154 188 221 260
#     4   8  15  29  46  63  86 118 150 179 215 264
#     4   8  13  25  47  67  82 108 149 183 209 253
#     4   9  17  29  44  63  91 123 152 181 217 260
#     4  10  18  27  42  65  89 113 144 184 224 261
#     4   9  16  28  46  66  90 120 147 176 217 266
#     4   9  18  33  47  60  84 120 155 183 215 262
#
# _framework density 16.299603999999999
#
# number of rings (size 3 to 8) (size 9 to 14) (size 15 to 20)
#    0.000    2.857    0.000    4.286    0.000    5.714 
#    0.000    2.857    0.000    0.000    0.000    1.000 
#    0.000    0.000    0.000    0.000    0.000    0.000 
#
# Total GULP energy -693921.894258 kJ/mol
# GULP energy per Si atom -12391.462397 kJ/mol
# Density = 1.626251 g / cm^3
# Si number density = 16.299604 Si / 1000 Ang^3
#
#
#
# Elastic Constant Matrix: (Units=GPa)
#
#
# Indices 1 2 3 4 5 6 
#
# 1 150.9097 37.1496 49.8770 0.0000 0.0000 0.0000
# 2 37.1496 52.2836 24.8837 0.0000 0.0000 0.0000
# 3 49.8770 24.8837 58.7885 0.0000 0.0000 0.0000
# 4 0.0000 0.0000 0.0000 20.3530 0.0000 0.0000
# 5 0.0000 0.0000 0.0000 0.0000 25.9500 0.0000
# 6 0.0000 0.0000 0.0000 0.0000 0.0000 18.7004
#
#
#
# Elastic Compliance Matrix: (Units=1/GPa)
#
#
# Indices 1 2 3 4 5 6 
#
# 1 0.009763 -0.003750 -0.006695 0.000000 0.000000 0.000000
# 2 -0.003750 0.025392 -0.007566 0.000000 0.000000 0.000000
# 3 -0.006695 -0.007566 0.025893 0.000000 0.000000 0.000000
# 4 0.000000 0.000000 0.000000 0.049133 0.000000 0.000000
# 5 0.000000 0.000000 0.000000 0.000000 0.038536 0.000000
# 6 0.000000 0.000000 0.000000 0.000000 0.000000 0.053475
#
#
# Mechanical properties :
#
#
# Convention : Reuss Voigt Hill
#
# Bulk Modulus (GPa) = 39.96088 53.97806 46.96947
# Shear Modulus (GPa) = 20.27938 23.00543 21.64240
#
# Velocity S-wave (km/s) = 3.53110 3.76095 3.64783
# Velocity P-wave (km/s) = 6.41830 7.21441 6.82797
#
# Compressibility (1/GPa) = 0.02502447
#
# Stress axis : x y z
#
# Youngs Moduli (GPa) = 102.43256 39.38228 38.62023
#
# Poissons Ratio (x) = 0.14769 0.25858
# Poissons Ratio (y) = 0.38413 0.29221
# Poissons Ratio (z) = 0.68582 0.29798
#
# Static dielectric constant tensor:
#      x y z
#    x 3.496690 0.000000 0.000000 
#    y 0.000000 2.867370 0.000000 
#    z 0.000000 0.000000 2.835850 
# 
# 
# High freq. dielectric constant tensor:
#      x y z
#    x 1.640450 0.000000 0.000000 
#    y 0.000000 1.610320 0.000000 
#    z 0.000000 0.000000 1.579270 
# 
# From -- ./inp_files/27532.got.cif
#   From: 2010.03.12/outbox.cif.g09.slc.cpg/sg62_14_cif.got.tgz:27532.got - 2010.04.10 19:12:36.
