data_PCOD8250005
_publ_section_title
;
Structure prediction by ZEFSAII (Michael W. Deem and Ramdas Pophale) SiO2 
 PCOD8250005
Probable space group: P N M A
;
_chemical_formula_sum "Si O2"
_cell_formula_units_Z 64
_cell_length_a 14.513269
_cell_length_b 9.235284
_cell_length_c 30.293650
_cell_angle_alpha 90.000000
_cell_angle_beta 90.000000
_cell_angle_gamma 90.000000
_cell_volume 4060.383961
_symmetry_space_group_name_H-M "P N M A"
_symmetry_group_IT_number 62
_symmetry_cell_setting 'orthorhombic'
loop_
_space_group_symop_operation_xyz
x,y,z
1/2-x,-y,1/2+z
1/2+x,1/2-y,1/2-z
-x,1/2+y,-z
-x,-y,-z
1/2+x,y,1/2-z
1/2-x,1/2+y,1/2+z
x,1/2-y,z
loop_
_atom_site_type_symbol
_atom_site_label
_atom_site_fract_x
_atom_site_fract_y
_atom_site_fract_z
Si Si1 0.209438 0.922968 0.714577
Si Si2 0.590192 0.419586 0.551220
Si Si3 0.990187 0.088954 0.176887
Si Si4 0.327922 0.584034 0.358919
Si Si5 0.000239 0.911858 0.721853
Si Si6 0.176979 0.580777 0.291650
Si Si7 0.671780 0.079660 0.365245
Si Si8 0.900797 0.919470 0.953813
O O1 0.216752 0.750000 0.722032
O O2 0.103290 0.973294 0.714874
O O3 0.246626 0.976846 0.666396
O O4 0.267406 0.999334 0.753080
O O5 0.568835 0.250000 0.552518
O O6 0.662659 0.465367 0.589644
O O7 0.494665 0.500714 0.559248
O O8 0.632372 0.462973 0.503166
O O9 0.968484 0.250000 0.159388
O O10 0.023386 0.093705 0.226889
O O11 0.073420 0.015028 0.150000
O O12 0.898089 0.998253 0.172616
O O13 0.355889 0.750000 0.355234
O O14 0.226705 0.556704 0.339086
O O15 0.991809 0.750000 0.701437
O O16 0.924987 0.017422 0.700126
O O17 0.170983 0.750000 0.279334
O O18 0.668067 0.250000 0.357692
O O19 0.679376 0.040306 0.417692
O O20 0.922837 0.750000 0.951043
#
# Coordination Sequence:
#
# PCOD8250005 Si02
#       8
#     8   8   8   8   8   8   8   8
#     4  10  19  33  50  67  89 117 152 190 227 268
#     4   9  17  28  42  62  90 119 147 179 216 262
#     4  10  17  27  46  67  89 118 150 185 220 260
#     4  10  20  31  42  63  93 124 153 182 218 261
#     4  10  20  33  48  64  87 120 154 189 225 262
#     4  11  22  32  45  65  92 122 153 188 222 265
#     4   9  16  27  44  67  90 113 145 181 219 262
#     4   9  16  27  44  65  89 116 145 179 220 266
#
# _framework density 15.762057
#
# number of rings (size 3 to 8) (size 9 to 14) (size 15 to 20)
#    0.000    2.250    3.750    0.375    0.000    1.500 
#    0.000    0.625    0.000    0.000    0.000    0.875 
#    0.000    0.000    0.000    0.000    0.000    0.000 
#
# Total GULP energy -792992.857688 kJ/mol
# GULP energy per Si atom -12390.513401 kJ/mol
# Density = 1.572618 g / cm^3
# Si number density = 15.762057 Si / 1000 Ang^3
#
#
#
# Elastic Constant Matrix: (Units=GPa)
#
#
# Indices 1 2 3 4 5 6 
#
# 1 90.3712 31.7629 44.4565 0.0000 0.0000 0.0000
# 2 31.7629 38.2277 25.3744 0.0000 0.0000 0.0000
# 3 44.4565 25.3744 108.9565 0.0000 0.0000 0.0000
# 4 0.0000 0.0000 0.0000 14.5972 0.0000 0.0000
# 5 0.0000 0.0000 0.0000 0.0000 23.7360 0.0000
# 6 0.0000 0.0000 0.0000 0.0000 0.0000 18.0257
#
#
#
# Elastic Compliance Matrix: (Units=1/GPa)
#
#
# Indices 1 2 3 4 5 6 
#
# 1 0.017227 -0.011412 -0.004371 0.000000 0.000000 0.000000
# 2 -0.011412 0.038502 -0.004310 0.000000 0.000000 0.000000
# 3 -0.004371 -0.004310 0.011965 0.000000 0.000000 0.000000
# 4 0.000000 0.000000 0.000000 0.068506 0.000000 0.000000
# 5 0.000000 0.000000 0.000000 0.000000 0.042130 0.000000
# 6 0.000000 0.000000 0.000000 0.000000 0.000000 0.055476
#
#
# Mechanical properties :
#
#
# Convention : Reuss Voigt Hill
#
# Bulk Modulus (GPa) = 36.35395 48.97143 42.66269
# Shear Modulus (GPa) = 17.65766 20.33589 18.99677
#
# Velocity S-wave (km/s) = 3.35066 3.59580 3.47540
# Velocity P-wave (km/s) = 6.17119 6.95531 6.57495
#
# Compressibility (1/GPa) = 0.02750733
#
# Stress axis : x y z
#
# Youngs Moduli (GPa) = 58.04903 25.97252 83.57500
#
# Poissons Ratio (x) = 0.29640 0.36532
# Poissons Ratio (y) = 0.66246 0.36023
# Poissons Ratio (z) = 0.25374 0.11195
#
# Static dielectric constant tensor:
#      x y z
#    x 2.920170 0.000000 0.000000 
#    y 0.000000 2.998830 0.000000 
#    z 0.000000 0.000000 3.297550 
# 
# 
# High freq. dielectric constant tensor:
#      x y z
#    x 1.576890 0.000000 0.000000 
#    y 0.000000 1.594420 0.000000 
#    z 0.000000 0.000000 1.603850 
# 
# From -- ./inp_files/32703.got.cif
#   From: 2010.03.12/outbox.cif.g09.slc.cpg/sg62_17_cif.got.tgz:32703.got - 2010.04.10 19:12:36.
