data_PCOD8250213
_publ_section_title
;
Structure prediction by ZEFSAII (Michael W. Deem and Ramdas Pophale) SiO2 
 PCOD8250213
Probable space group: P N M A
;
_chemical_formula_sum "Si O2"
_cell_formula_units_Z 40
_cell_length_a 12.611296
_cell_length_b 17.044645
_cell_length_c 7.117650
_cell_angle_alpha 90.000000
_cell_angle_beta 90.000000
_cell_angle_gamma 90.000000
_cell_volume 1529.974906
_symmetry_space_group_name_H-M "P N M A"
_symmetry_group_IT_number 62
_symmetry_cell_setting 'orthorhombic'
loop_
_space_group_symop_operation_xyz
x,y,z
1/2-x,-y,1/2+z
1/2+x,1/2-y,1/2-z
-x,1/2+y,-z
-x,-y,-z
1/2+x,y,1/2-z
1/2-x,1/2+y,1/2+z
x,1/2-y,z
loop_
_atom_site_type_symbol
_atom_site_label
_atom_site_fract_x
_atom_site_fract_y
_atom_site_fract_z
Si Si1 0.146372 0.661253 0.430075
Si Si2 0.460917 0.055346 0.333129
Si Si3 0.126007 0.158282 0.029375
Si Si4 0.569729 0.095431 0.871536
Si Si5 0.714521 0.840769 0.494124
O O1 0.130435 0.750000 0.491933
O O2 0.251911 0.628067 0.533157
O O3 0.162483 0.653277 0.208753
O O4 0.038845 0.615908 0.486726
O O5 0.561839 0.113493 0.305919
O O6 0.357920 0.108973 0.366049
O O7 0.500000 0.000000 0.500000
O O8 0.433292 0.998541 0.158882
O O9 0.119868 0.250000 0.069377
O O10 0.073547 0.143028 0.824876
O O11 0.669451 0.120331 0.997670
O O12 0.721698 0.750000 0.561138
#
# Coordination Sequence:
#
# PCOD8250213 Si02
#       5
#     8   8   8   8   8
#     4   9  15  25  44  69  97 126 162 209 257 302
#     4  10  18  29  46  73 108 134 170 219 272 316
#     4   9  16  26  44  70  97 126 166 210 255 308
#     4  10  18  28  46  73 107 135 171 222 270 312
#     4  10  18  29  49  75 102 135 178 222 264 316
#
# _framework density 26.144219
#
# number of rings (size 3 to 8) (size 9 to 14) (size 15 to 20)
#    0.000    2.400    4.000    3.600    0.000    0.000 
#    0.000    0.000    0.000   13.200    0.000   19.600 
#    0.000    0.000    0.000    0.000    0.000    0.000 
#
# Total GULP energy -495811.717230 kJ/mol
# GULP energy per Si atom -12395.292931 kJ/mol
# Density = 2.608471 g / cm^3
# Si number density = 26.144219 Si / 1000 Ang^3
#
#
#
# Elastic Constant Matrix: (Units=GPa)
#
#
# Indices 1 2 3 4 5 6 
#
# 1 283.3082 127.2965 45.4641 0.0000 0.0000 0.0000
# 2 127.2965 167.4720 40.3425 0.0000 0.0000 0.0000
# 3 45.4641 40.3425 14.8406 0.0000 0.0000 0.0000
# 4 0.0000 0.0000 0.0000 23.2841 0.0000 0.0000
# 5 0.0000 0.0000 0.0000 0.0000 39.8687 0.0000
# 6 0.0000 0.0000 0.0000 0.0000 0.0000 50.6184
#
#
#
# Elastic Compliance Matrix: (Units=1/GPa)
#
#
# Indices 1 2 3 4 5 6 
#
# 1 0.006955 -0.000446 -0.020092 0.000000 0.000000 0.000000
# 2 -0.000446 0.017328 -0.045737 0.000000 0.000000 0.000000
# 3 -0.020092 -0.045737 0.253267 0.000000 0.000000 0.000000
# 4 0.000000 0.000000 0.000000 0.042948 0.000000 0.000000
# 5 0.000000 0.000000 0.000000 0.000000 0.025082 0.000000
# 6 0.000000 0.000000 0.000000 0.000000 0.000000 0.019756
#
#
# Mechanical properties :
#
#
# Convention : Reuss Voigt Hill
#
# Bulk Modulus (GPa) = 6.89666 99.09190 52.99428
# Shear Modulus (GPa) = 9.15383 39.58877 24.37130
#
# Velocity S-wave (km/s) = 1.87320 3.89555 3.05649
# Velocity P-wave (km/s) = 2.70595 7.63008 5.72452
#
# Compressibility (1/GPa) = 0.14499768
#
# Stress axis : x y z
#
# Youngs Moduli (GPa) = 143.79157 57.71036 3.94840
#
# Poissons Ratio (x) = 0.02574 0.07933
# Poissons Ratio (y) = 0.06414 0.18059
# Poissons Ratio (z) = 2.88913 2.63952
#
# Static dielectric constant tensor:
#      x y z
#    x 5.182710 0.000000 0.000000 
#    y 0.000000 5.086370 0.000000 
#    z 0.000000 0.000000 4.609690 
# 
# 
# High freq. dielectric constant tensor:
#      x y z
#    x 2.064170 0.000000 0.000000 
#    y 0.000000 2.053370 0.000000 
#    z 0.000000 0.000000 2.041010 
# 
# From -- ./inp_files/5019.got.cif
#   From: 2010.03.12/outbox.cif.g09.slc.cpg/sg62_3_cif.got.tgz:5019.got - 2010.04.10 19:12:36.
