data_PCOD8250097
_publ_section_title
;
Structure prediction by ZEFSAII (Michael W. Deem and Ramdas Pophale) SiO2 
 PCOD8250097
Probable space group: P N M A
;
_chemical_formula_sum "Si O2"
_cell_formula_units_Z 64
_cell_length_a 30.861007
_cell_length_b 8.955107
_cell_length_c 12.078453
_cell_angle_alpha 90.000000
_cell_angle_beta 90.000000
_cell_angle_gamma 90.000000
_cell_volume 3338.044993
_symmetry_space_group_name_H-M "P N M A"
_symmetry_group_IT_number 62
_symmetry_cell_setting 'orthorhombic'
loop_
_space_group_symop_operation_xyz
x,y,z
1/2-x,-y,1/2+z
1/2+x,1/2-y,1/2-z
-x,1/2+y,-z
-x,-y,-z
1/2+x,y,1/2-z
1/2-x,1/2+y,1/2+z
x,1/2-y,z
loop_
_atom_site_type_symbol
_atom_site_label
_atom_site_fract_x
_atom_site_fract_y
_atom_site_fract_z
Si Si1 0.874831 0.427666 0.390242
Si Si2 0.931106 0.427081 0.994534
Si Si3 0.952663 0.576293 0.775291
Si Si4 0.298382 0.427430 0.266564
Si Si5 0.792402 0.426401 0.778736
Si Si6 0.624131 0.572933 0.140838
Si Si7 0.951155 0.076468 0.237882
Si Si8 0.833198 0.426074 0.003137
O O1 0.876803 0.250000 0.392407
O O2 0.830490 0.481274 0.331243
O O3 0.875471 0.489077 0.515425
O O4 0.916504 0.493979 0.323989
O O5 0.938214 0.250000 0.981767
O O6 0.945671 0.489256 0.114235
O O7 0.881617 0.476657 0.976517
O O8 0.957408 0.512026 0.899256
O O9 0.941009 0.750000 0.781074
O O10 0.917026 0.492860 0.703575
O O11 0.999893 0.550308 0.718958
O O12 0.295426 0.250000 0.268442
O O13 0.250969 0.491988 0.254409
O O14 0.316790 0.494133 0.381407
O O15 0.785666 0.250000 0.771028
O O16 0.831274 0.478143 0.698299
O O17 0.802842 0.479670 0.903163
O O18 0.619415 0.750000 0.146259
O O19 0.939722 0.250000 0.227769
O O20 0.832411 0.250000 0.014076
#
# Coordination Sequence:
#
# PCOD8250097 Si02
#       8
#     8   8   8   8   8   8   8   8
#     4   9  18  35  58  81 105 139 187 226 256 316
#     4  10  17  34  60  80 106 146 183 216 264 328
#     4  11  22  34  52  83 115 140 175 229 278 313
#     4  10  20  35  58  83 103 135 181 224 263 313
#     4  10  21  36  53  78 111 142 174 218 267 318
#     4  10  21  38  58  77 104 147 188 218 259 323
#     4   9  18  33  56  83 110 141 179 225 273 317
#     4   9  17  33  57  79 103 139 180 214 258 320
#
# _framework density 19.172899000000001
#
# number of rings (size 3 to 8) (size 9 to 14) (size 15 to 20)
#    0.000    2.250    2.500    0.750    1.750    1.000 
#    0.000    1.875    0.000    3.000    0.000    0.000 
#    0.000    0.000    0.000    0.000    0.000    0.000 
#
# Total GULP energy -793464.826411 kJ/mol
# GULP energy per Si atom -12397.887913 kJ/mol
# Density = 1.912926 g / cm^3
# Si number density = 19.172899 Si / 1000 Ang^3
#
#
#
# Elastic Constant Matrix: (Units=GPa)
#
#
# Indices 1 2 3 4 5 6 
#
# 1 119.4340 24.0827 53.5813 0.0000 0.0000 0.0000
# 2 24.0827 23.5219 20.7148 0.0000 0.0000 0.0000
# 3 53.5813 20.7148 144.0739 0.0000 0.0000 0.0000
# 4 0.0000 0.0000 0.0000 12.5500 0.0000 0.0000
# 5 0.0000 0.0000 0.0000 0.0000 29.0849 0.0000
# 6 0.0000 0.0000 0.0000 0.0000 0.0000 19.5933
#
#
#
# Elastic Compliance Matrix: (Units=1/GPa)
#
#
# Indices 1 2 3 4 5 6 
#
# 1 0.011568 -0.009223 -0.002976 0.000000 0.000000 0.000000
# 2 -0.009223 0.056030 -0.004626 0.000000 0.000000 0.000000
# 3 -0.002976 -0.004626 0.008713 0.000000 0.000000 0.000000
# 4 0.000000 0.000000 0.000000 0.079681 0.000000 0.000000
# 5 0.000000 0.000000 0.000000 0.000000 0.034382 0.000000
# 6 0.000000 0.000000 0.000000 0.000000 0.000000 0.051038
#
#
# Mechanical properties :
#
#
# Convention : Reuss Voigt Hill
#
# Bulk Modulus (GPa) = 23.44056 53.75415 38.59735
# Shear Modulus (GPa) = 17.28424 24.82238 21.05331
#
# Velocity S-wave (km/s) = 3.00574 3.60204 3.31732
# Velocity P-wave (km/s) = 4.92934 6.73773 5.90319
#
# Compressibility (1/GPa) = 0.04266110
#
# Stress axis : x y z
#
# Youngs Moduli (GPa) = 86.44855 17.84763 114.77386
#
# Poissons Ratio (x) = 0.16460 0.34157
# Poissons Ratio (y) = 0.79727 0.53095
# Poissons Ratio (z) = 0.25727 0.08256
#
# Static dielectric constant tensor:
#      x y z
#    x 3.589210 0.000000 0.000000 
#    y 0.000000 3.030130 0.000000 
#    z 0.000000 0.000000 3.892750 
# 
# 
# High freq. dielectric constant tensor:
#      x y z
#    x 1.760800 0.000000 0.000000 
#    y 0.000000 1.696520 0.000000 
#    z 0.000000 0.000000 1.756160 
# 
# From -- ./inp_files/15887.got.cif
#   From: 2010.03.12/outbox.cif.g09.slc.cpg/sg62_8_cif.got.tgz:15887.got - 2010.04.10 19:12:36.
