data_PCOD8250838
_publ_section_title
;
Structure prediction by ZEFSAII (Michael W. Deem and Ramdas Pophale) SiO2 
 PCOD8250838
Probable space group: P N M A
;
_chemical_formula_sum "Si O2"
_cell_formula_units_Z 64
_cell_length_a 18.685837
_cell_length_b 9.281459
_cell_length_c 23.328263
_cell_angle_alpha 90.000000
_cell_angle_beta 90.000000
_cell_angle_gamma 90.000000
_cell_volume 4045.863343
_symmetry_space_group_name_H-M "P N M A"
_symmetry_group_IT_number 62
_symmetry_cell_setting 'orthorhombic'
loop_
_space_group_symop_operation_xyz
x,y,z
1/2-x,-y,1/2+z
1/2+x,1/2-y,1/2-z
-x,1/2+y,-z
-x,-y,-z
1/2+x,y,1/2-z
1/2-x,1/2+y,1/2+z
x,1/2-y,z
loop_
_atom_site_type_symbol
_atom_site_label
_atom_site_fract_x
_atom_site_fract_y
_atom_site_fract_z
Si Si1 0.642892 0.414289 0.233112
Si Si2 0.283466 0.415415 0.326659
Si Si3 0.153354 0.917430 0.065752
Si Si4 0.500776 0.081235 0.615187
Si Si5 0.762011 0.919480 0.842322
Si Si6 0.369153 0.415470 0.436847
Si Si7 0.649284 0.082715 0.774528
Si Si8 0.007869 0.915525 0.244133
O O1 0.618210 0.250000 0.233517
O O2 0.698942 0.446130 0.181750
O O3 0.680240 0.455436 0.293197
O O4 0.572225 0.507126 0.222729
O O5 0.299450 0.250000 0.307738
O O6 0.304597 0.443741 0.392320
O O7 0.329559 0.521672 0.287541
O O8 0.169877 0.750000 0.077625
O O9 0.074488 0.958431 0.086888
O O10 0.211525 0.013955 0.098228
O O11 0.160500 0.957835 0.999064
O O12 0.516594 0.250000 0.614328
O O13 0.502078 0.020371 0.680089
O O14 0.561590 0.007362 0.577779
O O15 0.749148 0.750000 0.849193
O O16 0.687121 0.994364 0.825315
O O17 0.393848 0.250000 0.436159
O O18 0.671628 0.250000 0.777573
O O19 0.563964 0.063893 0.781157
O O20 0.029764 0.750000 0.238362
#
# Coordination Sequence:
#
# PCOD8250838 Si02
#       8
#     8   8   8   8   8   8   8   8
#     4   9  18  30  46  66  90 120 153 190 235 278
#     4   9  18  32  46  67  95 122 158 198 232 275
#     4  10  20  33  48  67  94 131 166 197 234 275
#     4  10  19  31  44  65  98 129 164 198 226 272
#     4  10  20  33  48  69  93 122 158 198 238 277
#     4  10  20  32  48  68  94 130 167 199 233 273
#     4  10  19  31  48  68  92 122 154 190 237 283
#     4  10  19  30  46  70  96 124 154 190 233 280
#
# _framework density 15.818625000000001
#
# number of rings (size 3 to 8) (size 9 to 14) (size 15 to 20)
#    0.000    2.250    2.500    1.875    0.000    4.500 
#    0.000    0.000    0.000    0.000    0.000    0.875 
#    0.000    0.000    0.000    0.000    0.000    0.000 
#
# Total GULP energy -793689.656878 kJ/mol
# GULP energy per Si atom -12401.400889 kJ/mol
# Density = 1.578262 g / cm^3
# Si number density = 15.818625 Si / 1000 Ang^3
#
#
#
# Elastic Constant Matrix: (Units=GPa)
#
#
# Indices 1 2 3 4 5 6 
#
# 1 93.6365 51.0688 48.3731 0.0000 0.0000 0.0000
# 2 51.0688 67.5786 34.5045 0.0000 0.0000 0.0000
# 3 48.3731 34.5045 86.7247 0.0000 0.0000 0.0000
# 4 0.0000 0.0000 0.0000 20.9271 0.0000 0.0000
# 5 0.0000 0.0000 0.0000 0.0000 22.8308 0.0000
# 6 0.0000 0.0000 0.0000 0.0000 0.0000 29.4453
#
#
#
# Elastic Compliance Matrix: (Units=1/GPa)
#
#
# Indices 1 2 3 4 5 6 
#
# 1 0.020899 -0.012350 -0.006743 0.000000 0.000000 0.000000
# 2 -0.012350 0.025868 -0.003403 0.000000 0.000000 0.000000
# 3 -0.006743 -0.003403 0.016646 0.000000 0.000000 0.000000
# 4 0.000000 0.000000 0.000000 0.047785 0.000000 0.000000
# 5 0.000000 0.000000 0.000000 0.000000 0.043801 0.000000
# 6 0.000000 0.000000 0.000000 0.000000 0.000000 0.033961
#
#
# Mechanical properties :
#
#
# Convention : Reuss Voigt Hill
#
# Bulk Modulus (GPa) = 54.29000 57.31474 55.80237
# Shear Modulus (GPa) = 20.82520 22.24019 21.53269
#
# Velocity S-wave (km/s) = 3.63229 3.75367 3.69348
# Velocity P-wave (km/s) = 7.21015 7.42279 7.31724
#
# Compressibility (1/GPa) = 0.01841960
#
# Stress axis : x y z
#
# Youngs Moduli (GPa) = 47.84919 38.65733 60.07429
#
# Poissons Ratio (x) = 0.47743 0.40510
# Poissons Ratio (y) = 0.59095 0.20445
# Poissons Ratio (z) = 0.32266 0.13156
#
# Static dielectric constant tensor:
#      x y z
#    x 2.936930 0.000000 0.000000 
#    y 0.000000 3.023920 0.000000 
#    z 0.000000 0.000000 2.921500 
# 
# 
# High freq. dielectric constant tensor:
#      x y z
#    x 1.598430 0.000000 0.000000 
#    y 0.000000 1.613440 0.000000 
#    z 0.000000 0.000000 1.583220 
# 
# From -- ./inp_files/27958.got.cif
#   From: 2010.03.12/outbox.cif.g09.slc.cpg/sg62_14_cif.got.tgz:27958.got - 2010.04.10 19:12:36.
