data_PCOD8250623
_publ_section_title
;
Structure prediction by ZEFSAII (Michael W. Deem and Ramdas Pophale) SiO2 
 PCOD8250623
Probable space group: P N M A
;
_chemical_formula_sum "Si O2"
_cell_formula_units_Z 56
_cell_length_a 14.784050
_cell_length_b 8.921850
_cell_length_c 21.868620
_cell_angle_alpha 90.000000
_cell_angle_beta 90.000000
_cell_angle_gamma 90.000000
_cell_volume 2884.494519
_symmetry_space_group_name_H-M "P N M A"
_symmetry_group_IT_number 62
_symmetry_cell_setting 'orthorhombic'
loop_
_space_group_symop_operation_xyz
x,y,z
1/2-x,-y,1/2+z
1/2+x,1/2-y,1/2-z
-x,1/2+y,-z
-x,-y,-z
1/2+x,y,1/2-z
1/2-x,1/2+y,1/2+z
x,1/2-y,z
loop_
_atom_site_type_symbol
_atom_site_label
_atom_site_fract_x
_atom_site_fract_y
_atom_site_fract_z
Si Si1 0.447196 0.427511 0.827757
Si Si2 0.185069 0.571720 0.220959
Si Si3 0.393358 0.427848 0.594892
Si Si4 0.924211 0.573591 0.541785
Si Si5 0.593506 0.427188 0.614497
Si Si6 0.280174 0.073626 0.480485
Si Si7 0.382609 0.572151 0.248479
O O1 0.444640 0.250000 0.839861
O O2 0.370632 0.479576 0.780198
O O3 0.430983 0.513666 0.889985
O O4 0.543011 0.480476 0.800248
O O5 0.184036 0.750000 0.217413
O O6 0.141651 0.504545 0.159163
O O7 0.286330 0.507983 0.226822
O O8 0.385482 0.250000 0.597610
O O9 0.497689 0.475596 0.584527
O O10 0.331377 0.491526 0.540202
O O11 0.939740 0.750000 0.541684
O O12 0.825527 0.532039 0.514904
O O13 0.000000 0.500000 0.500000
O O14 0.606875 0.250000 0.612511
O O15 0.676974 0.500099 0.579384
O O16 0.594121 0.487648 0.683948
O O17 0.294349 0.250000 0.475138
O O18 0.381091 0.750000 0.251092
#
# Coordination Sequence:
#
# PCOD8250623 Si02
#       7
#     8   8   8   8   8   8   8
#     4  10  19  35  59  86 111 141 184 233 282 331
#     4   9  16  28  51  82 112 142 182 228 269 321
#     4   9  17  31  52  80 112 144 185 231 270 323
#     4  11  25  42  59  81 111 149 193 236 281 337
#     4  10  18  33  56  86 115 141 182 232 275 327
#     4  10  22  37  55  80 111 152 190 226 282 340
#     4   9  17  28  51  83 110 140 180 222 272 330
#
# _framework density 19.414145999999999
#
# number of rings (size 3 to 8) (size 9 to 14) (size 15 to 20)
#    0.000    2.286    1.429    1.714    2.000    2.286 
#    0.000    0.714    0.000    1.714    0.000    0.000 
#    0.000    0.000    0.000    0.000    0.000    0.000 
#
# Total GULP energy -694380.043309 kJ/mol
# GULP energy per Si atom -12399.643631 kJ/mol
# Density = 1.936996 g / cm^3
# Si number density = 19.414146 Si / 1000 Ang^3
#
#
#
# Elastic Constant Matrix: (Units=GPa)
#
#
# Indices 1 2 3 4 5 6 
#
# 1 141.4632 37.2456 42.4180 0.0000 0.0000 0.0000
# 2 37.2456 30.8776 30.8496 0.0000 0.0000 0.0000
# 3 42.4180 30.8496 106.6467 0.0000 0.0000 0.0000
# 4 0.0000 0.0000 0.0000 25.2104 0.0000 0.0000
# 5 0.0000 0.0000 0.0000 0.0000 39.5041 0.0000
# 6 0.0000 0.0000 0.0000 0.0000 0.0000 19.5457
#
#
#
# Elastic Compliance Matrix: (Units=1/GPa)
#
#
# Indices 1 2 3 4 5 6 
#
# 1 0.010397 -0.011828 -0.000714 0.000000 0.000000 0.000000
# 2 -0.011828 0.059007 -0.012364 0.000000 0.000000 0.000000
# 3 -0.000714 -0.012364 0.013237 0.000000 0.000000 0.000000
# 4 0.000000 0.000000 0.000000 0.039666 0.000000 0.000000
# 5 0.000000 0.000000 0.000000 0.000000 0.025314 0.000000
# 6 0.000000 0.000000 0.000000 0.000000 0.000000 0.051162
#
#
# Mechanical properties :
#
#
# Convention : Reuss Voigt Hill
#
# Bulk Modulus (GPa) = 30.46139 55.55708 43.00923
# Shear Modulus (GPa) = 19.26494 28.08366 23.67430
#
# Velocity S-wave (km/s) = 3.15352 3.80749 3.49583
# Velocity P-wave (km/s) = 5.38367 6.92880 6.20452
#
# Compressibility (1/GPa) = 0.03282844
#
# Stress axis : x y z
#
# Youngs Moduli (GPa) = 96.17896 16.94726 75.54430
#
# Poissons Ratio (x) = 0.20046 0.05393
# Poissons Ratio (y) = 1.13763 0.93404
# Poissons Ratio (z) = 0.06866 0.20954
#
# Static dielectric constant tensor:
#      x y z
#    x 3.915540 0.000000 0.000000 
#    y 0.000000 3.032090 0.000000 
#    z 0.000000 0.000000 3.710170 
# 
# 
# High freq. dielectric constant tensor:
#      x y z
#    x 1.776290 0.000000 0.000000 
#    y 0.000000 1.698860 0.000000 
#    z 0.000000 0.000000 1.768290 
# 
# From -- ./inp_files/27246.got.cif
#   From: 2010.03.12/outbox.cif.g09.slc.cpg/sg62_14_cif.got.tgz:27246.got - 2010.04.10 19:12:36.
