data_PCOD8250271
_publ_section_title
;
Structure prediction by ZEFSAII (Michael W. Deem and Ramdas Pophale) SiO2 
 PCOD8250271
Probable space group: P N M A
;
_chemical_formula_sum "Si O2"
_cell_formula_units_Z 56
_cell_length_a 18.329480
_cell_length_b 8.758878
_cell_length_c 20.854111
_cell_angle_alpha 90.000000
_cell_angle_beta 90.000000
_cell_angle_gamma 90.000000
_cell_volume 3348.037413
_symmetry_space_group_name_H-M "P N M A"
_symmetry_group_IT_number 62
_symmetry_cell_setting 'orthorhombic'
loop_
_space_group_symop_operation_xyz
x,y,z
1/2-x,-y,1/2+z
1/2+x,1/2-y,1/2-z
-x,1/2+y,-z
-x,-y,-z
1/2+x,y,1/2-z
1/2-x,1/2+y,1/2+z
x,1/2-y,z
loop_
_atom_site_type_symbol
_atom_site_label
_atom_site_fract_x
_atom_site_fract_y
_atom_site_fract_z
Si Si1 0.298183 0.418568 0.818367
Si Si2 0.653193 0.432374 0.622752
Si Si3 0.216571 0.078171 0.683853
Si Si4 0.348438 0.569211 0.624797
Si Si5 0.919948 0.068990 0.999035
Si Si6 0.587743 0.931346 0.749343
Si Si7 0.076521 0.071514 0.255138
O O1 0.323497 0.250000 0.837906
O O2 0.238745 0.480541 0.869560
O O3 0.256989 0.418057 0.751161
O O4 0.371778 0.517145 0.813599
O O5 0.645017 0.250000 0.624537
O O6 0.626771 0.500041 0.556417
O O7 0.605197 0.501555 0.679725
O O8 0.205430 0.250000 0.657426
O O9 0.263875 0.978828 0.633792
O O10 0.138458 0.998066 0.694323
O O11 0.354118 0.750000 0.612697
O O12 0.380418 0.476052 0.566026
O O13 0.394561 0.512854 0.686419
O O14 0.924914 0.250000 0.005943
O O15 0.000000 0.000000 0.000000
O O16 0.596451 0.750000 0.746403
O O17 0.505750 0.983892 0.766725
O O18 0.081125 0.250000 0.254381
#
# Coordination Sequence:
#
# PCOD8250271 Si02
#       7
#     8   8   8   8   8   8   8
#     4   8  16  29  46  66  90 119 153 191 234 278
#     4  10  20  34  49  68  94 126 162 200 237 281
#     4   9  17  30  46  67  93 124 160 197 237 284
#     4  10  19  33  50  69  95 128 162 199 238 280
#     4  12  24  36  50  70  96 129 164 198 233 277
#     4  10  18  29  46  71  99 127 158 196 240 285
#     4   9  18  29  45  69  96 123 154 191 235 281
#
# _framework density 16.726216000000001
#
# number of rings (size 3 to 8) (size 9 to 14) (size 15 to 20)
#    0.000    2.286    0.000    4.714    0.000    6.857 
#    0.000    0.000    0.000    0.000    0.000    1.000 
#    0.000    0.000    0.000    0.000    0.000    0.000 
#
# Total GULP energy -694228.636833 kJ/mol
# GULP energy per Si atom -12396.939943 kJ/mol
# Density = 1.668815 g / cm^3
# Si number density = 16.726216 Si / 1000 Ang^3
#
#
#
# Elastic Constant Matrix: (Units=GPa)
#
#
# Indices 1 2 3 4 5 6 
#
# 1 147.7690 43.7036 53.2197 0.0000 0.0000 0.0000
# 2 43.7036 55.0762 9.6056 0.0000 0.0000 0.0000
# 3 53.2197 9.6056 50.2016 0.0000 0.0000 0.0000
# 4 0.0000 0.0000 0.0000 25.6818 0.0000 0.0000
# 5 0.0000 0.0000 0.0000 0.0000 25.8551 0.0000
# 6 0.0000 0.0000 0.0000 0.0000 0.0000 30.2736
#
#
#
# Elastic Compliance Matrix: (Units=1/GPa)
#
#
# Indices 1 2 3 4 5 6 
#
# 1 0.014236 -0.008964 -0.013377 0.000000 0.000000 0.000000
# 2 -0.008964 0.024427 0.004828 0.000000 0.000000 0.000000
# 3 -0.013377 0.004828 0.033177 0.000000 0.000000 0.000000
# 4 0.000000 0.000000 0.000000 0.038938 0.000000 0.000000
# 5 0.000000 0.000000 0.000000 0.000000 0.038677 0.000000
# 6 0.000000 0.000000 0.000000 0.000000 0.000000 0.033032
#
#
# Mechanical properties :
#
#
# Convention : Reuss Voigt Hill
#
# Bulk Modulus (GPa) = 27.16184 51.78939 39.47561
# Shear Modulus (GPa) = 21.75963 26.12995 23.94479
#
# Velocity S-wave (km/s) = 3.61075 3.95677 3.78772
# Velocity P-wave (km/s) = 5.80153 7.20451 6.54075
#
# Compressibility (1/GPa) = 0.03681636
#
# Stress axis : x y z
#
# Youngs Moduli (GPa) = 70.24412 40.93794 30.14153
#
# Poissons Ratio (x) = 0.36695 0.40320
# Poissons Ratio (y) = 0.62963 -0.14554
# Poissons Ratio (z) = 0.93964 -0.19767
#
# Static dielectric constant tensor:
#      x y z
#    x 3.498530 0.000000 0.000000 
#    y 0.000000 3.279130 0.000000 
#    z 0.000000 0.000000 2.948500 
# 
# 
# High freq. dielectric constant tensor:
#      x y z
#    x 1.650380 0.000000 0.000000 
#    y 0.000000 1.657860 0.000000 
#    z 0.000000 0.000000 1.603800 
# 
# From -- ./inp_files/27518.got.cif
#   From: 2010.03.12/outbox.cif.g09.slc.cpg/sg62_14_cif.got.tgz:27518.got - 2010.04.10 19:12:36.
