data_PCOD8250674
_publ_section_title
;
Structure prediction by ZEFSAII (Michael W. Deem and Ramdas Pophale) SiO2 
 PCOD8250674
Probable space group: P N M A
;
_chemical_formula_sum "Si O2"
_cell_formula_units_Z 64
_cell_length_a 15.995654
_cell_length_b 8.859431
_cell_length_c 22.522948
_cell_angle_alpha 90.000000
_cell_angle_beta 90.000000
_cell_angle_gamma 90.000000
_cell_volume 3191.780857
_symmetry_space_group_name_H-M "P N M A"
_symmetry_group_IT_number 62
_symmetry_cell_setting 'orthorhombic'
loop_
_space_group_symop_operation_xyz
x,y,z
1/2-x,-y,1/2+z
1/2+x,1/2-y,1/2-z
-x,1/2+y,-z
-x,-y,-z
1/2+x,y,1/2-z
1/2-x,1/2+y,1/2+z
x,1/2-y,z
loop_
_atom_site_type_symbol
_atom_site_label
_atom_site_fract_x
_atom_site_fract_y
_atom_site_fract_z
Si Si1 0.927999 0.070874 0.459580
Si Si2 0.806864 0.573211 0.838443
Si Si3 0.239213 0.071255 0.034269
Si Si4 0.184626 0.084259 0.743683
Si Si5 0.392641 0.418391 0.341535
Si Si6 0.576291 0.429848 0.536817
Si Si7 0.472004 0.584349 0.161684
Si Si8 0.049326 0.417034 0.240289
O O1 0.936063 0.250000 0.462308
O O2 0.834518 0.017936 0.481273
O O3 0.940727 0.019005 0.392041
O O4 0.000000 0.000000 0.500000
O O5 0.818112 0.750000 0.848108
O O6 0.788817 0.498860 0.902594
O O7 0.731891 0.539504 0.794519
O O8 0.889564 0.503528 0.807781
O O9 0.241137 0.250000 0.039512
O O10 0.168351 0.020338 0.987326
O O11 0.228275 0.250000 0.746664
O O12 0.096413 0.105229 0.712243
O O13 0.179734 0.019512 0.811152
O O14 0.361631 0.250000 0.359826
O O15 0.430893 0.505234 0.397399
O O16 0.459969 0.403007 0.289823
O O17 0.500000 0.500000 0.500000
O O18 0.566756 0.250000 0.536121
O O19 0.498711 0.750000 0.137246
O O20 0.548919 0.507129 0.197141
O O21 0.083517 0.250000 0.255803
#
# Coordination Sequence:
#
# PCOD8250674 Si02
#       8
#     8   8   8   8   8   8   8   8
#     4  11  22  40  64  86 113 154 204 256 307 357
#     4  10  18  34  58  84 110 144 192 238 286 352
#     4   9  20  38  62  87 117 159 204 247 298 359
#     4  10  20  34  55  83 114 146 182 233 291 348
#     4  10  20  37  58  81 112 153 194 236 286 345
#     4  11  22  39  61  89 123 161 202 247 301 363
#     4  10  20  36  57  83 115 147 187 237 295 357
#     4   9  19  34  57  85 114 148 190 237 288 351
#
# _framework density 20.051503
#
# number of rings (size 3 to 8) (size 9 to 14) (size 15 to 20)
#    0.000    2.000    1.250    2.625    0.000    4.000 
#    2.250    5.000    0.000    0.000    0.000    0.000 
#    0.000    0.000    0.000    0.000    0.000    0.000 
#
# Total GULP energy -793045.573599 kJ/mol
# GULP energy per Si atom -12391.337087 kJ/mol
# Density = 2.000586 g / cm^3
# Si number density = 20.051503 Si / 1000 Ang^3
#
#
#
# Elastic Constant Matrix: (Units=GPa)
#
#
# Indices 1 2 3 4 5 6 
#
# 1 79.6139 29.2926 24.4311 0.0000 0.0000 0.0000
# 2 29.2926 82.7333 37.3362 0.0000 0.0000 0.0000
# 3 24.4311 37.3362 87.4322 0.0000 0.0000 0.0000
# 4 0.0000 0.0000 0.0000 23.0587 0.0000 0.0000
# 5 0.0000 0.0000 0.0000 0.0000 31.6824 0.0000
# 6 0.0000 0.0000 0.0000 0.0000 0.0000 22.1885
#
#
#
# Elastic Compliance Matrix: (Units=1/GPa)
#
#
# Indices 1 2 3 4 5 6 
#
# 1 0.014823 -0.004186 -0.002355 0.000000 0.000000 0.000000
# 2 -0.004186 0.016154 -0.005729 0.000000 0.000000 0.000000
# 3 -0.002355 -0.005729 0.014542 0.000000 0.000000 0.000000
# 4 0.000000 0.000000 0.000000 0.043368 0.000000 0.000000
# 5 0.000000 0.000000 0.000000 0.000000 0.031563 0.000000
# 6 0.000000 0.000000 0.000000 0.000000 0.000000 0.045068
#
#
# Mechanical properties :
#
#
# Convention : Reuss Voigt Hill
#
# Bulk Modulus (GPa) = 47.66197 47.98880 47.82538
# Shear Modulus (GPa) = 25.37420 25.96722 25.67071
#
# Velocity S-wave (km/s) = 3.56118 3.60255 3.58192
# Velocity P-wave (km/s) = 6.38206 6.42567 6.40390
#
# Compressibility (1/GPa) = 0.02098109
#
# Stress axis : x y z
#
# Youngs Moduli (GPa) = 67.46158 61.90290 68.76762
#
# Poissons Ratio (x) = 0.25911 0.16192
# Poissons Ratio (y) = 0.28238 0.39395
# Poissons Ratio (z) = 0.15885 0.35463
#
# Static dielectric constant tensor:
#      x y z
#    x 3.701510 0.000000 0.000000 
#    y 0.000000 3.842140 0.000000 
#    z 0.000000 0.000000 3.664920 
# 
# 
# High freq. dielectric constant tensor:
#      x y z
#    x 1.768420 0.000000 0.000000 
#    y 0.000000 1.777060 0.000000 
#    z 0.000000 0.000000 1.781130 
# 
# From -- ./inp_files/27753.got.cif
#   From: 2010.03.12/outbox.cif.g09.slc.cpg/sg62_14_cif.got.tgz:27753.got - 2010.04.10 19:12:36.
