data_PCOD8250684
_publ_section_title
;
Structure prediction by ZEFSAII (Michael W. Deem and Ramdas Pophale) SiO2 
 PCOD8250684
Probable space group: P N M A
;
_chemical_formula_sum "Si O2"
_cell_formula_units_Z 56
_cell_length_a 14.246880
_cell_length_b 13.443740
_cell_length_c 12.771685
_cell_angle_alpha 90.000000
_cell_angle_beta 90.000000
_cell_angle_gamma 90.000000
_cell_volume 2446.178077
_symmetry_space_group_name_H-M "P N M A"
_symmetry_group_IT_number 62
_symmetry_cell_setting 'orthorhombic'
loop_
_space_group_symop_operation_xyz
x,y,z
1/2-x,-y,1/2+z
1/2+x,1/2-y,1/2-z
-x,1/2+y,-z
-x,-y,-z
1/2+x,y,1/2-z
1/2-x,1/2+y,1/2+z
x,1/2-y,z
loop_
_atom_site_type_symbol
_atom_site_label
_atom_site_fract_x
_atom_site_fract_y
_atom_site_fract_z
Si Si1 0.089161 0.365227 0.467300
Si Si2 0.902389 0.864827 0.160460
Si Si3 0.893949 0.636147 0.766615
Si Si4 0.041294 0.863064 0.353458
Si Si5 0.712227 0.866142 0.467069
Si Si6 0.484593 0.367723 0.461162
Si Si7 0.716806 0.547233 0.242139
O O1 0.097676 0.250000 0.500715
O O2 0.057388 0.376490 0.347036
O O3 0.192838 0.414131 0.484251
O O4 0.012306 0.411313 0.546442
O O5 0.868709 0.750000 0.147008
O O6 0.815675 0.936525 0.186360
O O7 0.977796 0.872154 0.251585
O O8 0.949399 0.908470 0.054722
O O9 0.862156 0.750000 0.786427
O O10 0.972085 0.600156 0.849754
O O11 0.800042 0.568397 0.775274
O O12 0.071365 0.750000 0.374738
O O13 0.134804 0.926914 0.339952
O O14 0.712539 0.750000 0.489127
O O15 0.620399 0.911886 0.524545
O O16 0.708575 0.882801 0.343012
O O17 0.481346 0.250000 0.472684
#
# Coordination Sequence:
#
# PCOD8250684 Si02
#       7
#     8   8   8   8   8   8   8
#     4   9  19  38  61  83 121 164 197 236 287 357
#     4  10  19  35  60  93 126 145 179 248 314 353
#     4  10  24  44  56  76 118 169 210 240 281 337
#     4  10  19  35  61  93 122 145 182 246 309 353
#     4  10  18  34  63  96 117 146 195 245 300 359
#     4   9  19  38  62  87 123 156 189 245 300 347
#     4  12  22  34  61  94 119 154 196 247 294 364
#
# _framework density 22.892855999999998
#
# number of rings (size 3 to 8) (size 9 to 14) (size 15 to 20)
#    0.000    2.000    2.857    1.286    0.000    2.286 
#    2.571    1.429    0.000    6.857    0.000    0.000 
#    0.000    0.000    0.000    0.000    0.000    0.000 
#
# Total GULP energy -694405.733897 kJ/mol
# GULP energy per Si atom -12400.102391 kJ/mol
# Density = 2.284075 g / cm^3
# Si number density = 22.892856 Si / 1000 Ang^3
#
#
#
# Elastic Constant Matrix: (Units=GPa)
#
#
# Indices 1 2 3 4 5 6 
#
# 1 103.4758 14.4424 52.1851 0.0000 0.0000 0.0000
# 2 14.4424 40.9091 9.0515 0.0000 0.0000 0.0000
# 3 52.1851 9.0515 142.8171 0.0000 0.0000 0.0000
# 4 0.0000 0.0000 0.0000 14.9338 0.0000 0.0000
# 5 0.0000 0.0000 0.0000 0.0000 29.4317 0.0000
# 6 0.0000 0.0000 0.0000 0.0000 0.0000 2.8313
#
#
#
# Elastic Compliance Matrix: (Units=1/GPa)
#
#
# Indices 1 2 3 4 5 6 
#
# 1 0.012295 -0.003394 -0.004277 0.000000 0.000000 0.000000
# 2 -0.003394 0.025729 -0.000390 0.000000 0.000000 0.000000
# 3 -0.004277 -0.000390 0.008590 0.000000 0.000000 0.000000
# 4 0.000000 0.000000 0.000000 0.066962 0.000000 0.000000
# 5 0.000000 0.000000 0.000000 0.000000 0.033977 0.000000
# 6 0.000000 0.000000 0.000000 0.000000 0.000000 0.353194
#
#
# Mechanical properties :
#
#
# Convention : Reuss Voigt Hill
#
# Bulk Modulus (GPa) = 32.79800 48.72890 40.76345
# Shear Modulus (GPa) = 9.48705 23.54090 16.51397
#
# Velocity S-wave (km/s) = 2.03792 3.21020 2.68873
# Velocity P-wave (km/s) = 4.46042 5.92219 5.24250
#
# Compressibility (1/GPa) = 0.03048966
#
# Stress axis : x y z
#
# Youngs Moduli (GPa) = 81.33354 38.86649 116.41861
#
# Poissons Ratio (x) = 0.13192 0.49798
# Poissons Ratio (y) = 0.27606 0.04545
# Poissons Ratio (z) = 0.34790 0.01518
#
# Static dielectric constant tensor:
#      x y z
#    x 4.233870 0.000000 0.000000 
#    y 0.000000 4.210530 0.000000 
#    z 0.000000 0.000000 4.129520 
# 
# 
# High freq. dielectric constant tensor:
#      x y z
#    x 1.891110 0.000000 0.000000 
#    y 0.000000 1.904230 0.000000 
#    z 0.000000 0.000000 1.907810 
# 
# From -- ./inp_files/13412.got.cif
#   From: 2010.03.12/outbox.cif.g09.slc.cpg/sg62_7_cif.got.tgz:13412.got - 2010.04.10 19:12:36.
