data_PCOD8250198
_publ_section_title
;
Structure prediction by ZEFSAII (Michael W. Deem and Ramdas Pophale) SiO2 
 PCOD8250198
Probable space group: P N M A
;
_chemical_formula_sum "Si O2"
_cell_formula_units_Z 56
_cell_length_a 13.483644
_cell_length_b 8.850755
_cell_length_c 29.479701
_cell_angle_alpha 90.000000
_cell_angle_beta 90.000000
_cell_angle_gamma 90.000000
_cell_volume 3518.120180
_symmetry_space_group_name_H-M "P N M A"
_symmetry_group_IT_number 62
_symmetry_cell_setting 'orthorhombic'
loop_
_space_group_symop_operation_xyz
x,y,z
1/2-x,-y,1/2+z
1/2+x,1/2-y,1/2-z
-x,1/2+y,-z
-x,-y,-z
1/2+x,y,1/2-z
1/2-x,1/2+y,1/2+z
x,1/2-y,z
loop_
_atom_site_type_symbol
_atom_site_label
_atom_site_fract_x
_atom_site_fract_y
_atom_site_fract_z
Si Si1 0.380744 0.429305 0.093584
Si Si2 0.699219 0.072565 0.185855
Si Si3 0.398007 0.073125 0.265804
Si Si4 0.392851 0.928084 0.003760
Si Si5 0.105703 0.073030 0.405230
Si Si6 0.299124 0.572835 0.181659
Si Si7 0.098715 0.926247 0.231290
O O1 0.373846 0.250000 0.093369
O O2 0.336292 0.492471 0.045728
O O3 0.493524 0.491576 0.099074
O O4 0.313544 0.494377 0.133480
O O5 0.678410 0.250000 0.191463
O O6 0.812967 0.034024 0.197575
O O7 0.676160 0.012212 0.135047
O O8 0.625195 0.985255 0.218859
O O9 0.406165 0.250000 0.256657
O O10 0.376055 0.994026 0.217895
O O11 0.500303 0.010330 0.286286
O O12 0.399901 0.750000 0.012609
O O13 0.343677 0.963317 0.954257
O O14 0.500000 0.000000 0.000000
O O15 0.093846 0.250000 0.399602
O O16 0.318549 0.750000 0.177813
O O17 0.186999 0.535716 0.196619
O O18 0.077130 0.750000 0.234022
#
# Coordination Sequence:
#
# PCOD8250198 Si02
#       7
#     8   8   8   8   8   8   8
#     4  10  18  28  44  66  91 118 147 181 222 268
#     4   9  17  30  47  66  87 114 151 186 217 257
#     4  10  19  30  46  66  89 117 147 183 223 261
#     4   9  16  27  42  61  88 119 148 180 219 263
#     4   8  15  27  43  63  87 115 145 176 212 257
#     4  10  20  32  46  65  88 117 152 185 220 261
#     4  10  20  32  45  63  90 120 149 183 220 261
#
# _framework density 15.917593
#
# number of rings (size 3 to 8) (size 9 to 14) (size 15 to 20)
#    0.000    2.571    0.000    3.857    0.000    3.429 
#    0.000    3.571    0.000    0.000    0.000    1.000 
#    0.000    0.000    0.000    0.000    0.000    0.000 
#
# Total GULP energy -694153.546978 kJ/mol
# GULP energy per Si atom -12395.599053 kJ/mol
# Density = 1.588136 g / cm^3
# Si number density = 15.917593 Si / 1000 Ang^3
#
#
#
# Elastic Constant Matrix: (Units=GPa)
#
#
# Indices 1 2 3 4 5 6 
#
# 1 77.0966 33.9013 48.2995 0.0000 0.0000 0.0000
# 2 33.9013 71.3125 46.6029 0.0000 0.0000 0.0000
# 3 48.2995 46.6029 148.5904 0.0000 0.0000 0.0000
# 4 0.0000 0.0000 0.0000 26.0667 0.0000 0.0000
# 5 0.0000 0.0000 0.0000 0.0000 20.7462 0.0000
# 6 0.0000 0.0000 0.0000 0.0000 0.0000 22.4126
#
#
#
# Elastic Compliance Matrix: (Units=1/GPa)
#
#
# Indices 1 2 3 4 5 6 
#
# 1 0.018118 -0.005993 -0.004010 0.000000 0.000000 0.000000
# 2 -0.005993 0.019620 -0.004206 0.000000 0.000000 0.000000
# 3 -0.004010 -0.004206 0.009352 0.000000 0.000000 0.000000
# 4 0.000000 0.000000 0.000000 0.038363 0.000000 0.000000
# 5 0.000000 0.000000 0.000000 0.000000 0.048202 0.000000
# 6 0.000000 0.000000 0.000000 0.000000 0.000000 0.044618
#
#
# Mechanical properties :
#
#
# Convention : Reuss Voigt Hill
#
# Bulk Modulus (GPa) = 53.54983 61.62299 57.58641
# Shear Modulus (GPa) = 23.48373 25.05816 24.27094
#
# Velocity S-wave (km/s) = 3.84517 3.97198 3.90909
# Velocity P-wave (km/s) = 7.30950 7.73520 7.52536
#
# Compressibility (1/GPa) = 0.01867420
#
# Stress axis : x y z
#
# Youngs Moduli (GPa) = 55.19406 50.96840 106.92581
#
# Poissons Ratio (x) = 0.30544 0.42874
# Poissons Ratio (y) = 0.33076 0.44968
# Poissons Ratio (z) = 0.22131 0.21435
#
# Static dielectric constant tensor:
#      x y z
#    x 2.888690 0.000000 0.000000 
#    y 0.000000 3.069590 0.000000 
#    z 0.000000 0.000000 3.429180 
# 
# 
# High freq. dielectric constant tensor:
#      x y z
#    x 1.576760 0.000000 0.000000 
#    y 0.000000 1.617170 0.000000 
#    z 0.000000 0.000000 1.613160 
# 
# From -- ./inp_files/32651.got.cif
#   From: 2010.03.12/outbox.cif.g09.slc.cpg/sg62_17_cif.got.tgz:32651.got - 2010.04.10 19:12:36.
