data_PCOD8250344
_publ_section_title
;
Structure prediction by ZEFSAII (Michael W. Deem and Ramdas Pophale) SiO2 
 PCOD8250344
Probable space group: P N M A
;
_chemical_formula_sum "Si O2"
_cell_formula_units_Z 48
_cell_length_a 23.710988
_cell_length_b 8.822673
_cell_length_c 13.797999
_cell_angle_alpha 90.000000
_cell_angle_beta 90.000000
_cell_angle_gamma 90.000000
_cell_volume 2886.462654
_symmetry_space_group_name_H-M "P N M A"
_symmetry_group_IT_number 62
_symmetry_cell_setting 'orthorhombic'
loop_
_space_group_symop_operation_xyz
x,y,z
1/2-x,-y,1/2+z
1/2+x,1/2-y,1/2-z
-x,1/2+y,-z
-x,-y,-z
1/2+x,y,1/2-z
1/2-x,1/2+y,1/2+z
x,1/2-y,z
loop_
_atom_site_type_symbol
_atom_site_label
_atom_site_fract_x
_atom_site_fract_y
_atom_site_fract_z
Si Si1 0.776266 0.429700 0.395526
Si Si2 0.553718 0.426473 0.612682
Si Si3 0.335426 0.570500 0.276334
Si Si4 0.330957 0.427050 0.699163
Si Si5 0.562748 0.074298 0.389801
Si Si6 0.228368 0.573273 0.390011
O O1 0.780011 0.250000 0.389512
O O2 0.825742 0.499322 0.329473
O O3 0.714171 0.480847 0.363428
O O4 0.786342 0.494035 0.504498
O O5 0.538859 0.250000 0.624481
O O6 0.603842 0.478301 0.683414
O O7 0.499657 0.524499 0.642042
O O8 0.572615 0.461047 0.502905
O O9 0.330287 0.750000 0.266724
O O10 0.287182 0.506127 0.348480
O O11 0.322578 0.250000 0.677366
O O12 0.393466 0.478177 0.672669
O O13 0.321534 0.461178 0.813520
O O14 0.571162 0.250000 0.366181
O O15 0.237937 0.750000 0.404440
#
# Coordination Sequence:
#
# PCOD8250344 Si02
#       6
#     8   8   8   8   8   8
#     4  10  18  30  48  70  94 120 153 192 230 265
#     4   9  18  32  49  68  95 128 153 180 228 283
#     4   9  17  31  48  67  93 124 154 182 223 278
#     4  10  19  32  48  67  93 125 156 184 226 280
#     4  10  19  31  48  71  95 119 153 194 229 265
#     4   8  16  30  47  66  92 124 151 181 226 276
#
# _framework density 16.629349999999999
#
# number of rings (size 3 to 8) (size 9 to 14) (size 15 to 20)
#    0.000    2.667    0.000    3.500    0.000    4.000 
#    0.000   11.667    0.000    1.000    0.000    0.000 
#    0.000    0.000    0.000    0.000    0.000    0.000 
#
# Total GULP energy -595135.200268 kJ/mol
# GULP energy per Si atom -12398.650006 kJ/mol
# Density = 1.659150 g / cm^3
# Si number density = 16.629350 Si / 1000 Ang^3
#
#
#
# Elastic Constant Matrix: (Units=GPa)
#
#
# Indices 1 2 3 4 5 6 
#
# 1 94.5765 28.2949 56.2418 0.0000 0.0000 0.0000
# 2 28.2949 39.9521 29.6784 0.0000 0.0000 0.0000
# 3 56.2418 29.6784 125.0378 0.0000 0.0000 0.0000
# 4 0.0000 0.0000 0.0000 23.6145 0.0000 0.0000
# 5 0.0000 0.0000 0.0000 0.0000 27.4619 0.0000
# 6 0.0000 0.0000 0.0000 0.0000 0.0000 28.6689
#
#
#
# Elastic Compliance Matrix: (Units=1/GPa)
#
#
# Indices 1 2 3 4 5 6 
#
# 1 0.016002 -0.007268 -0.005473 0.000000 0.000000 0.000000
# 2 -0.007268 0.033689 -0.004727 0.000000 0.000000 0.000000
# 3 -0.005473 -0.004727 0.011581 0.000000 0.000000 0.000000
# 4 0.000000 0.000000 0.000000 0.042347 0.000000 0.000000
# 5 0.000000 0.000000 0.000000 0.000000 0.036414 0.000000
# 6 0.000000 0.000000 0.000000 0.000000 0.000000 0.034881
#
#
# Mechanical properties :
#
#
# Convention : Reuss Voigt Hill
#
# Bulk Modulus (GPa) = 37.96957 54.22183 46.09570
# Shear Modulus (GPa) = 22.86989 25.63917 24.25453
#
# Velocity S-wave (km/s) = 3.71249 3.93084 3.82322
# Velocity P-wave (km/s) = 6.42333 7.29924 6.87525
#
# Compressibility (1/GPa) = 0.02633688
#
# Stress axis : x y z
#
# Youngs Moduli (GPa) = 62.49125 29.68361 86.34646
#
# Poissons Ratio (x) = 0.21573 0.47255
# Poissons Ratio (y) = 0.45416 0.40818
# Poissons Ratio (z) = 0.34200 0.14032
#
# Static dielectric constant tensor:
#      x y z
#    x 3.044580 0.000000 0.000000 
#    y 0.000000 3.017300 0.000000 
#    z 0.000000 0.000000 3.283470 
# 
# 
# High freq. dielectric constant tensor:
#      x y z
#    x 1.629850 0.000000 0.000000 
#    y 0.000000 1.634830 0.000000 
#    z 0.000000 0.000000 1.634050 
# 
# From -- ./inp_files/20026.got.cif
#   From: 2010.03.12/outbox.cif.g09.slc.cpg/sg62_11_cif.got.tgz:20026.got - 2010.04.10 19:12:36.
