data_PCOD8250144
_publ_section_title
;
Structure prediction by ZEFSAII (Michael W. Deem and Ramdas Pophale) SiO2 
 PCOD8250144
Probable space group: P N M A
;
_chemical_formula_sum "Si O2"
_cell_formula_units_Z 56
_cell_length_a 15.030946
_cell_length_b 8.616710
_cell_length_c 22.275069
_cell_angle_alpha 90.000000
_cell_angle_beta 90.000000
_cell_angle_gamma 90.000000
_cell_volume 2885.006855
_symmetry_space_group_name_H-M "P N M A"
_symmetry_group_IT_number 62
_symmetry_cell_setting 'orthorhombic'
loop_
_space_group_symop_operation_xyz
x,y,z
1/2-x,-y,1/2+z
1/2+x,1/2-y,1/2-z
-x,1/2+y,-z
-x,-y,-z
1/2+x,y,1/2-z
1/2-x,1/2+y,1/2+z
x,1/2-y,z
loop_
_atom_site_type_symbol
_atom_site_label
_atom_site_fract_x
_atom_site_fract_y
_atom_site_fract_z
Si Si1 0.510513 0.064498 0.932631
Si Si2 0.155038 0.935030 0.352797
Si Si3 0.650528 0.926294 0.471294
Si Si4 0.335555 0.569236 0.404354
Si Si5 0.669835 0.563906 0.282597
Si Si6 0.306648 0.927614 0.121731
Si Si7 0.021011 0.933301 0.131191
O O1 0.513089 0.250000 0.937368
O O2 0.429384 0.004846 0.890708
O O3 0.599599 0.996952 0.899645
O O4 0.500000 0.000000 0.000000
O O5 0.153833 0.750000 0.352684
O O6 0.243581 0.006715 0.382805
O O7 0.159616 0.998469 0.284784
O O8 0.643618 0.750000 0.495062
O O9 0.739188 0.947187 0.432801
O O10 0.564786 0.973277 0.432693
O O11 0.653881 0.045490 0.525308
O O12 0.331732 0.750000 0.390423
O O13 0.420726 0.497544 0.368651
O O14 0.671529 0.750000 0.285911
O O15 0.759521 0.502508 0.317500
O O16 0.581797 0.497350 0.315814
O O17 0.327668 0.750000 0.135854
O O18 0.017565 0.750000 0.139298
#
# Coordination Sequence:
#
# PCOD8250144 Si02
#       7
#     8   8   8   8   8   8   8
#     4  10  19  31  46  68  93 119 150 184 220 264
#     4   9  18  28  41  64  92 113 139 181 223 257
#     4   9  16  28  44  63  84 111 144 172 199 248
#     4  10  18  27  40  64  91 111 132 169 216 254
#     4   8  14  27  43  63  88 112 140 181 222 254
#     4   8  15  27  45  64  85 114 148 179 212 256
#     4   8  15  26  42  62  86 112 139 170 209 253
#
# _framework density 19.410698
#
# number of rings (size 3 to 8) (size 9 to 14) (size 15 to 20)
#    0.000    3.143    0.000    3.000    0.000    1.143 
#    0.000    5.714    0.000    0.000    0.000   14.000 
#    0.000    0.000    0.000    0.000    0.000    0.000 
#
# Total GULP energy -693747.344029 kJ/mol
# GULP energy per Si atom -12388.345429 kJ/mol
# Density = 1.936652 g / cm^3
# Si number density = 19.410698 Si / 1000 Ang^3
#
#
#
# Elastic Constant Matrix: (Units=GPa)
#
#
# Indices 1 2 3 4 5 6 
#
# 1 175.0222 9.8517 81.6058 0.0000 0.0000 0.0000
# 2 9.8517 3.7947 7.7421 0.0000 0.0000 0.0000
# 3 81.6058 7.7421 140.3914 0.0000 0.0000 0.0000
# 4 0.0000 0.0000 0.0000 20.2732 0.0000 0.0000
# 5 0.0000 0.0000 0.0000 0.0000 20.9131 0.0000
# 6 0.0000 0.0000 0.0000 0.0000 0.0000 8.1183
#
#
#
# Elastic Compliance Matrix: (Units=1/GPa)
#
#
# Indices 1 2 3 4 5 6 
#
# 1 0.008397 -0.013344 -0.004145 0.000000 0.000000 0.000000
# 2 -0.013344 0.318139 -0.009788 0.000000 0.000000 0.000000
# 3 -0.004145 -0.009788 0.010072 0.000000 0.000000 0.000000
# 4 0.000000 0.000000 0.000000 0.049326 0.000000 0.000000
# 5 0.000000 0.000000 0.000000 0.000000 0.047817 0.000000
# 6 0.000000 0.000000 0.000000 0.000000 0.000000 0.123179
#
#
# Mechanical properties :
#
#
# Convention : Reuss Voigt Hill
#
# Bulk Modulus (GPa) = 3.54541 57.51192 30.52866
# Shear Modulus (GPa) = 7.08714 24.52815 15.80764
#
# Velocity S-wave (km/s) = 1.91287 3.55863 2.85683
# Velocity P-wave (km/s) = 2.59022 6.82484 5.16177
#
# Compressibility (1/GPa) = 0.28205493
#
# Stress axis : x y z
#
# Youngs Moduli (GPa) = 119.08342 3.14328 99.28221
#
# Poissons Ratio (x) = 0.04194 0.41156
# Poissons Ratio (y) = 1.58902 0.97175
# Poissons Ratio (z) = 0.49364 0.03077
#
# Static dielectric constant tensor:
#      x y z
#    x 4.322200 0.000000 0.000000 
#    y 0.000000 2.838470 0.000000 
#    z 0.000000 0.000000 3.597750 
# 
# 
# High freq. dielectric constant tensor:
#      x y z
#    x 1.776570 0.000000 0.000000 
#    y 0.000000 1.679360 0.000000 
#    z 0.000000 0.000000 1.755280 
# 
# From -- ./inp_files/27292.got.cif
#   From: 2010.03.12/outbox.cif.g09.slc.cpg/sg62_14_cif.got.tgz:27292.got - 2010.04.10 19:12:36.
