data_PCOD8250127
_publ_section_title
;
Structure prediction by ZEFSAII (Michael W. Deem and Ramdas Pophale) SiO2 
 PCOD8250127
Probable space group: P N M A
;
_chemical_formula_sum "Si O2"
_cell_formula_units_Z 64
_cell_length_a 26.380676
_cell_length_b 13.836463
_cell_length_c 11.436867
_cell_angle_alpha 90.000000
_cell_angle_beta 90.000000
_cell_angle_gamma 90.000000
_cell_volume 4174.630837
_symmetry_space_group_name_H-M "P N M A"
_symmetry_group_IT_number 62
_symmetry_cell_setting 'orthorhombic'
loop_
_space_group_symop_operation_xyz
x,y,z
1/2-x,-y,1/2+z
1/2+x,1/2-y,1/2-z
-x,1/2+y,-z
-x,-y,-z
1/2+x,y,1/2-z
1/2-x,1/2+y,1/2+z
x,1/2-y,z
loop_
_atom_site_type_symbol
_atom_site_label
_atom_site_fract_x
_atom_site_fract_y
_atom_site_fract_z
Si Si1 0.439995 0.979537 0.373681
Si Si2 0.018513 0.361707 0.084541
Si Si3 0.099200 0.357642 0.677078
Si Si4 0.756204 0.136355 0.936391
Si Si5 0.152999 0.135141 0.451540
Si Si6 0.333115 0.514916 0.489700
Si Si7 0.206673 0.143686 0.799965
Si Si8 0.875179 0.861662 0.804384
O O1 0.471799 0.077948 0.363352
O O2 0.384933 0.008186 0.422335
O O3 0.466751 0.901206 0.457027
O O4 0.437767 0.931315 0.245079
O O5 0.002522 0.250000 0.072428
O O6 0.065213 0.374371 0.173092
O O7 0.074549 0.250000 0.668941
O O8 0.112073 0.400757 0.548427
O O9 0.150412 0.348640 0.750083
O O10 0.764261 0.250000 0.951128
O O11 0.808140 0.085908 0.974080
O O12 0.744686 0.108728 0.801686
O O13 0.709554 0.099258 0.016935
O O14 0.152421 0.250000 0.457894
O O15 0.136841 0.096867 0.324431
O O16 0.292661 0.570154 0.407825
O O17 0.342221 0.579429 0.603561
O O18 0.223131 0.250000 0.844794
O O19 0.859098 0.750000 0.815907
#
# Coordination Sequence:
#
# PCOD8250127 Si02
#       8
#     8   8   8   8   8   8   8   8
#     4   9  17  28  42  66  87 108 149 182 211 265
#     4   9  17  29  44  62  88 115 138 181 228 256
#     4   8  13  25  45  63  82 109 137 174 216 249
#     4   9  18  29  41  61  89 116 142 174 213 261
#     4   8  15  28  44  62  87 112 138 179 222 255
#     4  10  18  26  45  65  85 114 144 178 216 258
#     4   8  15  28  42  59  83 110 141 174 210 251
#     4   9  17  29  45  66  87 108 142 184 223 257
#
# _framework density 15.330697000000001
#
# number of rings (size 3 to 8) (size 9 to 14) (size 15 to 20)
#    0.000    3.250    0.000    2.250    1.750    3.500 
#    0.000    0.625    0.000    0.000    0.000    0.875 
#    0.000    0.000    0.000    0.000    0.000    0.000 
#
# Total GULP energy -793316.261355 kJ/mol
# GULP energy per Si atom -12395.566584 kJ/mol
# Density = 1.529580 g / cm^3
# Si number density = 15.330697 Si / 1000 Ang^3
#
#
#
# Elastic Constant Matrix: (Units=GPa)
#
#
# Indices 1 2 3 4 5 6 
#
# 1 59.3051 45.8921 39.8351 0.0000 0.0000 0.0000
# 2 45.8921 81.3988 45.5279 0.0000 0.0000 0.0000
# 3 39.8351 45.5279 105.5616 0.0000 0.0000 0.0000
# 4 0.0000 0.0000 0.0000 17.1633 0.0000 0.0000
# 5 0.0000 0.0000 0.0000 0.0000 15.4338 0.0000
# 6 0.0000 0.0000 0.0000 0.0000 0.0000 27.2244
#
#
#
# Elastic Compliance Matrix: (Units=1/GPa)
#
#
# Indices 1 2 3 4 5 6 
#
# 1 0.032335 -0.015032 -0.005719 0.000000 0.000000 0.000000
# 2 -0.015032 0.023179 -0.004324 0.000000 0.000000 0.000000
# 3 -0.005719 -0.004324 0.013496 0.000000 0.000000 0.000000
# 4 0.000000 0.000000 0.000000 0.058264 0.000000 0.000000
# 5 0.000000 0.000000 0.000000 0.000000 0.064793 0.000000
# 6 0.000000 0.000000 0.000000 0.000000 0.000000 0.036732
#
#
# Mechanical properties :
#
#
# Convention : Reuss Voigt Hill
#
# Bulk Modulus (GPa) = 53.02200 56.53063 54.77631
# Shear Modulus (GPa) = 17.52933 19.63166 18.58050
#
# Velocity S-wave (km/s) = 3.38511 3.58235 3.48513
# Velocity P-wave (km/s) = 7.06677 7.35290 7.21126
#
# Compressibility (1/GPa) = 0.01886010
#
# Stress axis : x y z
#
# Youngs Moduli (GPa) = 30.92584 43.14322 74.09380
#
# Poissons Ratio (x) = 0.64851 0.42376
# Poissons Ratio (y) = 0.46487 0.32041
# Poissons Ratio (z) = 0.17687 0.18657
#
# Static dielectric constant tensor:
#      x y z
#    x 2.749190 0.000000 0.000000 
#    y 0.000000 2.836110 0.000000 
#    z 0.000000 0.000000 3.161760 
# 
# 
# High freq. dielectric constant tensor:
#      x y z
#    x 1.563530 0.000000 0.000000 
#    y 0.000000 1.570790 0.000000 
#    z 0.000000 0.000000 1.589340 
# 
# From -- ./inp_files/10517.got.cif
#   From: 2010.03.12/outbox.cif.g09.slc.cpg/sg62_6_cif.got.tgz:10517.got - 2010.04.10 19:12:36.
