data_PCOD8250248
_publ_section_title
;
Structure prediction by ZEFSAII (Michael W. Deem and Ramdas Pophale) SiO2 
 PCOD8250248
Probable space group: P N M A
;
_chemical_formula_sum "Si O2"
_cell_formula_units_Z 56
_cell_length_a 29.387762
_cell_length_b 8.623042
_cell_length_c 13.641013
_cell_angle_alpha 90.000000
_cell_angle_beta 90.000000
_cell_angle_gamma 90.000000
_cell_volume 3456.795104
_symmetry_space_group_name_H-M "P N M A"
_symmetry_group_IT_number 62
_symmetry_cell_setting 'orthorhombic'
loop_
_space_group_symop_operation_xyz
x,y,z
1/2-x,-y,1/2+z
1/2+x,1/2-y,1/2-z
-x,1/2+y,-z
-x,-y,-z
1/2+x,y,1/2-z
1/2-x,1/2+y,1/2+z
x,1/2-y,z
loop_
_atom_site_type_symbol
_atom_site_label
_atom_site_fract_x
_atom_site_fract_y
_atom_site_fract_z
Si Si1 0.909074 0.434156 0.386577
Si Si2 0.679693 0.931115 0.195804
Si Si3 0.766419 0.070723 0.883675
Si Si4 0.998378 0.066145 0.608859
Si Si5 0.765820 0.431263 0.102833
Si Si6 0.906817 0.567921 0.602237
Si Si7 0.181488 0.931957 0.710935
O O1 0.913433 0.250000 0.383103
O O2 0.954994 0.508648 0.340028
O O3 0.900171 0.484244 0.498235
O O4 0.867460 0.499737 0.320618
O O5 0.668394 0.750000 0.186494
O O6 0.694942 0.978786 0.305981
O O7 0.719649 0.973678 0.120091
O O8 0.635102 0.029917 0.172746
O O9 0.754688 0.250000 0.869097
O O10 0.719646 0.980471 0.866825
O O11 0.784053 0.034837 0.993409
O O12 0.995619 0.250000 0.610031
O O13 0.000000 0.000000 0.500000
O O14 0.952628 0.994583 0.656743
O O15 0.754826 0.250000 0.118359
O O16 0.804468 0.487891 0.179606
O O17 0.910703 0.750000 0.584061
O O18 0.177345 0.750000 0.707243
#
# Coordination Sequence:
#
# PCOD8250248 Si02
#       7
#     8   8   8   8   8   8   8
#     4  10  18  29  44  65  91 118 144 176 213 255
#     4  10  19  30  43  64  88 114 145 179 216 255
#     4   9  18  30  45  62  86 115 146 180 214 250
#     4  10  18  29  44  63  87 115 143 176 213 256
#     4   9  17  31  46  63  86 116 148 179 212 252
#     4  11  20  30  44  63  87 117 146 177 213 256
#     4   9  18  29  44  64  88 115 146 177 211 252
#
# _framework density 16.199978000000002
#
# number of rings (size 3 to 8) (size 9 to 14) (size 15 to 20)
#    0.000    2.286    0.000    6.000    0.000    4.571 
#    0.000    0.000    0.000    0.000    0.000    1.000 
#    0.000    0.000    0.000    0.000    0.000    0.000 
#
# Total GULP energy -694212.928033 kJ/mol
# GULP energy per Si atom -12396.659429 kJ/mol
# Density = 1.616311 g / cm^3
# Si number density = 16.199978 Si / 1000 Ang^3
#
#
#
# Elastic Constant Matrix: (Units=GPa)
#
#
# Indices 1 2 3 4 5 6 
#
# 1 140.4872 29.9559 46.5769 0.0000 0.0000 0.0000
# 2 29.9559 55.1002 12.1499 0.0000 0.0000 0.0000
# 3 46.5769 12.1499 80.5523 0.0000 0.0000 0.0000
# 4 0.0000 0.0000 0.0000 15.3538 0.0000 0.0000
# 5 0.0000 0.0000 0.0000 0.0000 22.3988 0.0000
# 6 0.0000 0.0000 0.0000 0.0000 0.0000 27.5071
#
#
#
# Elastic Compliance Matrix: (Units=1/GPa)
#
#
# Indices 1 2 3 4 5 6 
#
# 1 0.009645 -0.004152 -0.004950 0.000000 0.000000 0.000000
# 2 -0.004152 0.020560 -0.000701 0.000000 0.000000 0.000000
# 3 -0.004950 -0.000701 0.015382 0.000000 0.000000 0.000000
# 4 0.000000 0.000000 0.000000 0.065131 0.000000 0.000000
# 5 0.000000 0.000000 0.000000 0.000000 0.044645 0.000000
# 6 0.000000 0.000000 0.000000 0.000000 0.000000 0.036354
#
#
# Mechanical properties :
#
#
# Convention : Reuss Voigt Hill
#
# Bulk Modulus (GPa) = 38.48845 50.38945 44.43895
# Shear Modulus (GPa) = 22.72894 25.54907 24.13900
#
# Velocity S-wave (km/s) = 3.74976 3.97559 3.86432
# Velocity P-wave (km/s) = 6.52361 7.22813 6.88489
#
# Compressibility (1/GPa) = 0.02598182
#
# Stress axis : x y z
#
# Youngs Moduli (GPa) = 103.68444 48.63720 65.00927
#
# Poissons Ratio (x) = 0.20193 0.32183
# Poissons Ratio (y) = 0.43048 0.04554
# Poissons Ratio (z) = 0.51329 0.03407
#
# Static dielectric constant tensor:
#      x y z
#    x 3.606930 0.000000 0.000000 
#    y 0.000000 3.101290 0.000000 
#    z 0.000000 0.000000 2.982830 
# 
# 
# High freq. dielectric constant tensor:
#      x y z
#    x 1.624900 0.000000 0.000000 
#    y 0.000000 1.632840 0.000000 
#    z 0.000000 0.000000 1.586920 
# 
# From -- ./inp_files/21184.got.cif
#   From: 2010.03.12/outbox.cif.g09.slc.cpg/sg62_11_cif.got.tgz:21184.got - 2010.04.10 19:12:36.
