data_PCOD8250609
_publ_section_title
;
Structure prediction by ZEFSAII (Michael W. Deem and Ramdas Pophale) SiO2 
 PCOD8250609
Probable space group: P N M A
;
_chemical_formula_sum "Si O2"
_cell_formula_units_Z 64
_cell_length_a 27.667153
_cell_length_b 13.695557
_cell_length_c 10.372458
_cell_angle_alpha 90.000000
_cell_angle_beta 90.000000
_cell_angle_gamma 90.000000
_cell_volume 3930.301404
_symmetry_space_group_name_H-M "P N M A"
_symmetry_group_IT_number 62
_symmetry_cell_setting 'orthorhombic'
loop_
_space_group_symop_operation_xyz
x,y,z
1/2-x,-y,1/2+z
1/2+x,1/2-y,1/2-z
-x,1/2+y,-z
-x,-y,-z
1/2+x,y,1/2-z
1/2-x,1/2+y,1/2+z
x,1/2-y,z
loop_
_atom_site_type_symbol
_atom_site_label
_atom_site_fract_x
_atom_site_fract_y
_atom_site_fract_z
Si Si1 0.210371 0.637439 0.290762
Si Si2 0.193647 0.447643 0.152376
Si Si3 0.365301 0.139908 0.009582
Si Si4 0.690745 0.446654 0.633203
Si Si5 0.878440 0.861017 0.345720
Si Si6 0.209014 0.861159 0.733819
Si Si7 0.556098 0.020311 0.994859
Si Si8 0.375226 0.860907 0.867363
O O1 0.205283 0.750000 0.244929
O O2 0.204536 0.562957 0.171634
O O3 0.169863 0.607969 0.394311
O O4 0.262998 0.622929 0.352633
O O5 0.242518 0.384440 0.154340
O O6 0.158460 0.409579 0.262490
O O7 0.169966 0.434338 0.011309
O O8 0.381987 0.250000 0.990250
O O9 0.337164 0.125594 0.142850
O O10 0.414558 0.080115 0.009861
O O11 0.651090 0.415930 0.736721
O O12 0.704778 0.560777 0.650685
O O13 0.887415 0.750000 0.302926
O O14 0.851376 0.866834 0.487071
O O15 0.930162 0.915754 0.366764
O O16 0.211680 0.750000 0.787569
O O17 0.500000 0.000000 0.000000
O O18 0.573488 0.081080 0.122426
O O19 0.385526 0.750000 0.826930
#
# Coordination Sequence:
#
# PCOD8250609 Si02
#       8
#     8   8   8   8   8   8   8   8
#     4  10  20  33  49  74 109 146 182 213 258 326
#     4  11  21  32  53  80 111 145 179 220 267 324
#     4  10  18  33  54  77 104 138 181 222 262 312
#     4  11  21  32  53  80 111 145 179 220 267 324
#     4   9  19  35  53  78 110 139 175 223 269 321
#     4  10  20  33  49  74 109 146 182 213 258 326
#     4  10  19  35  58  81 105 134 185 232 278 314
#     4   9  19  35  53  78 110 139 175 223 269 321
#
# _framework density 16.283739000000001
#
# number of rings (size 3 to 8) (size 9 to 14) (size 15 to 20)
#    0.750    1.250    3.750    0.750    0.000    4.000 
#    0.000    0.000    0.000    0.750    0.000    0.000 
#    0.000    0.000    0.000    0.000    0.000    0.000 
#
# Total GULP energy -792988.729833 kJ/mol
# GULP energy per Si atom -12390.448904 kJ/mol
# Density = 1.624668 g / cm^3
# Si number density = 16.283739 Si / 1000 Ang^3
#
#
#
# Elastic Constant Matrix: (Units=GPa)
#
#
# Indices 1 2 3 4 5 6 
#
# 1 92.4271 38.2469 25.1605 0.0000 0.0000 0.0000
# 2 38.2469 108.8220 30.1381 0.0000 0.0000 0.0000
# 3 25.1605 30.1381 76.1644 0.0000 0.0000 0.0000
# 4 0.0000 0.0000 0.0000 14.9463 0.0000 0.0000
# 5 0.0000 0.0000 0.0000 0.0000 5.3795 0.0000
# 6 0.0000 0.0000 0.0000 0.0000 0.0000 14.0381
#
#
#
# Elastic Compliance Matrix: (Units=1/GPa)
#
#
# Indices 1 2 3 4 5 6 
#
# 1 0.013183 -0.003849 -0.002832 0.000000 0.000000 0.000000
# 2 -0.003849 0.011444 -0.003257 0.000000 0.000000 0.000000
# 3 -0.002832 -0.003257 0.015354 0.000000 0.000000 0.000000
# 4 0.000000 0.000000 0.000000 0.066906 0.000000 0.000000
# 5 0.000000 0.000000 0.000000 0.000000 0.185890 0.000000
# 6 0.000000 0.000000 0.000000 0.000000 0.000000 0.071235
#
#
# Mechanical properties :
#
#
# Convention : Reuss Voigt Hill
#
# Bulk Modulus (GPa) = 49.73837 51.61161 50.67499
# Shear Modulus (GPa) = 12.80116 19.13064 15.96590
#
# Velocity S-wave (km/s) = 2.80685 3.43130 3.13466
# Velocity P-wave (km/s) = 6.41215 6.88930 6.65500
#
# Compressibility (1/GPa) = 0.02010520
#
# Stress axis : x y z
#
# Youngs Moduli (GPa) = 75.85530 87.38114 65.13072
#
# Poissons Ratio (x) = 0.33633 0.18444
# Poissons Ratio (y) = 0.29197 0.21212
# Poissons Ratio (z) = 0.21481 0.28459
#
# Static dielectric constant tensor:
#      x y z
#    x 2.696160 0.000000 0.000000 
#    y 0.000000 3.422660 0.000000 
#    z 0.000000 0.000000 2.903920 
# 
# 
# High freq. dielectric constant tensor:
#      x y z
#    x 1.585580 0.000000 0.000000 
#    y 0.000000 1.653850 0.000000 
#    z 0.000000 0.000000 1.605340 
# 
# From -- ./inp_files/10524.got.cif
#   From: 2010.03.12/outbox.cif.g09.slc.cpg/sg62_6_cif.got.tgz:10524.got - 2010.04.10 19:12:36.
