data_PCOD8250087
_publ_section_title
;
Structure prediction by ZEFSAII (Michael W. Deem and Ramdas Pophale) SiO2 
 PCOD8250087
Probable space group: P N M A
;
_chemical_formula_sum "Si O2"
_cell_formula_units_Z 64
_cell_length_a 22.487986
_cell_length_b 26.665981
_cell_length_c 5.505921
_cell_angle_alpha 90.000000
_cell_angle_beta 90.000000
_cell_angle_gamma 90.000000
_cell_volume 3301.703752
_symmetry_space_group_name_H-M "P N M A"
_symmetry_group_IT_number 62
_symmetry_cell_setting 'orthorhombic'
loop_
_space_group_symop_operation_xyz
x,y,z
1/2-x,-y,1/2+z
1/2+x,1/2-y,1/2-z
-x,1/2+y,-z
-x,-y,-z
1/2+x,y,1/2-z
1/2-x,1/2+y,1/2+z
x,1/2-y,z
loop_
_atom_site_type_symbol
_atom_site_label
_atom_site_fract_x
_atom_site_fract_y
_atom_site_fract_z
Si Si1 0.074965 0.135957 0.642931
Si Si2 0.549607 0.904272 0.612320
Si Si3 0.598594 0.945036 0.115141
Si Si4 0.735343 0.528546 0.102154
Si Si5 0.664296 0.399503 0.483001
Si Si6 0.507465 0.306204 0.491061
Si Si7 0.436662 0.552909 0.780970
Si Si8 0.634832 0.305318 0.236376
O O1 0.111298 0.101924 0.826503
O O2 0.021749 0.170144 0.745855
O O3 0.042937 0.095558 0.472264
O O4 0.124518 0.173559 0.532064
O O5 0.585479 0.914066 0.361885
O O6 0.538386 0.844159 0.637066
O O7 0.488137 0.936680 0.579911
O O8 0.584813 0.918962 0.857315
O O9 0.668193 0.954938 0.119360
O O10 0.560886 0.996692 0.118982
O O11 0.754402 0.501697 0.352110
O O12 0.775261 0.578604 0.086861
O O13 0.632746 0.436057 0.285154
O O14 0.677908 0.343661 0.379425
O O15 0.480425 0.250000 0.512058
O O16 0.569604 0.304889 0.351519
O O17 0.663841 0.250000 0.233244
#
# Coordination Sequence:
#
# PCOD8250087 Si02
#       8
#     8   8   8   8   8   8   8   8
#     4  10  17  33  58  91 123 156 205 250 318 369
#     4  12  24  41  59  91 130 161 202 256 307 380
#     4  12  27  40  61  91 126 171 208 244 305 376
#     4  12  25  45  67  89 122 163 218 257 299 366
#     4  10  21  35  63  87 123 159 202 260 310 360
#     4  10  20  35  58  86 122 164 204 253 308 366
#     4  11  21  38  57  90 125 167 196 249 317 370
#     4   9  18  33  56  91 122 153 201 256 317 368
#
# _framework density 19.383929999999999
#
# number of rings (size 3 to 8) (size 9 to 14) (size 15 to 20)
#    0.000    1.250    5.000    3.375    3.500    0.500 
#    0.000    0.000    0.000    1.500    0.000    0.000 
#    0.000    0.000    0.000    0.000    0.000    0.000 
#
# Total GULP energy -792935.105241 kJ/mol
# GULP energy per Si atom -12389.611019 kJ/mol
# Density = 1.933981 g / cm^3
# Si number density = 19.383930 Si / 1000 Ang^3
#
#
#
# Elastic Constant Matrix: (Units=GPa)
#
#
# Indices 1 2 3 4 5 6 
#
# 1 82.6105 38.7939 24.8606 0.0000 0.0000 0.0000
# 2 38.7939 144.0428 47.3791 0.0000 0.0000 0.0000
# 3 24.8606 47.3791 103.6603 0.0000 0.0000 0.0000
# 4 0.0000 0.0000 0.0000 21.4775 0.0000 0.0000
# 5 0.0000 0.0000 0.0000 0.0000 18.8492 0.0000
# 6 0.0000 0.0000 0.0000 0.0000 0.0000 25.5068
#
#
#
# Elastic Compliance Matrix: (Units=1/GPa)
#
#
# Indices 1 2 3 4 5 6 
#
# 1 0.014184 -0.003179 -0.001949 0.000000 0.000000 0.000000
# 2 -0.003179 0.008883 -0.003298 0.000000 0.000000 0.000000
# 3 -0.001949 -0.003298 0.011622 0.000000 0.000000 0.000000
# 4 0.000000 0.000000 0.000000 0.046560 0.000000 0.000000
# 5 0.000000 0.000000 0.000000 0.000000 0.053053 0.000000
# 6 0.000000 0.000000 0.000000 0.000000 0.000000 0.039205
#
#
# Mechanical properties :
#
#
# Convention : Reuss Voigt Hill
#
# Bulk Modulus (GPa) = 56.06044 61.37564 58.71804
# Shear Modulus (GPa) = 25.47060 27.78537 26.62799
#
# Velocity S-wave (km/s) = 3.62885 3.79016 3.71039
# Velocity P-wave (km/s) = 6.82217 7.13342 6.97953
#
# Compressibility (1/GPa) = 0.01783789
#
# Stress axis : x y z
#
# Youngs Moduli (GPa) = 70.50001 112.57060 86.04722
#
# Poissons Ratio (x) = 0.35788 0.16768
# Poissons Ratio (y) = 0.22413 0.28376
# Poissons Ratio (z) = 0.13739 0.37123
#
# Static dielectric constant tensor:
#      x y z
#    x 3.244100 0.000000 0.000000 
#    y 0.000000 3.835260 0.000000 
#    z 0.000000 0.000000 3.867400 
# 
# 
# High freq. dielectric constant tensor:
#      x y z
#    x 1.712470 0.000000 0.000000 
#    y 0.000000 1.756020 0.000000 
#    z 0.000000 0.000000 1.770620 
# 
# From -- ./inp_files/2402.got.cif
#   From: 2010.03.12/outbox.cif.g09.slc.cpg/sg62_2_cif.got.tgz:2402.got - 2010.04.10 19:12:36.
