data_PCOD8250763
_publ_section_title
;
Structure prediction by ZEFSAII (Michael W. Deem and Ramdas Pophale) SiO2 
 PCOD8250763
Probable space group: P N M A
;
_chemical_formula_sum "Si O2"
_cell_formula_units_Z 64
_cell_length_a 22.350647
_cell_length_b 9.262094
_cell_length_c 20.095608
_cell_angle_alpha 90.000000
_cell_angle_beta 90.000000
_cell_angle_gamma 90.000000
_cell_volume 4160.068044
_symmetry_space_group_name_H-M "P N M A"
_symmetry_group_IT_number 62
_symmetry_cell_setting 'orthorhombic'
loop_
_space_group_symop_operation_xyz
x,y,z
1/2-x,-y,1/2+z
1/2+x,1/2-y,1/2-z
-x,1/2+y,-z
-x,-y,-z
1/2+x,y,1/2-z
1/2-x,1/2+y,1/2+z
x,1/2-y,z
loop_
_atom_site_type_symbol
_atom_site_label
_atom_site_fract_x
_atom_site_fract_y
_atom_site_fract_z
Si Si1 0.153351 0.581898 0.932100
Si Si2 0.644628 0.085775 0.436226
Si Si3 0.160058 0.413180 0.726166
Si Si4 0.066706 0.081769 0.190750
Si Si5 0.257076 0.909438 0.355327
Si Si6 0.071576 0.582647 0.808271
Si Si7 0.839710 0.419207 0.740550
Si Si8 0.754391 0.916935 0.840438
O O1 0.160783 0.750000 0.942734
O O2 0.218242 0.521674 0.909311
O O3 0.103654 0.541746 0.877423
O O4 0.132038 0.514392 0.001012
O O5 0.631896 0.250000 0.457313
O O6 0.598471 0.039172 0.378493
O O7 0.714024 0.068946 0.412614
O O8 0.145921 0.250000 0.703797
O O9 0.205363 0.418045 0.787562
O O10 0.098679 0.491252 0.747199
O O11 0.191263 0.497659 0.664276
O O12 0.077006 0.250000 0.207117
O O13 0.997428 0.042440 0.184126
O O14 0.093522 0.984824 0.251554
O O15 0.263057 0.750000 0.386907
O O16 0.187814 0.939966 0.334079
O O17 0.081659 0.750000 0.791651
O O18 0.838014 0.250000 0.760337
O O19 0.800933 0.515224 0.789763
O O20 0.743341 0.750000 0.821671
#
# Coordination Sequence:
#
# PCOD8250763 Si02
#       8
#     8   8   8   8   8   8   8   8
#     4  10  19  28  41  60  81 109 145 180 208 239
#     4   9  18  30  42  57  81 113 145 175 209 247
#     4   9  16  26  42  63  82 102 132 172 215 251
#     4   9  18  31  44  58  81 115 148 175 206 247
#     4   8  15  27  41  57  79 104 129 164 212 257
#     4   9  18  31  43  58  83 114 147 177 206 246
#     4   9  16  26  42  63  82 101 131 173 216 252
#     4   9  16  27  43  60  79 106 135 166 210 258
#
# _framework density 15.384365000000001
#
# number of rings (size 3 to 8) (size 9 to 14) (size 15 to 20)
#    0.000    3.000    0.000    3.000    0.000    7.500 
#    0.000    0.000    0.000    0.000    0.000    0.000 
#    0.000    1.000    0.000    3.250    0.000    4.250 
#
# Total GULP energy -793146.108099 kJ/mol
# GULP energy per Si atom -12392.907939 kJ/mol
# Density = 1.534935 g / cm^3
# Si number density = 15.384365 Si / 1000 Ang^3
#
#
#
# Elastic Constant Matrix: (Units=GPa)
#
#
# Indices 1 2 3 4 5 6 
#
# 1 98.3120 56.1081 46.3024 0.0000 0.0000 0.0000
# 2 56.1081 88.6343 27.1286 0.0000 0.0000 0.0000
# 3 46.3024 27.1286 24.0696 0.0000 0.0000 0.0000
# 4 0.0000 0.0000 0.0000 24.5809 0.0000 0.0000
# 5 0.0000 0.0000 0.0000 0.0000 15.6418 0.0000
# 6 0.0000 0.0000 0.0000 0.0000 0.0000 22.4246
#
#
#
# Elastic Compliance Matrix: (Units=1/GPa)
#
#
# Indices 1 2 3 4 5 6 
#
# 1 0.111410 -0.007524 -0.205838 0.000000 0.000000 0.000000
# 2 -0.007524 0.017732 -0.005512 0.000000 0.000000 0.000000
# 3 -0.205838 -0.005512 0.443726 0.000000 0.000000 0.000000
# 4 0.000000 0.000000 0.000000 0.040682 0.000000 0.000000
# 5 0.000000 0.000000 0.000000 0.000000 0.063931 0.000000
# 6 0.000000 0.000000 0.000000 0.000000 0.000000 0.044594
#
#
# Mechanical properties :
#
#
# Convention : Reuss Voigt Hill
#
# Bulk Modulus (GPa) = 7.40077 52.23269 29.81673
# Shear Modulus (GPa) = 4.14985 17.96124 11.05555
#
# Velocity S-wave (km/s) = 1.64417 3.42058 2.68362
# Velocity P-wave (km/s) = 2.90266 7.04457 5.38755
#
# Compressibility (1/GPa) = 0.13512116
#
# Stress axis : x y z
#
# Youngs Moduli (GPa) = 8.97585 56.39395 2.25364
#
# Poissons Ratio (x) = 0.42433 0.46388
# Poissons Ratio (y) = 0.06754 0.01242
# Poissons Ratio (z) = 1.84757 0.31082
#
# Static dielectric constant tensor:
#      x y z
#    x 3.119130 0.000000 0.000000 
#    y 0.000000 3.095400 0.000000 
#    z 0.000000 0.000000 2.741590 
# 
# 
# High freq. dielectric constant tensor:
#      x y z
#    x 1.573820 0.000000 0.000000 
#    y 0.000000 1.603760 0.000000 
#    z 0.000000 0.000000 1.546090 
# 
# From -- ./inp_files/24955.got.cif
#   From: 2010.03.12/outbox.cif.g09.slc.cpg/sg62_13_cif.got.tgz:24955.got - 2010.04.10 19:12:36.
