data_PCOD8250824
_publ_section_title
;
Structure prediction by ZEFSAII (Michael W. Deem and Ramdas Pophale) SiO2 
 PCOD8250824
Probable space group: P N M A
;
_chemical_formula_sum "Si O2"
_cell_formula_units_Z 48
_cell_length_a 17.783524
_cell_length_b 9.222577
_cell_length_c 17.732702
_cell_angle_alpha 90.000000
_cell_angle_beta 90.000000
_cell_angle_gamma 90.000000
_cell_volume 2908.339026
_symmetry_space_group_name_H-M "P N M A"
_symmetry_group_IT_number 62
_symmetry_cell_setting 'orthorhombic'
loop_
_space_group_symop_operation_xyz
x,y,z
1/2-x,-y,1/2+z
1/2+x,1/2-y,1/2-z
-x,1/2+y,-z
-x,-y,-z
1/2+x,y,1/2-z
1/2-x,1/2+y,1/2+z
x,1/2-y,z
loop_
_atom_site_type_symbol
_atom_site_label
_atom_site_fract_x
_atom_site_fract_y
_atom_site_fract_z
Si Si1 0.797223 0.580676 0.089133
Si Si2 0.690142 0.420359 0.416505
Si Si3 0.090119 0.922216 0.202283
Si Si4 0.681655 0.909670 0.813349
Si Si5 0.190725 0.413291 0.312162
Si Si6 0.581834 0.081700 0.711834
O O1 0.778699 0.750000 0.098069
O O2 0.723084 0.491795 0.113423
O O3 0.868851 0.534765 0.139584
O O4 0.817672 0.540218 0.003837
O O5 0.675215 0.250000 0.400246
O O6 0.628937 0.514610 0.372329
O O7 0.775062 0.461353 0.389210
O O8 0.102873 0.750000 0.205590
O O9 0.003036 0.966216 0.196508
O O10 0.121702 0.994232 0.278724
O O11 0.647513 0.750000 0.824821
O O12 0.744381 0.909790 0.749231
O O13 0.612886 0.011449 0.789214
O O14 0.164229 0.250000 0.332335
O O15 0.587765 0.250000 0.726589
#
# Coordination Sequence:
#
# PCOD8250824 Si02
#       6
#     8   8   8   8   8   8
#     4   9  17  31  49  68  94 124 150 184 230 273
#     4   9  18  31  47  69  95 122 152 185 226 274
#     4  10  19  30  45  67  94 122 153 187 224 268
#     4   8  15  28  45  64  86 115 151 187 221 262
#     4   9  17  30  47  67  89 116 155 193 225 267
#     4   9  18  30  45  67  92 120 153 186 224 271
#
# _framework density 16.504265
#
# number of rings (size 3 to 8) (size 9 to 14) (size 15 to 20)
#    0.000    3.000    0.000    2.000    0.000    6.667 
#    0.000    0.000    0.000    1.000    0.000    0.000 
#    0.000    0.000    0.000    0.000    0.000    0.000 
#
# Total GULP energy -595018.484213 kJ/mol
# GULP energy per Si atom -12396.218421 kJ/mol
# Density = 1.646670 g / cm^3
# Si number density = 16.504265 Si / 1000 Ang^3
#
#
#
# Elastic Constant Matrix: (Units=GPa)
#
#
# Indices 1 2 3 4 5 6 
#
# 1 99.2231 60.4897 73.4723 0.0000 0.0000 0.0000
# 2 60.4897 76.3688 45.5614 0.0000 0.0000 0.0000
# 3 73.4723 45.5614 63.8140 0.0000 0.0000 0.0000
# 4 0.0000 0.0000 0.0000 24.2057 0.0000 0.0000
# 5 0.0000 0.0000 0.0000 0.0000 17.6527 0.0000
# 6 0.0000 0.0000 0.0000 0.0000 0.0000 25.5207
#
#
#
# Elastic Compliance Matrix: (Units=1/GPa)
#
#
# Indices 1 2 3 4 5 6 
#
# 1 0.075994 -0.013924 -0.077554 0.000000 0.000000 0.000000
# 2 -0.013924 0.025362 -0.002076 0.000000 0.000000 0.000000
# 3 -0.077554 -0.002076 0.106444 0.000000 0.000000 0.000000
# 4 0.000000 0.000000 0.000000 0.041313 0.000000 0.000000
# 5 0.000000 0.000000 0.000000 0.000000 0.056649 0.000000
# 6 0.000000 0.000000 0.000000 0.000000 0.000000 0.039184
#
#
# Mechanical properties :
#
#
# Convention : Reuss Voigt Hill
#
# Bulk Modulus (GPa) = 48.32836 66.49475 57.41155
# Shear Modulus (GPa) = 9.27730 17.46799 13.37265
#
# Velocity S-wave (km/s) = 2.37347 3.25682 2.84958
# Velocity P-wave (km/s) = 6.07100 7.38373 6.75931
#
# Compressibility (1/GPa) = 0.02069179
#
# Stress axis : x y z
#
# Youngs Moduli (GPa) = 13.15901 39.42921 9.39459
#
# Poissons Ratio (x) = 0.54902 0.72859
# Poissons Ratio (y) = 0.18323 0.01950
# Poissons Ratio (z) = 1.02053 0.08186
#
# Static dielectric constant tensor:
#      x y z
#    x 3.102130 0.000000 0.000000 
#    y 0.000000 3.232410 0.000000 
#    z 0.000000 0.000000 3.124170 
# 
# 
# High freq. dielectric constant tensor:
#      x y z
#    x 1.618170 0.000000 0.000000 
#    y 0.000000 1.640700 0.000000 
#    z 0.000000 0.000000 1.618680 
# 
# From -- ./inp_files/19615.got.cif
#   From: 2010.03.12/outbox.cif.g09.slc.cpg/sg62_10_cif.got.tgz:19615.got - 2010.04.10 19:12:36.
