data_PCOD8250733
_publ_section_title
;
Structure prediction by ZEFSAII (Michael W. Deem and Ramdas Pophale) SiO2 
 PCOD8250733
Probable space group: P N M A
;
_chemical_formula_sum "Si O2"
_cell_formula_units_Z 48
_cell_length_a 15.091687
_cell_length_b 13.830086
_cell_length_c 11.612528
_cell_angle_alpha 90.000000
_cell_angle_beta 90.000000
_cell_angle_gamma 90.000000
_cell_volume 2423.759053
_symmetry_space_group_name_H-M "P N M A"
_symmetry_group_IT_number 62
_symmetry_cell_setting 'orthorhombic'
loop_
_space_group_symop_operation_xyz
x,y,z
1/2-x,-y,1/2+z
1/2+x,1/2-y,1/2-z
-x,1/2+y,-z
-x,-y,-z
1/2+x,y,1/2-z
1/2-x,1/2+y,1/2+z
x,1/2-y,z
loop_
_atom_site_type_symbol
_atom_site_label
_atom_site_fract_x
_atom_site_fract_y
_atom_site_fract_z
Si Si1 0.030743 0.645322 0.695448
Si Si2 0.814618 0.454408 0.183660
Si Si3 0.818017 0.363082 0.934517
Si Si4 0.524537 0.899214 0.053012
Si Si5 0.622467 0.507972 0.236788
Si Si6 0.857424 0.643862 0.296568
O O1 0.009923 0.750000 0.752393
O O2 0.128268 0.610022 0.729544
O O3 0.035895 0.667618 0.558120
O O4 0.958333 0.568109 0.738661
O O5 0.712592 0.447381 0.223063
O O6 0.848160 0.565738 0.194191
O O7 0.827940 0.413126 0.057281
O O8 0.846998 0.250000 0.938937
O O9 0.880973 0.425095 0.850196
O O10 0.717067 0.373911 0.893408
O O11 0.450636 0.859969 0.139388
O O12 0.612982 0.916819 0.129351
O O13 0.500000 0.000000 0.000000
O O14 0.846031 0.750000 0.240367
#
# Coordination Sequence:
#
# PCOD8250733 Si02
#       6
#     8   8   8   8   8   8
#     4  11  23  39  62  94 124 156 204 254 309 360
#     4  11  22  39  63  87 127 159 200 251 305 357
#     4  10  22  39  62  90 123 168 205 240 301 375
#     4  10  18  37  62  90 113 153 202 261 299 341
#     4  10  23  39  65  89 123 157 209 253 300 356
#     4  10  20  38  63  90 119 159 208 253 305 358
#
# _framework density 19.803947999999998
#
# number of rings (size 3 to 8) (size 9 to 14) (size 15 to 20)
#    0.000    1.667    3.333    3.000    2.333    4.667 
#    0.000    0.833    0.000    0.000    0.000    0.000 
#    0.000    0.000    0.000    0.000    0.000    0.000 
#
# Total GULP energy -594824.352393 kJ/mol
# GULP energy per Si atom -12392.174008 kJ/mol
# Density = 1.975887 g / cm^3
# Si number density = 19.803948 Si / 1000 Ang^3
#
#
#
# Elastic Constant Matrix: (Units=GPa)
#
#
# Indices 1 2 3 4 5 6 
#
# 1 115.1465 46.9258 47.4019 0.0000 0.0000 0.0000
# 2 46.9258 153.0662 63.4406 0.0000 0.0000 0.0000
# 3 47.4019 63.4406 104.7080 0.0000 0.0000 0.0000
# 4 0.0000 0.0000 0.0000 26.4935 0.0000 0.0000
# 5 0.0000 0.0000 0.0000 0.0000 26.2511 0.0000
# 6 0.0000 0.0000 0.0000 0.0000 0.0000 20.1152
#
#
#
# Elastic Compliance Matrix: (Units=1/GPa)
#
#
# Indices 1 2 3 4 5 6 
#
# 1 0.011014 -0.001749 -0.003926 0.000000 0.000000 0.000000
# 2 -0.001749 0.009002 -0.004662 0.000000 0.000000 0.000000
# 3 -0.003926 -0.004662 0.014152 0.000000 0.000000 0.000000
# 4 0.000000 0.000000 0.000000 0.037745 0.000000 0.000000
# 5 0.000000 0.000000 0.000000 0.000000 0.038094 0.000000
# 6 0.000000 0.000000 0.000000 0.000000 0.000000 0.049714
#
#
# Mechanical properties :
#
#
# Convention : Reuss Voigt Hill
#
# Bulk Modulus (GPa) = 74.11294 76.49525 75.30410
# Shear Modulus (GPa) = 27.04270 28.91544 27.97907
#
# Velocity S-wave (km/s) = 3.69930 3.82525 3.76280
# Velocity P-wave (km/s) = 7.46666 7.63021 7.54888
#
# Compressibility (1/GPa) = 0.01349292
#
# Stress axis : x y z
#
# Youngs Moduli (GPa) = 90.79589 111.09088 70.65954
#
# Poissons Ratio (x) = 0.19433 0.27742
# Poissons Ratio (y) = 0.15883 0.32942
# Poissons Ratio (z) = 0.35648 0.51791
#
# Static dielectric constant tensor:
#      x y z
#    x 3.601570 0.000000 0.000000 
#    y 0.000000 3.977430 0.000000 
#    z 0.000000 0.000000 3.988310 
# 
# 
# High freq. dielectric constant tensor:
#      x y z
#    x 1.766280 0.000000 0.000000 
#    y 0.000000 1.787240 0.000000 
#    z 0.000000 0.000000 1.759360 
# 
# From -- ./inp_files/13254.got.cif
#   From: 2010.03.12/outbox.cif.g09.slc.cpg/sg62_7_cif.got.tgz:13254.got - 2010.04.10 19:12:36.
