data_PCOD8250849
_publ_section_title
;
Structure prediction by ZEFSAII (Michael W. Deem and Ramdas Pophale) SiO2 
 PCOD8250849
Probable space group: P N M A
;
_chemical_formula_sum "Si O2"
_cell_formula_units_Z 48
_cell_length_a 23.193564
_cell_length_b 9.180353
_cell_length_c 13.783196
_cell_angle_alpha 90.000000
_cell_angle_beta 90.000000
_cell_angle_gamma 90.000000
_cell_volume 2934.788453
_symmetry_space_group_name_H-M "P N M A"
_symmetry_group_IT_number 62
_symmetry_cell_setting 'orthorhombic'
loop_
_space_group_symop_operation_xyz
x,y,z
1/2-x,-y,1/2+z
1/2+x,1/2-y,1/2-z
-x,1/2+y,-z
-x,-y,-z
1/2+x,y,1/2-z
1/2-x,1/2+y,1/2+z
x,1/2-y,z
loop_
_atom_site_type_symbol
_atom_site_label
_atom_site_fract_x
_atom_site_fract_y
_atom_site_fract_z
Si Si1 0.278751 0.580181 0.884668
Si Si2 0.067810 0.081107 0.101225
Si Si3 0.274944 0.579302 0.105476
Si Si4 0.838812 0.422138 0.780474
Si Si5 0.334635 0.417446 0.267176
Si Si6 0.435059 0.417754 0.405458
O O1 0.294627 0.750000 0.875493
O O2 0.325287 0.486209 0.825635
O O3 0.214860 0.548550 0.845478
O O4 0.280550 0.525636 0.995320
O O5 0.085274 0.250000 0.102727
O O6 0.000765 0.057688 0.126144
O O7 0.102568 0.994547 0.182716
O O8 0.082294 0.017778 0.995680
O O9 0.283130 0.750000 0.113444
O O10 0.212385 0.533276 0.146008
O O11 0.325501 0.507614 0.168930
O O12 0.847157 0.250000 0.773068
O O13 0.334204 0.250000 0.236646
O O14 0.395452 0.462709 0.314567
O O15 0.423520 0.250000 0.435668
#
# Coordination Sequence:
#
# PCOD8250849 Si02
#       6
#     8   8   8   8   8   8
#     4   9  17  30  47  67  92 121 151 183 223 270
#     4  10  19  30  47  70  94 122 155 188 224 270
#     4   9  18  31  47  68  94 122 151 187 229 271
#     4  10  19  31  47  68  95 123 151 186 228 271
#     4   9  17  30  48  68  92 121 150 183 225 272
#     4   9  18  32  48  68  95 124 152 186 229 272
#
# _framework density 16.355523999999999
#
# number of rings (size 3 to 8) (size 9 to 14) (size 15 to 20)
#    0.000    2.667    0.000    2.000    0.000    5.333 
#    0.000    3.333    0.000    1.000    0.000    0.000 
#    0.000    0.000    0.000    0.000    0.000    0.000 
#
# Total GULP energy -595312.853106 kJ/mol
# GULP energy per Si atom -12402.351106 kJ/mol
# Density = 1.631830 g / cm^3
# Si number density = 16.355524 Si / 1000 Ang^3
#
#
#
# Elastic Constant Matrix: (Units=GPa)
#
#
# Indices 1 2 3 4 5 6 
#
# 1 77.6004 39.6486 55.9852 0.0000 0.0000 0.0000
# 2 39.6486 63.2145 52.1552 0.0000 0.0000 0.0000
# 3 55.9852 52.1552 135.5099 0.0000 0.0000 0.0000
# 4 0.0000 0.0000 0.0000 31.8594 0.0000 0.0000
# 5 0.0000 0.0000 0.0000 0.0000 28.0151 0.0000
# 6 0.0000 0.0000 0.0000 0.0000 0.0000 24.3475
#
#
#
# Elastic Compliance Matrix: (Units=1/GPa)
#
#
# Indices 1 2 3 4 5 6 
#
# 1 0.021333 -0.008951 -0.005369 0.000000 0.000000 0.000000
# 2 -0.008951 0.026935 -0.006669 0.000000 0.000000 0.000000
# 3 -0.005369 -0.006669 0.012164 0.000000 0.000000 0.000000
# 4 0.000000 0.000000 0.000000 0.031388 0.000000 0.000000
# 5 0.000000 0.000000 0.000000 0.000000 0.035695 0.000000
# 6 0.000000 0.000000 0.000000 0.000000 0.000000 0.041072
#
#
# Mechanical properties :
#
#
# Convention : Reuss Voigt Hill
#
# Bulk Modulus (GPa) = 54.18311 63.54477 58.86394
# Shear Modulus (GPa) = 23.07161 25.41345 24.24253
#
# Velocity S-wave (km/s) = 3.75991 3.94612 3.85414
# Velocity P-wave (km/s) = 7.21453 7.72651 7.47491
#
# Compressibility (1/GPa) = 0.01845593
#
# Stress axis : x y z
#
# Youngs Moduli (GPa) = 46.87560 37.12580 82.20776
#
# Poissons Ratio (x) = 0.33231 0.44134
# Poissons Ratio (y) = 0.41958 0.54824
# Poissons Ratio (z) = 0.25166 0.24759
#
# Static dielectric constant tensor:
#      x y z
#    x 3.040450 0.000000 0.000000 
#    y 0.000000 3.107020 0.000000 
#    z 0.000000 0.000000 3.071160 
# 
# 
# High freq. dielectric constant tensor:
#      x y z
#    x 1.616810 0.000000 0.000000 
#    y 0.000000 1.633990 0.000000 
#    z 0.000000 0.000000 1.620280 
# 
# From -- ./inp_files/15120.got.cif
#   From: 2010.03.12/outbox.cif.g09.slc.cpg/sg62_8_cif.got.tgz:15120.got - 2010.04.10 19:12:36.
