data_PCOD8250911
_publ_section_title
;
Structure prediction by ZEFSAII (Michael W. Deem and Ramdas Pophale) SiO2 
 PCOD8250911
Probable space group: P N M A
;
_chemical_formula_sum "Si O2"
_cell_formula_units_Z 48
_cell_length_a 8.724367
_cell_length_b 21.586595
_cell_length_c 15.636949
_cell_angle_alpha 90.000000
_cell_angle_beta 90.000000
_cell_angle_gamma 90.000000
_cell_volume 2944.896864
_symmetry_space_group_name_H-M "P N M A"
_symmetry_group_IT_number 62
_symmetry_cell_setting 'orthorhombic'
loop_
_space_group_symop_operation_xyz
x,y,z
1/2-x,-y,1/2+z
1/2+x,1/2-y,1/2-z
-x,1/2+y,-z
-x,-y,-z
1/2+x,y,1/2-z
1/2-x,1/2+y,1/2+z
x,1/2-y,z
loop_
_atom_site_type_symbol
_atom_site_label
_atom_site_fract_x
_atom_site_fract_y
_atom_site_fract_z
Si Si1 0.237963 0.509555 0.271958
Si Si2 0.541969 0.322900 0.333589
Si Si3 0.068846 0.040859 0.424770
Si Si4 0.594723 0.584701 0.543826
Si Si5 0.016932 0.961829 0.130403
Si Si6 0.642058 0.885929 0.810169
O O1 0.103272 0.501762 0.341888
O O2 0.369158 0.554109 0.311310
O O3 0.307345 0.441954 0.251720
O O4 0.170658 0.540726 0.187093
O O5 0.535094 0.250000 0.342544
O O6 0.442037 0.350388 0.411561
O O7 0.474061 0.342971 0.242476
O O8 0.715646 0.345671 0.341335
O O9 0.223698 0.073206 0.457151
O O10 0.942784 0.091076 0.396146
O O11 0.000000 0.000000 0.500000
O O12 0.534898 0.587168 0.446038
O O13 0.502329 0.531137 0.593646
#
# Coordination Sequence:
#
# PCOD8250911 Si02
#       6
#     8   8   8   8   8   8
#     4  11  17  31  49  75 105 141 162 210 263 325
#     4  12  23  36  53  73 106 152 189 220 256 304
#     4  11  21  30  53  77 109 141 170 220 273 318
#     4  10  20  35  49  78 105 143 174 220 263 316
#     4  10  19  30  52  74 110 135 167 213 274 318
#     4  12  19  36  49  75 108 141 187 215 255 314
#
# _framework density 16.299382999999999
#
# number of rings (size 3 to 8) (size 9 to 14) (size 15 to 20)
#    0.000    1.000    8.333    1.500    4.667    0.000 
#    0.000    0.833    0.000    0.000    0.000    1.167 
#    0.000    0.000    0.000    0.000    0.000    0.000 
#
# Total GULP energy -595292.731284 kJ/mol
# GULP energy per Si atom -12401.931902 kJ/mol
# Density = 1.626228 g / cm^3
# Si number density = 16.299383 Si / 1000 Ang^3
#
#
#
# Elastic Constant Matrix: (Units=GPa)
#
#
# Indices 1 2 3 4 5 6 
#
# 1 112.3217 46.9304 60.7431 0.0000 0.0000 0.0000
# 2 46.9304 76.0818 51.4237 0.0000 0.0000 0.0000
# 3 60.7431 51.4237 114.2931 0.0000 0.0000 0.0000
# 4 0.0000 0.0000 0.0000 18.3504 0.0000 0.0000
# 5 0.0000 0.0000 0.0000 0.0000 38.4896 0.0000
# 6 0.0000 0.0000 0.0000 0.0000 0.0000 15.8271
#
#
#
# Elastic Compliance Matrix: (Units=1/GPa)
#
#
# Indices 1 2 3 4 5 6 
#
# 1 0.013740 -0.005086 -0.005014 0.000000 0.000000 0.000000
# 2 -0.005086 0.020771 -0.006642 0.000000 0.000000 0.000000
# 3 -0.005014 -0.006642 0.014402 0.000000 0.000000 0.000000
# 4 0.000000 0.000000 0.000000 0.054495 0.000000 0.000000
# 5 0.000000 0.000000 0.000000 0.000000 0.025981 0.000000
# 6 0.000000 0.000000 0.000000 0.000000 0.000000 0.063183
#
#
# Mechanical properties :
#
#
# Convention : Reuss Voigt Hill
#
# Bulk Modulus (GPa) = 64.81510 68.98789 66.90150
# Shear Modulus (GPa) = 21.62647 24.10672 22.86660
#
# Velocity S-wave (km/s) = 3.64652 3.84994 3.74961
# Velocity P-wave (km/s) = 7.58822 7.88544 7.73826
#
# Compressibility (1/GPa) = 0.01542850
#
# Stress axis : x y z
#
# Youngs Moduli (GPa) = 72.78257 48.14500 69.43282
#
# Poissons Ratio (x) = 0.24489 0.34811
# Poissons Ratio (y) = 0.37020 0.46117
# Poissons Ratio (z) = 0.36490 0.31978
#
# Static dielectric constant tensor:
#      x y z
#    x 3.326160 0.000000 0.000000 
#    y 0.000000 2.619170 0.000000 
#    z 0.000000 0.000000 3.218910 
# 
# 
# High freq. dielectric constant tensor:
#      x y z
#    x 1.651550 0.000000 0.000000 
#    y 0.000000 1.559910 0.000000 
#    z 0.000000 0.000000 1.634180 
# 
# From -- ./inp_files/16928.got.cif
#   From: 2010.03.12/outbox.cif.g09.slc.cpg/sg62_9_cif.got.tgz:16928.got - 2010.04.10 19:12:36.
