data_PCOD8250346
_publ_section_title
;
Structure prediction by ZEFSAII (Michael W. Deem and Ramdas Pophale) SiO2 
 PCOD8250346
Probable space group: P N M A
;
_chemical_formula_sum "Si O2"
_cell_formula_units_Z 64
_cell_length_a 30.323184
_cell_length_b 8.704594
_cell_length_c 14.555420
_cell_angle_alpha 90.000000
_cell_angle_beta 90.000000
_cell_angle_gamma 90.000000
_cell_volume 3841.917745
_symmetry_space_group_name_H-M "P N M A"
_symmetry_group_IT_number 62
_symmetry_cell_setting 'orthorhombic'
loop_
_space_group_symop_operation_xyz
x,y,z
1/2-x,-y,1/2+z
1/2+x,1/2-y,1/2-z
-x,1/2+y,-z
-x,-y,-z
1/2+x,y,1/2-z
1/2-x,1/2+y,1/2+z
x,1/2-y,z
loop_
_atom_site_type_symbol
_atom_site_label
_atom_site_fract_x
_atom_site_fract_y
_atom_site_fract_z
Si Si1 0.222152 0.422876 0.006293
Si Si2 0.449778 0.568807 0.096243
Si Si3 0.824596 0.422677 0.482672
Si Si4 0.794597 0.430320 0.183603
Si Si5 0.136078 0.568654 0.329882
Si Si6 0.287009 0.432802 0.703234
Si Si7 0.047117 0.931101 0.399408
Si Si8 0.137944 0.071149 0.689807
O O1 0.202822 0.250000 0.007069
O O2 0.273864 0.417812 0.991847
O O3 0.210218 0.505670 0.100640
O O4 0.202178 0.516567 0.921412
O O5 0.448542 0.750000 0.083342
O O6 0.498261 0.512458 0.130927
O O7 0.412642 0.518501 0.170018
O O8 0.438927 0.497192 0.997877
O O9 0.840996 0.250000 0.456996
O O10 0.848775 0.492290 0.571021
O O11 0.832624 0.539044 0.399801
O O12 0.786779 0.250000 0.189328
O O13 0.755494 0.509497 0.241082
O O14 0.842049 0.473728 0.226664
O O15 0.141905 0.750000 0.328223
O O16 0.167845 0.502730 0.250625
O O17 0.084024 0.520807 0.322648
O O18 0.284735 0.250000 0.701910
O O19 0.047252 0.750000 0.411510
O O20 0.140832 0.250000 0.714488
#
# Coordination Sequence:
#
# PCOD8250346 Si02
#       8
#     8   8   8   8   8   8   8   8
#     4  11  22  37  52  71 100 132 168 209 251 294
#     4   9  18  29  44  71 101 129 164 205 248 291
#     4  10  18  30  48  71  99 133 169 201 239 294
#     4  12  24  36  51  72  97 133 174 209 249 296
#     4   9  17  30  49  71  97 133 168 198 236 289
#     4  11  21  35  52  74 101 131 168 208 248 294
#     4   9  16  29  48  69  98 134 166 198 241 296
#     4  11  21  32  47  71 102 135 169 210 251 292
#
# _framework density 16.658346999999999
#
# number of rings (size 3 to 8) (size 9 to 14) (size 15 to 20)
#    0.000    1.750    3.750    2.250    0.000    1.000 
#    0.000    1.250    0.000    0.000    0.000    0.875 
#    0.000    0.000    0.000    0.000    0.000    0.000 
#
# Total GULP energy -793240.649143 kJ/mol
# GULP energy per Si atom -12394.385143 kJ/mol
# Density = 1.662043 g / cm^3
# Si number density = 16.658347 Si / 1000 Ang^3
#
#
#
# Elastic Constant Matrix: (Units=GPa)
#
#
# Indices 1 2 3 4 5 6 
#
# 1 112.8530 26.4449 48.1975 0.0000 0.0000 0.0000
# 2 26.4449 58.2782 27.1119 0.0000 0.0000 0.0000
# 3 48.1975 27.1119 92.1980 0.0000 0.0000 0.0000
# 4 0.0000 0.0000 0.0000 18.6922 0.0000 0.0000
# 5 0.0000 0.0000 0.0000 0.0000 23.0574 0.0000
# 6 0.0000 0.0000 0.0000 0.0000 0.0000 16.4079
#
#
#
# Elastic Compliance Matrix: (Units=1/GPa)
#
#
# Indices 1 2 3 4 5 6 
#
# 1 0.011811 -0.002881 -0.005327 0.000000 0.000000 0.000000
# 2 -0.002881 0.020581 -0.004546 0.000000 0.000000 0.000000
# 3 -0.005327 -0.004546 0.014968 0.000000 0.000000 0.000000
# 4 0.000000 0.000000 0.000000 0.053498 0.000000 0.000000
# 5 0.000000 0.000000 0.000000 0.000000 0.043370 0.000000
# 6 0.000000 0.000000 0.000000 0.000000 0.000000 0.060946
#
#
# Mechanical properties :
#
#
# Convention : Reuss Voigt Hill
#
# Bulk Modulus (GPa) = 45.76321 51.87087 48.81704
# Shear Modulus (GPa) = 21.01121 22.40316 21.70718
#
# Velocity S-wave (km/s) = 3.55533 3.67121 3.61374
# Velocity P-wave (km/s) = 6.66222 7.01257 6.83964
#
# Compressibility (1/GPa) = 0.02185161
#
# Stress axis : x y z
#
# Youngs Moduli (GPa) = 84.66359 48.58755 66.80967
#
# Poissons Ratio (x) = 0.14000 0.35591
# Poissons Ratio (y) = 0.24395 0.30371
# Poissons Ratio (z) = 0.45103 0.22088
#
# Static dielectric constant tensor:
#      x y z
#    x 3.584230 0.000000 0.000000 
#    y 0.000000 3.119810 0.000000 
#    z 0.000000 0.000000 3.052200 
# 
# 
# High freq. dielectric constant tensor:
#      x y z
#    x 1.641330 0.000000 0.000000 
#    y 0.000000 1.639490 0.000000 
#    z 0.000000 0.000000 1.613950 
# 
# From -- ./inp_files/21273.got.cif
#   From: 2010.03.12/outbox.cif.g09.slc.cpg/sg62_11_cif.got.tgz:21273.got - 2010.04.10 19:12:36.
