data_PCOD8250105
_publ_section_title
;
Structure prediction by ZEFSAII (Michael W. Deem and Ramdas Pophale) SiO2 
 PCOD8250105
Probable space group: P N M A
;
_chemical_formula_sum "Si O2"
_cell_formula_units_Z 48
_cell_length_a 9.397732
_cell_length_b 15.981874
_cell_length_c 17.099095
_cell_angle_alpha 90.000000
_cell_angle_beta 90.000000
_cell_angle_gamma 90.000000
_cell_volume 2568.170680
_symmetry_space_group_name_H-M "P N M A"
_symmetry_group_IT_number 62
_symmetry_cell_setting 'orthorhombic'
loop_
_space_group_symop_operation_xyz
x,y,z
1/2-x,-y,1/2+z
1/2+x,1/2-y,1/2-z
-x,1/2+y,-z
-x,-y,-z
1/2+x,y,1/2-z
1/2-x,1/2+y,1/2+z
x,1/2-y,z
loop_
_atom_site_type_symbol
_atom_site_label
_atom_site_fract_x
_atom_site_fract_y
_atom_site_fract_z
Si Si1 0.489720 0.994568 0.315409
Si Si2 0.101548 0.077181 0.517293
Si Si3 0.913274 0.423168 0.037893
Si Si4 0.343121 0.343770 0.040436
Si Si5 0.597068 0.343746 0.576786
Si Si6 0.686850 0.992584 0.837820
O O1 0.428897 0.908371 0.352431
O O2 0.452488 0.074508 0.370463
O O3 0.658175 0.989042 0.303459
O O4 0.424285 0.013572 0.231761
O O5 0.243850 0.071291 0.466291
O O6 0.006364 0.156562 0.492108
O O7 0.144713 0.072680 0.608596
O O8 0.000000 0.000000 0.500000
O O9 0.000000 0.500000 0.000000
O O10 0.970782 0.343817 0.989083
O O11 0.308657 0.250000 0.069961
O O12 0.316699 0.407149 0.111904
O O13 0.242451 0.368816 0.967596
O O14 0.604849 0.250000 0.611841
#
# Coordination Sequence:
#
# PCOD8250105 Si02
#       6
#     8   8   8   8   8   8
#     4  11  22  36  59  88 114 156 195 234 290 357
#     4  10  19  34  59  84 112 153 197 241 279 341
#     4  10  17  36  59  81 109 152 204 234 276 341
#     4  10  22  40  61  87 118 152 196 250 297 337
#     4  10  20  39  62  83 113 153 198 248 291 335
#     4  11  22  37  59  86 121 154 193 238 288 354
#
# _framework density 18.690346000000002
#
# number of rings (size 3 to 8) (size 9 to 14) (size 15 to 20)
#    0.000    1.667    5.000    3.000    7.000    0.667 
#    0.000    3.333    0.000    0.000    0.000    0.000 
#    0.000    0.000    0.000    0.000    0.000    0.000 
#
# Total GULP energy -594813.367636 kJ/mol
# GULP energy per Si atom -12391.945159 kJ/mol
# Density = 1.864781 g / cm^3
# Si number density = 18.690346 Si / 1000 Ang^3
#
#
#
# Elastic Constant Matrix: (Units=GPa)
#
#
# Indices 1 2 3 4 5 6 
#
# 1 152.7409 18.3616 31.7563 0.0000 0.0000 0.0000
# 2 18.3616 75.9006 22.4876 0.0000 0.0000 0.0000
# 3 31.7563 22.4876 89.0850 0.0000 0.0000 0.0000
# 4 0.0000 0.0000 0.0000 19.2533 0.0000 0.0000
# 5 0.0000 0.0000 0.0000 0.0000 39.9137 0.0000
# 6 0.0000 0.0000 0.0000 0.0000 0.0000 18.6151
#
#
#
# Elastic Compliance Matrix: (Units=1/GPa)
#
#
# Indices 1 2 3 4 5 6 
#
# 1 0.007148 -0.001053 -0.002282 0.000000 0.000000 0.000000
# 2 -0.001053 0.014395 -0.003258 0.000000 0.000000 0.000000
# 3 -0.002282 -0.003258 0.012861 0.000000 0.000000 0.000000
# 4 0.000000 0.000000 0.000000 0.051939 0.000000 0.000000
# 5 0.000000 0.000000 0.000000 0.000000 0.025054 0.000000
# 6 0.000000 0.000000 0.000000 0.000000 0.000000 0.053720
#
#
# Mechanical properties :
#
#
# Convention : Reuss Voigt Hill
#
# Bulk Modulus (GPa) = 47.13151 51.43752 49.28452
# Shear Modulus (GPa) = 26.97198 31.89783 29.43491
#
# Velocity S-wave (km/s) = 3.80293 4.13564 3.97277
# Velocity P-wave (km/s) = 6.67494 7.09826 6.88985
#
# Compressibility (1/GPa) = 0.02121723
#
# Stress axis : x y z
#
# Youngs Moduli (GPa) = 139.89654 69.46731 77.75250
#
# Poissons Ratio (x) = 0.07315 0.17745
# Poissons Ratio (y) = 0.14732 0.25335
# Poissons Ratio (z) = 0.31928 0.22635
#
# Static dielectric constant tensor:
#      x y z
#    x 3.996640 0.000000 0.000000 
#    y 0.000000 3.528990 0.000000 
#    z 0.000000 0.000000 3.461360 
# 
# 
# High freq. dielectric constant tensor:
#      x y z
#    x 1.749310 0.000000 0.000000 
#    y 0.000000 1.699750 0.000000 
#    z 0.000000 0.000000 1.707480 
# 
# From -- ./inp_files/22328.got.cif
#   From: 2010.03.12/outbox.cif.g09.slc.cpg/sg62_12_cif.got.tgz:22328.got - 2010.04.10 19:12:36.
