data_PCOD8250654
_publ_section_title
;
Structure prediction by ZEFSAII (Michael W. Deem and Ramdas Pophale) SiO2 
 PCOD8250654
Probable space group: P N M A
;
_chemical_formula_sum "Si O2"
_cell_formula_units_Z 64
_cell_length_a 9.855261
_cell_length_b 12.912171
_cell_length_c 27.080730
_cell_angle_alpha 90.000000
_cell_angle_beta 90.000000
_cell_angle_gamma 90.000000
_cell_volume 3446.099132
_symmetry_space_group_name_H-M "P N M A"
_symmetry_group_IT_number 62
_symmetry_cell_setting 'orthorhombic'
loop_
_space_group_symop_operation_xyz
x,y,z
1/2-x,-y,1/2+z
1/2+x,1/2-y,1/2-z
-x,1/2+y,-z
-x,-y,-z
1/2+x,y,1/2-z
1/2-x,1/2+y,1/2+z
x,1/2-y,z
loop_
_atom_site_type_symbol
_atom_site_label
_atom_site_fract_x
_atom_site_fract_y
_atom_site_fract_z
Si Si1 0.479840 0.938558 0.170370
Si Si2 0.493447 0.865550 0.274685
Si Si3 0.333427 0.866041 0.606089
Si Si4 0.624041 0.127548 0.032648
Si Si5 0.889347 0.979786 0.430907
Si Si6 0.735038 0.986686 0.690597
Si Si7 0.135435 0.633373 0.898694
Si Si8 0.213660 0.037103 0.204400
O O1 0.491017 0.854880 0.214504
O O2 0.627560 0.986932 0.161972
O O3 0.432051 0.904915 0.115266
O O4 0.368698 0.021626 0.187616
O O5 0.508514 0.750000 0.296466
O O6 0.349987 0.912209 0.292546
O O7 0.621152 0.932685 0.293803
O O8 0.275945 0.750000 0.596523
O O9 0.245000 0.954990 0.581149
O O10 0.482056 0.876370 0.581608
O O11 0.348666 0.881932 0.665550
O O12 0.595880 0.250000 0.036922
O O13 0.502720 0.065214 0.057744
O O14 0.762946 0.091883 0.059291
O O15 0.639004 0.097355 0.975537
O O16 0.642406 0.924637 0.653245
O O17 0.776957 0.919997 0.739467
O O18 0.176285 0.750000 0.886674
#
# Coordination Sequence:
#
# PCOD8250654 Si02
#       8
#     8   8   8   8   8   8   8   8
#     4   9  19  32  52  79 104 142 178 217 269 315
#     4  10  20  34  53  76 109 148 182 219 266 320
#     4  10  20  36  58  82 107 143 185 223 272 328
#     4  10  21  37  58  84 110 141 181 225 285 335
#     4  10  20  37  59  81 111 144 177 234 277 321
#     4  10  18  34  53  76 113 142 181 217 264 321
#     4  10  20  35  57  80 105 142 181 224 276 328
#     4   9  19  33  52  78 111 143 178 223 265 317
#
# _framework density 18.571725000000001
#
# number of rings (size 3 to 8) (size 9 to 14) (size 15 to 20)
#    0.000    2.250    2.500    0.375    0.000    6.000 
#    0.000    1.875    0.000    0.000    0.000    0.000 
#    0.000    0.000    0.000    0.000    0.000    0.000 
#
# Total GULP energy -792923.661694 kJ/mol
# GULP energy per Si atom -12389.432214 kJ/mol
# Density = 1.852945 g / cm^3
# Si number density = 18.571725 Si / 1000 Ang^3
#
#
#
# Elastic Constant Matrix: (Units=GPa)
#
#
# Indices 1 2 3 4 5 6 
#
# 1 101.0636 25.2964 26.3128 0.0000 0.0000 0.0000
# 2 25.2964 55.4624 19.6981 0.0000 0.0000 0.0000
# 3 26.3128 19.6981 88.3703 0.0000 0.0000 0.0000
# 4 0.0000 0.0000 0.0000 18.5297 0.0000 0.0000
# 5 0.0000 0.0000 0.0000 0.0000 25.0431 0.0000
# 6 0.0000 0.0000 0.0000 0.0000 0.0000 20.9947
#
#
#
# Elastic Compliance Matrix: (Units=1/GPa)
#
#
# Indices 1 2 3 4 5 6 
#
# 1 0.011650 -0.004433 -0.002481 0.000000 0.000000 0.000000
# 2 -0.004433 0.021267 -0.003421 0.000000 0.000000 0.000000
# 3 -0.002481 -0.003421 0.012817 0.000000 0.000000 0.000000
# 4 0.000000 0.000000 0.000000 0.053968 0.000000 0.000000
# 5 0.000000 0.000000 0.000000 0.000000 0.039931 0.000000
# 6 0.000000 0.000000 0.000000 0.000000 0.000000 0.047631
#
#
# Mechanical properties :
#
#
# Convention : Reuss Voigt Hill
#
# Bulk Modulus (GPa) = 39.89460 43.05676 41.47568
# Shear Modulus (GPa) = 23.11738 24.48607 23.80173
#
# Velocity S-wave (km/s) = 3.53195 3.63500 3.58384
# Velocity P-wave (km/s) = 6.17745 6.39156 6.28541
#
# Compressibility (1/GPa) = 0.02506605
#
# Stress axis : x y z
#
# Youngs Moduli (GPa) = 85.83583 47.02167 78.02019
#
# Poissons Ratio (x) = 0.20842 0.19356
# Poissons Ratio (y) = 0.38047 0.26688
# Poissons Ratio (z) = 0.21295 0.16084
#
# Static dielectric constant tensor:
#      x y z
#    x 3.553530 0.000000 0.000000 
#    y 0.000000 3.031340 0.000000 
#    z 0.000000 0.000000 3.559140 
# 
# 
# High freq. dielectric constant tensor:
#      x y z
#    x 1.740940 0.000000 0.000000 
#    y 0.000000 1.683700 0.000000 
#    z 0.000000 0.000000 1.720000 
# 
# From -- ./inp_files/29011.got.cif
#   From: 2010.03.12/outbox.cif.g09.slc.cpg/sg62_15_cif.got.tgz:29011.got - 2010.04.10 19:12:36.
