data_PCOD8250027
_publ_section_title
;
Structure prediction by ZEFSAII (Michael W. Deem and Ramdas Pophale) SiO2 
 PCOD8250027
Probable space group: P N M A
;
_chemical_formula_sum "Si O2"
_cell_formula_units_Z 40
_cell_length_a 5.000430
_cell_length_b 23.546351
_cell_length_c 21.241399
_cell_angle_alpha 90.000000
_cell_angle_beta 90.000000
_cell_angle_gamma 90.000000
_cell_volume 2501.002251
_symmetry_space_group_name_H-M "P N M A"
_symmetry_group_IT_number 62
_symmetry_cell_setting 'orthorhombic'
loop_
_space_group_symop_operation_xyz
x,y,z
1/2-x,-y,1/2+z
1/2+x,1/2-y,1/2-z
-x,1/2+y,-z
-x,-y,-z
1/2+x,y,1/2-z
1/2-x,1/2+y,1/2+z
x,1/2-y,z
loop_
_atom_site_type_symbol
_atom_site_label
_atom_site_fract_x
_atom_site_fract_y
_atom_site_fract_z
Si Si1 0.158890 0.686773 0.637137
Si Si2 0.213693 0.427838 0.490501
Si Si3 0.158561 0.812988 0.947046
Si Si4 0.314936 0.074377 0.209280
Si Si5 0.285905 0.973720 0.576810
O O1 0.197103 0.750000 0.666111
O O2 0.360821 0.677943 0.578928
O O3 0.215594 0.640446 0.690397
O O4 0.859161 0.678819 0.611610
O O5 0.278417 0.360880 0.499640
O O6 0.413323 0.454631 0.438662
O O7 0.244592 0.460231 0.557091
O O8 0.915550 0.434476 0.463421
O O9 0.192203 0.750000 0.977008
O O10 0.607428 0.061077 0.235472
O O11 0.265932 0.032644 0.150635
#
# Coordination Sequence:
#
# PCOD8250027 Si02
#       5
#     8   8   8   8   8
#     4  10  20  32  44  62  89 121 158 187 214 252
#     4  10  17  32  51  66  89 110 149 190 225 281
#     4  10  17  29  49  68  90 114 144 188 229 264
#     4  12  22  32  46  62  91 122 158 191 216 258
#     4  10  20  31  48  68  85 117 151 186 232 261
#
# _framework density 15.993589999999999
#
# number of rings (size 3 to 8) (size 9 to 14) (size 15 to 20)
#    0.000    1.600    4.000    2.400    0.000    0.800 
#    0.000    0.000    0.000    0.000    0.000    0.000 
#    0.000    1.600    0.000    0.000    0.000    4.800 
#
# Total GULP energy -495988.150982 kJ/mol
# GULP energy per Si atom -12399.703775 kJ/mol
# Density = 1.595719 g / cm^3
# Si number density = 15.993590 Si / 1000 Ang^3
#
#
#
# Elastic Constant Matrix: (Units=GPa)
#
#
# Indices 1 2 3 4 5 6 
#
# 1 60.5246 9.0466 4.1332 0.0000 0.0000 0.0000
# 2 9.0466 90.3103 45.5147 0.0000 0.0000 0.0000
# 3 4.1332 45.5147 61.5857 0.0000 0.0000 0.0000
# 4 0.0000 0.0000 0.0000 29.7482 0.0000 0.0000
# 5 0.0000 0.0000 0.0000 0.0000 19.6576 0.0000
# 6 0.0000 0.0000 0.0000 0.0000 0.0000 18.4797
#
#
#
# Elastic Compliance Matrix: (Units=1/GPa)
#
#
# Indices 1 2 3 4 5 6 
#
# 1 0.016775 -0.001774 0.000185 0.000000 0.000000 0.000000
# 2 -0.001774 0.017833 -0.013060 0.000000 0.000000 0.000000
# 3 0.000185 -0.013060 0.025877 0.000000 0.000000 0.000000
# 4 0.000000 0.000000 0.000000 0.033616 0.000000 0.000000
# 5 0.000000 0.000000 0.000000 0.000000 0.050871 0.000000
# 6 0.000000 0.000000 0.000000 0.000000 0.000000 0.054113
#
#
# Mechanical properties :
#
#
# Convention : Reuss Voigt Hill
#
# Bulk Modulus (GPa) = 32.06464 36.64552 34.35508
# Shear Modulus (GPa) = 20.94001 23.82552 22.38276
#
# Velocity S-wave (km/s) = 3.62232 3.86384 3.74503
# Velocity P-wave (km/s) = 6.13081 6.54737 6.34251
#
# Compressibility (1/GPa) = 0.03118700
#
# Stress axis : x y z
#
# Youngs Moduli (GPa) = 59.61370 56.07684 38.64405
#
# Poissons Ratio (x) = 0.09946 -0.00715
# Poissons Ratio (y) = 0.10573 0.50470
# Poissons Ratio (z) = -0.01103 0.73237
#
# Static dielectric constant tensor:
#      x y z
#    x 3.263540 0.000000 0.000000 
#    y 0.000000 3.325420 0.000000 
#    z 0.000000 0.000000 2.665680 
# 
# 
# High freq. dielectric constant tensor:
#      x y z
#    x 1.644570 0.000000 0.000000 
#    y 0.000000 1.609310 0.000000 
#    z 0.000000 0.000000 1.557070 
# 
# From -- ./inp_files/25270.got.cif
#   From: 2010.03.12/outbox.cif.g09.slc.cpg/sg62_13_cif.got.tgz:25270.got - 2010.04.10 19:12:36.
