data_PCOD8250502
_publ_section_title
;
Structure prediction by ZEFSAII (Michael W. Deem and Ramdas Pophale) SiO2 
 PCOD8250502
Probable space group: P N M A
;
_chemical_formula_sum "Si O2"
_cell_formula_units_Z 32
_cell_length_a 14.371752
_cell_length_b 8.711446
_cell_length_c 12.723697
_cell_angle_alpha 90.000000
_cell_angle_beta 90.000000
_cell_angle_gamma 90.000000
_cell_volume 1592.990851
_symmetry_space_group_name_H-M "P N M A"
_symmetry_group_IT_number 62
_symmetry_cell_setting 'orthorhombic'
loop_
_space_group_symop_operation_xyz
x,y,z
1/2-x,-y,1/2+z
1/2+x,1/2-y,1/2-z
-x,1/2+y,-z
-x,-y,-z
1/2+x,y,1/2-z
1/2-x,1/2+y,1/2+z
x,1/2-y,z
loop_
_atom_site_type_symbol
_atom_site_label
_atom_site_fract_x
_atom_site_fract_y
_atom_site_fract_z
Si Si1 0.561339 0.567396 0.593107
Si Si2 0.910141 0.068483 0.780424
Si Si3 0.210378 0.068873 0.035822
Si Si4 0.906893 0.428688 0.543575
O O1 0.500000 0.500000 0.500000
O O2 0.561196 0.750000 0.595369
O O3 0.513550 0.501449 0.698380
O O4 0.664667 0.504280 0.569978
O O5 0.912729 0.250000 0.797692
O O6 0.884750 0.018406 0.662499
O O7 0.831757 0.999587 0.857370
O O8 0.192779 0.250000 0.034239
O O9 0.319628 0.027382 0.030414
O O10 0.924312 0.250000 0.543816
O O11 0.000000 0.500000 0.500000
#
# Coordination Sequence:
#
# PCOD8250502 Si02
#       4
#     8   8   8   8
#     4  10  18  31  54  84 111 142 182 228 274 325
#     4  10  20  37  58  83 113 149 185 228 281 332
#     4  10  20  37  58  84 113 146 188 234 276 330
#     4  10  24  41  58  81 114 149 187 230 278 331
#
# _framework density 20.088000000000001
#
# number of rings (size 3 to 8) (size 9 to 14) (size 15 to 20)
#    0.000    2.000    0.000    6.750    0.000    6.000 
#    0.000    7.500    0.000    0.000    0.000    0.000 
#    0.000    0.000    0.000    0.000    0.000    0.000 
#
# Total GULP energy -396651.628418 kJ/mol
# GULP energy per Si atom -12395.363388 kJ/mol
# Density = 2.004228 g / cm^3
# Si number density = 20.088000 Si / 1000 Ang^3
#
#
#
# Elastic Constant Matrix: (Units=GPa)
#
#
# Indices 1 2 3 4 5 6 
#
# 1 150.0771 60.1078 73.0553 0.0000 0.0000 0.0000
# 2 60.1078 121.5614 52.7975 0.0000 0.0000 0.0000
# 3 73.0553 52.7975 113.9741 0.0000 0.0000 0.0000
# 4 0.0000 0.0000 0.0000 28.7581 0.0000 0.0000
# 5 0.0000 0.0000 0.0000 0.0000 29.8331 0.0000
# 6 0.0000 0.0000 0.0000 0.0000 0.0000 34.4360
#
#
#
# Elastic Compliance Matrix: (Units=1/GPa)
#
#
# Indices 1 2 3 4 5 6 
#
# 1 0.010401 -0.002813 -0.005364 0.000000 0.000000 0.000000
# 2 -0.002813 0.011059 -0.003320 0.000000 0.000000 0.000000
# 3 -0.005364 -0.003320 0.013750 0.000000 0.000000 0.000000
# 4 0.000000 0.000000 0.000000 0.034773 0.000000 0.000000
# 5 0.000000 0.000000 0.000000 0.000000 0.033520 0.000000
# 6 0.000000 0.000000 0.000000 0.000000 0.000000 0.029039
#
#
# Mechanical properties :
#
#
# Convention : Reuss Voigt Hill
#
# Bulk Modulus (GPa) = 81.85629 84.17042 83.01335
# Shear Modulus (GPa) = 31.32685 31.91557 31.62121
#
# Velocity S-wave (km/s) = 3.95331 3.99028 3.97184
# Velocity P-wave (km/s) = 7.85338 7.95120 7.90244
#
# Compressibility (1/GPa) = 0.01221653
#
# Stress axis : x y z
#
# Youngs Moduli (GPa) = 96.14542 90.42183 72.72874
#
# Poissons Ratio (x) = 0.25439 0.39008
# Poissons Ratio (y) = 0.27049 0.24145
# Poissons Ratio (z) = 0.51568 0.30018
#
# Static dielectric constant tensor:
#      x y z
#    x 4.169940 0.000000 0.000000 
#    y 0.000000 3.756120 0.000000 
#    z 0.000000 0.000000 3.786310 
# 
# 
# High freq. dielectric constant tensor:
#      x y z
#    x 1.786910 0.000000 0.000000 
#    y 0.000000 1.794030 0.000000 
#    z 0.000000 0.000000 1.772620 
# 
# From -- ./inp_files/12830.got.cif
#   From: 2010.03.12/outbox.cif.g09.slc.cpg/sg62_7_cif.got.tgz:12830.got - 2010.04.10 19:12:36.
