data_PCOD8250139
_publ_section_title
;
Structure prediction by ZEFSAII (Michael W. Deem and Ramdas Pophale) SiO2 
 PCOD8250139
Probable space group: P N M A
;
_chemical_formula_sum "Si O2"
_cell_formula_units_Z 64
_cell_length_a 13.674138
_cell_length_b 9.174179
_cell_length_c 33.843262
_cell_angle_alpha 90.000000
_cell_angle_beta 90.000000
_cell_angle_gamma 90.000000
_cell_volume 4245.603025
_symmetry_space_group_name_H-M "P N M A"
_symmetry_group_IT_number 62
_symmetry_cell_setting 'orthorhombic'
loop_
_space_group_symop_operation_xyz
x,y,z
1/2-x,-y,1/2+z
1/2+x,1/2-y,1/2-z
-x,1/2+y,-z
-x,-y,-z
1/2+x,y,1/2-z
1/2-x,1/2+y,1/2+z
x,1/2-y,z
loop_
_atom_site_type_symbol
_atom_site_label
_atom_site_fract_x
_atom_site_fract_y
_atom_site_fract_z
Si Si1 0.391799 0.418703 0.270907
Si Si2 0.200990 0.583922 0.687994
Si Si3 0.784080 0.078841 0.695406
Si Si4 0.387444 0.579335 0.116267
Si Si5 0.883001 0.914316 0.537506
Si Si6 0.112943 0.918976 0.385407
Si Si7 0.611472 0.082166 0.264238
Si Si8 0.115838 0.585288 0.538264
O O1 0.370704 0.250000 0.280065
O O2 0.366840 0.453309 0.225441
O O3 0.324132 0.512959 0.299854
O O4 0.503831 0.462427 0.279043
O O5 0.183402 0.750000 0.674039
O O6 0.175520 0.474258 0.653175
O O7 0.314079 0.557856 0.699609
O O8 0.779425 0.250000 0.702319
O O9 0.821705 0.038817 0.651977
O O10 0.859688 0.013945 0.726807
O O11 0.370779 0.750000 0.110349
O O12 0.500675 0.541360 0.124191
O O13 0.348178 0.498544 0.077250
O O14 0.842325 0.750000 0.535758
O O15 0.999463 0.915506 0.536366
O O16 0.846233 0.989304 0.577740
O O17 0.841096 0.003234 0.500100
O O18 0.121807 0.750000 0.396679
O O19 0.613494 0.250000 0.250197
O O20 0.156414 0.750000 0.539019
#
# Coordination Sequence:
#
# PCOD8250139 Si02
#       8
#     8   8   8   8   8   8   8   8
#     4   9  18  32  47  61  81 111 144 177 213 253
#     4   9  17  28  42  61  82 105 137 174 211 249
#     4  10  19  29  43  64  87 110 140 177 214 252
#     4  10  18  27  40  58  82 111 142 173 203 241
#     4   9  16  25  39  58  78 105 140 171 200 239
#     4   9  18  29  39  56  84 114 140 169 206 245
#     4   9  18  32  47  61  81 111 144 177 213 254
#     4   9  16  26  39  55  79 109 137 167 204 243
#
# _framework density 15.074418
#
# number of rings (size 3 to 8) (size 9 to 14) (size 15 to 20)
#    0.000    2.750    0.000    3.000    0.000    7.000 
#    0.000    0.000    0.000    0.000    0.000    0.000 
#    0.000    1.000    0.000    3.000    0.000    4.625 
#
# Total GULP energy -793637.008854 kJ/mol
# GULP energy per Si atom -12400.578263 kJ/mol
# Density = 1.504011 g / cm^3
# Si number density = 15.074418 Si / 1000 Ang^3
#
#
#
# Elastic Constant Matrix: (Units=GPa)
#
#
# Indices 1 2 3 4 5 6 
#
# 1 74.9555 35.9309 44.0944 0.0000 0.0000 0.0000
# 2 35.9309 97.7796 70.0771 0.0000 0.0000 0.0000
# 3 44.0944 70.0771 115.4687 0.0000 0.0000 0.0000
# 4 0.0000 0.0000 0.0000 32.1393 0.0000 0.0000
# 5 0.0000 0.0000 0.0000 0.0000 16.3867 0.0000
# 6 0.0000 0.0000 0.0000 0.0000 0.0000 18.1385
#
#
#
# Elastic Compliance Matrix: (Units=1/GPa)
#
#
# Indices 1 2 3 4 5 6 
#
# 1 0.017669 -0.002933 -0.004968 0.000000 0.000000 0.000000
# 2 -0.002933 0.018586 -0.010160 0.000000 0.000000 0.000000
# 3 -0.004968 -0.010160 0.016723 0.000000 0.000000 0.000000
# 4 0.000000 0.000000 0.000000 0.031115 0.000000 0.000000
# 5 0.000000 0.000000 0.000000 0.000000 0.061025 0.000000
# 6 0.000000 0.000000 0.000000 0.000000 0.000000 0.055131
#
#
# Mechanical properties :
#
#
# Convention : Reuss Voigt Hill
#
# Bulk Modulus (GPa) = 59.31747 65.37873 62.34810
# Shear Modulus (GPa) = 20.66204 22.53968 21.60086
#
# Velocity S-wave (km/s) = 3.70627 3.87101 3.78954
# Velocity P-wave (km/s) = 7.59937 7.96520 7.78444
#
# Compressibility (1/GPa) = 0.01685844
#
# Stress axis : x y z
#
# Youngs Moduli (GPa) = 56.59497 53.80341 59.79675
#
# Poissons Ratio (x) = 0.15779 0.29705
# Poissons Ratio (y) = 0.16598 0.60753
# Poissons Ratio (z) = 0.28114 0.54664
#
# Static dielectric constant tensor:
#      x y z
#    x 2.685580 0.000000 0.000000 
#    y 0.000000 2.999570 0.000000 
#    z 0.000000 0.000000 2.872910 
# 
# 
# High freq. dielectric constant tensor:
#      x y z
#    x 1.533080 0.000000 0.000000 
#    y 0.000000 1.589760 0.000000 
#    z 0.000000 0.000000 1.573260 
# 
# From -- ./inp_files/32714.got.cif
#   From: 2010.03.12/outbox.cif.g09.slc.cpg/sg62_17_cif.got.tgz:32714.got - 2010.04.10 19:12:36.
