data_PCOD8250846
_publ_section_title
;
Structure prediction by ZEFSAII (Michael W. Deem and Ramdas Pophale) SiO2 
 PCOD8250846
Probable space group: P N M A
;
_chemical_formula_sum "Si O2"
_cell_formula_units_Z 56
_cell_length_a 12.085185
_cell_length_b 10.853416
_cell_length_c 24.026803
_cell_angle_alpha 90.000000
_cell_angle_beta 90.000000
_cell_angle_gamma 90.000000
_cell_volume 3151.488596
_symmetry_space_group_name_H-M "P N M A"
_symmetry_group_IT_number 62
_symmetry_cell_setting 'orthorhombic'
loop_
_space_group_symop_operation_xyz
x,y,z
1/2-x,-y,1/2+z
1/2+x,1/2-y,1/2-z
-x,1/2+y,-z
-x,-y,-z
1/2+x,y,1/2-z
1/2-x,1/2+y,1/2+z
x,1/2-y,z
loop_
_atom_site_type_symbol
_atom_site_label
_atom_site_fract_x
_atom_site_fract_y
_atom_site_fract_z
Si Si1 0.311289 0.890500 0.923041
Si Si2 0.509595 0.102846 0.161965
Si Si3 0.078100 0.612779 0.874892
Si Si4 0.688639 0.490532 0.481413
Si Si5 0.263433 0.396647 0.137267
Si Si6 0.485442 0.882989 0.446257
Si Si7 0.421839 0.890163 0.720502
O O1 0.331706 0.750000 0.941213
O O2 0.417911 0.943429 0.890460
O O3 0.209511 0.901177 0.879547
O O4 0.289745 0.970848 0.978170
O O5 0.511863 0.250000 0.165290
O O6 0.384455 0.056011 0.154801
O O7 0.561072 0.046367 0.219188
O O8 0.041121 0.750000 0.896945
O O9 0.017437 0.502643 0.907067
O O10 0.040131 0.600835 0.810964
O O11 0.738077 0.450689 0.423092
O O12 0.616260 0.382386 0.510063
O O13 0.604263 0.607208 0.477191
O O14 0.256406 0.250000 0.133350
O O15 0.175677 0.449746 0.182593
O O16 0.481105 0.750000 0.415070
O O17 0.386588 0.750000 0.730751
#
# Coordination Sequence:
#
# PCOD8250846 Si02
#       7
#     8   8   8   8   8   8   8
#     4   9  18  31  46  69 101 133 167 208 255 305
#     4   9  19  31  46  71 101 133 168 208 255 313
#     4   9  17  30  50  74 103 132 160 206 261 304
#     4  10  19  30  47  69 101 137 169 211 256 299
#     4  10  19  31  47  72 103 132 166 207 258 310
#     4  10  19  30  47  75 103 130 170 210 253 303
#     4   9  17  29  47  71  99 129 160 205 262 307
#
# _framework density 17.769380000000002
#
# number of rings (size 3 to 8) (size 9 to 14) (size 15 to 20)
#    0.000    2.571    1.429    0.857    2.000    4.000 
#    0.000    0.000    0.000    0.000    0.000   12.000 
#    0.000    0.000    0.000    0.000    0.000    0.000 
#
# Total GULP energy -693821.520941 kJ/mol
# GULP energy per Si atom -12389.670017 kJ/mol
# Density = 1.772894 g / cm^3
# Si number density = 17.769380 Si / 1000 Ang^3
#
#
#
# Elastic Constant Matrix: (Units=GPa)
#
#
# Indices 1 2 3 4 5 6 
#
# 1 104.9889 12.8246 63.5279 0.0000 0.0000 0.0000
# 2 12.8246 66.2773 24.8323 0.0000 0.0000 0.0000
# 3 63.5279 24.8323 129.3570 0.0000 0.0000 0.0000
# 4 0.0000 0.0000 0.0000 20.7518 0.0000 0.0000
# 5 0.0000 0.0000 0.0000 0.0000 28.9091 0.0000
# 6 0.0000 0.0000 0.0000 0.0000 0.0000 6.8214
#
#
#
# Elastic Compliance Matrix: (Units=1/GPa)
#
#
# Indices 1 2 3 4 5 6 
#
# 1 0.013553 -0.000139 -0.006629 0.000000 0.000000 0.000000
# 2 -0.000139 0.016259 -0.003053 0.000000 0.000000 0.000000
# 3 -0.006629 -0.003053 0.011572 0.000000 0.000000 0.000000
# 4 0.000000 0.000000 0.000000 0.048189 0.000000 0.000000
# 5 0.000000 0.000000 0.000000 0.000000 0.034591 0.000000
# 6 0.000000 0.000000 0.000000 0.000000 0.000000 0.146599
#
#
# Mechanical properties :
#
#
# Convention : Reuss Voigt Hill
#
# Bulk Modulus (GPa) = 45.99370 55.88808 50.94089
# Shear Modulus (GPa) = 16.79812 24.59233 20.69523
#
# Velocity S-wave (km/s) = 3.07797 3.72421 3.41641
# Velocity P-wave (km/s) = 6.21062 7.07200 6.65526
#
# Compressibility (1/GPa) = 0.02174211
#
# Stress axis : x y z
#
# Youngs Moduli (GPa) = 73.78357 61.50492 86.41276
#
# Poissons Ratio (x) = 0.00853 0.57287
# Poissons Ratio (y) = 0.01023 0.26382
# Poissons Ratio (z) = 0.48914 0.18778
#
# Static dielectric constant tensor:
#      x y z
#    x 3.437290 0.000000 0.000000 
#    y 0.000000 2.848380 0.000000 
#    z 0.000000 0.000000 3.314750 
# 
# 
# High freq. dielectric constant tensor:
#      x y z
#    x 1.688310 0.000000 0.000000 
#    y 0.000000 1.631690 0.000000 
#    z 0.000000 0.000000 1.685160 
# 
# From -- ./inp_files/26605.got.cif
#   From: 2010.03.12/outbox.cif.g09.slc.cpg/sg62_14_cif.got.tgz:26605.got - 2010.04.10 19:12:36.
