data_PCOD8250902
_publ_section_title
;
Structure prediction by ZEFSAII (Michael W. Deem and Ramdas Pophale) SiO2 
 PCOD8250902
Probable space group: P N M A
;
_chemical_formula_sum "Si O2"
_cell_formula_units_Z 64
_cell_length_a 11.672321
_cell_length_b 9.160449
_cell_length_c 33.479370
_cell_angle_alpha 90.000000
_cell_angle_beta 90.000000
_cell_angle_gamma 90.000000
_cell_volume 3579.738155
_symmetry_space_group_name_H-M "P N M A"
_symmetry_group_IT_number 62
_symmetry_cell_setting 'orthorhombic'
loop_
_space_group_symop_operation_xyz
x,y,z
1/2-x,-y,1/2+z
1/2+x,1/2-y,1/2-z
-x,1/2+y,-z
-x,-y,-z
1/2+x,y,1/2-z
1/2-x,1/2+y,1/2+z
x,1/2-y,z
loop_
_atom_site_type_symbol
_atom_site_label
_atom_site_fract_x
_atom_site_fract_y
_atom_site_fract_z
Si Si1 0.272748 0.583264 0.886906
Si Si2 0.863162 0.419456 0.810601
Si Si3 0.857720 0.583158 0.529696
Si Si4 0.824528 0.582832 0.373977
Si Si5 0.093740 0.915563 0.823307
Si Si6 0.943063 0.079378 0.667715
Si Si7 0.383056 0.079807 0.047487
Si Si8 0.691083 0.419984 0.232416
O O1 0.313781 0.750000 0.877816
O O2 0.266636 0.556843 0.934575
O O3 0.148101 0.558558 0.867308
O O4 0.363633 0.472162 0.868609
O O5 0.864197 0.250000 0.798865
O O6 0.794293 0.446839 0.851389
O O7 0.800448 0.507882 0.775669
O O8 0.992233 0.471940 0.817056
O O9 0.858343 0.750000 0.515237
O O10 0.822490 0.485053 0.492065
O O11 0.982681 0.539558 0.546705
O O12 0.836593 0.750000 0.387674
O O13 0.825043 0.484971 0.413273
O O14 0.926629 0.542666 0.343611
O O15 0.047996 0.750000 0.819125
O O16 0.190051 0.947902 0.790239
O O17 0.923054 0.250000 0.675239
O O18 0.913385 0.992929 0.708128
O O19 0.360073 0.250000 0.047833
O O20 0.663347 0.250000 0.236785
#
# Coordination Sequence:
#
# PCOD8250902 Si02
#       8
#     8   8   8   8   8   8   8   8
#     4   9  17  33  55  79 107 141 177 215 265 319
#     4  11  24  39  56  78 107 143 182 223 271 322
#     4   9  17  30  50  78 112 145 173 212 268 321
#     4  10  22  37  52  76 110 146 178 218 270 320
#     4   9  20  38  57  79 106 138 179 224 266 316
#     4  10  19  32  53  80 107 137 175 218 267 318
#     4  10  19  30  50  79 111 144 179 218 262 320
#     4  10  22  39  58  80 106 137 177 224 271 320
#
# _framework density 17.878402000000001
#
# number of rings (size 3 to 8) (size 9 to 14) (size 15 to 20)
#    0.000    2.250    1.250    2.250    1.750    5.000 
#    0.000    0.000    0.000    0.750    0.000    0.000 
#    0.000    0.000    0.000    0.000    0.000    0.000 
#
# Total GULP energy -793724.713170 kJ/mol
# GULP energy per Si atom -12401.948643 kJ/mol
# Density = 1.783771 g / cm^3
# Si number density = 17.878402 Si / 1000 Ang^3
#
#
#
# Elastic Constant Matrix: (Units=GPa)
#
#
# Indices 1 2 3 4 5 6 
#
# 1 71.5331 44.4697 41.0084 0.0000 0.0000 0.0000
# 2 44.4697 102.6630 68.0587 0.0000 0.0000 0.0000
# 3 41.0084 68.0587 125.9794 0.0000 0.0000 0.0000
# 4 0.0000 0.0000 0.0000 35.2480 0.0000 0.0000
# 5 0.0000 0.0000 0.0000 0.0000 19.2203 0.0000
# 6 0.0000 0.0000 0.0000 0.0000 0.0000 24.7298
#
#
#
# Elastic Compliance Matrix: (Units=1/GPa)
#
#
# Indices 1 2 3 4 5 6 
#
# 1 0.019752 -0.006689 -0.002816 0.000000 0.000000 0.000000
# 2 -0.006689 0.017441 -0.007245 0.000000 0.000000 0.000000
# 3 -0.002816 -0.007245 0.012768 0.000000 0.000000 0.000000
# 4 0.000000 0.000000 0.000000 0.028370 0.000000 0.000000
# 5 0.000000 0.000000 0.000000 0.000000 0.052028 0.000000
# 6 0.000000 0.000000 0.000000 0.000000 0.000000 0.040437
#
#
# Mechanical properties :
#
#
# Convention : Reuss Voigt Hill
#
# Bulk Modulus (GPa) = 60.74694 67.47212 64.10953
# Shear Modulus (GPa) = 23.83401 25.61554 24.72478
#
# Velocity S-wave (km/s) = 3.65515 3.78929 3.72283
# Velocity P-wave (km/s) = 7.20174 7.54761 7.37670
#
# Compressibility (1/GPa) = 0.01646174
#
# Stress axis : x y z
#
# Youngs Moduli (GPa) = 50.62702 57.33652 78.31859
#
# Poissons Ratio (x) = 0.38353 0.22054
# Poissons Ratio (y) = 0.33865 0.56740
# Poissons Ratio (z) = 0.14257 0.41539
#
# Static dielectric constant tensor:
#      x y z
#    x 3.040080 0.000000 0.000000 
#    y 0.000000 3.366690 0.000000 
#    z 0.000000 0.000000 3.372900 
# 
# 
# High freq. dielectric constant tensor:
#      x y z
#    x 1.660080 0.000000 0.000000 
#    y 0.000000 1.701110 0.000000 
#    z 0.000000 0.000000 1.696430 
# 
# From -- ./inp_files/32588.got.cif
#   From: 2010.03.12/outbox.cif.g09.slc.cpg/sg62_17_cif.got.tgz:32588.got - 2010.04.10 19:12:36.
