data_PCOD8250888
_publ_section_title
;
Structure prediction by ZEFSAII (Michael W. Deem and Ramdas Pophale) SiO2 
 PCOD8250888
Probable space group: P N M A
;
_chemical_formula_sum "Si O2"
_cell_formula_units_Z 48
_cell_length_a 14.878408
_cell_length_b 8.920640
_cell_length_c 20.290851
_cell_angle_alpha 90.000000
_cell_angle_beta 90.000000
_cell_angle_gamma 90.000000
_cell_volume 2693.101607
_symmetry_space_group_name_H-M "P N M A"
_symmetry_group_IT_number 62
_symmetry_cell_setting 'orthorhombic'
loop_
_space_group_symop_operation_xyz
x,y,z
1/2-x,-y,1/2+z
1/2+x,1/2-y,1/2-z
-x,1/2+y,-z
-x,-y,-z
1/2+x,y,1/2-z
1/2-x,1/2+y,1/2+z
x,1/2-y,z
loop_
_atom_site_type_symbol
_atom_site_label
_atom_site_fract_x
_atom_site_fract_y
_atom_site_fract_z
Si Si1 0.306716 0.924695 0.655029
Si Si2 0.581775 0.572188 0.962009
Si Si3 0.438251 0.076396 0.446349
Si Si4 0.999320 0.426425 0.193782
Si Si5 0.263746 0.423487 0.522079
Si Si6 0.888974 0.425925 0.314768
O O1 0.305428 0.750000 0.634495
O O2 0.394266 0.963240 0.698771
O O3 0.216605 0.964813 0.696049
O O4 0.311506 0.019955 0.588490
O O5 0.576464 0.750000 0.967058
O O6 0.674527 0.517127 0.994840
O O7 0.579363 0.514655 0.886218
O O8 0.500000 0.500000 0.000000
O O9 0.464665 0.250000 0.447301
O O10 0.458332 0.007663 0.374044
O O11 0.333229 0.052048 0.462240
O O12 0.500000 0.000000 0.500000
O O13 0.982079 0.250000 0.195083
O O14 0.948063 0.500892 0.256381
O O15 0.237948 0.250000 0.530338
O O16 0.904560 0.250000 0.313665
#
# Coordination Sequence:
#
# PCOD8250888 Si02
#       6
#     8   8   8   8   8   8
#     4   9  16  29  51  71  93 133 170 205 257 307
#     4  10  20  36  57  78 101 134 173 215 261 310
#     4  10  19  30  49  76 104 133 168 209 256 303
#     4   9  16  29  48  73 101 129 167 216 259 298
#     4  10  19  31  49  76 104 134 169 211 255 306
#     4   8  16  30  48  74  98 124 168 211 252 300
#
# _framework density 17.823315000000001
#
# number of rings (size 3 to 8) (size 9 to 14) (size 15 to 20)
#    0.000    2.667    1.667    2.000    0.000    0.667 
#    3.000    0.000    0.000   10.000    0.000    0.000 
#    0.000    0.000    0.000    0.000    0.000    0.000 
#
# Total GULP energy -595001.797968 kJ/mol
# GULP energy per Si atom -12395.870791 kJ/mol
# Density = 1.778275 g / cm^3
# Si number density = 17.823315 Si / 1000 Ang^3
#
#
#
# Elastic Constant Matrix: (Units=GPa)
#
#
# Indices 1 2 3 4 5 6 
#
# 1 153.7221 35.9303 90.4633 0.0000 0.0000 0.0000
# 2 35.9303 47.5669 25.6205 0.0000 0.0000 0.0000
# 3 90.4633 25.6205 116.0320 0.0000 0.0000 0.0000
# 4 0.0000 0.0000 0.0000 18.1069 0.0000 0.0000
# 5 0.0000 0.0000 0.0000 0.0000 36.4226 0.0000
# 6 0.0000 0.0000 0.0000 0.0000 0.0000 25.1732
#
#
#
# Elastic Compliance Matrix: (Units=1/GPa)
#
#
# Indices 1 2 3 4 5 6 
#
# 1 0.012967 -0.004937 -0.009020 0.000000 0.000000 0.000000
# 2 -0.004937 0.025740 -0.001835 0.000000 0.000000 0.000000
# 3 -0.009020 -0.001835 0.016055 0.000000 0.000000 0.000000
# 4 0.000000 0.000000 0.000000 0.055228 0.000000 0.000000
# 5 0.000000 0.000000 0.000000 0.000000 0.027455 0.000000
# 6 0.000000 0.000000 0.000000 0.000000 0.000000 0.039725
#
#
# Mechanical properties :
#
#
# Convention : Reuss Voigt Hill
#
# Bulk Modulus (GPa) = 43.13931 69.03881 56.08906
# Shear Modulus (GPa) = 23.09688 26.96099 25.02894
#
# Velocity S-wave (km/s) = 3.60374 3.89354 3.75144
# Velocity P-wave (km/s) = 6.44766 7.68323 7.09240
#
# Compressibility (1/GPa) = 0.02318071
#
# Stress axis : x y z
#
# Youngs Moduli (GPa) = 77.11882 38.84967 62.28417
#
# Poissons Ratio (x) = 0.19179 0.56178
# Poissons Ratio (y) = 0.38071 0.11428
# Poissons Ratio (z) = 0.69558 0.07128
#
# Static dielectric constant tensor:
#      x y z
#    x 3.531400 0.000000 0.000000 
#    y 0.000000 3.064020 0.000000 
#    z 0.000000 0.000000 3.519980 
# 
# 
# High freq. dielectric constant tensor:
#      x y z
#    x 1.703140 0.000000 0.000000 
#    y 0.000000 1.658850 0.000000 
#    z 0.000000 0.000000 1.674070 
# 
# From -- ./inp_files/26865.got.cif
#   From: 2010.03.12/outbox.cif.g09.slc.cpg/sg62_14_cif.got.tgz:26865.got - 2010.04.10 19:12:36.
