data_PCOD8250872
_publ_section_title
;
Structure prediction by ZEFSAII (Michael W. Deem and Ramdas Pophale) SiO2 
 PCOD8250872
Probable space group: P N M A
;
_chemical_formula_sum "Si O2"
_cell_formula_units_Z 56
_cell_length_a 9.889417
_cell_length_b 18.676205
_cell_length_c 16.335620
_cell_angle_alpha 90.000000
_cell_angle_beta 90.000000
_cell_angle_gamma 90.000000
_cell_volume 3017.136401
_symmetry_space_group_name_H-M "P N M A"
_symmetry_group_IT_number 62
_symmetry_cell_setting 'orthorhombic'
loop_
_space_group_symop_operation_xyz
x,y,z
1/2-x,-y,1/2+z
1/2+x,1/2-y,1/2-z
-x,1/2+y,-z
-x,-y,-z
1/2+x,y,1/2-z
1/2-x,1/2+y,1/2+z
x,1/2-y,z
loop_
_atom_site_type_symbol
_atom_site_label
_atom_site_fract_x
_atom_site_fract_y
_atom_site_fract_z
Si Si1 0.401211 0.901039 0.008567
Si Si2 0.500049 0.565960 0.749960
Si Si3 0.400720 0.330970 0.114991
Si Si4 0.900720 0.669011 0.885008
Si Si5 0.598790 0.901112 0.491371
Si Si6 0.394641 0.969906 0.387740
Si Si7 0.894828 0.030107 0.612370
O O1 0.249983 0.870328 0.026936
O O2 0.482344 0.914465 0.094271
O O3 0.486530 0.845920 0.953550
O O4 0.387233 0.976115 0.963434
O O5 0.590392 0.616132 0.807790
O O6 0.409521 0.616203 0.692306
O O7 0.592027 0.514273 0.695598
O O8 0.408296 0.513992 0.804115
O O9 0.421791 0.250000 0.146249
O O10 0.250000 0.341084 0.077431
O O11 0.921940 0.750000 0.853865
O O12 0.013483 0.653908 0.953488
O O13 0.612968 0.976301 0.536259
O O14 0.517540 0.914465 0.405678
O O15 0.249920 0.929038 0.382781
#
# Coordination Sequence:
#
# PCOD8250872 Si02
#       7
#     8   8   8   8   8   8   8
#     4   9  18  31  47  66  90 124 165 205 241 280
#     4  10  19  30  48  74 103 130 160 196 240 290
#     4  10  20  33  49  70  99 134 167 198 235 284
#     4  10  20  33  49  70  99 134 167 198 235 284
#     4   9  18  31  47  66  90 124 165 205 241 280
#     4   9  17  29  46  67  93 125 160 200 243 286
#     4   9  17  29  46  67  93 125 160 200 243 286
#
# _framework density 18.560645999999998
#
# number of rings (size 3 to 8) (size 9 to 14) (size 15 to 20)
#    0.000    2.571    0.000    2.143    0.000    9.714 
#    0.000    0.000    0.000    0.000    0.000    1.000 
#    0.000    0.000    0.000    0.000    0.000    0.000 
#
# Total GULP energy -693847.654970 kJ/mol
# GULP energy per Si atom -12390.136696 kJ/mol
# Density = 1.851840 g / cm^3
# Si number density = 18.560646 Si / 1000 Ang^3
#
#
#
# Elastic Constant Matrix: (Units=GPa)
#
#
# Indices 1 2 3 4 5 6 
#
# 1 189.1289 44.4106 59.4516 0.0000 0.0000 0.0000
# 2 44.4106 39.3236 45.4707 0.0000 0.0000 0.0000
# 3 59.4516 45.4707 78.1511 0.0000 0.0000 0.0000
# 4 0.0000 0.0000 0.0000 14.2450 0.0000 0.0000
# 5 0.0000 0.0000 0.0000 0.0000 12.4287 0.0000
# 6 0.0000 0.0000 0.0000 0.0000 0.0000 35.3430
#
#
#
# Elastic Compliance Matrix: (Units=1/GPa)
#
#
# Indices 1 2 3 4 5 6 
#
# 1 0.007331 -0.005595 -0.002322 0.000000 0.000000 0.000000
# 2 -0.005595 0.081986 -0.043446 0.000000 0.000000 0.000000
# 3 -0.002322 -0.043446 0.039840 0.000000 0.000000 0.000000
# 4 0.000000 0.000000 0.000000 0.070200 0.000000 0.000000
# 5 0.000000 0.000000 0.000000 0.000000 0.080459 0.000000
# 6 0.000000 0.000000 0.000000 0.000000 0.000000 0.028294
#
#
# Mechanical properties :
#
#
# Convention : Reuss Voigt Hill
#
# Bulk Modulus (GPa) = 37.83249 67.25215 52.54232
# Shear Modulus (GPa) = 11.91484 22.88804 17.40144
#
# Velocity S-wave (km/s) = 2.53640 3.51543 3.06526
# Velocity P-wave (km/s) = 5.38565 7.26568 6.39513
#
# Compressibility (1/GPa) = 0.02643231
#
# Stress axis : x y z
#
# Youngs Moduli (GPa) = 136.40842 12.19728 25.10046
#
# Poissons Ratio (x) = 0.06824 0.05828
# Poissons Ratio (y) = 0.76316 1.09051
# Poissons Ratio (z) = 0.31670 0.52992
#
# Static dielectric constant tensor:
#      x y z
#    x 3.933260 0.000000 0.000000 
#    y 0.000000 3.018220 0.000000 
#    z 0.000000 0.000000 3.223600 
# 
# 
# High freq. dielectric constant tensor:
#      x y z
#    x 1.743740 0.000000 0.000000 
#    y 0.000000 1.671990 0.000000 
#    z 0.000000 0.000000 1.690700 
# 
# From -- ./inp_files/17195.got.cif
#   From: 2010.03.12/outbox.cif.g09.slc.cpg/sg62_9_cif.got.tgz:17195.got - 2010.04.10 19:12:36.
