data_PCOD8250011
_publ_section_title
;
Structure prediction by ZEFSAII (Michael W. Deem and Ramdas Pophale) SiO2 
 PCOD8250011
Probable space group: P N M A
;
_chemical_formula_sum "Si O2"
_cell_formula_units_Z 40
_cell_length_a 7.789039
_cell_length_b 13.256466
_cell_length_c 23.493203
_cell_angle_alpha 90.000000
_cell_angle_beta 90.000000
_cell_angle_gamma 90.000000
_cell_volume 2425.793746
_symmetry_space_group_name_H-M "P N M A"
_symmetry_group_IT_number 62
_symmetry_cell_setting 'orthorhombic'
loop_
_space_group_symop_operation_xyz
x,y,z
1/2-x,-y,1/2+z
1/2+x,1/2-y,1/2-z
-x,1/2+y,-z
-x,-y,-z
1/2+x,y,1/2-z
1/2-x,1/2+y,1/2+z
x,1/2-y,z
loop_
_atom_site_type_symbol
_atom_site_label
_atom_site_fract_x
_atom_site_fract_y
_atom_site_fract_z
Si Si1 0.857783 0.365076 0.498824
Si Si2 0.970072 0.869556 0.924901
Si Si3 0.664616 0.134368 0.307672
Si Si4 0.936071 0.866622 0.686120
Si Si5 0.333844 0.553318 0.929978
O O1 0.841337 0.250000 0.519812
O O2 0.691736 0.400309 0.463351
O O3 0.871746 0.437050 0.553921
O O4 0.027644 0.374452 0.460243
O O5 0.987098 0.750000 0.922993
O O6 0.939883 0.912661 0.860697
O O7 0.142867 0.917011 0.950697
O O8 0.609142 0.250000 0.301425
O O9 0.617547 0.084570 0.246948
O O10 0.862620 0.123126 0.322416
O O11 0.875506 0.750000 0.680592
O O12 0.843447 0.932299 0.637831
#
# Coordination Sequence:
#
# PCOD8250011 Si02
#       5
#     8   8   8   8   8
#     4  10  21  35  48  69  99 128 163 201 234 277
#     4  10  18  31  49  72 101 127 154 194 239 286
#     4   9  17  27  44  70 101 127 150 188 240 293
#     4  10  17  28  44  70 101 126 154 190 236 289
#     4  11  20  31  51  71  95 131 163 192 236 283
#
# _framework density 16.489446999999998
#
# number of rings (size 3 to 8) (size 9 to 14) (size 15 to 20)
#    0.000    2.000    2.000    3.600    0.000    3.200 
#    0.000    0.000    0.000    0.000    0.000    5.600 
#    0.000    0.000    0.000    0.000    0.000    0.000 
#
# Total GULP energy -495928.713471 kJ/mol
# GULP energy per Si atom -12398.217837 kJ/mol
# Density = 1.645192 g / cm^3
# Si number density = 16.489447 Si / 1000 Ang^3
#
#
#
# Elastic Constant Matrix: (Units=GPa)
#
#
# Indices 1 2 3 4 5 6 
#
# 1 98.7024 19.5357 27.5545 0.0000 0.0000 0.0000
# 2 19.5357 49.4124 37.1211 0.0000 0.0000 0.0000
# 3 27.5545 37.1211 73.5113 0.0000 0.0000 0.0000
# 4 0.0000 0.0000 0.0000 21.1510 0.0000 0.0000
# 5 0.0000 0.0000 0.0000 0.0000 21.8957 0.0000
# 6 0.0000 0.0000 0.0000 0.0000 0.0000 14.1122
#
#
#
# Elastic Compliance Matrix: (Units=1/GPa)
#
#
# Indices 1 2 3 4 5 6 
#
# 1 0.011449 -0.002099 -0.003232 0.000000 0.000000 0.000000
# 2 -0.002099 0.032993 -0.015874 0.000000 0.000000 0.000000
# 3 -0.003232 -0.015874 0.022831 0.000000 0.000000 0.000000
# 4 0.000000 0.000000 0.000000 0.047279 0.000000 0.000000
# 5 0.000000 0.000000 0.000000 0.000000 0.045671 0.000000
# 6 0.000000 0.000000 0.000000 0.000000 0.000000 0.070861
#
#
# Mechanical properties :
#
#
# Convention : Reuss Voigt Hill
#
# Bulk Modulus (GPa) = 40.21876 43.33874 41.77875
# Shear Modulus (GPa) = 17.74436 20.59275 19.16856
#
# Velocity S-wave (km/s) = 3.28396 3.53773 3.41321
# Velocity P-wave (km/s) = 6.23079 6.55951 6.39726
#
# Compressibility (1/GPa) = 0.02486402
#
# Stress axis : x y z
#
# Youngs Moduli (GPa) = 87.34366 30.30971 43.80105
#
# Poissons Ratio (x) = 0.06361 0.14155
# Poissons Ratio (y) = 0.18330 0.69529
# Poissons Ratio (z) = 0.28227 0.48113
#
# Static dielectric constant tensor:
#      x y z
#    x 3.276430 0.000000 0.000000 
#    y 0.000000 2.673520 0.000000 
#    z 0.000000 0.000000 3.194600 
# 
# 
# High freq. dielectric constant tensor:
#      x y z
#    x 1.658150 0.000000 0.000000 
#    y 0.000000 1.574000 0.000000 
#    z 0.000000 0.000000 1.635130 
# 
# From -- ./inp_files/22311.got.cif
#   From: 2010.03.12/outbox.cif.g09.slc.cpg/sg62_12_cif.got.tgz:22311.got - 2010.04.10 19:12:36.
