data_PCOD8250661
_publ_section_title
;
Structure prediction by ZEFSAII (Michael W. Deem and Ramdas Pophale) SiO2 
 PCOD8250661
Probable space group: P N M A
;
_chemical_formula_sum "Si O2"
_cell_formula_units_Z 28
_cell_length_a 12.967718
_cell_length_b 7.621237
_cell_length_c 16.604062
_cell_angle_alpha 90.000000
_cell_angle_beta 90.000000
_cell_angle_gamma 90.000000
_cell_volume 1640.980315
_symmetry_space_group_name_H-M "P N M A"
_symmetry_group_IT_number 62
_symmetry_cell_setting 'orthorhombic'
loop_
_space_group_symop_operation_xyz
x,y,z
1/2-x,-y,1/2+z
1/2+x,1/2-y,1/2-z
-x,1/2+y,-z
-x,-y,-z
1/2+x,y,1/2-z
1/2-x,1/2+y,1/2+z
x,1/2-y,z
loop_
_atom_site_type_symbol
_atom_site_label
_atom_site_fract_x
_atom_site_fract_y
_atom_site_fract_z
Si Si1 0.400920 0.952051 0.448831
Si Si2 0.618310 0.250000 0.094842
Si Si3 0.603806 0.750000 0.849158
Si Si4 0.680806 0.941077 0.990718
Si Si5 0.158553 0.750000 0.834652
O O1 0.405634 0.750000 0.420481
O O2 0.301600 0.992533 0.504785
O O3 0.500000 0.000000 0.500000
O O4 0.395121 0.075870 0.370420
O O5 0.520262 0.250000 0.153273
O O6 0.611460 0.418628 0.036919
O O7 0.719583 0.250000 0.149249
O O8 0.646594 0.750000 0.760256
O O9 0.645981 0.923340 0.896976
O O10 0.664473 0.750000 0.033026
#
# Coordination Sequence:
#
# PCOD8250661 Si02
#       5
#     8   4   4   8   4
#     4  10  18  34  56  75 105 144 176 208 255 319
#     4  10  18  36  58  70 104 146 174 208 270 316
#     4  10  20  36  54  79 108 133 172 233 262 298
#     4   8  19  33  53  79 100 134 183 213 248 320
#     4  10  22  34  50  83 110 131 174 223 266 306
#
# _framework density 17.062971999999998
#
# number of rings (size 3 to 8) (size 9 to 14) (size 15 to 20)
#    0.857    1.714    1.429    0.857    0.000    2.286 
#    2.571    0.000    0.000    0.000    0.000    0.000 
#    0.000    0.000    0.000    0.000    0.000    0.000 
#
# Total GULP energy -347007.208244 kJ/mol
# GULP energy per Si atom -12393.114580 kJ/mol
# Density = 1.702414 g / cm^3
# Si number density = 17.062972 Si / 1000 Ang^3
#
#
#
# Elastic Constant Matrix: (Units=GPa)
#
#
# Indices 1 2 3 4 5 6 
#
# 1 81.2272 31.2929 52.9675 0.0000 0.0000 0.0000
# 2 31.2929 107.9524 49.7508 0.0000 0.0000 0.0000
# 3 52.9675 49.7508 133.9355 0.0000 0.0000 0.0000
# 4 0.0000 0.0000 0.0000 17.4031 0.0000 0.0000
# 5 0.0000 0.0000 0.0000 0.0000 23.5783 0.0000
# 6 0.0000 0.0000 0.0000 0.0000 0.0000 20.3135
#
#
#
# Elastic Compliance Matrix: (Units=1/GPa)
#
#
# Indices 1 2 3 4 5 6 
#
# 1 0.017015 -0.002209 -0.005908 0.000000 0.000000 0.000000
# 2 -0.002209 0.011464 -0.003384 0.000000 0.000000 0.000000
# 3 -0.005908 -0.003384 0.011060 0.000000 0.000000 0.000000
# 4 0.000000 0.000000 0.000000 0.057461 0.000000 0.000000
# 5 0.000000 0.000000 0.000000 0.000000 0.042412 0.000000
# 6 0.000000 0.000000 0.000000 0.000000 0.000000 0.049228
#
#
# Mechanical properties :
#
#
# Convention : Reuss Voigt Hill
#
# Bulk Modulus (GPa) = 60.47992 65.68194 63.08093
# Shear Modulus (GPa) = 23.02497 24.86589 23.94543
#
# Velocity S-wave (km/s) = 3.67742 3.82160 3.75020
# Velocity P-wave (km/s) = 7.31801 7.61907 7.47006
#
# Compressibility (1/GPa) = 0.01653441
#
# Stress axis : x y z
#
# Youngs Moduli (GPa) = 58.77154 87.23313 90.41617
#
# Poissons Ratio (x) = 0.19273 0.53420
# Poissons Ratio (y) = 0.12985 0.30601
# Poissons Ratio (z) = 0.34724 0.29523
#
# Static dielectric constant tensor:
#      x y z
#    x 3.250590 0.000000 0.000000 
#    y 0.000000 3.547320 0.000000 
#    z 0.000000 0.000000 2.794690 
# 
# 
# High freq. dielectric constant tensor:
#      x y z
#    x 1.673920 0.000000 0.000000 
#    y 0.000000 1.664060 0.000000 
#    z 0.000000 0.000000 1.619000 
# 
# From -- ./inp_files/18410.got.cif
#   From: 2010.03.12/outbox.cif.g09.slc.cpg/sg62_10_cif.got.tgz:18410.got - 2010.04.10 19:12:36.
