data_PCOD8250304
_publ_section_title
;
Structure prediction by ZEFSAII (Michael W. Deem and Ramdas Pophale) SiO2 
 PCOD8250304
Probable space group: P N M A
;
_chemical_formula_sum "Si O2"
_cell_formula_units_Z 56
_cell_length_a 19.132694
_cell_length_b 8.822269
_cell_length_c 17.537585
_cell_angle_alpha 90.000000
_cell_angle_beta 90.000000
_cell_angle_gamma 90.000000
_cell_volume 2960.235144
_symmetry_space_group_name_H-M "P N M A"
_symmetry_group_IT_number 62
_symmetry_cell_setting 'orthorhombic'
loop_
_space_group_symop_operation_xyz
x,y,z
1/2-x,-y,1/2+z
1/2+x,1/2-y,1/2-z
-x,1/2+y,-z
-x,-y,-z
1/2+x,y,1/2-z
1/2-x,1/2+y,1/2+z
x,1/2-y,z
loop_
_atom_site_type_symbol
_atom_site_label
_atom_site_fract_x
_atom_site_fract_y
_atom_site_fract_z
Si Si1 0.433977 0.424066 0.420110
Si Si2 0.915322 0.578238 0.923052
Si Si3 0.654099 0.415621 0.836654
Si Si4 0.804510 0.424357 0.185651
Si Si5 0.076230 0.431115 0.513950
Si Si6 0.714843 0.914434 0.439211
Si Si7 0.793467 0.428772 0.569680
O O1 0.432528 0.250000 0.449786
O O2 0.510416 0.454074 0.381548
O O3 0.424008 0.542090 0.487738
O O4 0.374255 0.458147 0.360569
O O5 0.891570 0.750000 0.911583
O O6 0.852595 0.473848 0.892278
O O7 0.629816 0.250000 0.805248
O O8 0.671090 0.531732 0.770119
O O9 0.598571 0.477840 0.899486
O O10 0.726129 0.391996 0.878796
O O11 0.782343 0.250000 0.185464
O O12 0.737718 0.515563 0.151388
O O13 0.074894 0.250000 0.505615
O O14 0.132183 0.494112 0.451982
O O15 0.000000 0.500000 0.500000
O O16 0.698372 0.750000 0.477357
O O17 0.735438 0.029215 0.506598
O O18 0.805175 0.250000 0.572714
#
# Coordination Sequence:
#
# PCOD8250304 Si02
#       7
#     8   8   8   8   8   8   8
#     4   9  19  32  47  72 108 142 175 218 267 319
#     4  10  18  29  49  76 102 137 180 220 263 319
#     4   9  21  38  56  79 111 147 185 231 284 338
#     4  11  21  35  55  80 112 149 186 232 284 339
#     4  10  21  40  64  89 116 150 194 245 293 344
#     4  10  19  34  53  76 107 141 179 228 276 324
#     4  11  21  34  57  85 111 144 187 233 282 342
#
# _framework density 18.917415999999999
#
# number of rings (size 3 to 8) (size 9 to 14) (size 15 to 20)
#    0.000    2.000    1.429    3.857    0.000    4.571 
#    0.000    1.429    0.000    6.857    0.000    0.000 
#    0.000    0.000    0.000    0.000    0.000    0.000 
#
# Total GULP energy -693861.516297 kJ/mol
# GULP energy per Si atom -12390.384220 kJ/mol
# Density = 1.887436 g / cm^3
# Si number density = 18.917416 Si / 1000 Ang^3
#
#
#
# Elastic Constant Matrix: (Units=GPa)
#
#
# Indices 1 2 3 4 5 6 
#
# 1 133.0187 49.7187 36.8789 0.0000 0.0000 0.0000
# 2 49.7187 105.6525 34.3390 0.0000 0.0000 0.0000
# 3 36.8789 34.3390 73.8312 0.0000 0.0000 0.0000
# 4 0.0000 0.0000 0.0000 25.5503 0.0000 0.0000
# 5 0.0000 0.0000 0.0000 0.0000 14.5733 0.0000
# 6 0.0000 0.0000 0.0000 0.0000 0.0000 30.4676
#
#
#
# Elastic Compliance Matrix: (Units=1/GPa)
#
#
# Indices 1 2 3 4 5 6 
#
# 1 0.009730 -0.003533 -0.003217 0.000000 0.000000 0.000000
# 2 -0.003533 0.012434 -0.004018 0.000000 0.000000 0.000000
# 3 -0.003217 -0.004018 0.017020 0.000000 0.000000 0.000000
# 4 0.000000 0.000000 0.000000 0.039138 0.000000 0.000000
# 5 0.000000 0.000000 0.000000 0.000000 0.068619 0.000000
# 6 0.000000 0.000000 0.000000 0.000000 0.000000 0.032822
#
#
# Mechanical properties :
#
#
# Convention : Reuss Voigt Hill
#
# Bulk Modulus (GPa) = 56.66555 61.59732 59.13144
# Shear Modulus (GPa) = 24.13336 26.88929 25.51132
#
# Velocity S-wave (km/s) = 3.57560 3.77424 3.67626
# Velocity P-wave (km/s) = 6.86045 7.18506 7.02463
#
# Compressibility (1/GPa) = 0.01764741
#
# Stress axis : x y z
#
# Youngs Moduli (GPa) = 102.77170 80.42675 58.75427
#
# Poissons Ratio (x) = 0.28418 0.18901
# Poissons Ratio (y) = 0.36313 0.23607
# Poissons Ratio (z) = 0.33061 0.32315
#
# Static dielectric constant tensor:
#      x y z
#    x 3.870470 0.000000 0.000000 
#    y 0.000000 2.790750 0.000000 
#    z 0.000000 0.000000 3.401400 
# 
# 
# High freq. dielectric constant tensor:
#      x y z
#    x 1.749880 0.000000 0.000000 
#    y 0.000000 1.745550 0.000000 
#    z 0.000000 0.000000 1.693420 
# 
# From -- ./inp_files/24640.got.cif
#   From: 2010.03.12/outbox.cif.g09.slc.cpg/sg62_13_cif.got.tgz:24640.got - 2010.04.10 19:12:36.
