data_PCOD8250088
_publ_section_title
;
Structure prediction by ZEFSAII (Michael W. Deem and Ramdas Pophale) SiO2 
 PCOD8250088
Probable space group: P N M A
;
_chemical_formula_sum "Si O2"
_cell_formula_units_Z 64
_cell_length_a 24.089525
_cell_length_b 8.958281
_cell_length_c 15.485745
_cell_angle_alpha 90.000000
_cell_angle_beta 90.000000
_cell_angle_gamma 90.000000
_cell_volume 3341.835139
_symmetry_space_group_name_H-M "P N M A"
_symmetry_group_IT_number 62
_symmetry_cell_setting 'orthorhombic'
loop_
_space_group_symop_operation_xyz
x,y,z
1/2-x,-y,1/2+z
1/2+x,1/2-y,1/2-z
-x,1/2+y,-z
-x,-y,-z
1/2+x,y,1/2-z
1/2-x,1/2+y,1/2+z
x,1/2-y,z
loop_
_atom_site_type_symbol
_atom_site_label
_atom_site_fract_x
_atom_site_fract_y
_atom_site_fract_z
Si Si1 0.119211 0.572760 0.409856
Si Si2 0.884386 0.573577 0.414887
Si Si3 0.691384 0.572475 0.251535
Si Si4 0.816888 0.572965 0.247079
Si Si5 0.496811 0.572477 0.348926
Si Si6 0.498839 0.073352 0.847374
Si Si7 0.116340 0.924446 0.095752
Si Si8 0.113698 0.924799 0.902295
O O1 0.119455 0.750000 0.417148
O O2 0.139966 0.503622 0.499796
O O3 0.160596 0.517374 0.334983
O O4 0.057561 0.509667 0.389144
O O5 0.880699 0.750000 0.426129
O O6 0.848083 0.520516 0.333536
O O7 0.947834 0.518750 0.401416
O O8 0.691737 0.750000 0.255480
O O9 0.754135 0.512341 0.251649
O O10 0.659649 0.505544 0.335431
O O11 0.820153 0.750000 0.236880
O O12 0.845351 0.502905 0.163910
O O13 0.488892 0.750000 0.357067
O O14 0.494744 0.517382 0.250214
O O15 0.554363 0.513178 0.389244
O O16 0.447811 0.491222 0.399366
O O17 0.495492 0.250000 0.846001
O O18 0.112911 0.750000 0.115136
O O19 0.136855 0.957260 0.998708
O O20 0.111246 0.750000 0.882581
#
# Coordination Sequence:
#
# PCOD8250088 Si02
#       8
#     8   8   8   8   8   8   8   8
#     4  10  19  33  56  82 105 133 173 222 269 308
#     4  10  20  34  52  77 107 140 178 213 259 319
#     4   9  18  35  58  80 102 137 188 227 255 309
#     4  10  21  38  58  76 101 145 190 221 255 313
#     4  10  17  33  59  80 106 144 181 213 258 325
#     4   9  16  30  54  79 103 136 175 212 255 312
#     4   9  18  33  56  83 109 140 178 223 268 315
#     4  11  22  34  53  85 116 138 170 221 277 318
#
# _framework density 19.151154999999999
#
# number of rings (size 3 to 8) (size 9 to 14) (size 15 to 20)
#    0.000    2.250    2.500    1.125    0.000    1.500 
#    0.000    3.125    0.000    3.750    0.000    0.000 
#    0.000    0.000    0.000    0.000    0.000    0.000 
#
# Total GULP energy -793578.188432 kJ/mol
# GULP energy per Si atom -12399.659194 kJ/mol
# Density = 1.910757 g / cm^3
# Si number density = 19.151155 Si / 1000 Ang^3
#
#
#
# Elastic Constant Matrix: (Units=GPa)
#
#
# Indices 1 2 3 4 5 6 
#
# 1 158.8397 23.9535 74.4318 0.0000 0.0000 0.0000
# 2 23.9535 24.2950 30.1355 0.0000 0.0000 0.0000
# 3 74.4318 30.1355 150.4380 0.0000 0.0000 0.0000
# 4 0.0000 0.0000 0.0000 24.5148 0.0000 0.0000
# 5 0.0000 0.0000 0.0000 0.0000 15.0641 0.0000
# 6 0.0000 0.0000 0.0000 0.0000 0.0000 10.3759
#
#
#
# Elastic Compliance Matrix: (Units=1/GPa)
#
#
# Indices 1 2 3 4 5 6 
#
# 1 0.008508 -0.004214 -0.003365 0.000000 0.000000 0.000000
# 2 -0.004214 0.056857 -0.009304 0.000000 0.000000 0.000000
# 3 -0.003365 -0.009304 0.010176 0.000000 0.000000 0.000000
# 4 0.000000 0.000000 0.000000 0.040792 0.000000 0.000000
# 5 0.000000 0.000000 0.000000 0.000000 0.066383 0.000000
# 6 0.000000 0.000000 0.000000 0.000000 0.000000 0.096377
#
#
# Mechanical properties :
#
#
# Convention : Reuss Voigt Hill
#
# Bulk Modulus (GPa) = 23.93878 65.62381 44.78130
# Shear Modulus (GPa) = 15.30057 23.66110 19.48083
#
# Velocity S-wave (km/s) = 2.82961 3.51877 3.19284
# Velocity P-wave (km/s) = 4.81691 7.13089 6.08491
#
# Compressibility (1/GPa) = 0.04177322
#
# Stress axis : x y z
#
# Youngs Moduli (GPa) = 117.53401 17.58805 98.26856
#
# Poissons Ratio (x) = 0.07412 0.33071
# Poissons Ratio (y) = 0.49530 0.91433
# Poissons Ratio (z) = 0.39555 0.16365
#
# Static dielectric constant tensor:
#      x y z
#    x 3.732300 0.000000 0.000000 
#    y 0.000000 3.006280 0.000000 
#    z 0.000000 0.000000 3.617170 
# 
# 
# High freq. dielectric constant tensor:
#      x y z
#    x 1.748120 0.000000 0.000000 
#    y 0.000000 1.696500 0.000000 
#    z 0.000000 0.000000 1.761000 
# 
# From -- ./inp_files/20846.got.cif
#   From: 2010.03.12/outbox.cif.g09.slc.cpg/sg62_11_cif.got.tgz:20846.got - 2010.04.10 19:12:36.
