data_PCOD8250864
_publ_section_title
;
Structure prediction by ZEFSAII (Michael W. Deem and Ramdas Pophale) SiO2 
 PCOD8250864
Probable space group: P N M A
;
_chemical_formula_sum "Si O2"
_cell_formula_units_Z 64
_cell_length_a 20.095260
_cell_length_b 8.898044
_cell_length_c 20.027413
_cell_angle_alpha 90.000000
_cell_angle_beta 90.000000
_cell_angle_gamma 90.000000
_cell_volume 3581.071831
_symmetry_space_group_name_H-M "P N M A"
_symmetry_group_IT_number 62
_symmetry_cell_setting 'orthorhombic'
loop_
_space_group_symop_operation_xyz
x,y,z
1/2-x,-y,1/2+z
1/2+x,1/2-y,1/2-z
-x,1/2+y,-z
-x,-y,-z
1/2+x,y,1/2-z
1/2-x,1/2+y,1/2+z
x,1/2-y,z
loop_
_atom_site_type_symbol
_atom_site_label
_atom_site_fract_x
_atom_site_fract_y
_atom_site_fract_z
Si Si1 0.453571 0.427724 0.555329
Si Si2 0.722762 0.416933 0.179642
Si Si3 0.667807 0.077588 0.505474
Si Si4 0.353472 0.923336 0.338430
Si Si5 0.510901 0.572062 0.686300
Si Si6 0.057381 0.072324 0.457234
Si Si7 0.421849 0.571772 0.809516
Si Si8 0.796804 0.916023 0.522430
O O1 0.500000 0.500000 0.500000
O O2 0.462173 0.250000 0.552728
O O3 0.377823 0.474041 0.541079
O O4 0.474284 0.486567 0.627160
O O5 0.737874 0.250000 0.208331
O O6 0.784740 0.525077 0.196600
O O7 0.653360 0.484103 0.209224
O O8 0.713234 0.406094 0.101002
O O9 0.657760 0.250000 0.485203
O O10 0.648501 0.049591 0.582292
O O11 0.744111 0.031854 0.490870
O O12 0.365657 0.750000 0.321319
O O13 0.412663 0.022233 0.307921
O O14 0.506775 0.750000 0.674644
O O15 0.474075 0.520350 0.753816
O O16 0.048284 0.250000 0.456990
O O17 0.054389 0.008370 0.381368
O O18 0.128001 0.028177 0.491359
O O19 0.000000 0.000000 0.500000
O O20 0.417060 0.750000 0.814929
O O21 0.785199 0.750000 0.491524
#
# Coordination Sequence:
#
# PCOD8250864 Si02
#       8
#     8   8   8   8   8   8   8   8
#     4  12  23  35  51  74 105 140 177 216 259 307
#     4   8  14  29  52  73  95 126 168 212 252 300
#     4  10  19  31  49  73 103 134 171 215 256 301
#     4  10  19  30  47  75 106 132 167 215 259 304
#     4  11  21  34  54  76 102 139 179 217 263 312
#     4   9  17  32  55  82 109 135 170 215 263 314
#     4   8  17  34  55  78 103 134 174 216 257 314
#     4   8  15  28  48  74 102 132 166 208 257 304
#
# _framework density 17.871745000000001
#
# number of rings (size 3 to 8) (size 9 to 14) (size 15 to 20)
#    0.000    2.500    1.250    3.750    0.000    1.500 
#    0.000    4.375    2.750    0.000    0.000    0.000 
#    0.000    0.000    0.000    0.000    0.000    0.000 
#
# Total GULP energy -793393.740579 kJ/mol
# GULP energy per Si atom -12396.777197 kJ/mol
# Density = 1.783107 g / cm^3
# Si number density = 17.871745 Si / 1000 Ang^3
#
#
#
# Elastic Constant Matrix: (Units=GPa)
#
#
# Indices 1 2 3 4 5 6 
#
# 1 159.9984 56.3224 56.1748 0.0000 0.0000 0.0000
# 2 56.3224 88.0516 33.0656 0.0000 0.0000 0.0000
# 3 56.1748 33.0656 66.3654 0.0000 0.0000 0.0000
# 4 0.0000 0.0000 0.0000 18.9061 0.0000 0.0000
# 5 0.0000 0.0000 0.0000 0.0000 25.7930 0.0000
# 6 0.0000 0.0000 0.0000 0.0000 0.0000 31.2661
#
#
#
# Elastic Compliance Matrix: (Units=1/GPa)
#
#
# Indices 1 2 3 4 5 6 
#
# 1 0.009878 -0.003910 -0.006413 0.000000 0.000000 0.000000
# 2 -0.003910 0.015519 -0.004422 0.000000 0.000000 0.000000
# 3 -0.006413 -0.004422 0.022700 0.000000 0.000000 0.000000
# 4 0.000000 0.000000 0.000000 0.052893 0.000000 0.000000
# 5 0.000000 0.000000 0.000000 0.000000 0.038770 0.000000
# 6 0.000000 0.000000 0.000000 0.000000 0.000000 0.031984
#
#
# Mechanical properties :
#
#
# Convention : Reuss Voigt Hill
#
# Bulk Modulus (GPa) = 53.74728 67.28232 60.51480
# Shear Modulus (GPa) = 24.10376 26.44988 25.27682
#
# Velocity S-wave (km/s) = 3.67646 3.85123 3.76486
# Velocity P-wave (km/s) = 6.93981 7.58320 7.26863
#
# Compressibility (1/GPa) = 0.01860559
#
# Stress axis : x y z
#
# Youngs Moduli (GPa) = 101.23326 64.43774 44.05336
#
# Poissons Ratio (x) = 0.25197 0.28252
# Poissons Ratio (y) = 0.39585 0.19481
# Poissons Ratio (z) = 0.64922 0.28496
#
# Static dielectric constant tensor:
#      x y z
#    x 3.739700 0.000000 0.000000 
#    y 0.000000 3.268870 0.000000 
#    z 0.000000 0.000000 2.458300 
# 
# 
# High freq. dielectric constant tensor:
#      x y z
#    x 1.709290 0.000000 0.000000 
#    y 0.000000 1.684560 0.000000 
#    z 0.000000 0.000000 1.645120 
# 
# From -- ./inp_files/24742.got.cif
#   From: 2010.03.12/outbox.cif.g09.slc.cpg/sg62_13_cif.got.tgz:24742.got - 2010.04.10 19:12:36.
