data_PCOD8250940
_publ_section_title
;
Structure prediction by ZEFSAII (Michael W. Deem and Ramdas Pophale) SiO2 
 PCOD8250940
Probable space group: P N M A
;
_chemical_formula_sum "Si O2"
_cell_formula_units_Z 56
_cell_length_a 19.024716
_cell_length_b 9.313728
_cell_length_c 19.205004
_cell_angle_alpha 90.000000
_cell_angle_beta 90.000000
_cell_angle_gamma 90.000000
_cell_volume 3402.954442
_symmetry_space_group_name_H-M "P N M A"
_symmetry_group_IT_number 62
_symmetry_cell_setting 'orthorhombic'
loop_
_space_group_symop_operation_xyz
x,y,z
1/2-x,-y,1/2+z
1/2+x,1/2-y,1/2-z
-x,1/2+y,-z
-x,-y,-z
1/2+x,y,1/2-z
1/2-x,1/2+y,1/2+z
x,1/2-y,z
loop_
_atom_site_type_symbol
_atom_site_label
_atom_site_fract_x
_atom_site_fract_y
_atom_site_fract_z
Si Si1 0.338231 0.914027 0.270329
Si Si2 0.222495 0.583783 0.156946
Si Si3 0.293919 0.579797 0.018633
Si Si4 0.986474 0.583253 0.291526
Si Si5 0.758435 0.581434 0.633841
Si Si6 0.448825 0.581131 0.051086
Si Si7 0.125095 0.419092 0.254434
O O1 0.330850 0.750000 0.293786
O O2 0.293411 0.942014 0.200727
O O3 0.418629 0.953727 0.254960
O O4 0.310842 0.010044 0.333897
O O5 0.199473 0.750000 0.160234
O O6 0.238492 0.533318 0.078036
O O7 0.159301 0.486857 0.185369
O O8 0.298948 0.750000 0.016481
O O9 0.370911 0.520046 0.036974
O O10 0.269166 0.519747 0.943892
O O11 0.007221 0.750000 0.284397
O O12 0.970300 0.543448 0.370747
O O13 0.048703 0.484753 0.264163
O O14 0.745316 0.750000 0.633374
O O15 0.827296 0.541426 0.678752
O O16 0.453322 0.750000 0.036322
O O17 0.500000 0.500000 0.000000
O O18 0.118499 0.250000 0.243789
#
# Coordination Sequence:
#
# PCOD8250940 Si02
#       7
#     8   8   8   8   8   8   8
#     4   9  17  31  50  71  93 123 166 207 238 276
#     4   9  16  31  53  71  90 126 169 204 237 284
#     4   9  16  30  51  71  95 129 165 197 237 291
#     4  10  19  32  50  71  96 130 169 202 235 286
#     4   9  18  31  48  71  99 129 159 195 243 295
#     4  10  19  31  47  71 103 135 164 194 237 293
#     4  10  20  32  47  72 103 130 158 200 248 292
#
# _framework density 16.456288000000001
#
# number of rings (size 3 to 8) (size 9 to 14) (size 15 to 20)
#    0.000    2.571    1.429    1.286    0.000    2.857 
#    0.000    2.143    0.000    0.857    0.000    0.000 
#    0.000    0.000    0.000    0.000    0.000    0.000 
#
# Total GULP energy -694426.820797 kJ/mol
# GULP energy per Si atom -12400.478943 kJ/mol
# Density = 1.641883 g / cm^3
# Si number density = 16.456288 Si / 1000 Ang^3
#
#
#
# Elastic Constant Matrix: (Units=GPa)
#
#
# Indices 1 2 3 4 5 6 
#
# 1 116.3896 56.2761 77.3830 0.0000 0.0000 0.0000
# 2 56.2761 51.3545 39.2416 0.0000 0.0000 0.0000
# 3 77.3830 39.2416 105.5290 0.0000 0.0000 0.0000
# 4 0.0000 0.0000 0.0000 21.4132 0.0000 0.0000
# 5 0.0000 0.0000 0.0000 0.0000 24.1437 0.0000
# 6 0.0000 0.0000 0.0000 0.0000 0.0000 28.6454
#
#
#
# Elastic Compliance Matrix: (Units=1/GPa)
#
#
# Indices 1 2 3 4 5 6 
#
# 1 0.025593 -0.019145 -0.011648 0.000000 0.000000 0.000000
# 2 -0.019145 0.041524 -0.001402 0.000000 0.000000 0.000000
# 3 -0.011648 -0.001402 0.018538 0.000000 0.000000 0.000000
# 4 0.000000 0.000000 0.000000 0.046700 0.000000 0.000000
# 5 0.000000 0.000000 0.000000 0.000000 0.041419 0.000000
# 6 0.000000 0.000000 0.000000 0.000000 0.000000 0.034910
#
#
# Mechanical properties :
#
#
# Convention : Reuss Voigt Hill
#
# Bulk Modulus (GPa) = 47.02452 68.78604 57.90528
# Shear Modulus (GPa) = 17.84681 21.53194 19.68937
#
# Velocity S-wave (km/s) = 3.29674 3.62115 3.46275
# Velocity P-wave (km/s) = 6.56725 7.70543 7.15900
#
# Compressibility (1/GPa) = 0.02126550
#
# Stress axis : x y z
#
# Youngs Moduli (GPa) = 39.07324 24.08251 53.94192
#
# Poissons Ratio (x) = 0.46107 0.62830
# Poissons Ratio (y) = 0.74807 0.07562
# Poissons Ratio (z) = 0.45511 0.03376
#
# Static dielectric constant tensor:
#      x y z
#    x 3.079590 0.000000 0.000000 
#    y 0.000000 2.944520 0.000000 
#    z 0.000000 0.000000 3.343410 
# 
# 
# High freq. dielectric constant tensor:
#      x y z
#    x 1.626750 0.000000 0.000000 
#    y 0.000000 1.619250 0.000000 
#    z 0.000000 0.000000 1.629220 
# 
# From -- ./inp_files/24610.got.cif
#   From: 2010.03.12/outbox.cif.g09.slc.cpg/sg62_13_cif.got.tgz:24610.got - 2010.04.10 19:12:36.
