data_PCOD8250077
_publ_section_title
;
Structure prediction by ZEFSAII (Michael W. Deem and Ramdas Pophale) SiO2 
 PCOD8250077
Probable space group: P N M A
;
_chemical_formula_sum "Si O2"
_cell_formula_units_Z 40
_cell_length_a 36.522151
_cell_length_b 11.864865
_cell_length_c 5.041788
_cell_angle_alpha 90.000000
_cell_angle_beta 90.000000
_cell_angle_gamma 90.000000
_cell_volume 2184.759966
_symmetry_space_group_name_H-M "P N M A"
_symmetry_group_IT_number 62
_symmetry_cell_setting 'orthorhombic'
loop_
_space_group_symop_operation_xyz
x,y,z
1/2-x,-y,1/2+z
1/2+x,1/2-y,1/2-z
-x,1/2+y,-z
-x,-y,-z
1/2+x,y,1/2-z
1/2-x,1/2+y,1/2+z
x,1/2-y,z
loop_
_atom_site_type_symbol
_atom_site_label
_atom_site_fract_x
_atom_site_fract_y
_atom_site_fract_z
Si Si1 0.952979 0.969276 0.753379
Si Si2 0.242397 0.867531 0.725486
Si Si3 0.097008 0.250000 0.219679
Si Si4 0.210440 0.090933 0.725410
Si Si5 0.645322 0.250000 0.780835
Si Si6 0.965039 0.114515 0.249014
O O1 0.991799 0.906963 0.765267
O O2 0.948590 0.054421 0.507777
O O3 0.924932 0.865669 0.734989
O O4 0.945861 0.050519 0.004048
O O5 0.222098 0.750000 0.774497
O O6 0.275507 0.881229 0.932313
O O7 0.209691 0.956319 0.757748
O O8 0.260533 0.863362 0.436373
O O9 0.111481 0.250000 0.919359
O O10 0.130842 0.250000 0.420651
O O11 0.170112 0.139526 0.767349
O O12 0.957443 0.250000 0.247428
#
# Coordination Sequence:
#
# PCOD8250077 Si02
#       6
#     8   8   4   8   4   8
#     4  10  21  35  54  86 112 144 189 222 293 325
#     4  10  17  32  54  76 110 130 173 239 268 313
#     4  12  24  38  56  80 120 154 184 230 264 350
#     4  10  20  31  51  82 103 140 179 214 278 315
#     4  12  22  36  54  76 120 152 184 222 266 344
#     4  10  19  35  60  82 113 139 179 251 280 330
#
# _framework density 18.308647000000001
#
# number of rings (size 3 to 8) (size 9 to 14) (size 15 to 20)
#    0.000    1.600    3.000    3.000    0.000    0.000 
#    0.000    0.000    0.000    7.200    0.000    0.000 
#    0.000    0.000    0.000    0.000    0.000    0.000 
#
# Total GULP energy -495682.289289 kJ/mol
# GULP energy per Si atom -12392.057232 kJ/mol
# Density = 1.826698 g / cm^3
# Si number density = 18.308647 Si / 1000 Ang^3
#
#
#
# Elastic Constant Matrix: (Units=GPa)
#
#
# Indices 1 2 3 4 5 6 
#
# 1 59.3937 46.2983 14.5691 0.0000 0.0000 0.0000
# 2 46.2983 202.7856 40.2757 0.0000 0.0000 0.0000
# 3 14.5691 40.2757 100.4716 0.0000 0.0000 0.0000
# 4 0.0000 0.0000 0.0000 27.3979 0.0000 0.0000
# 5 0.0000 0.0000 0.0000 0.0000 21.0027 0.0000
# 6 0.0000 0.0000 0.0000 0.0000 0.0000 31.7042
#
#
#
# Elastic Compliance Matrix: (Units=1/GPa)
#
#
# Indices 1 2 3 4 5 6 
#
# 1 0.020614 -0.004468 -0.001198 0.000000 0.000000 0.000000
# 2 -0.004468 0.006327 -0.001888 0.000000 0.000000 0.000000
# 3 -0.001198 -0.001888 0.010884 0.000000 0.000000 0.000000
# 4 0.000000 0.000000 0.000000 0.036499 0.000000 0.000000
# 5 0.000000 0.000000 0.000000 0.000000 0.047613 0.000000
# 6 0.000000 0.000000 0.000000 0.000000 0.000000 0.031542
#
#
# Mechanical properties :
#
#
# Convention : Reuss Voigt Hill
#
# Bulk Modulus (GPa) = 44.02366 62.77079 53.39723
# Shear Modulus (GPa) = 28.38356 33.45483 30.91920
#
# Velocity S-wave (km/s) = 3.94163 4.27929 4.11393
# Velocity P-wave (km/s) = 6.69424 7.66653 7.19682
#
# Compressibility (1/GPa) = 0.02271506
#
# Stress axis : x y z
#
# Youngs Moduli (GPa) = 48.51098 158.06459 91.88089
#
# Poissons Ratio (x) = 0.70631 0.11006
# Poissons Ratio (y) = 0.21677 0.17348
# Poissons Ratio (z) = 0.05811 0.29845
#
# Static dielectric constant tensor:
#      x y z
#    x 2.910920 0.000000 0.000000 
#    y 0.000000 3.990220 0.000000 
#    z 0.000000 0.000000 3.597650 
# 
# 
# High freq. dielectric constant tensor:
#      x y z
#    x 1.658380 0.000000 0.000000 
#    y 0.000000 1.733610 0.000000 
#    z 0.000000 0.000000 1.733140 
# 
# From -- ./inp_files/3519.got.cif
#   From: 2010.03.12/outbox.cif.g09.slc.cpg/sg62_2_cif.got.tgz:3519.got - 2010.04.10 19:12:36.
