data_PCOD8250025
_publ_section_title
;
Structure prediction by ZEFSAII (Michael W. Deem and Ramdas Pophale) SiO2 
 PCOD8250025
Probable space group: P N M A
;
_chemical_formula_sum "Si O2"
_cell_formula_units_Z 56
_cell_length_a 9.454075
_cell_length_b 24.400739
_cell_length_c 15.357556
_cell_angle_alpha 90.000000
_cell_angle_beta 90.000000
_cell_angle_gamma 90.000000
_cell_volume 3542.779561
_symmetry_space_group_name_H-M "P N M A"
_symmetry_group_IT_number 62
_symmetry_cell_setting 'orthorhombic'
loop_
_space_group_symop_operation_xyz
x,y,z
1/2-x,-y,1/2+z
1/2+x,1/2-y,1/2-z
-x,1/2+y,-z
-x,-y,-z
1/2+x,y,1/2-z
1/2-x,1/2+y,1/2+z
x,1/2-y,z
loop_
_atom_site_type_symbol
_atom_site_label
_atom_site_fract_x
_atom_site_fract_y
_atom_site_fract_z
Si Si1 0.285957 0.888455 0.608671
Si Si2 0.211263 0.966470 0.762785
Si Si3 0.083368 0.689679 0.699390
Si Si4 0.141615 0.187328 0.443599
Si Si5 0.404841 0.126765 0.373427
Si Si6 0.473152 0.086509 0.005532
Si Si7 0.532525 0.502779 0.144133
O O1 0.289536 0.929641 0.690479
O O2 0.209702 0.832907 0.639740
O O3 0.446249 0.879390 0.575043
O O4 0.194708 0.909864 0.526243
O O5 0.158023 0.931786 0.846292
O O6 0.321871 0.009428 0.803266
O O7 0.088780 0.000608 0.716639
O O8 0.130119 0.750000 0.726747
O O9 0.053244 0.655426 0.784142
O O10 0.933700 0.688783 0.649854
O O11 0.147565 0.250000 0.481962
O O12 0.299165 0.162943 0.432124
O O13 0.050547 0.145650 0.504115
O O14 0.540076 0.052900 0.086679
O O15 0.495547 0.055586 0.915076
#
# Coordination Sequence:
#
# PCOD8250025 Si02
#       7
#     8   8   8   8   8   8   8
#     4   9  18  28  42  61  94 125 159 195 232 269
#     4  10  17  29  46  70  89 125 154 198 238 277
#     4   9  17  26  38  58  87 126 166 192 219 271
#     4  10  19  30  44  65  95 131 164 194 235 288
#     4  11  17  25  40  64  94 121 157 197 228 270
#     4   9  19  34  47  67  95 134 160 192 238 297
#     4  10  18  32  52  69  96 124 163 198 243 284
#
# _framework density 15.806798000000001
#
# number of rings (size 3 to 8) (size 9 to 14) (size 15 to 20)
#    0.000    2.286    2.857    3.000    0.000    2.286 
#    0.000    2.143    0.000    0.000    0.000    1.000 
#    0.000    0.000    0.000    0.000    0.000    0.000 
#
# Total GULP energy -694133.824677 kJ/mol
# GULP energy per Si atom -12395.246869 kJ/mol
# Density = 1.577082 g / cm^3
# Si number density = 15.806798 Si / 1000 Ang^3
#
#
#
# Elastic Constant Matrix: (Units=GPa)
#
#
# Indices 1 2 3 4 5 6 
#
# 1 122.2239 41.5384 32.6874 0.0000 0.0000 0.0000
# 2 41.5384 78.7764 30.4866 0.0000 0.0000 0.0000
# 3 32.6874 30.4866 35.8268 0.0000 0.0000 0.0000
# 4 0.0000 0.0000 0.0000 17.0779 0.0000 0.0000
# 5 0.0000 0.0000 0.0000 0.0000 9.6623 0.0000
# 6 0.0000 0.0000 0.0000 0.0000 0.0000 18.1555
#
#
#
# Elastic Compliance Matrix: (Units=1/GPa)
#
#
# Indices 1 2 3 4 5 6 
#
# 1 0.011257 -0.002924 -0.007782 0.000000 0.000000 0.000000
# 2 -0.002924 0.019687 -0.014085 0.000000 0.000000 0.000000
# 3 -0.007782 -0.014085 0.046998 0.000000 0.000000 0.000000
# 4 0.000000 0.000000 0.000000 0.058555 0.000000 0.000000
# 5 0.000000 0.000000 0.000000 0.000000 0.103495 0.000000
# 6 0.000000 0.000000 0.000000 0.000000 0.000000 0.055080
#
#
# Mechanical properties :
#
#
# Convention : Reuss Voigt Hill
#
# Bulk Modulus (GPa) = 35.26151 49.58354 42.42253
# Shear Modulus (GPa) = 14.12010 17.78680 15.95345
#
# Velocity S-wave (km/s) = 2.99204 3.35813 3.18036
# Velocity P-wave (km/s) = 5.85599 6.81709 6.35474
#
# Compressibility (1/GPa) = 0.02835953
#
# Stress axis : x y z
#
# Youngs Moduli (GPa) = 88.83628 50.79587 21.27769
#
# Poissons Ratio (x) = 0.14852 0.16559
# Poissons Ratio (y) = 0.25974 0.29969
# Poissons Ratio (z) = 0.69135 0.71544
#
# Static dielectric constant tensor:
#      x y z
#    x 3.071530 0.000000 0.000000 
#    y 0.000000 2.984550 0.000000 
#    z 0.000000 0.000000 2.550140 
# 
# 
# High freq. dielectric constant tensor:
#      x y z
#    x 1.620910 0.000000 0.000000 
#    y 0.000000 1.590870 0.000000 
#    z 0.000000 0.000000 1.547020 
# 
# From -- ./inp_files/22596.got.cif
#   From: 2010.03.12/outbox.cif.g09.slc.cpg/sg62_12_cif.got.tgz:22596.got - 2010.04.10 19:12:36.
