data_PCOD8250359
_publ_section_title
;
Structure prediction by ZEFSAII (Michael W. Deem and Ramdas Pophale) SiO2 
 PCOD8250359
Probable space group: P N M A
;
_chemical_formula_sum "Si O2"
_cell_formula_units_Z 56
_cell_length_a 17.422270
_cell_length_b 9.418467
_cell_length_c 19.211420
_cell_angle_alpha 90.000000
_cell_angle_beta 90.000000
_cell_angle_gamma 90.000000
_cell_volume 3152.422561
_symmetry_space_group_name_H-M "P N M A"
_symmetry_group_IT_number 62
_symmetry_cell_setting 'orthorhombic'
loop_
_space_group_symop_operation_xyz
x,y,z
1/2-x,-y,1/2+z
1/2+x,1/2-y,1/2-z
-x,1/2+y,-z
-x,-y,-z
1/2+x,y,1/2-z
1/2-x,1/2+y,1/2+z
x,1/2-y,z
loop_
_atom_site_type_symbol
_atom_site_label
_atom_site_fract_x
_atom_site_fract_y
_atom_site_fract_z
Si Si1 0.439070 0.586122 0.092810
Si Si2 0.477620 0.416446 0.569922
Si Si3 0.695109 0.583438 0.399199
Si Si4 0.627150 0.417156 0.647009
Si Si5 0.676656 0.082126 0.794799
Si Si6 0.262739 0.912596 0.469591
Si Si7 0.905360 0.091048 0.540650
O O1 0.416612 0.750000 0.088029
O O2 0.391247 0.519146 0.156365
O O3 0.531438 0.562625 0.101587
O O4 0.414205 0.519063 0.020787
O O5 0.500000 0.500000 0.500000
O O6 0.479840 0.250000 0.551245
O O7 0.394491 0.461867 0.600512
O O8 0.537835 0.452342 0.631884
O O9 0.703575 0.750000 0.413251
O O10 0.739091 0.543096 0.326702
O O11 0.739552 0.502272 0.459996
O O12 0.641572 0.250000 0.649271
O O13 0.659681 0.485473 0.718688
O O14 0.675217 0.480529 0.582498
O O15 0.668283 0.250000 0.788305
O O16 0.282951 0.750000 0.488871
O O17 0.180758 0.922742 0.429983
O O18 0.918815 0.250000 0.510808
#
# Coordination Sequence:
#
# PCOD8250359 Si02
#       7
#     8   8   8   8   8   8   8
#     4   9  16  28  46  66  90 122 155 191 236 282
#     4  10  19  32  52  76  98 124 163 206 246 291
#     4  10  19  31  51  76  97 124 165 205 241 288
#     4   9  18  32  48  69  99 130 158 197 249 293
#     4   9  17  31  48  68  98 131 160 197 247 295
#     4  10  18  30  49  71  96 126 159 199 242 288
#     4   9  17  27  43  70  93 115 155 197 232 279
#
# _framework density 17.764116000000001
#
# number of rings (size 3 to 8) (size 9 to 14) (size 15 to 20)
#    0.000    2.571    2.857    0.000    0.000    0.000 
#    2.571    0.000    0.000    3.429    0.000    0.000 
#    0.000    0.000    0.000    0.000    0.000    0.000 
#
# Total GULP energy -693815.148189 kJ/mol
# GULP energy per Si atom -12389.556218 kJ/mol
# Density = 1.772368 g / cm^3
# Si number density = 17.764116 Si / 1000 Ang^3
#
#
#
# Elastic Constant Matrix: (Units=GPa)
#
#
# Indices 1 2 3 4 5 6 
#
# 1 139.0787 19.5761 48.9907 0.0000 0.0000 0.0000
# 2 19.5761 23.4176 17.8446 0.0000 0.0000 0.0000
# 3 48.9907 17.8446 97.4788 0.0000 0.0000 0.0000
# 4 0.0000 0.0000 0.0000 15.7368 0.0000 0.0000
# 5 0.0000 0.0000 0.0000 0.0000 30.4700 0.0000
# 6 0.0000 0.0000 0.0000 0.0000 0.0000 17.4889
#
#
#
# Elastic Compliance Matrix: (Units=1/GPa)
#
#
# Indices 1 2 3 4 5 6 
#
# 1 0.009185 -0.004835 -0.003731 0.000000 0.000000 0.000000
# 2 -0.004835 0.052171 -0.007120 0.000000 0.000000 0.000000
# 3 -0.003731 -0.007120 0.013437 0.000000 0.000000 0.000000
# 4 0.000000 0.000000 0.000000 0.063545 0.000000 0.000000
# 5 0.000000 0.000000 0.000000 0.000000 0.032819 0.000000
# 6 0.000000 0.000000 0.000000 0.000000 0.000000 0.057179
#
#
# Mechanical properties :
#
#
# Convention : Reuss Voigt Hill
#
# Bulk Modulus (GPa) = 23.03096 48.08864 35.55980
# Shear Modulus (GPa) = 18.23598 24.31005 21.27301
#
# Velocity S-wave (km/s) = 3.20748 3.70333 3.46428
# Velocity P-wave (km/s) = 5.16820 6.73911 6.00524
#
# Compressibility (1/GPa) = 0.04341981
#
# Stress axis : x y z
#
# Youngs Moduli (GPa) = 108.87293 19.16783 74.41999
#
# Poissons Ratio (x) = 0.09268 0.27767
# Poissons Ratio (y) = 0.52642 0.52990
# Poissons Ratio (z) = 0.40621 0.13648
#
# Static dielectric constant tensor:
#      x y z
#    x 3.769450 0.000000 0.000000 
#    y 0.000000 3.009120 0.000000 
#    z 0.000000 0.000000 3.279690 
# 
# 
# High freq. dielectric constant tensor:
#      x y z
#    x 1.711880 0.000000 0.000000 
#    y 0.000000 1.650310 0.000000 
#    z 0.000000 0.000000 1.659360 
# 
# From -- ./inp_files/27584.got.cif
#   From: 2010.03.12/outbox.cif.g09.slc.cpg/sg62_14_cif.got.tgz:27584.got - 2010.04.10 19:12:36.
