data_PCOD8250006
_publ_section_title
;
Structure prediction by ZEFSAII (Michael W. Deem and Ramdas Pophale) SiO2 
 PCOD8250006
Probable space group: P N M A
;
_chemical_formula_sum "Si O2"
_cell_formula_units_Z 56
_cell_length_a 24.907524
_cell_length_b 9.546116
_cell_length_c 14.261967
_cell_angle_alpha 90.000000
_cell_angle_beta 90.000000
_cell_angle_gamma 90.000000
_cell_volume 3391.069511
_symmetry_space_group_name_H-M "P N M A"
_symmetry_group_IT_number 62
_symmetry_cell_setting 'orthorhombic'
loop_
_space_group_symop_operation_xyz
x,y,z
1/2-x,-y,1/2+z
1/2+x,1/2-y,1/2-z
-x,1/2+y,-z
-x,-y,-z
1/2+x,y,1/2-z
1/2-x,1/2+y,1/2+z
x,1/2-y,z
loop_
_atom_site_type_symbol
_atom_site_label
_atom_site_fract_x
_atom_site_fract_y
_atom_site_fract_z
Si Si1 0.291117 0.084082 0.733347
Si Si2 0.337005 0.904345 0.011513
Si Si3 0.606670 0.091773 0.801245
Si Si4 0.214434 0.587702 0.022127
Si Si5 0.614169 0.910717 0.137551
Si Si6 0.186880 0.082135 0.849376
Si Si7 0.496812 0.585500 0.096321
O O1 0.287531 0.250000 0.726723
O O2 0.291942 0.025875 0.627125
O O3 0.347029 0.031272 0.780435
O O4 0.240348 0.030208 0.793949
O O5 0.354392 0.750000 0.977192
O O6 0.275374 0.930784 0.989543
O O7 0.374285 0.014554 0.960151
O O8 0.346098 0.918031 0.122234
O O9 0.590903 0.250000 0.778341
O O10 0.633820 0.028976 0.707486
O O11 0.551658 0.021504 0.839912
O O12 0.196020 0.750000 0.016128
O O13 0.180921 0.492439 0.950047
O O14 0.628500 0.750000 0.121048
O O15 0.551020 0.932680 0.158281
O O16 0.187867 0.250000 0.861667
O O17 0.486932 0.750000 0.071894
O O18 0.500000 0.500000 0.000000
#
# Coordination Sequence:
#
# PCOD8250006 Si02
#       7
#     8   8   8   8   8   8   8
#     4   9  17  30  47  66  92 124 153 184 231 280
#     4  10  17  27  46  69  94 124 153 184 227 281
#     4   9  17  30  47  67  94 128 158 182 226 288
#     4  10  19  31  47  69  95 124 156 190 233 281
#     4  10  19  30  46  70  96 123 155 191 228 273
#     4  10  18  31  50  68  90 125 160 192 229 274
#     4  10  19  30  47  71  96 123 156 192 233 280
#
# _framework density 16.513964000000001
#
# number of rings (size 3 to 8) (size 9 to 14) (size 15 to 20)
#    0.000    2.286    4.286    0.000    0.000    0.000 
#    0.000    2.857    0.000    0.857    0.000    0.000 
#    0.000    0.000    0.000    0.000    0.000    0.000 
#
# Total GULP energy -693941.663622 kJ/mol
# GULP energy per Si atom -12391.815422 kJ/mol
# Density = 1.647638 g / cm^3
# Si number density = 16.513964 Si / 1000 Ang^3
#
#
#
# Elastic Constant Matrix: (Units=GPa)
#
#
# Indices 1 2 3 4 5 6 
#
# 1 78.9557 19.6359 34.0809 0.0000 0.0000 0.0000
# 2 19.6359 31.4445 22.5738 0.0000 0.0000 0.0000
# 3 34.0809 22.5738 83.0338 0.0000 0.0000 0.0000
# 4 0.0000 0.0000 0.0000 24.7224 0.0000 0.0000
# 5 0.0000 0.0000 0.0000 0.0000 28.3038 0.0000
# 6 0.0000 0.0000 0.0000 0.0000 0.0000 14.1148
#
#
#
# Elastic Compliance Matrix: (Units=1/GPa)
#
#
# Indices 1 2 3 4 5 6 
#
# 1 0.016470 -0.006749 -0.004925 0.000000 0.000000 0.000000
# 2 -0.006749 0.042279 -0.008724 0.000000 0.000000 0.000000
# 3 -0.004925 -0.008724 0.016437 0.000000 0.000000 0.000000
# 4 0.000000 0.000000 0.000000 0.040449 0.000000 0.000000
# 5 0.000000 0.000000 0.000000 0.000000 0.035331 0.000000
# 6 0.000000 0.000000 0.000000 0.000000 0.000000 0.070848
#
#
# Mechanical properties :
#
#
# Convention : Reuss Voigt Hill
#
# Bulk Modulus (GPa) = 29.07885 38.44615 33.76250
# Shear Modulus (GPa) = 18.24330 21.23775 19.74053
#
# Velocity S-wave (km/s) = 3.32734 3.59004 3.46118
# Velocity P-wave (km/s) = 5.69284 6.36522 6.03840
#
# Compressibility (1/GPa) = 0.03438926
#
# Stress axis : x y z
#
# Youngs Moduli (GPa) = 60.71764 23.65214 60.84006
#
# Poissons Ratio (x) = 0.15963 0.29964
# Poissons Ratio (y) = 0.40978 0.53078
# Poissons Ratio (z) = 0.29904 0.20634
#
# Static dielectric constant tensor:
#      x y z
#    x 3.301100 0.000000 0.000000 
#    y 0.000000 2.854600 0.000000 
#    z 0.000000 0.000000 3.078830 
# 
# 
# High freq. dielectric constant tensor:
#      x y z
#    x 1.633300 0.000000 0.000000 
#    y 0.000000 1.604590 0.000000 
#    z 0.000000 0.000000 1.623130 
# 
# From -- ./inp_files/15234.got.cif
#   From: 2010.03.12/outbox.cif.g09.slc.cpg/sg62_8_cif.got.tgz:15234.got - 2010.04.10 19:12:36.
