data_PCOD8250430
_publ_section_title
;
Structure prediction by ZEFSAII (Michael W. Deem and Ramdas Pophale) SiO2 
 PCOD8250430
Probable space group: P N M A
;
_chemical_formula_sum "Si O2"
_cell_formula_units_Z 40
_cell_length_a 9.547385
_cell_length_b 8.982721
_cell_length_c 28.245769
_cell_angle_alpha 90.000000
_cell_angle_beta 90.000000
_cell_angle_gamma 90.000000
_cell_volume 2422.399398
_symmetry_space_group_name_H-M "P N M A"
_symmetry_group_IT_number 62
_symmetry_cell_setting 'orthorhombic'
loop_
_space_group_symop_operation_xyz
x,y,z
1/2-x,-y,1/2+z
1/2+x,1/2-y,1/2-z
-x,1/2+y,-z
-x,-y,-z
1/2+x,y,1/2-z
1/2-x,1/2+y,1/2+z
x,1/2-y,z
loop_
_atom_site_type_symbol
_atom_site_label
_atom_site_fract_x
_atom_site_fract_y
_atom_site_fract_z
Si Si1 0.528733 0.581538 0.951469
Si Si2 0.374808 0.580885 0.861122
Si Si3 0.327131 0.572605 0.296768
Si Si4 0.853818 0.926047 0.368739
Si Si5 0.142034 0.925766 0.209676
O O1 0.576518 0.750000 0.961909
O O2 0.387855 0.578122 0.918749
O O3 0.652281 0.498242 0.921574
O O4 0.500000 0.500000 0.000000
O O5 0.375891 0.750000 0.842250
O O6 0.510795 0.492130 0.840559
O O7 0.233926 0.497520 0.845056
O O8 0.326791 0.750000 0.301005
O O9 0.484580 0.510961 0.289802
O O10 0.231543 0.511797 0.253749
O O11 0.871304 0.750000 0.372808
O O12 0.715512 0.971693 0.339693
O O13 0.139483 0.750000 0.214595
#
# Coordination Sequence:
#
# PCOD8250430 Si02
#       5
#     8   8   8   8   8
#     4   9  18  31  51  77 103 127 167 210 252 300
#     4   9  19  32  46  71 101 127 164 206 247 297
#     4  10  18  31  50  71  98 133 172 208 245 293
#     4   9  16  30  51  73 100 130 163 205 250 293
#     4   9  18  30  49  75  99 130 172 210 245 293
#
# _framework density 16.512554999999999
#
# number of rings (size 3 to 8) (size 9 to 14) (size 15 to 20)
#    1.200    1.600    0.000    2.400    0.000    3.200 
#    0.000    7.000    0.000    1.200    0.000    0.000 
#    0.000    0.000    0.000    0.000    0.000    0.000 
#
# Total GULP energy -495561.223088 kJ/mol
# GULP energy per Si atom -12389.030577 kJ/mol
# Density = 1.647497 g / cm^3
# Si number density = 16.512555 Si / 1000 Ang^3
#
#
#
# Elastic Constant Matrix: (Units=GPa)
#
#
# Indices 1 2 3 4 5 6 
#
# 1 124.3884 38.4611 55.0564 0.0000 0.0000 0.0000
# 2 38.4611 83.6437 40.1303 0.0000 0.0000 0.0000
# 3 55.0564 40.1303 96.8998 0.0000 0.0000 0.0000
# 4 0.0000 0.0000 0.0000 25.0065 0.0000 0.0000
# 5 0.0000 0.0000 0.0000 0.0000 22.7108 0.0000
# 6 0.0000 0.0000 0.0000 0.0000 0.0000 15.1586
#
#
#
# Elastic Compliance Matrix: (Units=1/GPa)
#
#
# Indices 1 2 3 4 5 6 
#
# 1 0.011180 -0.002612 -0.005270 0.000000 0.000000 0.000000
# 2 -0.002612 0.015530 -0.004948 0.000000 0.000000 0.000000
# 3 -0.005270 -0.004948 0.015363 0.000000 0.000000 0.000000
# 4 0.000000 0.000000 0.000000 0.039990 0.000000 0.000000
# 5 0.000000 0.000000 0.000000 0.000000 0.044032 0.000000
# 6 0.000000 0.000000 0.000000 0.000000 0.000000 0.065969
#
#
# Mechanical properties :
#
#
# Convention : Reuss Voigt Hill
#
# Bulk Modulus (GPa) = 60.92571 63.58083 62.25327
# Shear Modulus (GPa) = 22.40191 23.99412 23.19801
#
# Velocity S-wave (km/s) = 3.68728 3.81607 3.75223
# Velocity P-wave (km/s) = 7.42326 7.61608 7.52029
#
# Compressibility (1/GPa) = 0.01641343
#
# Stress axis : x y z
#
# Youngs Moduli (GPa) = 89.44763 64.39008 65.08960
#
# Poissons Ratio (x) = 0.16819 0.34304
# Poissons Ratio (y) = 0.23365 0.32204
# Poissons Ratio (z) = 0.47142 0.31858
#
# Static dielectric constant tensor:
#      x y z
#    x 3.052960 0.000000 0.000000 
#    y 0.000000 2.984850 0.000000 
#    z 0.000000 0.000000 2.974860 
# 
# 
# High freq. dielectric constant tensor:
#      x y z
#    x 1.611520 0.000000 0.000000 
#    y 0.000000 1.631220 0.000000 
#    z 0.000000 0.000000 1.623660 
# 
# From -- ./inp_files/31790.got.cif
#   From: 2010.03.12/outbox.cif.g09.slc.cpg/sg62_16_cif.got.tgz:31790.got - 2010.04.10 19:12:36.
