data_PCOD8250439
_publ_section_title
;
Structure prediction by ZEFSAII (Michael W. Deem and Ramdas Pophale) SiO2 
 PCOD8250439
Probable space group: P N M A
;
_chemical_formula_sum "Si O2"
_cell_formula_units_Z 64
_cell_length_a 19.412641
_cell_length_b 9.023429
_cell_length_c 20.836618
_cell_angle_alpha 90.000000
_cell_angle_beta 90.000000
_cell_angle_gamma 90.000000
_cell_volume 3649.920949
_symmetry_space_group_name_H-M "P N M A"
_symmetry_group_IT_number 62
_symmetry_cell_setting 'orthorhombic'
loop_
_space_group_symop_operation_xyz
x,y,z
1/2-x,-y,1/2+z
1/2+x,1/2-y,1/2-z
-x,1/2+y,-z
-x,-y,-z
1/2+x,y,1/2-z
1/2-x,1/2+y,1/2+z
x,1/2-y,z
loop_
_atom_site_type_symbol
_atom_site_label
_atom_site_fract_x
_atom_site_fract_y
_atom_site_fract_z
Si Si1 0.204380 0.074500 0.686590
Si Si2 0.213821 0.577966 0.925197
Si Si3 0.569259 0.924884 0.372891
Si Si4 0.209952 0.574613 0.310796
Si Si5 0.790490 0.424932 0.932387
Si Si6 0.065626 0.579893 0.875735
Si Si7 0.425387 0.079880 0.229925
Si Si8 0.580122 0.423049 0.236802
O O1 0.202442 0.250000 0.685076
O O2 0.245996 0.019735 0.749438
O O3 0.241172 0.008409 0.622977
O O4 0.126320 0.015973 0.686919
O O5 0.232903 0.750000 0.912659
O O6 0.253094 0.474315 0.875781
O O7 0.131768 0.555577 0.919806
O O8 0.233877 0.524079 0.996899
O O9 0.565940 0.750000 0.361905
O O10 0.630387 0.971993 0.420803
O O11 0.497393 0.982052 0.402895
O O12 0.585124 0.000881 0.305511
O O13 0.200708 0.750000 0.310568
O O14 0.135141 0.498413 0.310259
O O15 0.785867 0.250000 0.928437
O O16 0.040977 0.750000 0.874684
O O17 0.083148 0.528398 0.803561
O O18 0.403758 0.250000 0.222462
O O19 0.503888 0.052986 0.206919
O O20 0.596387 0.250000 0.244513
#
# Coordination Sequence:
#
# PCOD8250439 Si02
#       8
#     8   8   8   8   8   8   8   8
#     4  10  19  33  53  77 104 135 171 213 261 311
#     4  10  20  36  55  72 103 146 181 214 257 314
#     4  10  18  31  50  74 106 142 177 216 259 305
#     4  11  21  34  54  81 108 134 173 222 267 310
#     4   9  19  35  52  74 104 142 179 212 261 317
#     4   9  18  31  47  73 104 138 179 215 251 306
#     4   9  18  32  50  77 105 130 170 215 255 304
#     4  10  20  34  53  78 106 137 174 215 261 315
#
# _framework density 17.534624999999998
#
# number of rings (size 3 to 8) (size 9 to 14) (size 15 to 20)
#    0.000    2.250    2.500    1.875    0.000    4.000 
#    0.000    1.875    0.000    0.750    0.000    0.000 
#    0.000    0.000    0.000    0.000    0.000    0.000 
#
# Total GULP energy -793553.384415 kJ/mol
# GULP energy per Si atom -12399.271631 kJ/mol
# Density = 1.749472 g / cm^3
# Si number density = 17.534625 Si / 1000 Ang^3
#
#
#
# Elastic Constant Matrix: (Units=GPa)
#
#
# Indices 1 2 3 4 5 6 
#
# 1 95.2167 39.6333 47.2803 0.0000 0.0000 0.0000
# 2 39.6333 60.3359 30.5469 0.0000 0.0000 0.0000
# 3 47.2803 30.5469 94.7249 0.0000 0.0000 0.0000
# 4 0.0000 0.0000 0.0000 19.8330 0.0000 0.0000
# 5 0.0000 0.0000 0.0000 0.0000 24.0208 0.0000
# 6 0.0000 0.0000 0.0000 0.0000 0.0000 33.1310
#
#
#
# Elastic Compliance Matrix: (Units=1/GPa)
#
#
# Indices 1 2 3 4 5 6 
#
# 1 0.016712 -0.008072 -0.005738 0.000000 0.000000 0.000000
# 2 -0.008072 0.023707 -0.003616 0.000000 0.000000 0.000000
# 3 -0.005738 -0.003616 0.014587 0.000000 0.000000 0.000000
# 4 0.000000 0.000000 0.000000 0.050421 0.000000 0.000000
# 5 0.000000 0.000000 0.000000 0.000000 0.041631 0.000000
# 6 0.000000 0.000000 0.000000 0.000000 0.000000 0.030183
#
#
# Mechanical properties :
#
#
# Convention : Reuss Voigt Hill
#
# Bulk Modulus (GPa) = 49.62048 53.91094 51.76571
# Shear Modulus (GPa) = 22.85073 24.25143 23.55108
#
# Velocity S-wave (km/s) = 3.61387 3.72299 3.66883
# Velocity P-wave (km/s) = 6.76561 7.02090 6.89443
#
# Compressibility (1/GPa) = 0.02015297
#
# Stress axis : x y z
#
# Youngs Moduli (GPa) = 59.83802 42.18137 68.55399
#
# Poissons Ratio (x) = 0.34051 0.39338
# Poissons Ratio (y) = 0.48304 0.24788
# Poissons Ratio (z) = 0.34336 0.15252
#
# Static dielectric constant tensor:
#      x y z
#    x 3.399640 0.000000 0.000000 
#    y 0.000000 3.154360 0.000000 
#    z 0.000000 0.000000 3.210860 
# 
# 
# High freq. dielectric constant tensor:
#      x y z
#    x 1.681140 0.000000 0.000000 
#    y 0.000000 1.669140 0.000000 
#    z 0.000000 0.000000 1.652720 
# 
# From -- ./inp_files/27778.got.cif
#   From: 2010.03.12/outbox.cif.g09.slc.cpg/sg62_14_cif.got.tgz:27778.got - 2010.04.10 19:12:36.
