data_PCOD8250063
_publ_section_title
;
Structure prediction by ZEFSAII (Michael W. Deem and Ramdas Pophale) SiO2 
 PCOD8250063
Probable space group: P N M A
;
_chemical_formula_sum "Si O2"
_cell_formula_units_Z 64
_cell_length_a 23.278012
_cell_length_b 9.105208
_cell_length_c 19.112530
_cell_angle_alpha 90.000000
_cell_angle_beta 90.000000
_cell_angle_gamma 90.000000
_cell_volume 4050.922543
_symmetry_space_group_name_H-M "P N M A"
_symmetry_group_IT_number 62
_symmetry_cell_setting 'orthorhombic'
loop_
_space_group_symop_operation_xyz
x,y,z
1/2-x,-y,1/2+z
1/2+x,1/2-y,1/2-z
-x,1/2+y,-z
-x,-y,-z
1/2+x,y,1/2-z
1/2-x,1/2+y,1/2+z
x,1/2-y,z
loop_
_atom_site_type_symbol
_atom_site_label
_atom_site_fract_x
_atom_site_fract_y
_atom_site_fract_z
Si Si1 0.777666 0.919625 0.150488
Si Si2 0.110582 0.925156 0.505031
Si Si3 0.259228 0.075865 0.998514
Si Si4 0.436830 0.078319 0.858650
Si Si5 0.339681 0.078186 0.232600
Si Si6 0.932255 0.923017 0.356574
Si Si7 0.337117 0.081260 0.763326
Si Si8 0.725327 0.079181 0.352000
O O1 0.796797 0.750000 0.154872
O O2 0.774629 0.977607 0.070513
O O3 0.714944 0.941311 0.183086
O O4 0.824396 0.018165 0.190432
O O5 0.107224 0.750000 0.516062
O O6 0.175782 0.983141 0.499535
O O7 0.077358 0.981815 0.436061
O O8 0.080710 0.002761 0.569882
O O9 0.263179 0.250000 0.997316
O O10 0.225560 0.022006 0.067865
O O11 0.423500 0.250000 0.861617
O O12 0.501735 0.042916 0.837333
O O13 0.393803 0.011973 0.799950
O O14 0.353219 0.250000 0.236921
O O15 0.287672 0.043426 0.179959
O O16 0.395279 0.993159 0.205390
O O17 0.920257 0.750000 0.361490
O O18 0.346194 0.250000 0.743976
O O19 0.325144 0.000379 0.690203
O O20 0.712109 0.250000 0.347705
#
# Coordination Sequence:
#
# PCOD8250063 Si02
#       8
#     8   8   8   8   8   8   8   8
#     4   9  16  28  49  70  88 115 154 191 223 270
#     4  10  17  31  48  64  92 130 162 186 222 272
#     4   9  15  27  48  69  91 124 154 178 222 282
#     4   9  18  31  48  66  90 125 163 194 225 270
#     4  10  19  32  47  64  91 125 154 187 233 276
#     4  11  21  31  44  67  94 123 162 200 224 258
#     4   9  16  29  47  66  87 117 154 190 228 267
#     4   9  17  29  45  66  91 119 151 185 226 276
#
# _framework density 15.798870000000001
#
# number of rings (size 3 to 8) (size 9 to 14) (size 15 to 20)
#    0.000    2.500    2.500    1.125    0.000    0.500 
#    0.000    3.750    0.000    0.000    0.000    0.875 
#    0.000    0.000    0.000    0.000    0.000    0.000 
#
# Total GULP energy -793486.718935 kJ/mol
# GULP energy per Si atom -12398.229983 kJ/mol
# Density = 1.576291 g / cm^3
# Si number density = 15.798870 Si / 1000 Ang^3
#
#
#
# Elastic Constant Matrix: (Units=GPa)
#
#
# Indices 1 2 3 4 5 6 
#
# 1 94.0288 40.4459 63.1268 0.0000 0.0000 0.0000
# 2 40.4459 49.3322 41.9992 0.0000 0.0000 0.0000
# 3 63.1268 41.9992 130.1428 0.0000 0.0000 0.0000
# 4 0.0000 0.0000 0.0000 24.8324 0.0000 0.0000
# 5 0.0000 0.0000 0.0000 0.0000 25.3835 0.0000
# 6 0.0000 0.0000 0.0000 0.0000 0.0000 17.4583
#
#
#
# Elastic Compliance Matrix: (Units=1/GPa)
#
#
# Indices 1 2 3 4 5 6 
#
# 1 0.019177 -0.010759 -0.005830 0.000000 0.000000 0.000000
# 2 -0.010759 0.033987 -0.005749 0.000000 0.000000 0.000000
# 3 -0.005830 -0.005749 0.012367 0.000000 0.000000 0.000000
# 4 0.000000 0.000000 0.000000 0.040270 0.000000 0.000000
# 5 0.000000 0.000000 0.000000 0.000000 0.039396 0.000000
# 6 0.000000 0.000000 0.000000 0.000000 0.000000 0.057279
#
#
# Mechanical properties :
#
#
# Convention : Reuss Voigt Hill
#
# Bulk Modulus (GPa) = 47.95233 62.73863 55.34548
# Shear Modulus (GPa) = 19.67704 22.06362 20.87033
#
# Velocity S-wave (km/s) = 3.53295 3.74107 3.63850
# Velocity P-wave (km/s) = 6.86003 7.64578 7.26353
#
# Compressibility (1/GPa) = 0.02085405
#
# Stress axis : x y z
#
# Youngs Moduli (GPa) = 52.14597 29.42339 80.86086
#
# Poissons Ratio (x) = 0.31658 0.47139
# Poissons Ratio (y) = 0.56106 0.46487
# Poissons Ratio (z) = 0.30399 0.16916
#
# Static dielectric constant tensor:
#      x y z
#    x 2.910020 0.000000 0.000000 
#    y 0.000000 2.844810 0.000000 
#    z 0.000000 0.000000 3.189510 
# 
# 
# High freq. dielectric constant tensor:
#      x y z
#    x 1.583280 0.000000 0.000000 
#    y 0.000000 1.588120 0.000000 
#    z 0.000000 0.000000 1.606520 
# 
# From -- ./inp_files/24796.got.cif
#   From: 2010.03.12/outbox.cif.g09.slc.cpg/sg62_13_cif.got.tgz:24796.got - 2010.04.10 19:12:36.
