data_PCOD8250892
_publ_section_title
;
Structure prediction by ZEFSAII (Michael W. Deem and Ramdas Pophale) SiO2 
 PCOD8250892
Probable space group: P N M A
;
_chemical_formula_sum "Si O2"
_cell_formula_units_Z 48
_cell_length_a 21.602834
_cell_length_b 23.000536
_cell_length_c 4.911181
_cell_angle_alpha 90.000000
_cell_angle_beta 90.000000
_cell_angle_gamma 90.000000
_cell_volume 2440.251709
_symmetry_space_group_name_H-M "P N M A"
_symmetry_group_IT_number 62
_symmetry_cell_setting 'orthorhombic'
loop_
_space_group_symop_operation_xyz
x,y,z
1/2-x,-y,1/2+z
1/2+x,1/2-y,1/2-z
-x,1/2+y,-z
-x,-y,-z
1/2+x,y,1/2-z
1/2-x,1/2+y,1/2+z
x,1/2-y,z
loop_
_atom_site_type_symbol
_atom_site_label
_atom_site_fract_x
_atom_site_fract_y
_atom_site_fract_z
Si Si1 0.302532 0.059285 0.198142
Si Si2 0.963945 0.684272 0.800919
Si Si3 0.000097 0.955871 0.246128
Si Si4 0.721637 0.072579 0.803563
Si Si5 0.098676 0.365452 0.717233
Si Si6 0.560017 0.589857 0.770406
O O1 0.249284 0.081285 0.398271
O O2 0.366739 0.091031 0.269121
O O3 0.311934 0.989945 0.223032
O O4 0.279238 0.077578 0.900961
O O5 0.981322 0.750000 0.720973
O O6 0.919434 0.653639 0.584232
O O7 0.027511 0.647865 0.847265
O O8 0.923878 0.684525 0.077172
O O9 0.046416 0.910811 0.404604
O O10 0.933661 0.926507 0.203211
O O11 0.031958 0.964529 0.933345
O O12 0.000000 0.000000 0.500000
O O13 0.671961 0.123708 0.758655
#
# Coordination Sequence:
#
# PCOD8250892 Si02
#       6
#     8   8   8   8   8   8
#     4  10  20  33  51  76 112 148 173 202 247 314
#     4  10  21  37  57  77  99 132 175 230 280 309
#     4  10  19  30  49  77 108 135 165 214 265 316
#     4  10  20  33  51  77 109 145 174 202 248 314
#     4  10  20  34  54  79 104 135 175 217 265 319
#     4  10  20  33  51  76 103 137 177 213 260 316
#
# _framework density 19.670103999999998
#
# number of rings (size 3 to 8) (size 9 to 14) (size 15 to 20)
#    0.000    2.000    0.000    4.000    0.000    5.333 
#    0.000    0.000    0.000    6.000    0.000    0.000 
#    0.000    0.000    0.000    0.000    0.000    0.000 
#
# Total GULP energy -594845.062975 kJ/mol
# GULP energy per Si atom -12392.605479 kJ/mol
# Density = 1.962533 g / cm^3
# Si number density = 19.670104 Si / 1000 Ang^3
#
#
#
# Elastic Constant Matrix: (Units=GPa)
#
#
# Indices 1 2 3 4 5 6 
#
# 1 117.1711 37.5351 19.8226 0.0000 0.0000 0.0000
# 2 37.5351 68.2388 19.5494 0.0000 0.0000 0.0000
# 3 19.8226 19.5494 104.7736 0.0000 0.0000 0.0000
# 4 0.0000 0.0000 0.0000 19.9710 0.0000 0.0000
# 5 0.0000 0.0000 0.0000 0.0000 12.5592 0.0000
# 6 0.0000 0.0000 0.0000 0.0000 0.0000 16.3454
#
#
#
# Elastic Compliance Matrix: (Units=1/GPa)
#
#
# Indices 1 2 3 4 5 6 
#
# 1 0.010450 -0.005474 -0.000956 0.000000 0.000000 0.000000
# 2 -0.005474 0.018350 -0.002388 0.000000 0.000000 0.000000
# 3 -0.000956 -0.002388 0.010171 0.000000 0.000000 0.000000
# 4 0.000000 0.000000 0.000000 0.050073 0.000000 0.000000
# 5 0.000000 0.000000 0.000000 0.000000 0.079623 0.000000
# 6 0.000000 0.000000 0.000000 0.000000 0.000000 0.061179
#
#
# Mechanical properties :
#
#
# Convention : Reuss Voigt Hill
#
# Bulk Modulus (GPa) = 46.87269 49.33306 48.10287
# Shear Modulus (GPa) = 19.63922 23.99354 21.81638
#
# Velocity S-wave (km/s) = 3.16322 3.49635 3.33395
# Velocity P-wave (km/s) = 6.10102 6.43692 6.27122
#
# Compressibility (1/GPa) = 0.02133438
#
# Stress axis : x y z
#
# Youngs Moduli (GPa) = 95.69531 54.49676 98.32083
#
# Poissons Ratio (x) = 0.29833 0.09396
# Poissons Ratio (y) = 0.52386 0.23480
# Poissons Ratio (z) = 0.09145 0.13015
#
# Static dielectric constant tensor:
#      x y z
#    x 3.351220 0.000000 0.000000 
#    y 0.000000 3.039720 0.000000 
#    z 0.000000 0.000000 0.296030 
# 
# 
# High freq. dielectric constant tensor:
#      x y z
#    x 1.753590 0.000000 0.000000 
#    y 0.000000 1.725060 0.000000 
#    z 0.000000 0.000000 1.799490 
# 
# From -- ./inp_files/1692.got.cif
#   From: 2010.03.12/outbox.cif.g09.slc.cpg/sg62_1_cif.got.tgz:1692.got - 2010.04.10 19:12:36.
