data_PCOD8250071
_publ_section_title
;
Structure prediction by ZEFSAII (Michael W. Deem and Ramdas Pophale) SiO2 
 PCOD8250071
Probable space group: P N M A
;
_chemical_formula_sum "Si O2"
_cell_formula_units_Z 64
_cell_length_a 19.803057
_cell_length_b 8.904909
_cell_length_c 20.926187
_cell_angle_alpha 90.000000
_cell_angle_beta 90.000000
_cell_angle_gamma 90.000000
_cell_volume 3690.216320
_symmetry_space_group_name_H-M "P N M A"
_symmetry_group_IT_number 62
_symmetry_cell_setting 'orthorhombic'
loop_
_space_group_symop_operation_xyz
x,y,z
1/2-x,-y,1/2+z
1/2+x,1/2-y,1/2-z
-x,1/2+y,-z
-x,-y,-z
1/2+x,y,1/2-z
1/2-x,1/2+y,1/2+z
x,1/2-y,z
loop_
_atom_site_type_symbol
_atom_site_label
_atom_site_fract_x
_atom_site_fract_y
_atom_site_fract_z
Si Si1 0.082357 0.572898 0.729700
Si Si2 0.430257 0.928066 0.622040
Si Si3 0.065944 0.427317 0.265850
Si Si4 0.700112 0.927197 0.423559
Si Si5 0.713051 0.928054 0.563697
Si Si6 0.578479 0.927385 0.623775
Si Si7 0.784399 0.571875 0.302306
Si Si8 0.206359 0.428420 0.315560
O O1 0.093213 0.750000 0.719470
O O2 0.090703 0.524756 0.803240
O O3 0.138511 0.483057 0.689816
O O4 0.007093 0.519689 0.707012
O O5 0.421597 0.750000 0.617625
O O6 0.420214 0.987638 0.694521
O O7 0.504915 0.981689 0.599067
O O8 0.374876 0.005680 0.578007
O O9 0.061879 0.250000 0.260498
O O10 0.127938 0.479694 0.310630
O O11 0.693297 0.750000 0.420068
O O12 0.732717 0.977516 0.491720
O O13 0.745800 0.987432 0.365569
O O14 0.709598 0.750000 0.568635
O O15 0.638971 0.995352 0.581129
O O16 0.767893 0.985972 0.615301
O O17 0.578939 0.750000 0.620857
O O18 0.781762 0.750000 0.297099
O O19 0.750645 0.501293 0.239946
O O20 0.213716 0.250000 0.307903
#
# Coordination Sequence:
#
# PCOD8250071 Si02
#       8
#     8   8   8   8   8   8   8   8
#     4   9  16  30  51  73  94 119 155 201 241 276
#     4   9  16  28  47  70  96 123 155 195 233 272
#     4   8  15  27  49  78  96 110 151 207 245 273
#     4  10  21  33  44  65  99 132 159 189 228 281
#     4   9  17  30  49  69  91 125 164 194 227 276
#     4   8  14  26  47  72  93 118 156 199 232 265
#     4  11  21  31  45  70 101 128 156 192 235 282
#     4  10  17  31  56  75  88 119 164 203 237 273
#
# _framework density 17.343157000000001
#
# number of rings (size 3 to 8) (size 9 to 14) (size 15 to 20)
#    0.000    2.750    2.500    1.875    0.000    1.000 
#    0.000    3.750    0.000    0.750    0.000    0.000 
#    0.000    0.000    0.000    0.000    0.000    0.125 
#
# Total GULP energy -793082.464473 kJ/mol
# GULP energy per Si atom -12391.913507 kJ/mol
# Density = 1.730368 g / cm^3
# Si number density = 17.343157 Si / 1000 Ang^3
#
#
#
# Elastic Constant Matrix: (Units=GPa)
#
#
# Indices 1 2 3 4 5 6 
#
# 1 128.3866 18.4041 55.6425 0.0000 0.0000 0.0000
# 2 18.4041 17.8825 15.7692 0.0000 0.0000 0.0000
# 3 55.6425 15.7692 96.0392 0.0000 0.0000 0.0000
# 4 0.0000 0.0000 0.0000 14.0418 0.0000 0.0000
# 5 0.0000 0.0000 0.0000 0.0000 25.8516 0.0000
# 6 0.0000 0.0000 0.0000 0.0000 0.0000 13.2506
#
#
#
# Elastic Compliance Matrix: (Units=1/GPa)
#
#
# Indices 1 2 3 4 5 6 
#
# 1 0.011046 -0.006694 -0.005301 0.000000 0.000000 0.000000
# 2 -0.006694 0.069445 -0.007524 0.000000 0.000000 0.000000
# 3 -0.005301 -0.007524 0.014719 0.000000 0.000000 0.000000
# 4 0.000000 0.000000 0.000000 0.071216 0.000000 0.000000
# 5 0.000000 0.000000 0.000000 0.000000 0.038682 0.000000
# 6 0.000000 0.000000 0.000000 0.000000 0.000000 0.075468
#
#
# Mechanical properties :
#
#
# Convention : Reuss Voigt Hill
#
# Bulk Modulus (GPa) = 17.80247 46.88223 32.34235
# Shear Modulus (GPa) = 14.77814 20.79495 17.78654
#
# Velocity S-wave (km/s) = 2.92225 3.46646 3.20592
# Velocity P-wave (km/s) = 4.65544 6.56602 5.69147
#
# Compressibility (1/GPa) = 0.05617199
#
# Stress axis : x y z
#
# Youngs Moduli (GPa) = 90.53248 14.39994 67.94008
#
# Poissons Ratio (x) = 0.09639 0.36012
# Poissons Ratio (y) = 0.60601 0.51120
# Poissons Ratio (z) = 0.47987 0.10835
#
# Static dielectric constant tensor:
#      x y z
#    x 3.734720 0.000000 0.000000 
#    y 0.000000 2.806910 0.000000 
#    z 0.000000 0.000000 3.266990 
# 
# 
# High freq. dielectric constant tensor:
#      x y z
#    x 1.681190 0.000000 0.000000 
#    y 0.000000 1.628910 0.000000 
#    z 0.000000 0.000000 1.645960 
# 
# From -- ./inp_files/27963.got.cif
#   From: 2010.03.12/outbox.cif.g09.slc.cpg/sg62_14_cif.got.tgz:27963.got - 2010.04.10 19:12:36.
