data_PCOD8250910
_publ_section_title
;
Structure prediction by ZEFSAII (Michael W. Deem and Ramdas Pophale) SiO2 
 PCOD8250910
Probable space group: P N M A
;
_chemical_formula_sum "Si O2"
_cell_formula_units_Z 64
_cell_length_a 17.203879
_cell_length_b 9.362127
_cell_length_c 21.532790
_cell_angle_alpha 90.000000
_cell_angle_beta 90.000000
_cell_angle_gamma 90.000000
_cell_volume 3468.176670
_symmetry_space_group_name_H-M "P N M A"
_symmetry_group_IT_number 62
_symmetry_cell_setting 'orthorhombic'
loop_
_space_group_symop_operation_xyz
x,y,z
1/2-x,-y,1/2+z
1/2+x,1/2-y,1/2-z
-x,1/2+y,-z
-x,-y,-z
1/2+x,y,1/2-z
1/2-x,1/2+y,1/2+z
x,1/2-y,z
loop_
_atom_site_type_symbol
_atom_site_label
_atom_site_fract_x
_atom_site_fract_y
_atom_site_fract_z
Si Si1 0.157435 0.915930 0.219875
Si Si2 0.930328 0.585486 0.428150
Si Si3 0.644529 0.082903 0.473680
Si Si4 0.959155 0.586697 0.856514
Si Si5 0.126706 0.584853 0.901761
Si Si6 0.738304 0.086241 0.897479
Si Si7 0.287336 0.916096 0.838998
Si Si8 0.075479 0.085383 0.429584
O O1 0.141345 0.750000 0.232348
O O2 0.223322 0.941509 0.168677
O O3 0.077073 0.986955 0.196878
O O4 0.188990 0.988423 0.281326
O O5 0.953097 0.750000 0.423015
O O6 0.852616 0.549123 0.389739
O O7 0.913418 0.540474 0.499128
O O8 0.002452 0.498289 0.399865
O O9 0.657873 0.250000 0.484206
O O10 0.577099 0.051018 0.423773
O O11 0.619124 0.012473 0.537848
O O12 0.724725 0.013785 0.450072
O O13 0.940695 0.750000 0.838462
O O14 0.051123 0.557955 0.859240
O O15 0.131759 0.750000 0.922983
O O16 0.201151 0.541557 0.860957
O O17 0.748859 0.250000 0.919703
O O18 0.292108 0.750000 0.820242
O O19 0.345348 0.954131 0.894912
O O20 0.055142 0.250000 0.422138
#
# Coordination Sequence:
#
# PCOD8250910 Si02
#       8
#     8   8   8   8   8   8   8   8
#     4  10  21  37  56  76 102 138 179 223 269 309
#     4   9  17  32  54  78 104 132 168 213 261 314
#     4  10  19  30  51  84 116 142 170 216 266 311
#     4   9  19  36  56  79 109 143 179 215 260 320
#     4  10  20  35  56  80 107 143 179 215 263 321
#     4   9  18  34  54  75 103 141 178 214 260 317
#     4  10  21  38  56  74 103 143 182 218 262 316
#     4   9  18  32  51  76 104 134 167 209 260 314
#
# _framework density 18.453499000000001
#
# number of rings (size 3 to 8) (size 9 to 14) (size 15 to 20)
#    0.000    2.500    0.000    1.875    0.000    5.000 
#    2.250    2.500    0.000    0.000    0.000    0.000 
#    0.000    0.000    0.000    0.000    0.000    0.000 
#
# Total GULP energy -793753.760487 kJ/mol
# GULP energy per Si atom -12402.402508 kJ/mol
# Density = 1.841150 g / cm^3
# Si number density = 18.453499 Si / 1000 Ang^3
#
#
#
# Elastic Constant Matrix: (Units=GPa)
#
#
# Indices 1 2 3 4 5 6 
#
# 1 148.4850 58.6299 46.4119 0.0000 0.0000 0.0000
# 2 58.6299 83.3349 48.8532 0.0000 0.0000 0.0000
# 3 46.4119 48.8532 70.7653 0.0000 0.0000 0.0000
# 4 0.0000 0.0000 0.0000 32.7638 0.0000 0.0000
# 5 0.0000 0.0000 0.0000 0.0000 15.0064 0.0000
# 6 0.0000 0.0000 0.0000 0.0000 0.0000 25.6711
#
#
#
# Elastic Compliance Matrix: (Units=1/GPa)
#
#
# Indices 1 2 3 4 5 6 
#
# 1 0.009634 -0.005164 -0.002754 0.000000 0.000000 0.000000
# 2 -0.005164 0.022925 -0.012440 0.000000 0.000000 0.000000
# 3 -0.002754 -0.012440 0.024525 0.000000 0.000000 0.000000
# 4 0.000000 0.000000 0.000000 0.030521 0.000000 0.000000
# 5 0.000000 0.000000 0.000000 0.000000 0.066638 0.000000
# 6 0.000000 0.000000 0.000000 0.000000 0.000000 0.038954
#
#
# Mechanical properties :
#
#
# Convention : Reuss Voigt Hill
#
# Bulk Modulus (GPa) = 61.08804 67.81947 64.45376
# Shear Modulus (GPa) = 20.88803 24.60094 22.74449
#
# Velocity S-wave (km/s) = 3.36806 3.65517 3.51455
# Velocity P-wave (km/s) = 6.94988 7.39223 7.17446
#
# Compressibility (1/GPa) = 0.01636982
#
# Stress axis : x y z
#
# Youngs Moduli (GPa) = 103.79419 43.61967 40.77405
#
# Poissons Ratio (x) = 0.22525 0.11229
# Poissons Ratio (y) = 0.53598 0.50723
# Poissons Ratio (z) = 0.28584 0.54263
#
# Static dielectric constant tensor:
#      x y z
#    x 3.574490 0.000000 0.000000 
#    y 0.000000 3.419810 0.000000 
#    z 0.000000 0.000000 3.204260 
# 
# 
# High freq. dielectric constant tensor:
#      x y z
#    x 1.725040 0.000000 0.000000 
#    y 0.000000 1.715650 0.000000 
#    z 0.000000 0.000000 1.696180 
# 
# From -- ./inp_files/27693.got.cif
#   From: 2010.03.12/outbox.cif.g09.slc.cpg/sg62_14_cif.got.tgz:27693.got - 2010.04.10 19:12:36.
