data_PCOD8250926
_publ_section_title
;
Structure prediction by ZEFSAII (Michael W. Deem and Ramdas Pophale) SiO2 
 PCOD8250926
Probable space group: P N M A
;
_chemical_formula_sum "Si O2"
_cell_formula_units_Z 64
_cell_length_a 18.992360
_cell_length_b 9.055131
_cell_length_c 22.646835
_cell_angle_alpha 90.000000
_cell_angle_beta 90.000000
_cell_angle_gamma 90.000000
_cell_volume 3894.764360
_symmetry_space_group_name_H-M "P N M A"
_symmetry_group_IT_number 62
_symmetry_cell_setting 'orthorhombic'
loop_
_space_group_symop_operation_xyz
x,y,z
1/2-x,-y,1/2+z
1/2+x,1/2-y,1/2-z
-x,1/2+y,-z
-x,-y,-z
1/2+x,y,1/2-z
1/2-x,1/2+y,1/2+z
x,1/2-y,z
loop_
_atom_site_type_symbol
_atom_site_label
_atom_site_fract_x
_atom_site_fract_y
_atom_site_fract_z
Si Si1 0.196890 0.922516 0.440821
Si Si2 0.282935 0.912859 0.658436
Si Si3 0.933066 0.580154 0.620308
Si Si4 0.427164 0.921371 0.136157
Si Si5 0.280482 0.580820 0.329997
Si Si6 0.712151 0.420201 0.938248
Si Si7 0.156366 0.417864 0.273186
Si Si8 0.143725 0.584472 0.737023
O O1 0.176953 0.750000 0.442675
O O2 0.265770 0.948995 0.399400
O O3 0.129465 0.013159 0.418728
O O4 0.219126 0.978987 0.504706
O O5 0.288119 0.750000 0.629428
O O6 0.350476 0.943482 0.701795
O O7 0.217112 0.920074 0.702704
O O8 0.274699 0.032824 0.606810
O O9 0.942218 0.750000 0.601367
O O10 0.916567 0.565504 0.690782
O O11 0.004925 0.495169 0.606231
O O12 0.441432 0.750000 0.145668
O O13 0.362794 0.950625 0.091946
O O14 0.413393 0.992138 0.200251
O O15 0.298980 0.750000 0.317289
O O16 0.207609 0.542060 0.298264
O O17 0.344356 0.484611 0.302508
O O18 0.722499 0.250000 0.954982
O O19 0.185984 0.250000 0.283890
O O20 0.114749 0.750000 0.744265
#
# Coordination Sequence:
#
# PCOD8250926 Si02
#       8
#     8   8   8   8   8   8   8   8
#     4  10  20  32  45  61  84 115 148 180 215 253
#     4   8  14  26  43  61  81 104 132 169 213 256
#     4  10  19  31  46  63  85 114 148 182 214 252
#     4  10  20  32  44  61  86 115 148 183 216 251
#     4   9  16  26  42  63  83 104 133 172 216 257
#     4  10  20  31  43  60  83 113 148 182 213 248
#     4   8  15  27  43  62  82 106 136 171 213 258
#     4   9  16  27  44  63  82 107 137 171 214 258
#
# _framework density 16.432316
#
# number of rings (size 3 to 8) (size 9 to 14) (size 15 to 20)
#    0.000    2.750    0.000    3.000    0.000    7.000 
#    0.000    0.000    0.000    0.000    0.000    0.000 
#    0.000    1.000    0.000    3.000    0.000    4.500 
#
# Total GULP energy -793107.927240 kJ/mol
# GULP energy per Si atom -12392.311363 kJ/mol
# Density = 1.639492 g / cm^3
# Si number density = 16.432316 Si / 1000 Ang^3
#
#
#
# Elastic Constant Matrix: (Units=GPa)
#
#
# Indices 1 2 3 4 5 6 
#
# 1 5.7843 11.6691 18.8868 0.0000 0.0000 0.0000
# 2 11.6691 100.8009 50.9625 0.0000 0.0000 0.0000
# 3 18.8868 50.9625 90.5440 0.0000 0.0000 0.0000
# 4 0.0000 0.0000 0.0000 27.7525 0.0000 0.0000
# 5 0.0000 0.0000 0.0000 0.0000 14.1314 0.0000
# 6 0.0000 0.0000 0.0000 0.0000 0.0000 18.3928
#
#
#
# Elastic Compliance Matrix: (Units=1/GPa)
#
#
# Indices 1 2 3 4 5 6 
#
# 1 0.546551 -0.007872 -0.109576 0.000000 0.000000 0.000000
# 2 -0.007872 0.013980 -0.006227 0.000000 0.000000 0.000000
# 3 -0.109576 -0.006227 0.037406 0.000000 0.000000 0.000000
# 4 0.000000 0.000000 0.000000 0.036033 0.000000 0.000000
# 5 0.000000 0.000000 0.000000 0.000000 0.070765 0.000000
# 6 0.000000 0.000000 0.000000 0.000000 0.000000 0.054369
#
#
# Mechanical properties :
#
#
# Convention : Reuss Voigt Hill
#
# Bulk Modulus (GPa) = 2.85235 40.01843 21.43539
# Shear Modulus (GPa) = 4.45112 19.76273 12.10693
#
# Velocity S-wave (km/s) = 1.64762 3.47172 2.71731
# Velocity P-wave (km/s) = 2.31497 6.36214 4.78727
#
# Compressibility (1/GPa) = 0.35058809
#
# Stress axis : x y z
#
# Youngs Moduli (GPa) = 1.82966 71.53188 26.73392
#
# Poissons Ratio (x) = 0.56307 2.92939
# Poissons Ratio (y) = 0.01440 0.16646
# Poissons Ratio (z) = 0.20049 0.44540
#
# Static dielectric constant tensor:
#      x y z
#    x 2.787310 0.000000 0.000000 
#    y 0.000000 3.235930 0.000000 
#    z 0.000000 0.000000 3.213220 
# 
# 
# High freq. dielectric constant tensor:
#      x y z
#    x 1.576250 0.000000 0.000000 
#    y 0.000000 1.650140 0.000000 
#    z 0.000000 0.000000 1.623770 
# 
# From -- ./inp_files/24960.got.cif
#   From: 2010.03.12/outbox.cif.g09.slc.cpg/sg62_13_cif.got.tgz:24960.got - 2010.04.10 19:12:36.
