data_PCOD8250517
_publ_section_title
;
Structure prediction by ZEFSAII (Michael W. Deem and Ramdas Pophale) SiO2 
 PCOD8250517
Probable space group: P N M A
;
_chemical_formula_sum "Si O2"
_cell_formula_units_Z 64
_cell_length_a 8.877076
_cell_length_b 13.614048
_cell_length_c 29.796647
_cell_angle_alpha 90.000000
_cell_angle_beta 90.000000
_cell_angle_gamma 90.000000
_cell_volume 3601.012355
_symmetry_space_group_name_H-M "P N M A"
_symmetry_group_IT_number 62
_symmetry_cell_setting 'orthorhombic'
loop_
_space_group_symop_operation_xyz
x,y,z
1/2-x,-y,1/2+z
1/2+x,1/2-y,1/2-z
-x,1/2+y,-z
-x,-y,-z
1/2+x,y,1/2-z
1/2-x,1/2+y,1/2+z
x,1/2-y,z
loop_
_atom_site_type_symbol
_atom_site_label
_atom_site_fract_x
_atom_site_fract_y
_atom_site_fract_z
Si Si1 0.350642 0.854639 0.933552
Si Si2 0.111740 0.634075 0.219064
Si Si3 0.880181 0.442282 0.943148
Si Si4 0.017159 0.637381 0.964939
Si Si5 0.573219 0.364936 0.634681
Si Si6 0.893065 0.441930 0.608055
Si Si7 0.553882 0.405018 0.975022
Si Si8 0.441504 0.867136 0.193480
O O1 0.370291 0.750000 0.907731
O O2 0.175847 0.879516 0.940733
O O3 0.421258 0.943346 0.904915
O O4 0.422189 0.832317 0.983217
O O5 0.126886 0.750000 0.218378
O O6 0.276175 0.591590 0.206532
O O7 0.983088 0.602060 0.183796
O O8 0.059266 0.598871 0.268157
O O9 0.902009 0.560760 0.942031
O O10 0.704970 0.421017 0.946709
O O11 0.937155 0.391380 0.898110
O O12 0.973744 0.390774 0.982857
O O13 0.960059 0.750000 0.959725
O O14 0.611842 0.250000 0.633139
O O15 0.722570 0.424718 0.622658
O O16 0.930657 0.376268 0.563233
O O17 0.008408 0.416911 0.647390
O O18 0.500000 0.500000 0.000000
O O19 0.442889 0.750000 0.187648
#
# Coordination Sequence:
#
# PCOD8250517 Si02
#       8
#     8   8   8   8   8   8   8   8
#     4   9  18  34  51  70  99 137 175 214 260 300
#     4   9  19  34  52  77 107 137 164 201 254 310
#     4  10  18  32  49  70  99 130 172 215 249 306
#     4   9  17  30  50  70  94 130 171 215 258 294
#     4  11  21  32  49  76 105 135 172 212 257 305
#     4  11  20  33  50  78 102 136 174 213 248 305
#     4   9  20  34  49  69 101 134 170 216 260 299
#     4  10  19  33  53  77 108 136 164 204 252 308
#
# _framework density 17.772780999999998
#
# number of rings (size 3 to 8) (size 9 to 14) (size 15 to 20)
#    0.000    2.250    1.250    2.250    1.750    3.500 
#    0.000    2.500    0.000    0.000    0.000    4.375 
#    0.000    0.000    0.000    0.000    0.000    0.000 
#
# Total GULP energy -793065.200153 kJ/mol
# GULP energy per Si atom -12391.643752 kJ/mol
# Density = 1.773233 g / cm^3
# Si number density = 17.772781 Si / 1000 Ang^3
#
#
#
# Elastic Constant Matrix: (Units=GPa)
#
#
# Indices 1 2 3 4 5 6 
#
# 1 76.4722 16.8592 36.8283 0.0000 0.0000 0.0000
# 2 16.8592 76.0998 29.1763 0.0000 0.0000 0.0000
# 3 36.8283 29.1763 105.2824 0.0000 0.0000 0.0000
# 4 0.0000 0.0000 0.0000 21.7545 0.0000 0.0000
# 5 0.0000 0.0000 0.0000 0.0000 30.7120 0.0000
# 6 0.0000 0.0000 0.0000 0.0000 0.0000 13.7287
#
#
#
# Elastic Compliance Matrix: (Units=1/GPa)
#
#
# Indices 1 2 3 4 5 6 
#
# 1 0.015888 -0.001554 -0.005127 0.000000 0.000000 0.000000
# 2 -0.001554 0.014855 -0.003573 0.000000 0.000000 0.000000
# 3 -0.005127 -0.003573 0.012282 0.000000 0.000000 0.000000
# 4 0.000000 0.000000 0.000000 0.045967 0.000000 0.000000
# 5 0.000000 0.000000 0.000000 0.000000 0.032561 0.000000
# 6 0.000000 0.000000 0.000000 0.000000 0.000000 0.072840
#
#
# Mechanical properties :
#
#
# Convention : Reuss Voigt Hill
#
# Bulk Modulus (GPa) = 44.41175 47.06466 45.73820
# Shear Modulus (GPa) = 22.48127 24.90509 23.69318
#
# Velocity S-wave (km/s) = 3.56044 3.74746 3.65515
# Velocity P-wave (km/s) = 6.47651 6.72781 6.60336
#
# Compressibility (1/GPa) = 0.02251657
#
# Stress axis : x y z
#
# Youngs Moduli (GPa) = 62.93865 67.31819 81.42053
#
# Poissons Ratio (x) = 0.10463 0.41746
# Poissons Ratio (y) = 0.09782 0.29091
# Poissons Ratio (z) = 0.32270 0.24053
#
# Static dielectric constant tensor:
#      x y z
#    x 3.393790 0.000000 0.000000 
#    y 0.000000 2.194320 0.000000 
#    z 0.000000 0.000000 3.484050 
# 
# 
# High freq. dielectric constant tensor:
#      x y z
#    x 1.693200 0.000000 0.000000 
#    y 0.000000 1.657320 0.000000 
#    z 0.000000 0.000000 1.678990 
# 
# From -- ./inp_files/32312.got.cif
#   From: 2010.03.12/outbox.cif.g09.slc.cpg/sg62_17_cif.got.tgz:32312.got - 2010.04.10 19:12:36.
