data_PCOD8250135
_publ_section_title
;
Structure prediction by ZEFSAII (Michael W. Deem and Ramdas Pophale) SiO2 
 PCOD8250135
Probable space group: P N M A
;
_chemical_formula_sum "Si O2"
_cell_formula_units_Z 64
_cell_length_a 26.471690
_cell_length_b 9.033276
_cell_length_c 18.559351
_cell_angle_alpha 90.000000
_cell_angle_beta 90.000000
_cell_angle_gamma 90.000000
_cell_volume 4438.024888
_symmetry_space_group_name_H-M "P N M A"
_symmetry_group_IT_number 62
_symmetry_cell_setting 'orthorhombic'
loop_
_space_group_symop_operation_xyz
x,y,z
1/2-x,-y,1/2+z
1/2+x,1/2-y,1/2-z
-x,1/2+y,-z
-x,-y,-z
1/2+x,y,1/2-z
1/2-x,1/2+y,1/2+z
x,1/2-y,z
loop_
_atom_site_type_symbol
_atom_site_label
_atom_site_fract_x
_atom_site_fract_y
_atom_site_fract_z
Si Si1 0.052690 0.076992 0.583806
Si Si2 0.646358 0.920627 0.850169
Si Si3 0.742139 0.075157 0.920306
Si Si4 0.245245 0.079114 0.420649
Si Si5 0.851551 0.574983 0.666106
Si Si6 0.791130 0.418324 0.219850
Si Si7 0.449639 0.923259 0.917975
Si Si8 0.699674 0.579375 0.285821
O O1 0.051850 0.250000 0.598766
O O2 0.064372 0.040163 0.500549
O O3 0.095142 0.005500 0.633542
O O4 0.998991 0.010803 0.607094
O O5 0.640403 0.750000 0.872608
O O6 0.656413 0.936140 0.763387
O O7 0.692876 0.988483 0.893985
O O8 0.729575 0.250000 0.917985
O O9 0.791754 0.042695 0.870791
O O10 0.755192 0.011984 0.000171
O O11 0.234859 0.250000 0.434200
O O12 0.194583 0.013765 0.383176
O O13 0.293663 0.054176 0.367039
O O14 0.850645 0.750000 0.670729
O O15 0.903832 0.519800 0.631620
O O16 0.845526 0.511907 0.747631
O O17 0.770047 0.250000 0.232305
O O18 0.752748 0.538684 0.249873
O O19 0.460145 0.750000 0.908232
O O20 0.687414 0.750000 0.273377
#
# Coordination Sequence:
#
# PCOD8250135 Si02
#       8
#     8   8   8   8   8   8   8   8
#     4  10  19  30  43  58  78 102 128 162 199 229
#     4  10  18  27  40  57  78 104 133 162 191 228
#     4   9  16  26  40  57  78 104 132 162 194 227
#     4   8  13  24  41  57  74 100 133 160 185 222
#     4   9  16  27  42  55  73 104 134 158 186 224
#     4   8  15  27  40  53  72 101 133 161 188 222
#     4   9  18  31  44  58  76 101 134 165 191 223
#     4   9  16  24  36  56  79 100 125 159 194 227
#
# _framework density 14.420828999999999
#
# number of rings (size 3 to 8) (size 9 to 14) (size 15 to 20)
#    0.000    3.000    0.000    2.625    0.000    4.000 
#    0.000    5.000    0.000    0.000    0.000    0.000 
#    0.000    1.000    0.000    2.000    0.000    2.625 
#
# Total GULP energy -792904.068933 kJ/mol
# GULP energy per Si atom -12389.126077 kJ/mol
# Density = 1.438801 g / cm^3
# Si number density = 14.420829 Si / 1000 Ang^3
#
#
#
# Elastic Constant Matrix: (Units=GPa)
#
#
# Indices 1 2 3 4 5 6 
#
# 1 89.6162 34.0908 60.9905 0.0000 0.0000 0.0000
# 2 34.0908 39.2040 32.3612 0.0000 0.0000 0.0000
# 3 60.9905 32.3612 114.1355 0.0000 0.0000 0.0000
# 4 0.0000 0.0000 0.0000 17.5589 0.0000 0.0000
# 5 0.0000 0.0000 0.0000 0.0000 26.0142 0.0000
# 6 0.0000 0.0000 0.0000 0.0000 0.0000 22.0905
#
#
#
# Elastic Compliance Matrix: (Units=1/GPa)
#
#
# Indices 1 2 3 4 5 6 
#
# 1 0.020996 -0.011745 -0.007889 0.000000 0.000000 0.000000
# 2 -0.011745 0.039872 -0.005029 0.000000 0.000000 0.000000
# 3 -0.007889 -0.005029 0.014403 0.000000 0.000000 0.000000
# 4 0.000000 0.000000 0.000000 0.056951 0.000000 0.000000
# 5 0.000000 0.000000 0.000000 0.000000 0.038440 0.000000
# 6 0.000000 0.000000 0.000000 0.000000 0.000000 0.045268
#
#
# Mechanical properties :
#
#
# Convention : Reuss Voigt Hill
#
# Bulk Modulus (GPa) = 38.54406 55.31564 46.92985
# Shear Modulus (GPa) = 18.25441 20.83359 19.54400
#
# Velocity S-wave (km/s) = 3.56172 3.80503 3.68538
# Velocity P-wave (km/s) = 6.61064 7.59906 7.12202
#
# Compressibility (1/GPa) = 0.02594433
#
# Stress axis : x y z
#
# Youngs Moduli (GPa) = 47.62792 25.08028 69.42883
#
# Poissons Ratio (x) = 0.29457 0.54776
# Poissons Ratio (y) = 0.55940 0.34914
# Poissons Ratio (z) = 0.37576 0.12612
#
# Static dielectric constant tensor:
#      x y z
#    x 2.662130 0.000000 0.000000 
#    y 0.000000 2.785060 0.000000 
#    z 0.000000 0.000000 3.138860 
# 
# 
# High freq. dielectric constant tensor:
#      x y z
#    x 1.514780 0.000000 0.000000 
#    y 0.000000 1.550090 0.000000 
#    z 0.000000 0.000000 1.545480 
# 
# From -- ./inp_files/25004.got.cif
#   From: 2010.03.12/outbox.cif.g09.slc.cpg/sg62_13_cif.got.tgz:25004.got - 2010.04.10 19:12:36.
