data_PCOD8250764
_publ_section_title
;
Structure prediction by ZEFSAII (Michael W. Deem and Ramdas Pophale) SiO2 
 PCOD8250764
Probable space group: P N M A
;
_chemical_formula_sum "Si O2"
_cell_formula_units_Z 64
_cell_length_a 22.273753
_cell_length_b 9.111762
_cell_length_c 17.210710
_cell_angle_alpha 90.000000
_cell_angle_beta 90.000000
_cell_angle_gamma 90.000000
_cell_volume 3492.967570
_symmetry_space_group_name_H-M "P N M A"
_symmetry_group_IT_number 62
_symmetry_cell_setting 'orthorhombic'
loop_
_space_group_symop_operation_xyz
x,y,z
1/2-x,-y,1/2+z
1/2+x,1/2-y,1/2-z
-x,1/2+y,-z
-x,-y,-z
1/2+x,y,1/2-z
1/2-x,1/2+y,1/2+z
x,1/2-y,z
loop_
_atom_site_type_symbol
_atom_site_label
_atom_site_fract_x
_atom_site_fract_y
_atom_site_fract_z
Si Si1 0.502861 0.417957 0.737306
Si Si2 0.947694 0.405724 0.470913
Si Si3 0.963631 0.423709 0.932230
Si Si4 0.666588 0.914713 0.067992
Si Si5 0.848422 0.579973 0.881211
Si Si6 0.389738 0.919905 0.793568
Si Si7 0.891348 0.586459 0.342007
Si Si8 0.272862 0.920975 0.075819
O O1 0.482361 0.250000 0.747690
O O2 0.497528 0.464879 0.647749
O O3 0.457121 0.510914 0.791804
O O4 0.574179 0.436766 0.759556
O O5 0.975542 0.250000 0.449756
O O6 0.900213 0.393624 0.538804
O O7 0.920091 0.464530 0.393549
O O8 0.000000 0.500000 0.500000
O O9 0.959786 0.250000 0.946282
O O10 0.897150 0.491582 0.931504
O O11 0.000000 0.500000 0.000000
O O12 0.695132 0.750000 0.079800
O O13 0.657981 0.000500 0.149231
O O14 0.703633 0.010142 0.005251
O O15 0.849248 0.750000 0.906451
O O16 0.860831 0.561346 0.790635
O O17 0.784538 0.510613 0.898835
O O18 0.395658 0.750000 0.818055
O O19 0.906271 0.750000 0.373083
O O20 0.819510 0.563471 0.350649
O O21 0.258131 0.750000 0.060947
#
# Coordination Sequence:
#
# PCOD8250764 Si02
#       8
#     8   8   8   8   8   8   8   8
#     4   9  18  33  53  77 106 139 174 215 266 322
#     4  10  19  28  41  65  97 133 169 204 245 293
#     4  10  20  36  59  84 109 137 174 223 276 328
#     4  10  20  33  49  71 102 138 175 215 259 311
#     4  10  21  38  58  79 106 140 178 222 272 324
#     4  10  20  33  52  78 105 134 174 223 269 316
#     4   9  18  32  49  71 100 133 168 207 251 303
#     4  10  20  35  55  77 104 140 181 221 265 321
#
# _framework density 18.322528999999999
#
# number of rings (size 3 to 8) (size 9 to 14) (size 15 to 20)
#    0.000    2.250    0.000    3.000    0.000    7.500 
#    0.000    1.250    0.000    4.500    0.000    0.000 
#    0.000    0.000    0.000    0.000    0.000    0.000 
#
# Total GULP energy -792963.412505 kJ/mol
# GULP energy per Si atom -12390.053320 kJ/mol
# Density = 1.828083 g / cm^3
# Si number density = 18.322529 Si / 1000 Ang^3
#
#
#
# Elastic Constant Matrix: (Units=GPa)
#
#
# Indices 1 2 3 4 5 6 
#
# 1 108.3511 56.3257 46.2540 0.0000 0.0000 0.0000
# 2 56.3257 135.4314 45.2716 0.0000 0.0000 0.0000
# 3 46.2540 45.2716 71.0150 0.0000 0.0000 0.0000
# 4 0.0000 0.0000 0.0000 15.5145 0.0000 0.0000
# 5 0.0000 0.0000 0.0000 0.0000 23.2727 0.0000
# 6 0.0000 0.0000 0.0000 0.0000 0.0000 32.0460
#
#
#
# Elastic Compliance Matrix: (Units=1/GPa)
#
#
# Indices 1 2 3 4 5 6 
#
# 1 0.013993 -0.003524 -0.006867 0.000000 0.000000 0.000000
# 2 -0.003524 0.010271 -0.004252 0.000000 0.000000 0.000000
# 3 -0.006867 -0.004252 0.021265 0.000000 0.000000 0.000000
# 4 0.000000 0.000000 0.000000 0.064456 0.000000 0.000000
# 5 0.000000 0.000000 0.000000 0.000000 0.042969 0.000000
# 6 0.000000 0.000000 0.000000 0.000000 0.000000 0.031205
#
#
# Mechanical properties :
#
#
# Convention : Reuss Voigt Hill
#
# Bulk Modulus (GPa) = 61.57050 67.83335 64.70193
# Shear Modulus (GPa) = 22.84567 25.29640 24.07103
#
# Velocity S-wave (km/s) = 3.53492 3.71970 3.62849
# Velocity P-wave (km/s) = 7.09490 7.45321 7.27626
#
# Compressibility (1/GPa) = 0.01624154
#
# Stress axis : x y z
#
# Youngs Moduli (GPa) = 71.46546 97.36249 47.02502
#
# Poissons Ratio (x) = 0.34310 0.32294
# Poissons Ratio (y) = 0.25184 0.19997
# Poissons Ratio (z) = 0.49078 0.41402
#
# Static dielectric constant tensor:
#      x y z
#    x 3.309630 0.000000 0.000000 
#    y 0.000000 3.711050 0.000000 
#    z 0.000000 0.000000 3.308520 
# 
# 
# High freq. dielectric constant tensor:
#      x y z
#    x 1.696880 0.000000 0.000000 
#    y 0.000000 1.731910 0.000000 
#    z 0.000000 0.000000 1.696060 
# 
# From -- ./inp_files/24765.got.cif
#   From: 2010.03.12/outbox.cif.g09.slc.cpg/sg62_13_cif.got.tgz:24765.got - 2010.04.10 19:12:36.
