data_PCOD8250688
_publ_section_title
;
Structure prediction by ZEFSAII (Michael W. Deem and Ramdas Pophale) SiO2 
 PCOD8250688
Probable space group: P N M A
;
_chemical_formula_sum "Si O2"
_cell_formula_units_Z 48
_cell_length_a 9.963448
_cell_length_b 17.205893
_cell_length_c 15.638464
_cell_angle_alpha 90.000000
_cell_angle_beta 90.000000
_cell_angle_gamma 90.000000
_cell_volume 2680.902199
_symmetry_space_group_name_H-M "P N M A"
_symmetry_group_IT_number 62
_symmetry_cell_setting 'orthorhombic'
loop_
_space_group_symop_operation_xyz
x,y,z
1/2-x,-y,1/2+z
1/2+x,1/2-y,1/2-z
-x,1/2+y,-z
-x,-y,-z
1/2+x,y,1/2-z
1/2-x,1/2+y,1/2+z
x,1/2-y,z
loop_
_atom_site_type_symbol
_atom_site_label
_atom_site_fract_x
_atom_site_fract_y
_atom_site_fract_z
Si Si1 0.904942 0.836709 0.842605
Si Si2 0.757226 0.481271 0.074088
Si Si3 0.707216 0.552989 0.908990
Si Si4 0.118531 0.663129 0.993463
Si Si5 0.965516 0.449594 0.873552
Si Si6 0.458937 0.528532 0.789107
O O1 0.890113 0.750000 0.804434
O O2 0.759226 0.861915 0.880515
O O3 0.957181 0.893284 0.767666
O O4 0.008462 0.837569 0.919872
O O5 0.911745 0.506490 0.081239
O O6 0.684955 0.481406 0.165429
O O7 0.680551 0.541615 0.010505
O O8 0.759465 0.393786 0.034492
O O9 0.571925 0.532697 0.860370
O O10 0.828144 0.495477 0.887070
O O11 0.175436 0.750000 0.007406
O O12 0.051454 0.635149 0.083768
O O13 0.987303 0.452393 0.770576
#
# Coordination Sequence:
#
# PCOD8250688 Si02
#       6
#     8   8   8   8   8   8
#     4  10  20  33  52  78 108 137 173 214 261 319
#     4  11  19  36  54  79 108 140 180 217 265 317
#     4  10  19  35  53  78 106 142 176 213 262 317
#     4  10  19  34  56  76 100 138 179 217 257 313
#     4  10  18  35  55  75 101 138 187 220 245 312
#     4  11  22  31  53  84 111 137 169 225 277 305
#
# _framework density 17.904419999999998
#
# number of rings (size 3 to 8) (size 9 to 14) (size 15 to 20)
#    0.000    1.667    5.000    3.500    0.000    1.333 
#    0.000    0.000    0.000   10.000    0.000    0.000 
#    0.000    0.000    0.000    0.000    0.000    0.000 
#
# Total GULP energy -594778.166257 kJ/mol
# GULP energy per Si atom -12391.211797 kJ/mol
# Density = 1.786367 g / cm^3
# Si number density = 17.904420 Si / 1000 Ang^3
#
#
#
# Elastic Constant Matrix: (Units=GPa)
#
#
# Indices 1 2 3 4 5 6 
#
# 1 54.1700 24.4571 24.9338 0.0000 0.0000 0.0000
# 2 24.4571 71.0227 51.6282 0.0000 0.0000 0.0000
# 3 24.9338 51.6282 100.9155 0.0000 0.0000 0.0000
# 4 0.0000 0.0000 0.0000 18.2200 0.0000 0.0000
# 5 0.0000 0.0000 0.0000 0.0000 33.6910 0.0000
# 6 0.0000 0.0000 0.0000 0.0000 0.0000 12.1430
#
#
#
# Elastic Compliance Matrix: (Units=1/GPa)
#
#
# Indices 1 2 3 4 5 6 
#
# 1 0.022252 -0.005837 -0.002512 0.000000 0.000000 0.000000
# 2 -0.005837 0.023948 -0.010809 0.000000 0.000000 0.000000
# 3 -0.002512 -0.010809 0.016060 0.000000 0.000000 0.000000
# 4 0.000000 0.000000 0.000000 0.054885 0.000000 0.000000
# 5 0.000000 0.000000 0.000000 0.000000 0.029682 0.000000
# 6 0.000000 0.000000 0.000000 0.000000 0.000000 0.082352
#
#
# Mechanical properties :
#
#
# Convention : Reuss Voigt Hill
#
# Bulk Modulus (GPa) = 41.76507 47.57182 44.66844
# Shear Modulus (GPa) = 18.15053 21.15009 19.65031
#
# Velocity S-wave (km/s) = 3.18739 3.44070 3.31647
# Velocity P-wave (km/s) = 6.07645 6.51246 6.29823
#
# Compressibility (1/GPa) = 0.02394346
#
# Stress axis : x y z
#
# Youngs Moduli (GPa) = 44.94035 41.75799 62.26657
#
# Poissons Ratio (x) = 0.24372 0.15641
# Poissons Ratio (y) = 0.26230 0.67307
# Poissons Ratio (z) = 0.11288 0.45138
#
# Static dielectric constant tensor:
#      x y z
#    x 3.137590 0.000000 0.000000 
#    y 0.000000 3.577610 0.000000 
#    z 0.000000 0.000000 3.825860 
# 
# 
# High freq. dielectric constant tensor:
#      x y z
#    x 1.682770 0.000000 0.000000 
#    y 0.000000 1.663420 0.000000 
#    z 0.000000 0.000000 1.703110 
# 
# From -- ./inp_files/18149.got.cif
#   From: 2010.03.12/outbox.cif.g09.slc.cpg/sg62_10_cif.got.tgz:18149.got - 2010.04.10 19:12:36.
