data_PCOD8250709
_publ_section_title
;
Structure prediction by ZEFSAII (Michael W. Deem and Ramdas Pophale) SiO2 
 PCOD8250709
Probable space group: P N M A
;
_chemical_formula_sum "Si O2"
_cell_formula_units_Z 64
_cell_length_a 9.498558
_cell_length_b 24.490712
_cell_length_c 16.937041
_cell_angle_alpha 90.000000
_cell_angle_beta 90.000000
_cell_angle_gamma 90.000000
_cell_volume 3940.003694
_symmetry_space_group_name_H-M "P N M A"
_symmetry_group_IT_number 62
_symmetry_cell_setting 'orthorhombic'
loop_
_space_group_symop_operation_xyz
x,y,z
1/2-x,-y,1/2+z
1/2+x,1/2-y,1/2-z
-x,1/2+y,-z
-x,-y,-z
1/2+x,y,1/2-z
1/2-x,1/2+y,1/2+z
x,1/2-y,z
loop_
_atom_site_type_symbol
_atom_site_label
_atom_site_fract_x
_atom_site_fract_y
_atom_site_fract_z
Si Si1 0.337603 0.947469 0.960416
Si Si2 0.712307 0.492869 0.340516
Si Si3 0.613020 0.592456 0.443517
Si Si4 0.689056 0.059198 0.498299
Si Si5 0.560661 0.907674 0.081364
Si Si6 0.463132 0.506467 0.813407
Si Si7 0.375408 0.312126 0.670366
Si Si8 0.050390 0.187763 0.678248
O O1 0.403399 0.946242 0.872672
O O2 0.251639 0.003163 0.968801
O O3 0.220864 0.900828 0.981635
O O4 0.463447 0.943538 0.023332
O O5 0.686389 0.551969 0.380316
O O6 0.690490 0.443542 0.403198
O O7 0.600435 0.482523 0.272014
O O8 0.868876 0.490367 0.305570
O O9 0.467516 0.567036 0.471279
O O10 0.587535 0.651321 0.405217
O O11 0.792639 0.105376 0.535254
O O12 0.493134 0.849916 0.104607
O O13 0.583072 0.945891 0.158111
O O14 0.410726 0.250000 0.646699
O O15 0.468925 0.331523 0.743820
O O16 0.214374 0.318921 0.696255
O O17 0.011380 0.250000 0.656008
#
# Coordination Sequence:
#
# PCOD8250709 Si02
#       8
#     8   8   8   8   8   8   8   8
#     4  10  18  36  49  65  97 132 167 205 243 288
#     4  11  21  32  45  72 100 128 167 198 240 295
#     4  11  21  33  51  71  97 136 172 204 241 294
#     4  10  21  33  49  70  97 129 170 208 243 291
#     4  11  18  35  52  66  96 137 169 200 245 292
#     4  11  21  30  48  69  99 132 162 201 243 293
#     4  10  21  36  51  73 103 132 169 210 246 286
#     4  10  21  35  52  74 101 133 170 211 248 287
#
# _framework density 16.243639999999999
#
# number of rings (size 3 to 8) (size 9 to 14) (size 15 to 20)
#    0.000    1.500    5.000    3.000    7.000    0.000 
#    0.000    0.000    0.000    0.000    0.000    0.000 
#    0.000    6.000    0.000    0.000    0.000    0.000 
#
# Total GULP energy -793378.657428 kJ/mol
# GULP energy per Si atom -12396.541522 kJ/mol
# Density = 1.620667 g / cm^3
# Si number density = 16.243640 Si / 1000 Ang^3
#
#
#
# Elastic Constant Matrix: (Units=GPa)
#
#
# Indices 1 2 3 4 5 6 
#
# 1 114.6133 19.6498 47.1448 0.0000 0.0000 0.0000
# 2 19.6498 53.2671 31.1970 0.0000 0.0000 0.0000
# 3 47.1448 31.1970 76.1008 0.0000 0.0000 0.0000
# 4 0.0000 0.0000 0.0000 21.3980 0.0000 0.0000
# 5 0.0000 0.0000 0.0000 0.0000 38.3907 0.0000
# 6 0.0000 0.0000 0.0000 0.0000 0.0000 19.1577
#
#
#
# Elastic Compliance Matrix: (Units=1/GPa)
#
#
# Indices 1 2 3 4 5 6 
#
# 1 0.011709 -0.000093 -0.007215 0.000000 0.000000 0.000000
# 2 -0.000093 0.024705 -0.010070 0.000000 0.000000 0.000000
# 3 -0.007215 -0.010070 0.021739 0.000000 0.000000 0.000000
# 4 0.000000 0.000000 0.000000 0.046733 0.000000 0.000000
# 5 0.000000 0.000000 0.000000 0.000000 0.026048 0.000000
# 6 0.000000 0.000000 0.000000 0.000000 0.000000 0.052198
#
#
# Mechanical properties :
#
#
# Convention : Reuss Voigt Hill
#
# Bulk Modulus (GPa) = 42.74360 48.88493 45.81426
# Shear Modulus (GPa) = 22.15440 25.52192 23.83816
#
# Velocity S-wave (km/s) = 3.69708 3.96813 3.83500
# Velocity P-wave (km/s) = 6.67800 7.15226 6.91920
#
# Compressibility (1/GPa) = 0.02339531
#
# Stress axis : x y z
#
# Youngs Moduli (GPa) = 85.40431 40.47687 46.00116
#
# Poissons Ratio (x) = 0.00378 0.33192
# Poissons Ratio (y) = 0.00798 0.46323
# Poissons Ratio (z) = 0.61623 0.40760
#
# Static dielectric constant tensor:
#      x y z
#    x 3.393710 0.000000 0.000000 
#    y 0.000000 2.901830 0.000000 
#    z 0.000000 0.000000 3.191830 
# 
# 
# High freq. dielectric constant tensor:
#      x y z
#    x 1.652620 0.000000 0.000000 
#    y 0.000000 1.580110 0.000000 
#    z 0.000000 0.000000 1.612050 
# 
# From -- ./inp_files/22630.got.cif
#   From: 2010.03.12/outbox.cif.g09.slc.cpg/sg62_12_cif.got.tgz:22630.got - 2010.04.10 19:12:36.
