data_PCOD8250049
_publ_section_title
;
Structure prediction by ZEFSAII (Michael W. Deem and Ramdas Pophale) SiO2 
 PCOD8250049
Probable space group: P N M A
;
_chemical_formula_sum "Si O2"
_cell_formula_units_Z 64
_cell_length_a 18.964966
_cell_length_b 9.118967
_cell_length_c 23.148882
_cell_angle_alpha 90.000000
_cell_angle_beta 90.000000
_cell_angle_gamma 90.000000
_cell_volume 4003.388466
_symmetry_space_group_name_H-M "P N M A"
_symmetry_group_IT_number 62
_symmetry_cell_setting 'orthorhombic'
loop_
_space_group_symop_operation_xyz
x,y,z
1/2-x,-y,1/2+z
1/2+x,1/2-y,1/2-z
-x,1/2+y,-z
-x,-y,-z
1/2+x,y,1/2-z
1/2-x,1/2+y,1/2+z
x,1/2-y,z
loop_
_atom_site_type_symbol
_atom_site_label
_atom_site_fract_x
_atom_site_fract_y
_atom_site_fract_z
Si Si1 0.361371 0.079245 0.556065
Si Si2 0.996030 0.079701 0.751222
Si Si3 0.351115 0.924309 0.437370
Si Si4 0.285275 0.417030 0.670227
Si Si5 0.726254 0.921737 0.659822
Si Si6 0.348005 0.917761 0.238925
Si Si7 0.638375 0.079181 0.229898
Si Si8 0.503447 0.423462 0.617820
O O1 0.365259 0.250000 0.538436
O O2 0.300108 0.050595 0.603231
O O3 0.436006 0.023505 0.581451
O O4 0.341140 0.980832 0.501981
O O5 0.976314 0.250000 0.750681
O O6 0.998886 0.017472 0.816762
O O7 0.071492 0.049776 0.720741
O O8 0.936520 0.994561 0.714869
O O9 0.345613 0.750000 0.436200
O O10 0.425883 0.982768 0.412784
O O11 0.288211 0.992370 0.399334
O O12 0.307018 0.250000 0.684779
O O13 0.202525 0.444684 0.683689
O O14 0.333903 0.518923 0.709256
O O15 0.713897 0.750000 0.650521
O O16 0.806440 0.956541 0.678884
O O17 0.672897 0.976732 0.708902
O O18 0.341652 0.750000 0.261571
O O19 0.626886 0.250000 0.237232
O O20 0.506076 0.250000 0.620094
#
# Coordination Sequence:
#
# PCOD8250049 Si02
#       8
#     8   8   8   8   8   8   8   8
#     4  10  19  32  47  65  94 129 163 193 231 277
#     4  10  17  30  49  70  96 126 158 191 231 282
#     4  11  21  33  48  67  93 126 167 203 231 270
#     4   9  17  31  50  69  92 126 160 194 237 281
#     4  10  20  33  47  67  95 125 156 196 241 281
#     4   9  17  30  50  72  94 122 158 196 235 281
#     4  10  20  31  46  70  97 122 156 196 236 282
#     4   9  17  30  45  66  95 126 160 194 223 266
#
# _framework density 15.986457
#
# number of rings (size 3 to 8) (size 9 to 14) (size 15 to 20)
#    0.000    2.250    2.500    1.500    0.000    2.500 
#    0.000    0.625    0.000    0.000    0.000    0.875 
#    0.000    0.000    0.000    0.000    0.000    0.000 
#
# Total GULP energy -793582.918467 kJ/mol
# GULP energy per Si atom -12399.733101 kJ/mol
# Density = 1.595007 g / cm^3
# Si number density = 15.986457 Si / 1000 Ang^3
#
#
#
# Elastic Constant Matrix: (Units=GPa)
#
#
# Indices 1 2 3 4 5 6 
#
# 1 123.2705 50.3964 55.8060 0.0000 0.0000 0.0000
# 2 50.3964 64.6835 37.5975 0.0000 0.0000 0.0000
# 3 55.8060 37.5975 81.5548 0.0000 0.0000 0.0000
# 4 0.0000 0.0000 0.0000 23.6117 0.0000 0.0000
# 5 0.0000 0.0000 0.0000 0.0000 24.0492 0.0000
# 6 0.0000 0.0000 0.0000 0.0000 0.0000 19.1121
#
#
#
# Elastic Compliance Matrix: (Units=1/GPa)
#
#
# Indices 1 2 3 4 5 6 
#
# 1 0.013844 -0.007213 -0.006148 0.000000 0.000000 0.000000
# 2 -0.007213 0.024877 -0.006533 0.000000 0.000000 0.000000
# 3 -0.006148 -0.006533 0.019481 0.000000 0.000000 0.000000
# 4 0.000000 0.000000 0.000000 0.042352 0.000000 0.000000
# 5 0.000000 0.000000 0.000000 0.000000 0.041581 0.000000
# 6 0.000000 0.000000 0.000000 0.000000 0.000000 0.052323
#
#
# Mechanical properties :
#
#
# Convention : Reuss Voigt Hill
#
# Bulk Modulus (GPa) = 54.30688 61.90096 58.10392
# Shear Modulus (GPa) = 20.80008 21.73520 21.26764
#
# Velocity S-wave (km/s) = 3.61100 3.69128 3.65136
# Velocity P-wave (km/s) = 7.17147 7.54800 7.36214
#
# Compressibility (1/GPa) = 0.01841387
#
# Stress axis : x y z
#
# Youngs Moduli (GPa) = 72.23126 40.19807 51.33337
#
# Poissons Ratio (x) = 0.28994 0.31561
# Poissons Ratio (y) = 0.52099 0.33536
# Poissons Ratio (z) = 0.44409 0.26261
#
# Static dielectric constant tensor:
#      x y z
#    x 3.257210 0.000000 0.000000 
#    y 0.000000 2.980240 0.000000 
#    z 0.000000 0.000000 2.864850 
# 
# 
# High freq. dielectric constant tensor:
#      x y z
#    x 1.613900 0.000000 0.000000 
#    y 0.000000 1.609570 0.000000 
#    z 0.000000 0.000000 1.584550 
# 
# From -- ./inp_files/27906.got.cif
#   From: 2010.03.12/outbox.cif.g09.slc.cpg/sg62_14_cif.got.tgz:27906.got - 2010.04.10 19:12:36.
