data_PCOD8250721
_publ_section_title
;
Structure prediction by ZEFSAII (Michael W. Deem and Ramdas Pophale) SiO2 
 PCOD8250721
Probable space group: P N M A
;
_chemical_formula_sum "Si O2"
_cell_formula_units_Z 56
_cell_length_a 14.808535
_cell_length_b 8.765342
_cell_length_c 21.980896
_cell_angle_alpha 90.000000
_cell_angle_beta 90.000000
_cell_angle_gamma 90.000000
_cell_volume 2853.161488
_symmetry_space_group_name_H-M "P N M A"
_symmetry_group_IT_number 62
_symmetry_cell_setting 'orthorhombic'
loop_
_space_group_symop_operation_xyz
x,y,z
1/2-x,-y,1/2+z
1/2+x,1/2-y,1/2-z
-x,1/2+y,-z
-x,-y,-z
1/2+x,y,1/2-z
1/2-x,1/2+y,1/2+z
x,1/2-y,z
loop_
_atom_site_type_symbol
_atom_site_label
_atom_site_fract_x
_atom_site_fract_y
_atom_site_fract_z
Si Si1 0.077963 0.567954 0.541127
Si Si2 0.223042 0.069129 0.011622
Si Si3 0.918259 0.931479 0.889299
Si Si4 0.113607 0.068431 0.246538
Si Si5 0.392131 0.570032 0.398486
Si Si6 0.811160 0.071167 0.220281
Si Si7 0.052293 0.570908 0.676804
O O1 0.073735 0.750000 0.539246
O O2 0.174859 0.506670 0.517483
O O3 0.000000 0.500000 0.500000
O O4 0.063865 0.503353 0.609406
O O5 0.225185 0.250000 0.014298
O O6 0.180650 0.011887 0.948096
O O7 0.162241 0.008725 0.067562
O O8 0.924135 0.750000 0.889801
O O9 0.899880 0.995334 0.821541
O O10 0.012126 0.995910 0.914560
O O11 0.109652 0.250000 0.243552
O O12 0.208645 0.014320 0.273965
O O13 0.035762 0.000315 0.290063
O O14 0.403208 0.750000 0.401461
O O15 0.359739 0.521499 0.332244
O O16 0.818799 0.250000 0.205025
O O17 0.859005 0.033008 0.284121
O O18 0.038176 0.750000 0.671596
#
# Coordination Sequence:
#
# PCOD8250721 Si02
#       7
#     8   8   8   8   8   8   8
#     4  10  21  38  58  81 111 146 184 225 272 324
#     4   9  20  36  55  78 109 149 184 219 270 330
#     4  10  18  36  61  83 106 140 185 229 275 323
#     4   9  17  29  54  86 105 125 172 231 273 310
#     4  11  22  35  51  79 116 147 179 221 272 330
#     4  10  19  34  57  81 106 139 182 227 273 319
#     4   9  17  32  54  82 107 131 174 230 268 306
#
# _framework density 19.62735
#
# number of rings (size 3 to 8) (size 9 to 14) (size 15 to 20)
#    0.000    2.286    1.429    1.714    2.000    3.429 
#    0.000    3.571    0.000    0.000    0.000    0.000 
#    0.000    0.000    0.000    0.000    0.000    0.000 
#
# Total GULP energy -694408.107996 kJ/mol
# GULP energy per Si atom -12400.144786 kJ/mol
# Density = 1.958268 g / cm^3
# Si number density = 19.627350 Si / 1000 Ang^3
#
#
#
# Elastic Constant Matrix: (Units=GPa)
#
#
# Indices 1 2 3 4 5 6 
#
# 1 163.6989 18.2965 57.1653 0.0000 0.0000 0.0000
# 2 18.2965 19.8020 16.9048 0.0000 0.0000 0.0000
# 3 57.1653 16.9048 128.7600 0.0000 0.0000 0.0000
# 4 0.0000 0.0000 0.0000 15.8092 0.0000 0.0000
# 5 0.0000 0.0000 0.0000 0.0000 39.3020 0.0000
# 6 0.0000 0.0000 0.0000 0.0000 0.0000 22.8559
#
#
#
# Elastic Compliance Matrix: (Units=1/GPa)
#
#
# Indices 1 2 3 4 5 6 
#
# 1 0.007593 -0.004660 -0.002759 0.000000 0.000000 0.000000
# 2 -0.004660 0.059735 -0.005773 0.000000 0.000000 0.000000
# 3 -0.002759 -0.005773 0.009749 0.000000 0.000000 0.000000
# 4 0.000000 0.000000 0.000000 0.063254 0.000000 0.000000
# 5 0.000000 0.000000 0.000000 0.000000 0.025444 0.000000
# 6 0.000000 0.000000 0.000000 0.000000 0.000000 0.043752
#
#
# Mechanical properties :
#
#
# Convention : Reuss Voigt Hill
#
# Bulk Modulus (GPa) = 19.72727 55.22157 37.47442
# Shear Modulus (GPa) = 19.77756 30.25303 25.01529
#
# Velocity S-wave (km/s) = 3.17780 3.93029 3.57390
# Velocity P-wave (km/s) = 4.85152 6.98515 6.01372
#
# Compressibility (1/GPa) = 0.05069126
#
# Stress axis : x y z
#
# Youngs Moduli (GPa) = 131.69603 16.74063 102.57016
#
# Poissons Ratio (x) = 0.07802 0.28302
# Poissons Ratio (y) = 0.61375 0.59219
# Poissons Ratio (z) = 0.36339 0.09665
#
# Static dielectric constant tensor:
#      x y z
#    x 3.926480 0.000000 0.000000 
#    y 0.000000 3.049310 0.000000 
#    z 0.000000 0.000000 3.805490 
# 
# 
# High freq. dielectric constant tensor:
#      x y z
#    x 1.783270 0.000000 0.000000 
#    y 0.000000 1.708030 0.000000 
#    z 0.000000 0.000000 1.778140 
# 
# From -- ./inp_files/27087.got.cif
#   From: 2010.03.12/outbox.cif.g09.slc.cpg/sg62_14_cif.got.tgz:27087.got - 2010.04.10 19:12:36.
