data_PCOD8250802
_publ_section_title
;
Structure prediction by ZEFSAII (Michael W. Deem and Ramdas Pophale) SiO2 
 PCOD8250802
Probable space group: P N M A
;
_chemical_formula_sum "Si O2"
_cell_formula_units_Z 48
_cell_length_a 8.694788
_cell_length_b 18.477833
_cell_length_c 14.253588
_cell_angle_alpha 90.000000
_cell_angle_beta 90.000000
_cell_angle_gamma 90.000000
_cell_volume 2289.993430
_symmetry_space_group_name_H-M "P N M A"
_symmetry_group_IT_number 62
_symmetry_cell_setting 'orthorhombic'
loop_
_space_group_symop_operation_xyz
x,y,z
1/2-x,-y,1/2+z
1/2+x,1/2-y,1/2-z
-x,1/2+y,-z
-x,-y,-z
1/2+x,y,1/2-z
1/2-x,1/2+y,1/2+z
x,1/2-y,z
loop_
_atom_site_type_symbol
_atom_site_label
_atom_site_fract_x
_atom_site_fract_y
_atom_site_fract_z
Si Si1 0.574894 0.666876 0.368213
Si Si2 0.788864 0.608081 0.222593
Si Si3 0.558105 0.076375 0.468940
Si Si4 0.368986 0.061225 0.294804
Si Si5 0.385817 0.417162 0.948313
Si Si6 0.054378 0.423466 0.380999
O O1 0.621539 0.750000 0.377899
O O2 0.720963 0.622715 0.325756
O O3 0.435279 0.658518 0.294664
O O4 0.528843 0.637288 0.469999
O O5 0.840182 0.525044 0.207586
O O6 0.660814 0.629953 0.142765
O O7 0.513766 0.083424 0.359841
O O8 0.739727 0.076136 0.482640
O O9 0.500000 0.000000 0.500000
O O10 0.416218 0.090605 0.192893
O O11 0.217158 0.100783 0.336499
O O12 0.445977 0.492019 0.905745
O O13 0.515294 0.383083 0.019284
#
# Coordination Sequence:
#
# PCOD8250802 Si02
#       6
#     8   8   8   8   8   8
#     4  11  23  37  55  80 117 155 188 226 284 348
#     4  10  20  33  53  78 112 148 185 219 276 337
#     4  11  20  36  53  80 110 147 191 238 281 330
#     4  11  20  31  52  80 110 146 180 243 279 337
#     4   9  19  30  48  74 111 143 177 225 275 337
#     4  10  19  29  46  77 113 138 173 222 295 321
#
# _framework density 20.960760000000001
#
# number of rings (size 3 to 8) (size 9 to 14) (size 15 to 20)
#    0.000    1.667    5.000    3.500    2.333    1.333 
#    0.000    0.000    0.000    0.000    0.000   11.667 
#    0.000    0.000    0.000    0.000    0.000    0.000 
#
# Total GULP energy -594632.264332 kJ/mol
# GULP energy per Si atom -12388.172174 kJ/mol
# Density = 2.091305 g / cm^3
# Si number density = 20.960760 Si / 1000 Ang^3
#
#
#
# Elastic Constant Matrix: (Units=GPa)
#
#
# Indices 1 2 3 4 5 6 
#
# 1 50.0808 5.7922 20.1860 0.0000 0.0000 0.0000
# 2 5.7922 39.2812 2.4458 0.0000 0.0000 0.0000
# 3 20.1860 2.4458 90.6553 0.0000 0.0000 0.0000
# 4 0.0000 0.0000 0.0000 13.7125 0.0000 0.0000
# 5 0.0000 0.0000 0.0000 0.0000 52.9500 0.0000
# 6 0.0000 0.0000 0.0000 0.0000 0.0000 12.5508
#
#
#
# Elastic Compliance Matrix: (Units=1/GPa)
#
#
# Indices 1 2 3 4 5 6 
#
# 1 0.022280 -0.002981 -0.004881 0.000000 0.000000 0.000000
# 2 -0.002981 0.025899 -0.000035 0.000000 0.000000 0.000000
# 3 -0.004881 -0.000035 0.012118 0.000000 0.000000 0.000000
# 4 0.000000 0.000000 0.000000 0.072926 0.000000 0.000000
# 5 0.000000 0.000000 0.000000 0.000000 0.018886 0.000000
# 6 0.000000 0.000000 0.000000 0.000000 0.000000 0.079676
#
#
# Mechanical properties :
#
#
# Convention : Reuss Voigt Hill
#
# Bulk Modulus (GPa) = 22.46993 26.31836 24.39414
# Shear Modulus (GPa) = 19.05388 25.94888 22.50138
#
# Velocity S-wave (km/s) = 3.01828 3.52230 3.27999
# Velocity P-wave (km/s) = 4.78434 5.39680 5.09977
#
# Compressibility (1/GPa) = 0.04450392
#
# Stress axis : x y z
#
# Youngs Moduli (GPa) = 44.88383 38.61112 82.51868
#
# Poissons Ratio (x) = 0.11511 0.40274
# Poissons Ratio (y) = 0.13381 0.00288
# Poissons Ratio (z) = 0.21906 0.00135
#
# Static dielectric constant tensor:
#      x y z
#    x 1.719390 0.000000 0.000000 
#    y 0.000000 3.097670 0.000000 
#    z 0.000000 0.000000 5.477620 
# 
# 
# High freq. dielectric constant tensor:
#      x y z
#    x 1.836860 0.000000 0.000000 
#    y 0.000000 1.726670 0.000000 
#    z 0.000000 0.000000 1.842860 
# 
# From -- ./inp_files/17083.got.cif
#   From: 2010.03.12/outbox.cif.g09.slc.cpg/sg62_9_cif.got.tgz:17083.got - 2010.04.10 19:12:36.
