data_PCOD8250803
_publ_section_title
;
Structure prediction by ZEFSAII (Michael W. Deem and Ramdas Pophale) SiO2 
 PCOD8250803
Probable space group: P N M A
;
_chemical_formula_sum "Si O2"
_cell_formula_units_Z 64
_cell_length_a 20.604361
_cell_length_b 18.510610
_cell_length_c 9.611054
_cell_angle_alpha 90.000000
_cell_angle_beta 90.000000
_cell_angle_gamma 90.000000
_cell_volume 3665.649179
_symmetry_space_group_name_H-M "P N M A"
_symmetry_group_IT_number 62
_symmetry_cell_setting 'orthorhombic'
loop_
_space_group_symop_operation_xyz
x,y,z
1/2-x,-y,1/2+z
1/2+x,1/2-y,1/2-z
-x,1/2+y,-z
-x,-y,-z
1/2+x,y,1/2-z
1/2-x,1/2+y,1/2+z
x,1/2-y,z
loop_
_atom_site_type_symbol
_atom_site_label
_atom_site_fract_x
_atom_site_fract_y
_atom_site_fract_z
Si Si1 0.622520 0.333627 0.352217
Si Si2 0.498396 0.083280 0.332936
Si Si3 0.732803 0.167996 0.825010
Si Si4 0.135822 0.416366 0.864422
Si Si5 0.991939 0.424525 0.836514
Si Si6 0.876190 0.332889 0.851919
Si Si7 0.761791 0.833205 0.647413
Si Si8 0.860145 0.413627 0.139882
O O1 0.620257 0.250000 0.393459
O O2 0.551599 0.356882 0.294533
O O3 0.642872 0.378804 0.486535
O O4 0.672878 0.349991 0.230394
O O5 0.486802 0.077652 0.497504
O O6 0.426497 0.101683 0.271149
O O7 0.522283 0.004994 0.278944
O O8 0.708475 0.250000 0.800846
O O9 0.689905 0.112812 0.738678
O O10 0.807506 0.160944 0.771017
O O11 0.725597 0.147019 0.986817
O O12 0.146301 0.501210 0.888524
O O13 0.065015 0.399977 0.796604
O O14 0.936287 0.372196 0.772307
O O15 0.896244 0.250000 0.874086
O O16 0.863717 0.369483 0.998396
O O17 0.740631 0.750000 0.662105
O O18 0.704354 0.882570 0.714849
#
# Coordination Sequence:
#
# PCOD8250803 Si02
#       8
#     8   8   8   8   8   8   8   8
#     4  10  19  30  47  72  96 117 146 188 235 271
#     4   8  15  27  43  65  92 118 145 185 225 262
#     4   9  18  32  47  64  89 121 154 184 217 266
#     4  10  19  29  47  72  94 117 147 189 232 267
#     4   8  15  27  42  66  95 116 145 186 225 262
#     4   9  16  27  45  66  89 120 155 186 217 262
#     4   9  19  33  47  65  91 122 154 186 220 267
#     4   9  17  29  46  67  92 119 154 188 221 264
#
# _framework density 17.459391
#
# number of rings (size 3 to 8) (size 9 to 14) (size 15 to 20)
#    0.000    3.000    0.000    3.750    0.000    8.500 
#    0.000    0.000    0.000    4.500    0.000    3.500 
#    0.000    0.000    0.000    0.000    0.000    0.000 
#
# Total GULP energy -793014.411086 kJ/mol
# GULP energy per Si atom -12390.850173 kJ/mol
# Density = 1.741965 g / cm^3
# Si number density = 17.459391 Si / 1000 Ang^3
#
#
#
# Elastic Constant Matrix: (Units=GPa)
#
#
# Indices 1 2 3 4 5 6 
#
# 1 109.3803 61.2847 29.0365 0.0000 0.0000 0.0000
# 2 61.2847 97.2616 26.6123 0.0000 0.0000 0.0000
# 3 29.0365 26.6123 29.8330 0.0000 0.0000 0.0000
# 4 0.0000 0.0000 0.0000 9.9197 0.0000 0.0000
# 5 0.0000 0.0000 0.0000 0.0000 18.6141 0.0000
# 6 0.0000 0.0000 0.0000 0.0000 0.0000 37.3980
#
#
#
# Elastic Compliance Matrix: (Units=1/GPa)
#
#
# Indices 1 2 3 4 5 6 
#
# 1 0.015603 -0.007509 -0.008488 0.000000 0.000000 0.000000
# 2 -0.007509 0.017215 -0.008048 0.000000 0.000000 0.000000
# 3 -0.008488 -0.008048 0.048961 0.000000 0.000000 0.000000
# 4 0.000000 0.000000 0.000000 0.100809 0.000000 0.000000
# 5 0.000000 0.000000 0.000000 0.000000 0.053723 0.000000
# 6 0.000000 0.000000 0.000000 0.000000 0.000000 0.026739
#
#
# Mechanical properties :
#
#
# Convention : Reuss Voigt Hill
#
# Bulk Modulus (GPa) = 29.68380 52.26024 40.97202
# Shear Modulus (GPa) = 15.51017 21.15579 18.33298
#
# Velocity S-wave (km/s) = 2.98376 3.48474 3.24394
# Velocity P-wave (km/s) = 5.37671 6.79623 6.12771
#
# Compressibility (1/GPa) = 0.03368841
#
# Stress axis : x y z
#
# Youngs Moduli (GPa) = 64.09088 58.08885 20.42459
#
# Poissons Ratio (x) = 0.43618 0.17336
# Poissons Ratio (y) = 0.48125 0.16438
# Poissons Ratio (z) = 0.54400 0.46750
#
# Static dielectric constant tensor:
#      x y z
#    x 4.030930 0.000000 0.000000 
#    y 0.000000 3.435440 0.000000 
#    z 0.000000 0.000000 2.666540 
# 
# 
# High freq. dielectric constant tensor:
#      x y z
#    x 1.697680 0.000000 0.000000 
#    y 0.000000 1.685220 0.000000 
#    z 0.000000 0.000000 1.601960 
# 
# From -- ./inp_files/14967.got.cif
#   From: 2010.03.12/outbox.cif.g09.slc.cpg/sg62_8_cif.got.tgz:14967.got - 2010.04.10 19:12:36.
