data_PCOD8250637
_publ_section_title
;
Structure prediction by ZEFSAII (Michael W. Deem and Ramdas Pophale) SiO2 
 PCOD8250637
Probable space group: P N M A
;
_chemical_formula_sum "Si O2"
_cell_formula_units_Z 64
_cell_length_a 11.830673
_cell_length_b 9.399144
_cell_length_c 30.409382
_cell_angle_alpha 90.000000
_cell_angle_beta 90.000000
_cell_angle_gamma 90.000000
_cell_volume 3381.468515
_symmetry_space_group_name_H-M "P N M A"
_symmetry_group_IT_number 62
_symmetry_cell_setting 'orthorhombic'
loop_
_space_group_symop_operation_xyz
x,y,z
1/2-x,-y,1/2+z
1/2+x,1/2-y,1/2-z
-x,1/2+y,-z
-x,-y,-z
1/2+x,y,1/2-z
1/2-x,1/2+y,1/2+z
x,1/2-y,z
loop_
_atom_site_type_symbol
_atom_site_label
_atom_site_fract_x
_atom_site_fract_y
_atom_site_fract_z
Si Si1 0.770107 0.584268 0.054663
Si Si2 0.005939 0.588856 0.928602
Si Si3 0.874316 0.082629 0.375453
Si Si4 0.220908 0.084680 0.793752
Si Si5 0.395788 0.084687 0.869085
Si Si6 0.776468 0.914085 0.791928
Si Si7 0.982664 0.091098 0.172867
Si Si8 0.767154 0.915941 0.956640
O O1 0.794118 0.750000 0.062474
O O2 0.680014 0.528241 0.090183
O O3 0.887968 0.506021 0.059546
O O4 0.720838 0.554684 0.005755
O O5 0.031335 0.750000 0.944233
O O6 0.978332 0.584693 0.877215
O O7 0.894756 0.522864 0.952242
O O8 0.898703 0.250000 0.378471
O O9 0.790308 0.044764 0.335922
O O10 0.819703 0.020981 0.420688
O O11 0.991358 0.004968 0.367040
O O12 0.199747 0.250000 0.785696
O O13 0.330948 0.057927 0.823438
O O14 0.231211 0.010082 0.747146
O O15 0.113266 0.024051 0.819164
O O16 0.425122 0.250000 0.875640
O O17 0.755400 0.750000 0.779865
O O18 0.908817 0.945910 0.797676
O O19 0.938016 0.250000 0.184317
O O20 0.778183 0.750000 0.945863
#
# Coordination Sequence:
#
# PCOD8250637 Si02
#       8
#     8   8   8   8   8   8   8   8
#     4  10  20  36  57  81 115 153 185 222 276 336
#     4  10  18  33  58  87 116 142 179 230 279 327
#     4  10  21  39  61  83 108 145 191 236 279 329
#     4  11  24  40  58  83 118 152 187 228 278 339
#     4  10  23  40  54  78 116 153 185 227 277 329
#     4  10  22  40  61  86 113 144 188 237 285 331
#     4  10  20  37  62  87 114 145 183 234 283 330
#     4   9  18  35  59  85 112 145 184 230 282 329
#
# _framework density 18.926687000000001
#
# number of rings (size 3 to 8) (size 9 to 14) (size 15 to 20)
#    0.000    2.000    2.500    0.750    1.750    3.000 
#    0.000    1.250    0.000    0.000    0.000    0.000 
#    0.000    0.000    0.000    0.000    0.000    0.000 
#
# Total GULP energy -793695.134792 kJ/mol
# GULP energy per Si atom -12401.486481 kJ/mol
# Density = 1.888361 g / cm^3
# Si number density = 18.926687 Si / 1000 Ang^3
#
#
#
# Elastic Constant Matrix: (Units=GPa)
#
#
# Indices 1 2 3 4 5 6 
#
# 1 90.5829 43.8624 20.2397 0.0000 0.0000 0.0000
# 2 43.8624 60.0871 33.0414 0.0000 0.0000 0.0000
# 3 20.2397 33.0414 87.6660 0.0000 0.0000 0.0000
# 4 0.0000 0.0000 0.0000 18.7151 0.0000 0.0000
# 5 0.0000 0.0000 0.0000 0.0000 26.7126 0.0000
# 6 0.0000 0.0000 0.0000 0.0000 0.0000 12.8143
#
#
#
# Elastic Compliance Matrix: (Units=1/GPa)
#
#
# Indices 1 2 3 4 5 6 
#
# 1 0.017139 -0.013037 0.000957 0.000000 0.000000 0.000000
# 2 -0.013037 0.030911 -0.008640 0.000000 0.000000 0.000000
# 3 0.000957 -0.008640 0.014443 0.000000 0.000000 0.000000
# 4 0.000000 0.000000 0.000000 0.053433 0.000000 0.000000
# 5 0.000000 0.000000 0.000000 0.000000 0.037436 0.000000
# 6 0.000000 0.000000 0.000000 0.000000 0.000000 0.078038
#
#
# Mechanical properties :
#
#
# Convention : Reuss Voigt Hill
#
# Bulk Modulus (GPa) = 47.50436 48.06924 47.78680
# Shear Modulus (GPa) = 17.86635 21.06124 19.46380
#
# Velocity S-wave (km/s) = 3.07575 3.33945 3.21031
# Velocity P-wave (km/s) = 6.14551 6.34996 6.24857
#
# Compressibility (1/GPa) = 0.02105070
#
# Stress axis : x y z
#
# Youngs Moduli (GPa) = 58.34757 32.35138 69.23977
#
# Poissons Ratio (x) = 0.42177 -0.06625
# Poissons Ratio (y) = 0.76068 0.59825
# Poissons Ratio (z) = -0.05583 0.27953
#
# Static dielectric constant tensor:
#      x y z
#    x 3.384870 0.000000 0.000000 
#    y 0.000000 3.321040 0.000000 
#    z 0.000000 0.000000 3.663980 
# 
# 
# High freq. dielectric constant tensor:
#      x y z
#    x 1.735830 0.000000 0.000000 
#    y 0.000000 1.716260 0.000000 
#    z 0.000000 0.000000 1.750310 
# 
# From -- ./inp_files/32575.got.cif
#   From: 2010.03.12/outbox.cif.g09.slc.cpg/sg62_17_cif.got.tgz:32575.got - 2010.04.10 19:12:36.
