data_PCOD8250657
_publ_section_title
;
Structure prediction by ZEFSAII (Michael W. Deem and Ramdas Pophale) SiO2 
 PCOD8250657
Probable space group: P N M A
;
_chemical_formula_sum "Si O2"
_cell_formula_units_Z 48
_cell_length_a 27.520089
_cell_length_b 9.125005
_cell_length_c 10.023867
_cell_angle_alpha 90.000000
_cell_angle_beta 90.000000
_cell_angle_gamma 90.000000
_cell_volume 2517.203001
_symmetry_space_group_name_H-M "P N M A"
_symmetry_group_IT_number 62
_symmetry_cell_setting 'orthorhombic'
loop_
_space_group_symop_operation_xyz
x,y,z
1/2-x,-y,1/2+z
1/2+x,1/2-y,1/2-z
-x,1/2+y,-z
-x,-y,-z
1/2+x,y,1/2-z
1/2-x,1/2+y,1/2+z
x,1/2-y,z
loop_
_atom_site_type_symbol
_atom_site_label
_atom_site_fract_x
_atom_site_fract_y
_atom_site_fract_z
Si Si1 0.292712 0.422641 0.414337
Si Si2 0.280513 0.076975 0.110348
Si Si3 0.599575 0.923497 0.527114
Si Si4 0.884276 0.078866 0.479865
Si Si5 0.436386 0.421857 0.755299
Si Si6 0.036860 0.923832 0.726243
O O1 0.290269 0.250000 0.439613
O O2 0.261353 0.500635 0.526789
O O3 0.273782 0.461998 0.266347
O O4 0.347679 0.482607 0.429647
O O5 0.277459 0.250000 0.086260
O O6 0.332107 0.012026 0.059325
O O7 0.602224 0.750000 0.522518
O O8 0.584322 0.986120 0.382990
O O9 0.558957 0.974455 0.632184
O O10 0.881745 0.250000 0.448512
O O11 0.895539 0.044768 0.633891
O O12 0.927159 0.014667 0.387778
O O13 0.447639 0.250000 0.745712
O O14 0.485384 0.501970 0.796604
O O15 0.030133 0.750000 0.717940
#
# Coordination Sequence:
#
# PCOD8250657 Si02
#       6
#     8   8   8   8   8   8
#     4  10  21  38  59  83 110 143 184 228 273 327
#     4  10  21  38  59  83 110 143 184 228 273 327
#     4   9  18  34  55  76 103 141 179 213 260 323
#     4   9  18  34  55  76 103 141 179 213 260 323
#     4  10  20  32  51  80 106 134 177 220 257 312
#     4  10  18  34  55  74 102 140 177 214 263 316
#
# _framework density 19.068784000000001
#
# number of rings (size 3 to 8) (size 9 to 14) (size 15 to 20)
#    0.000    2.333    1.667    1.000    2.333    0.667 
#    0.000    3.333    0.000    0.000    0.000    0.000 
#    0.000    0.000    0.000    0.000    0.000    0.000 
#
# Total GULP energy -595206.247217 kJ/mol
# GULP energy per Si atom -12400.130150 kJ/mol
# Density = 1.902538 g / cm^3
# Si number density = 19.068784 Si / 1000 Ang^3
#
#
#
# Elastic Constant Matrix: (Units=GPa)
#
#
# Indices 1 2 3 4 5 6 
#
# 1 73.6162 17.0923 3.2015 0.0000 0.0000 0.0000
# 2 17.0923 23.7700 16.7300 0.0000 0.0000 0.0000
# 3 3.2015 16.7300 81.5846 0.0000 0.0000 0.0000
# 4 0.0000 0.0000 0.0000 19.3806 0.0000 0.0000
# 5 0.0000 0.0000 0.0000 0.0000 39.6626 0.0000
# 6 0.0000 0.0000 0.0000 0.0000 0.0000 29.1715
#
#
#
# Elastic Compliance Matrix: (Units=1/GPa)
#
#
# Indices 1 2 3 4 5 6 
#
# 1 0.016609 -0.013421 0.002100 0.000000 0.000000 0.000000
# 2 -0.013421 0.060012 -0.011780 0.000000 0.000000 0.000000
# 3 0.002100 -0.011780 0.014590 0.000000 0.000000 0.000000
# 4 0.000000 0.000000 0.000000 0.051598 0.000000 0.000000
# 5 0.000000 0.000000 0.000000 0.000000 0.025213 0.000000
# 6 0.000000 0.000000 0.000000 0.000000 0.000000 0.034280
#
#
# Mechanical properties :
#
#
# Convention : Reuss Voigt Hill
#
# Bulk Modulus (GPa) = 22.21728 28.11316 25.16522
# Shear Modulus (GPa) = 18.97495 27.10608 23.04051
#
# Velocity S-wave (km/s) = 3.15791 3.77436 3.47981
# Velocity P-wave (km/s) = 4.99729 5.81114 5.41952
#
# Compressibility (1/GPa) = 0.04501001
#
# Stress axis : x y z
#
# Youngs Moduli (GPa) = 60.20913 16.66347 68.53853
#
# Poissons Ratio (x) = 0.22364 -0.14396
# Poissons Ratio (y) = 0.80808 0.80735
# Poissons Ratio (z) = -0.12647 0.19629
#
# Static dielectric constant tensor:
#      x y z
#    x 3.585100 0.000000 0.000000 
#    y 0.000000 3.015140 0.000000 
#    z 0.000000 0.000000 3.725570 
# 
# 
# High freq. dielectric constant tensor:
#      x y z
#    x 1.750750 0.000000 0.000000 
#    y 0.000000 1.692540 0.000000 
#    z 0.000000 0.000000 1.761190 
# 
# From -- ./inp_files/9317.got.cif
#   From: 2010.03.12/outbox.cif.g09.slc.cpg/sg62_5_cif.got.tgz:9317.got - 2010.04.10 19:12:36.
