data_PCOD8250282
_publ_section_title
;
Structure prediction by ZEFSAII (Michael W. Deem and Ramdas Pophale) SiO2 
 PCOD8250282
Probable space group: P N M A
;
_chemical_formula_sum "Si O2"
_cell_formula_units_Z 56
_cell_length_a 21.136017
_cell_length_b 8.843214
_cell_length_c 17.966598
_cell_angle_alpha 90.000000
_cell_angle_beta 90.000000
_cell_angle_gamma 90.000000
_cell_volume 3358.142607
_symmetry_space_group_name_H-M "P N M A"
_symmetry_group_IT_number 62
_symmetry_cell_setting 'orthorhombic'
loop_
_space_group_symop_operation_xyz
x,y,z
1/2-x,-y,1/2+z
1/2+x,1/2-y,1/2-z
-x,1/2+y,-z
-x,-y,-z
1/2+x,y,1/2-z
1/2-x,1/2+y,1/2+z
x,1/2-y,z
loop_
_atom_site_type_symbol
_atom_site_label
_atom_site_fract_x
_atom_site_fract_y
_atom_site_fract_z
Si Si1 0.752810 0.925214 0.425705
Si Si2 0.255093 0.572053 0.419445
Si Si3 0.686216 0.582793 0.797834
Si Si4 0.373422 0.425975 0.662528
Si Si5 0.314531 0.918363 0.793857
Si Si6 0.499320 0.571135 0.419209
Si Si7 0.622569 0.928898 0.651062
O O1 0.758180 0.750000 0.447213
O O2 0.684563 0.966343 0.391831
O O3 0.763973 0.028406 0.497193
O O4 0.807788 0.965409 0.365833
O O5 0.265040 0.750000 0.411698
O O6 0.197197 0.520200 0.366715
O O7 0.320230 0.489016 0.399284
O O8 0.671308 0.750000 0.829679
O O9 0.750597 0.587476 0.752278
O O10 0.632631 0.532394 0.738621
O O11 0.373667 0.250000 0.681027
O O12 0.368804 0.511312 0.741523
O O13 0.436999 0.479555 0.622364
O O14 0.335148 0.750000 0.818544
O O15 0.500000 0.500000 0.500000
O O16 0.494645 0.750000 0.426993
O O17 0.441367 0.509838 0.371773
O O18 0.618069 0.750000 0.637462
#
# Coordination Sequence:
#
# PCOD8250282 Si02
#       7
#     8   8   8   8   8   8   8
#     4  10  18  29  47  70  96 123 154 194 237 280
#     4  11  20  30  47  70  97 126 156 192 238 286
#     4   8  16  30  46  65  90 120 153 192 237 282
#     4   9  19  33  47  66  94 127 160 195 232 274
#     4   9  17  30  48  68  91 120 155 194 235 280
#     4  11  22  34  49  70  98 131 166 199 232 273
#     4  10  20  34  49  67  95 127 162 200 235 277
#
# _framework density 16.675885000000001
#
# number of rings (size 3 to 8) (size 9 to 14) (size 15 to 20)
#    0.000    2.286    0.000    4.714    0.000    6.857 
#    0.000    0.000    0.000    0.000    0.000    1.000 
#    0.000    0.000    0.000    0.000    0.000    0.000 
#
# Total GULP energy -694372.711319 kJ/mol
# GULP energy per Si atom -12399.512702 kJ/mol
# Density = 1.663793 g / cm^3
# Si number density = 16.675885 Si / 1000 Ang^3
#
#
#
# Elastic Constant Matrix: (Units=GPa)
#
#
# Indices 1 2 3 4 5 6 
#
# 1 78.7744 35.0400 56.3380 0.0000 0.0000 0.0000
# 2 35.0400 74.7249 42.1783 0.0000 0.0000 0.0000
# 3 56.3380 42.1783 102.5979 0.0000 0.0000 0.0000
# 4 0.0000 0.0000 0.0000 33.6161 0.0000 0.0000
# 5 0.0000 0.0000 0.0000 0.0000 24.2595 0.0000
# 6 0.0000 0.0000 0.0000 0.0000 0.0000 22.9320
#
#
#
# Elastic Compliance Matrix: (Units=1/GPa)
#
#
# Indices 1 2 3 4 5 6 
#
# 1 0.022037 -0.004562 -0.010225 0.000000 0.000000 0.000000
# 2 -0.004562 0.018370 -0.005047 0.000000 0.000000 0.000000
# 3 -0.010225 -0.005047 0.017437 0.000000 0.000000 0.000000
# 4 0.000000 0.000000 0.000000 0.029748 0.000000 0.000000
# 5 0.000000 0.000000 0.000000 0.000000 0.041221 0.000000
# 6 0.000000 0.000000 0.000000 0.000000 0.000000 0.043607
#
#
# Mechanical properties :
#
#
# Convention : Reuss Voigt Hill
#
# Bulk Modulus (GPa) = 55.02039 58.13444 56.57742
# Shear Modulus (GPa) = 22.92043 24.33090 23.62567
#
# Velocity S-wave (km/s) = 3.71140 3.82389 3.76807
# Velocity P-wave (km/s) = 7.17158 7.37789 7.27547
#
# Compressibility (1/GPa) = 0.01817508
#
# Stress axis : x y z
#
# Youngs Moduli (GPa) = 45.37919 54.43536 57.35087
#
# Poissons Ratio (x) = 0.24832 0.58643
# Poissons Ratio (y) = 0.20701 0.28946
# Poissons Ratio (z) = 0.46401 0.27475
#
# Static dielectric constant tensor:
#      x y z
#    x 3.010270 0.000000 0.000000 
#    y 0.000000 3.272970 0.000000 
#    z 0.000000 0.000000 3.187790 
# 
# 
# High freq. dielectric constant tensor:
#      x y z
#    x 1.602410 0.000000 0.000000 
#    y 0.000000 1.656610 0.000000 
#    z 0.000000 0.000000 1.643810 
# 
# From -- ./inp_files/20374.got.cif
#   From: 2010.03.12/outbox.cif.g09.slc.cpg/sg62_11_cif.got.tgz:20374.got - 2010.04.10 19:12:36.
