data_PCOD8250187
_publ_section_title
;
Structure prediction by ZEFSAII (Michael W. Deem and Ramdas Pophale) SiO2 
 PCOD8250187
Probable space group: P N M A
;
_chemical_formula_sum "Si O2"
_cell_formula_units_Z 64
_cell_length_a 18.343147
_cell_length_b 8.824537
_cell_length_c 26.338922
_cell_angle_alpha 90.000000
_cell_angle_beta 90.000000
_cell_angle_gamma 90.000000
_cell_volume 4263.475494
_symmetry_space_group_name_H-M "P N M A"
_symmetry_group_IT_number 62
_symmetry_cell_setting 'orthorhombic'
loop_
_space_group_symop_operation_xyz
x,y,z
1/2-x,-y,1/2+z
1/2+x,1/2-y,1/2-z
-x,1/2+y,-z
-x,-y,-z
1/2+x,y,1/2-z
1/2-x,1/2+y,1/2+z
x,1/2-y,z
loop_
_atom_site_type_symbol
_atom_site_label
_atom_site_fract_x
_atom_site_fract_y
_atom_site_fract_z
Si Si1 0.804005 0.425915 0.202365
Si Si2 0.281331 0.424832 0.709506
Si Si3 0.335538 0.571640 0.851016
Si Si4 0.148406 0.078998 0.646398
Si Si5 0.080699 0.926789 0.552338
Si Si6 0.085351 0.429146 0.449285
Si Si7 0.933421 0.574263 0.248916
Si Si8 0.088069 0.070831 0.248725
O O1 0.826130 0.250000 0.202038
O O2 0.755204 0.460226 0.251183
O O3 0.750974 0.466789 0.154622
O O4 0.877244 0.526559 0.203976
O O5 0.277960 0.250000 0.728484
O O6 0.235215 0.438378 0.657311
O O7 0.364673 0.484028 0.704865
O O8 0.347437 0.750000 0.852103
O O9 0.365860 0.501799 0.903535
O O10 0.383097 0.510674 0.803456
O O11 0.130003 0.250000 0.629539
O O12 0.103037 0.037541 0.696917
O O13 0.127897 0.966865 0.601419
O O14 0.084249 0.750000 0.543117
O O15 0.997692 0.981726 0.560722
O O16 0.114382 0.005499 0.502489
O O17 0.092066 0.250000 0.451714
O O18 0.952558 0.750000 0.242983
O O19 0.004631 0.473917 0.242289
O O20 0.096547 0.250000 0.242081
#
# Coordination Sequence:
#
# PCOD8250187 Si02
#       8
#     8   8   8   8   8   8   8   8
#     4   9  16  27  42  60  81 106 139 174 207 244
#     4   9  17  29  42  59  83 109 138 170 206 247
#     4   8  15  27  43  60  78 106 141 172 204 243
#     4   9  18  30  43  58  80 112 143 170 205 247
#     4  10  19  28  41  61  82 106 139 177 210 241
#     4   9  17  30  43  56  80 110 138 171 209 245
#     4  10  19  29  41  60  85 112 141 171 207 248
#     4  10  18  28  43  63  85 110 141 173 206 243
#
# _framework density 15.011227999999999
#
# number of rings (size 3 to 8) (size 9 to 14) (size 15 to 20)
#    0.000    2.750    0.000    4.125    0.000    4.500 
#    0.000    3.750    0.000    0.000    0.000    0.000 
#    0.000    1.000    0.000    3.000    0.000    4.000 
#
# Total GULP energy -793205.292525 kJ/mol
# GULP energy per Si atom -12393.832696 kJ/mol
# Density = 1.497706 g / cm^3
# Si number density = 15.011228 Si / 1000 Ang^3
#
#
#
# Elastic Constant Matrix: (Units=GPa)
#
#
# Indices 1 2 3 4 5 6 
#
# 1 87.9754 24.7404 41.8110 0.0000 0.0000 0.0000
# 2 24.7404 42.6853 25.7844 0.0000 0.0000 0.0000
# 3 41.8110 25.7844 67.3768 0.0000 0.0000 0.0000
# 4 0.0000 0.0000 0.0000 18.8482 0.0000 0.0000
# 5 0.0000 0.0000 0.0000 0.0000 22.7399 0.0000
# 6 0.0000 0.0000 0.0000 0.0000 0.0000 24.8438
#
#
#
# Elastic Compliance Matrix: (Units=1/GPa)
#
#
# Indices 1 2 3 4 5 6 
#
# 1 0.016750 -0.004461 -0.008687 0.000000 0.000000 0.000000
# 2 -0.004461 0.031659 -0.009348 0.000000 0.000000 0.000000
# 3 -0.008687 -0.009348 0.023810 0.000000 0.000000 0.000000
# 4 0.000000 0.000000 0.000000 0.053055 0.000000 0.000000
# 5 0.000000 0.000000 0.000000 0.000000 0.043976 0.000000
# 6 0.000000 0.000000 0.000000 0.000000 0.000000 0.040251
#
#
# Mechanical properties :
#
#
# Convention : Reuss Voigt Hill
#
# Bulk Modulus (GPa) = 36.72659 42.52324 39.62491
# Shear Modulus (GPa) = 18.97040 20.33315 19.65178
#
# Velocity S-wave (km/s) = 3.55878 3.68439 3.62213
# Velocity P-wave (km/s) = 6.43473 6.81826 6.62927
#
# Compressibility (1/GPa) = 0.02722823
#
# Stress axis : x y z
#
# Youngs Moduli (GPa) = 59.70188 31.58648 41.99916
#
# Poissons Ratio (x) = 0.14090 0.36485
# Poissons Ratio (y) = 0.26631 0.39259
# Poissons Ratio (z) = 0.51864 0.29526
#
# Static dielectric constant tensor:
#      x y z
#    x 3.060410 0.000000 0.000000 
#    y 0.000000 2.846860 0.000000 
#    z 0.000000 0.000000 2.783220 
# 
# 
# High freq. dielectric constant tensor:
#      x y z
#    x 1.567020 0.000000 0.000000 
#    y 0.000000 1.579500 0.000000 
#    z 0.000000 0.000000 1.535180 
# 
# From -- ./inp_files/31347.got.cif
#   From: 2010.03.12/outbox.cif.g09.slc.cpg/sg62_16_cif.got.tgz:31347.got - 2010.04.10 19:12:36.
