data_PCOD8250608
_publ_section_title
;
Structure prediction by ZEFSAII (Michael W. Deem and Ramdas Pophale) SiO2 
 PCOD8250608
Probable space group: P N M A
;
_chemical_formula_sum "Si O2"
_cell_formula_units_Z 64
_cell_length_a 19.271805
_cell_length_b 13.892532
_cell_length_c 13.574595
_cell_angle_alpha 90.000000
_cell_angle_beta 90.000000
_cell_angle_gamma 90.000000
_cell_volume 3634.382894
_symmetry_space_group_name_H-M "P N M A"
_symmetry_group_IT_number 62
_symmetry_cell_setting 'orthorhombic'
loop_
_space_group_symop_operation_xyz
x,y,z
1/2-x,-y,1/2+z
1/2+x,1/2-y,1/2-z
-x,1/2+y,-z
-x,-y,-z
1/2+x,y,1/2-z
1/2-x,1/2+y,1/2+z
x,1/2-y,z
loop_
_atom_site_type_symbol
_atom_site_label
_atom_site_fract_x
_atom_site_fract_y
_atom_site_fract_z
Si Si1 0.124655 0.360882 0.439611
Si Si2 0.021734 0.362591 0.613244
Si Si3 0.391982 0.465879 0.808643
Si Si4 0.030971 0.140875 0.990959
Si Si5 0.264333 0.141338 0.554615
Si Si6 0.098660 0.534230 0.077083
Si Si7 0.244314 0.858143 0.286318
Si Si8 0.108001 0.140748 0.791400
O O1 0.127746 0.250000 0.407373
O O2 0.057777 0.380086 0.508459
O O3 0.114088 0.422566 0.340257
O O4 0.195532 0.390523 0.495648
O O5 0.008938 0.250000 0.633817
O O6 0.071990 0.408375 0.697003
O O7 0.947858 0.415160 0.620388
O O8 0.410154 0.449578 0.694035
O O9 0.317344 0.420373 0.830955
O O10 0.030637 0.250000 0.031607
O O11 0.054534 0.135446 0.879125
O O12 0.953706 0.097991 0.988831
O O13 0.083071 0.078446 0.058301
O O14 0.286880 0.250000 0.523583
O O15 0.326179 0.065085 0.535818
O O16 0.248768 0.139564 0.669290
O O17 0.232358 0.750000 0.325521
O O18 0.317678 0.904810 0.322444
O O19 0.126272 0.250000 0.760972
#
# Coordination Sequence:
#
# PCOD8250608 Si02
#       8
#     8   8   8   8   8   8   8   8
#     4  10  21  35  51  72 103 144 177 202 246 309
#     4  10  18  33  54  77 103 130 166 212 261 306
#     4  11  21  32  51  79 104 133 167 217 254 296
#     4  10  20  34  52  75 104 136 168 212 263 311
#     4   9  17  32  51  72 101 131 169 214 250 295
#     4  10  21  33  51  79 104 132 175 213 257 305
#     4   9  17  30  50  77 101 126 161 209 261 298
#     4   9  16  29  50  73 100 128 159 204 259 305
#
# _framework density 17.609591999999999
#
# number of rings (size 3 to 8) (size 9 to 14) (size 15 to 20)
#    0.000    2.250    2.500    1.125    1.750    1.500 
#    0.000    0.000    0.000    0.000    0.000    0.875 
#    0.000    0.000    0.000    0.000    0.000    0.000 
#
# Total GULP energy -793260.990036 kJ/mol
# GULP energy per Si atom -12394.702969 kJ/mol
# Density = 1.756951 g / cm^3
# Si number density = 17.609592 Si / 1000 Ang^3
#
#
#
# Elastic Constant Matrix: (Units=GPa)
#
#
# Indices 1 2 3 4 5 6 
#
# 1 97.2792 32.8621 8.8879 0.0000 0.0000 0.0000
# 2 32.8621 82.8560 14.9143 0.0000 0.0000 0.0000
# 3 8.8879 14.9143 25.2973 0.0000 0.0000 0.0000
# 4 0.0000 0.0000 0.0000 26.1074 0.0000 0.0000
# 5 0.0000 0.0000 0.0000 0.0000 18.2527 0.0000
# 6 0.0000 0.0000 0.0000 0.0000 0.0000 19.7637
#
#
#
# Elastic Compliance Matrix: (Units=1/GPa)
#
#
# Indices 1 2 3 4 5 6 
#
# 1 0.011925 -0.004448 -0.001568 0.000000 0.000000 0.000000
# 2 -0.004448 0.015161 -0.007376 0.000000 0.000000 0.000000
# 3 -0.001568 -0.007376 0.044429 0.000000 0.000000 0.000000
# 4 0.000000 0.000000 0.000000 0.038303 0.000000 0.000000
# 5 0.000000 0.000000 0.000000 0.000000 0.054786 0.000000
# 6 0.000000 0.000000 0.000000 0.000000 0.000000 0.050598
#
#
# Mechanical properties :
#
#
# Convention : Reuss Voigt Hill
#
# Bulk Modulus (GPa) = 22.35463 35.41788 28.88626
# Shear Modulus (GPa) = 19.46317 22.74265 21.10291
#
# Velocity S-wave (km/s) = 3.32815 3.59763 3.46551
# Velocity P-wave (km/s) = 5.24318 6.11668 5.69670
#
# Compressibility (1/GPa) = 0.04473345
#
# Stress axis : x y z
#
# Youngs Moduli (GPa) = 83.85471 65.95980 22.50780
#
# Poissons Ratio (x) = 0.29336 0.03529
# Poissons Ratio (y) = 0.37295 0.16601
# Poissons Ratio (z) = 0.13146 0.48649
#
# Static dielectric constant tensor:
#      x y z
#    x 3.453950 0.000000 0.000000 
#    y 0.000000 3.193840 0.000000 
#    z 0.000000 0.000000 2.939000 
# 
# 
# High freq. dielectric constant tensor:
#      x y z
#    x 1.698360 0.000000 0.000000 
#    y 0.000000 1.661390 0.000000 
#    z 0.000000 0.000000 1.652690 
# 
# From -- ./inp_files/19957.got.cif
#   From: 2010.03.12/outbox.cif.g09.slc.cpg/sg62_10_cif.got.tgz:19957.got - 2010.04.10 19:12:36.
