data_PCOD8250211
_publ_section_title
;
Structure prediction by ZEFSAII (Michael W. Deem and Ramdas Pophale) SiO2 
 PCOD8250211
Probable space group: P N M A
;
_chemical_formula_sum "Si O2"
_cell_formula_units_Z 40
_cell_length_a 7.959655
_cell_length_b 18.294618
_cell_length_c 15.788174
_cell_angle_alpha 90.000000
_cell_angle_beta 90.000000
_cell_angle_gamma 90.000000
_cell_volume 2299.055704
_symmetry_space_group_name_H-M "P N M A"
_symmetry_group_IT_number 62
_symmetry_cell_setting 'orthorhombic'
loop_
_space_group_symop_operation_xyz
x,y,z
1/2-x,-y,1/2+z
1/2+x,1/2-y,1/2-z
-x,1/2+y,-z
-x,-y,-z
1/2+x,y,1/2-z
1/2-x,1/2+y,1/2+z
x,1/2-y,z
loop_
_atom_site_type_symbol
_atom_site_label
_atom_site_fract_x
_atom_site_fract_y
_atom_site_fract_z
Si Si1 0.977790 0.250000 0.699939
Si Si2 0.418329 0.465060 0.374477
Si Si3 0.105823 0.250000 0.878272
Si Si4 0.324694 0.604412 0.163068
Si Si5 0.885354 0.013012 0.719067
Si Si6 0.527946 0.608041 0.460339
O O1 0.792701 0.250000 0.660115
O O2 0.967209 0.250000 0.802652
O O3 0.083514 0.319236 0.670849
O O4 0.232512 0.459547 0.334871
O O5 0.555006 0.465536 0.299717
O O6 0.419706 0.540577 0.426466
O O7 0.453386 0.397487 0.437628
O O8 0.075340 0.319808 0.937239
O O9 0.208935 0.586666 0.245832
O O10 0.461444 0.539033 0.159748
O O11 0.215235 0.605771 0.078208
#
# Coordination Sequence:
#
# PCOD8250211 Si02
#       6
#     4   8   4   8   8   8
#     4  12  20  30  48  70 101 134 156 178 229 296
#     4   9  18  33  51  72  96 125 159 198 240 279
#     4  12  22  32  48  70 101 132 158 190 233 288
#     4  10  18  28  46  72  99 127 159 190 228 285
#     4   9  17  31  49  69  93 125 165 197 229 279
#     4  10  20  32  48  72 102 127 154 197 241 277
#
# _framework density 17.398447999999998
#
# number of rings (size 3 to 8) (size 9 to 14) (size 15 to 20)
#    0.000    2.000    0.000    7.800    0.000    0.800 
#    0.000    4.000    0.000    1.200    0.000    0.000 
#    0.000    0.000    0.000    0.000    0.000    0.000 
#
# Total GULP energy -495931.922681 kJ/mol
# GULP energy per Si atom -12398.298067 kJ/mol
# Density = 1.735885 g / cm^3
# Si number density = 17.398448 Si / 1000 Ang^3
#
#
#
# Elastic Constant Matrix: (Units=GPa)
#
#
# Indices 1 2 3 4 5 6 
#
# 1 109.3275 30.4164 49.4391 0.0000 0.0000 0.0000
# 2 30.4164 64.6976 44.6476 0.0000 0.0000 0.0000
# 3 49.4391 44.6476 100.6186 0.0000 0.0000 0.0000
# 4 0.0000 0.0000 0.0000 13.9792 0.0000 0.0000
# 5 0.0000 0.0000 0.0000 0.0000 19.9235 0.0000
# 6 0.0000 0.0000 0.0000 0.0000 0.0000 8.6054
#
#
#
# Elastic Compliance Matrix: (Units=1/GPa)
#
#
# Indices 1 2 3 4 5 6 
#
# 1 0.011986 -0.002264 -0.004885 0.000000 0.000000 0.000000
# 2 -0.002264 0.022706 -0.008963 0.000000 0.000000 0.000000
# 3 -0.004885 -0.008963 0.016316 0.000000 0.000000 0.000000
# 4 0.000000 0.000000 0.000000 0.071535 0.000000 0.000000
# 5 0.000000 0.000000 0.000000 0.000000 0.050192 0.000000
# 6 0.000000 0.000000 0.000000 0.000000 0.000000 0.116206
#
#
# Mechanical properties :
#
#
# Convention : Reuss Voigt Hill
#
# Bulk Modulus (GPa) = 53.23567 58.18332 55.70949
# Shear Modulus (GPa) = 15.27068 18.51099 16.89084
#
# Velocity S-wave (km/s) = 2.96582 3.26536 3.11919
# Velocity P-wave (km/s) = 6.51095 6.90876 6.71280
#
# Compressibility (1/GPa) = 0.01878440
#
# Stress axis : x y z
#
# Youngs Moduli (GPa) = 83.43396 44.04070 61.29061
#
# Poissons Ratio (x) = 0.09971 0.29937
# Poissons Ratio (y) = 0.18889 0.54935
# Poissons Ratio (z) = 0.40753 0.39474
#
# Static dielectric constant tensor:
#      x y z
#    x 3.483810 0.000000 0.000000 
#    y 0.000000 2.979950 0.000000 
#    z 0.000000 0.000000 3.258870 
# 
# 
# High freq. dielectric constant tensor:
#      x y z
#    x 1.688410 0.000000 0.000000 
#    y 0.000000 1.636520 0.000000 
#    z 0.000000 0.000000 1.651550 
# 
# From -- ./inp_files/16703.got.cif
#   From: 2010.03.12/outbox.cif.g09.slc.cpg/sg62_9_cif.got.tgz:16703.got - 2010.04.10 19:12:36.
