data_PCOD8250640
_publ_section_title
;
Structure prediction by ZEFSAII (Michael W. Deem and Ramdas Pophale) SiO2 
 PCOD8250640
Probable space group: P N M A
;
_chemical_formula_sum "Si O2"
_cell_formula_units_Z 64
_cell_length_a 19.788901
_cell_length_b 18.968222
_cell_length_c 8.850996
_cell_angle_alpha 90.000000
_cell_angle_beta 90.000000
_cell_angle_gamma 90.000000
_cell_volume 3322.312224
_symmetry_space_group_name_H-M "P N M A"
_symmetry_group_IT_number 62
_symmetry_cell_setting 'orthorhombic'
loop_
_space_group_symop_operation_xyz
x,y,z
1/2-x,-y,1/2+z
1/2+x,1/2-y,1/2-z
-x,1/2+y,-z
-x,-y,-z
1/2+x,y,1/2-z
1/2-x,1/2+y,1/2+z
x,1/2-y,z
loop_
_atom_site_type_symbol
_atom_site_label
_atom_site_fract_x
_atom_site_fract_y
_atom_site_fract_z
Si Si1 0.587990 0.171848 0.674328
Si Si2 0.537438 0.670812 0.515524
Si Si3 0.804944 0.046169 0.412325
Si Si4 0.399151 0.329540 0.164408
Si Si5 0.574497 0.975904 0.451257
Si Si6 0.994761 0.615011 0.445522
Si Si7 0.418304 0.513726 0.871119
Si Si8 0.315591 0.546679 0.363923
O O1 0.618446 0.250000 0.679665
O O2 0.542457 0.162054 0.522497
O O3 0.651604 0.120787 0.680718
O O4 0.540312 0.162090 0.819602
O O5 0.561563 0.750000 0.466951
O O6 0.551891 0.657365 0.692119
O O7 0.576771 0.609185 0.424172
O O8 0.835467 0.117467 0.338862
O O9 0.858352 0.009788 0.521505
O O10 0.738979 0.063835 0.508558
O O11 0.783084 0.990879 0.282344
O O12 0.370324 0.250000 0.166076
O O13 0.444334 0.340099 0.015543
O O14 0.602596 0.016924 0.304350
O O15 0.500000 0.000000 0.500000
O O16 0.625460 0.993957 0.585018
O O17 0.942292 0.591221 0.576491
O O18 0.020025 0.542033 0.371516
#
# Coordination Sequence:
#
# PCOD8250640 Si02
#       8
#     8   8   8   8   8   8   8   8
#     4  11  22  38  61  90 125 159 192 245 311 369
#     4  10  20  35  57  90 126 157 191 237 307 367
#     4  11  24  41  60  84 116 162 208 252 295 358
#     4  10  21  37  60  90 124 158 194 242 300 363
#     4  12  20  35  61  92 119 155 196 256 308 359
#     4  10  18  33  58  89 121 149 192 244 298 354
#     4  10  20  33  57  89 117 152 199 246 296 352
#     4  12  24  41  61  87 116 159 210 255 302 358
#
# _framework density 19.263691999999999
#
# number of rings (size 3 to 8) (size 9 to 14) (size 15 to 20)
#    0.000    1.250    5.000    1.875    1.750    0.500 
#    0.000    0.000    0.000    3.000    0.000    0.000 
#    0.000    0.000    0.000    0.000    0.000    0.000 
#
# Total GULP energy -793496.782280 kJ/mol
# GULP energy per Si atom -12398.387223 kJ/mol
# Density = 1.921985 g / cm^3
# Si number density = 19.263692 Si / 1000 Ang^3
#
#
#
# Elastic Constant Matrix: (Units=GPa)
#
#
# Indices 1 2 3 4 5 6 
#
# 1 70.4326 39.8038 31.1684 0.0000 0.0000 0.0000
# 2 39.8038 119.4506 36.1547 0.0000 0.0000 0.0000
# 3 31.1684 36.1547 99.7460 0.0000 0.0000 0.0000
# 4 0.0000 0.0000 0.0000 26.9674 0.0000 0.0000
# 5 0.0000 0.0000 0.0000 0.0000 32.0112 0.0000
# 6 0.0000 0.0000 0.0000 0.0000 0.0000 16.1504
#
#
#
# Elastic Compliance Matrix: (Units=1/GPa)
#
#
# Indices 1 2 3 4 5 6 
#
# 1 0.018849 -0.005053 -0.004059 0.000000 0.000000 0.000000
# 2 -0.005053 0.010758 -0.002320 0.000000 0.000000 0.000000
# 3 -0.004059 -0.002320 0.012135 0.000000 0.000000 0.000000
# 4 0.000000 0.000000 0.000000 0.037082 0.000000 0.000000
# 5 0.000000 0.000000 0.000000 0.000000 0.031239 0.000000
# 6 0.000000 0.000000 0.000000 0.000000 0.000000 0.061918
#
#
# Mechanical properties :
#
#
# Convention : Reuss Voigt Hill
#
# Bulk Modulus (GPa) = 52.97045 55.98698 54.47871
# Shear Modulus (GPa) = 24.85868 27.19263 26.02565
#
# Velocity S-wave (km/s) = 3.59617 3.76120 3.67961
# Velocity P-wave (km/s) = 6.69332 6.92739 6.81136
#
# Compressibility (1/GPa) = 0.01887845
#
# Stress axis : x y z
#
# Youngs Moduli (GPa) = 53.05205 92.95698 82.40776
#
# Poissons Ratio (x) = 0.46968 0.33446
# Poissons Ratio (y) = 0.26805 0.19122
# Poissons Ratio (z) = 0.21532 0.21570
#
# Static dielectric constant tensor:
#      x y z
#    x 3.262400 0.000000 0.000000 
#    y 0.000000 3.626680 0.000000 
#    z 0.000000 0.000000 3.626460 
# 
# 
# High freq. dielectric constant tensor:
#      x y z
#    x 1.716870 0.000000 0.000000 
#    y 0.000000 1.751960 0.000000 
#    z 0.000000 0.000000 1.760030 
# 
# From -- ./inp_files/8978.got.cif
#   From: 2010.03.12/outbox.cif.g09.slc.cpg/sg62_5_cif.got.tgz:8978.got - 2010.04.10 19:12:36.
