data_PCOD8250065
_publ_section_title
;
Structure prediction by ZEFSAII (Michael W. Deem and Ramdas Pophale) SiO2 
 PCOD8250065
Probable space group: P N M A
;
_chemical_formula_sum "Si O2"
_cell_formula_units_Z 64
_cell_length_a 23.138947
_cell_length_b 8.826221
_cell_length_c 18.958470
_cell_angle_alpha 90.000000
_cell_angle_beta 90.000000
_cell_angle_gamma 90.000000
_cell_volume 3871.878089
_symmetry_space_group_name_H-M "P N M A"
_symmetry_group_IT_number 62
_symmetry_cell_setting 'orthorhombic'
loop_
_space_group_symop_operation_xyz
x,y,z
1/2-x,-y,1/2+z
1/2+x,1/2-y,1/2-z
-x,1/2+y,-z
-x,-y,-z
1/2+x,y,1/2-z
1/2-x,1/2+y,1/2+z
x,1/2-y,z
loop_
_atom_site_type_symbol
_atom_site_label
_atom_site_fract_x
_atom_site_fract_y
_atom_site_fract_z
Si Si1 0.279616 0.426015 0.862239
Si Si2 0.753262 0.426076 0.000353
Si Si3 0.061562 0.570337 0.149905
Si Si4 0.384054 0.429655 0.504827
Si Si5 0.439548 0.071988 0.359862
Si Si6 0.661641 0.076703 0.716040
Si Si7 0.262039 0.576159 0.157033
Si Si8 0.659472 0.428206 0.263581
O O1 0.294386 0.250000 0.858149
O O2 0.284185 0.483397 0.942421
O O3 0.215434 0.461489 0.834410
O O4 0.326068 0.513576 0.814750
O O5 0.753300 0.250000 0.021143
O O6 0.818571 0.490908 0.997920
O O7 0.723390 0.454357 0.924574
O O8 0.064748 0.750000 0.152851
O O9 0.099535 0.502694 0.212793
O O10 0.996578 0.516629 0.161829
O O11 0.084548 0.507301 0.074648
O O12 0.382557 0.250000 0.506989
O O13 0.418761 0.487406 0.436454
O O14 0.451630 0.250000 0.360170
O O15 0.390563 0.034719 0.302316
O O16 0.641677 0.250000 0.705895
O O17 0.680636 0.044824 0.796913
O O18 0.241340 0.750000 0.168537
O O19 0.209509 0.471352 0.181297
O O20 0.651900 0.250000 0.261882
#
# Coordination Sequence:
#
# PCOD8250065 Si02
#       8
#     8   8   8   8   8   8   8   8
#     4  10  20  33  50  73 101 131 166 207 251 301
#     4  10  17  31  52  75 101 134 167 203 251 298
#     4  11  21  36  52  68  96 137 174 209 251 297
#     4   9  18  31  48  69 100 136 169 203 245 288
#     4  11  21  33  48  71  99 132 172 213 247 289
#     4   9  18  32  48  69  95 131 169 203 245 294
#     4   9  18  33  52  72 101 133 166 206 253 302
#     4  11  21  33  50  73  98 129 169 211 252 297
#
# _framework density 16.529447000000001
#
# number of rings (size 3 to 8) (size 9 to 14) (size 15 to 20)
#    0.000    2.000    2.500    3.375    0.000    2.500 
#    0.000    1.875    0.000    0.000    0.000    0.875 
#    0.000    0.000    0.000    0.000    0.000    0.000 
#
# Total GULP energy -793762.768828 kJ/mol
# GULP energy per Si atom -12402.543263 kJ/mol
# Density = 1.649182 g / cm^3
# Si number density = 16.529447 Si / 1000 Ang^3
#
#
#
# Elastic Constant Matrix: (Units=GPa)
#
#
# Indices 1 2 3 4 5 6 
#
# 1 76.5827 32.9881 48.2475 0.0000 0.0000 0.0000
# 2 32.9881 74.1242 38.5982 0.0000 0.0000 0.0000
# 3 48.2475 38.5982 111.8480 0.0000 0.0000 0.0000
# 4 0.0000 0.0000 0.0000 25.4037 0.0000 0.0000
# 5 0.0000 0.0000 0.0000 0.0000 24.1754 0.0000
# 6 0.0000 0.0000 0.0000 0.0000 0.0000 24.8372
#
#
#
# Elastic Compliance Matrix: (Units=1/GPa)
#
#
# Indices 1 2 3 4 5 6 
#
# 1 0.019463 -0.005230 -0.006591 0.000000 0.000000 0.000000
# 2 -0.005230 0.017851 -0.003905 0.000000 0.000000 0.000000
# 3 -0.006591 -0.003905 0.013131 0.000000 0.000000 0.000000
# 4 0.000000 0.000000 0.000000 0.039364 0.000000 0.000000
# 5 0.000000 0.000000 0.000000 0.000000 0.041364 0.000000
# 6 0.000000 0.000000 0.000000 0.000000 0.000000 0.040262
#
#
# Mechanical properties :
#
#
# Convention : Reuss Voigt Hill
#
# Bulk Modulus (GPa) = 52.64461 55.80252 54.22356
# Shear Modulus (GPa) = 23.89850 24.39800 24.14825
#
# Velocity S-wave (km/s) = 3.80651 3.84608 3.82635
# Velocity P-wave (km/s) = 7.15804 7.31819 7.23856
#
# Compressibility (1/GPa) = 0.01899530
#
# Stress axis : x y z
#
# Youngs Moduli (GPa) = 51.38027 56.01786 76.15439
#
# Poissons Ratio (x) = 0.29295 0.50192
# Poissons Ratio (y) = 0.26870 0.29735
# Poissons Ratio (z) = 0.33864 0.21872
#
# Static dielectric constant tensor:
#      x y z
#    x 2.906650 0.000000 0.000000 
#    y 0.000000 2.999720 0.000000 
#    z 0.000000 0.000000 3.237070 
# 
# 
# High freq. dielectric constant tensor:
#      x y z
#    x 1.608040 0.000000 0.000000 
#    y 0.000000 1.634100 0.000000 
#    z 0.000000 0.000000 1.634080 
# 
# From -- ./inp_files/27933.got.cif
#   From: 2010.03.12/outbox.cif.g09.slc.cpg/sg62_14_cif.got.tgz:27933.got - 2010.04.10 19:12:36.
