data_PCOD8250032
_publ_section_title
;
Structure prediction by ZEFSAII (Michael W. Deem and Ramdas Pophale) SiO2 
 PCOD8250032
Probable space group: P N M A
;
_chemical_formula_sum "Si O2"
_cell_formula_units_Z 64
_cell_length_a 19.880812
_cell_length_b 9.136565
_cell_length_c 20.807377
_cell_angle_alpha 90.000000
_cell_angle_beta 90.000000
_cell_angle_gamma 90.000000
_cell_volume 3779.500462
_symmetry_space_group_name_H-M "P N M A"
_symmetry_group_IT_number 62
_symmetry_cell_setting 'orthorhombic'
loop_
_space_group_symop_operation_xyz
x,y,z
1/2-x,-y,1/2+z
1/2+x,1/2-y,1/2-z
-x,1/2+y,-z
-x,-y,-z
1/2+x,y,1/2-z
1/2-x,1/2+y,1/2+z
x,1/2-y,z
loop_
_atom_site_type_symbol
_atom_site_label
_atom_site_fract_x
_atom_site_fract_y
_atom_site_fract_z
Si Si1 0.071522 0.419233 0.729348
Si Si2 0.429607 0.918427 0.634638
Si Si3 0.074228 0.576955 0.266754
Si Si4 0.711703 0.418173 0.425313
Si Si5 0.700599 0.075915 0.568148
Si Si6 0.560999 0.079943 0.621070
Si Si7 0.787810 0.575261 0.313441
Si Si8 0.214285 0.577564 0.314249
O O1 0.074546 0.250000 0.713802
O O2 0.078998 0.448770 0.804793
O O3 0.135586 0.487822 0.692358
O O4 0.998190 0.479119 0.705683
O O5 0.444619 0.750000 0.650564
O O6 0.367664 0.936469 0.586288
O O7 0.409727 0.000981 0.699569
O O8 0.495147 0.988647 0.601058
O O9 0.070629 0.750000 0.252507
O O10 0.134588 0.538563 0.315791
O O11 0.733380 0.250000 0.416273
O O12 0.725559 0.474015 0.497921
O O13 0.756266 0.515144 0.378408
O O14 0.700373 0.250000 0.572851
O O15 0.624401 0.021544 0.580355
O O16 0.750670 0.009185 0.622424
O O17 0.545942 0.250000 0.608130
O O18 0.785302 0.750000 0.315800
O O19 0.747099 0.515773 0.251324
O O20 0.225686 0.750000 0.314967
#
# Coordination Sequence:
#
# PCOD8250032 Si02
#       8
#     8   8   8   8   8   8   8   8
#     4   8  14  25  45  72  94 110 141 194 241 266
#     4  10  19  29  41  64  99 130 152 180 226 283
#     4   9  16  28  49  73  91 113 153 198 234 270
#     4  10  21  33  45  66  98 131 156 184 234 288
#     4   9  17  31  49  69  94 124 159 199 235 268
#     4   9  16  29  49  68  88 121 162 196 225 263
#     4  10  17  29  50  72  91 116 155 198 233 268
#     4   9  15  26  50  76  89 111 159 206 232 259
#
# _framework density 16.933454999999999
#
# number of rings (size 3 to 8) (size 9 to 14) (size 15 to 20)
#    0.000    2.750    2.500    1.125    0.000    1.000 
#    0.000    3.125    0.000    3.000    0.000    0.000 
#    0.000    0.000    0.000    0.000    0.000    0.000 
#
# Total GULP energy -793131.047109 kJ/mol
# GULP energy per Si atom -12392.672611 kJ/mol
# Density = 1.689491 g / cm^3
# Si number density = 16.933455 Si / 1000 Ang^3
#
#
#
# Elastic Constant Matrix: (Units=GPa)
#
#
# Indices 1 2 3 4 5 6 
#
# 1 132.9848 26.0241 62.5550 0.0000 0.0000 0.0000
# 2 26.0241 27.6842 10.1822 0.0000 0.0000 0.0000
# 3 62.5550 10.1822 74.1620 0.0000 0.0000 0.0000
# 4 0.0000 0.0000 0.0000 16.6322 0.0000 0.0000
# 5 0.0000 0.0000 0.0000 0.0000 22.2352 0.0000
# 6 0.0000 0.0000 0.0000 0.0000 0.0000 16.2599
#
#
#
# Elastic Compliance Matrix: (Units=1/GPa)
#
#
# Indices 1 2 3 4 5 6 
#
# 1 0.014566 -0.009661 -0.010959 0.000000 0.000000 0.000000
# 2 -0.009661 0.044451 0.002046 0.000000 0.000000 0.000000
# 3 -0.010959 0.002046 0.022447 0.000000 0.000000 0.000000
# 4 0.000000 0.000000 0.000000 0.060124 0.000000 0.000000
# 5 0.000000 0.000000 0.000000 0.000000 0.044974 0.000000
# 6 0.000000 0.000000 0.000000 0.000000 0.000000 0.061501
#
#
# Mechanical properties :
#
#
# Convention : Reuss Voigt Hill
#
# Bulk Modulus (GPa) = 22.56581 48.03928 35.30255
# Shear Modulus (GPa) = 16.66759 20.09677 18.38218
#
# Velocity S-wave (km/s) = 3.14076 3.44875 3.29835
# Velocity P-wave (km/s) = 5.14855 6.65504 5.94967
#
# Compressibility (1/GPa) = 0.04431483
#
# Stress axis : x y z
#
# Youngs Moduli (GPa) = 68.65529 22.49670 44.54885
#
# Poissons Ratio (x) = 0.21735 0.48823
# Poissons Ratio (y) = 0.66329 -0.09116
# Poissons Ratio (z) = 0.75242 -0.04603
#
# Static dielectric constant tensor:
#      x y z
#    x 3.596300 0.000000 0.000000 
#    y 0.000000 2.826020 0.000000 
#    z 0.000000 0.000000 3.071140 
# 
# 
# High freq. dielectric constant tensor:
#      x y z
#    x 1.667770 0.000000 0.000000 
#    y 0.000000 1.611730 0.000000 
#    z 0.000000 0.000000 1.626230 
# 
# From -- ./inp_files/27960.got.cif
#   From: 2010.03.12/outbox.cif.g09.slc.cpg/sg62_14_cif.got.tgz:27960.got - 2010.04.10 19:12:36.
