data_PCOD8250745
_publ_section_title
;
Structure prediction by ZEFSAII (Michael W. Deem and Ramdas Pophale) SiO2 
 PCOD8250745
Probable space group: P N M A
;
_chemical_formula_sum "Si O2"
_cell_formula_units_Z 48
_cell_length_a 19.569456
_cell_length_b 13.696802
_cell_length_c 9.261986
_cell_angle_alpha 90.000000
_cell_angle_beta 90.000000
_cell_angle_gamma 90.000000
_cell_volume 2482.573133
_symmetry_space_group_name_H-M "P N M A"
_symmetry_group_IT_number 62
_symmetry_cell_setting 'orthorhombic'
loop_
_space_group_symop_operation_xyz
x,y,z
1/2-x,-y,1/2+z
1/2+x,1/2-y,1/2-z
-x,1/2+y,-z
-x,-y,-z
1/2+x,y,1/2-z
1/2-x,1/2+y,1/2+z
x,1/2-y,z
loop_
_atom_site_type_symbol
_atom_site_label
_atom_site_fract_x
_atom_site_fract_y
_atom_site_fract_z
Si Si1 0.442831 0.040437 0.175692
Si Si2 0.586468 0.959355 0.146937
Si Si3 0.199475 0.446361 0.175718
Si Si4 0.576997 0.750000 0.768392
Si Si5 0.151846 0.750000 0.303454
Si Si6 0.728393 0.750000 0.909472
Si Si7 0.830479 0.250000 0.032287
Si Si8 0.815737 0.458974 0.128390
O O1 0.464590 0.155114 0.179868
O O2 0.389643 0.021495 0.303371
O O3 0.508471 0.972630 0.199670
O O4 0.407158 0.017530 0.022845
O O5 0.606998 0.847674 0.177275
O O6 0.631605 0.041203 0.227915
O O7 0.258741 0.503478 0.264582
O O8 0.224726 0.338700 0.140973
O O9 0.183399 0.493852 0.025331
O O10 0.590380 0.750000 0.593454
O O11 0.652961 0.750000 0.840677
O O12 0.215397 0.750000 0.416202
O O13 0.178107 0.750000 0.139271
O O14 0.795907 0.345430 0.102881
#
# Coordination Sequence:
#
# PCOD8250745 Si02
#       8
#     8   8   8   4   4   4   4   8
#     4  10  21  41  64  93 122 173 205 255 313 380
#     4  11  23  38  67  93 125 163 216 256 307 373
#     4  12  23  37  61  94 122 161 206 264 305 373
#     4  10  18  41  62  85 122 170 202 243 318 379
#     4  12  20  42  59  93 122 169 202 253 315 378
#     4  12  22  39  61  83 130 164 202 251 319 369
#     4  10  20  36  60  87 112 163 206 237 300 384
#     4  11  21  38  62  89 123 158 207 253 311 370
#
# _framework density 19.334776999999999
#
# number of rings (size 3 to 8) (size 9 to 14) (size 15 to 20)
#    0.000    1.000    6.667    2.000    0.000    1.333 
#    0.000    1.667    0.000    0.000    0.000    0.000 
#    0.000    0.000    0.000    0.000    0.000    0.000 
#
# Total GULP energy -594780.090418 kJ/mol
# GULP energy per Si atom -12391.251884 kJ/mol
# Density = 1.929077 g / cm^3
# Si number density = 19.334777 Si / 1000 Ang^3
#
#
#
# Elastic Constant Matrix: (Units=GPa)
#
#
# Indices 1 2 3 4 5 6 
#
# 1 87.7906 43.7466 67.1409 0.0000 0.0000 0.0000
# 2 43.7466 82.9821 40.2283 0.0000 0.0000 0.0000
# 3 67.1409 40.2283 141.8877 0.0000 0.0000 0.0000
# 4 0.0000 0.0000 0.0000 20.8482 0.0000 0.0000
# 5 0.0000 0.0000 0.0000 0.0000 33.0007 0.0000
# 6 0.0000 0.0000 0.0000 0.0000 0.0000 32.1535
#
#
#
# Elastic Compliance Matrix: (Units=1/GPa)
#
#
# Indices 1 2 3 4 5 6 
#
# 1 0.021058 -0.007270 -0.007903 0.000000 0.000000 0.000000
# 2 -0.007270 0.016481 -0.001233 0.000000 0.000000 0.000000
# 3 -0.007903 -0.001233 0.011137 0.000000 0.000000 0.000000
# 4 0.000000 0.000000 0.000000 0.047966 0.000000 0.000000
# 5 0.000000 0.000000 0.000000 0.000000 0.030302 0.000000
# 6 0.000000 0.000000 0.000000 0.000000 0.000000 0.031101
#
#
# Mechanical properties :
#
#
# Convention : Reuss Voigt Hill
#
# Bulk Modulus (GPa) = 63.03509 68.32132 65.67820
# Shear Modulus (GPa) = 25.49147 27.97012 26.73079
#
# Velocity S-wave (km/s) = 3.63495 3.80758 3.72226
# Velocity P-wave (km/s) = 7.09153 7.39884 7.24682
#
# Compressibility (1/GPa) = 0.01586418
#
# Stress axis : x y z
#
# Youngs Moduli (GPa) = 47.48874 60.67643 89.78994
#
# Poissons Ratio (x) = 0.44111 0.70963
# Poissons Ratio (y) = 0.34523 0.11068
# Poissons Ratio (z) = 0.37532 0.07479
#
# Static dielectric constant tensor:
#      x y z
#    x 3.373710 0.000000 0.000000 
#    y 0.000000 3.926310 0.000000 
#    z 0.000000 0.000000 4.013490 
# 
# 
# High freq. dielectric constant tensor:
#      x y z
#    x 1.724380 0.000000 0.000000 
#    y 0.000000 1.749160 0.000000 
#    z 0.000000 0.000000 1.779670 
# 
# From -- ./inp_files/7707.got.cif
#   From: 2010.03.12/outbox.cif.g09.slc.cpg/sg62_4_cif.got.tgz:7707.got - 2010.04.10 19:12:36.
