data_PCOD8250091
_publ_section_title
;
Structure prediction by ZEFSAII (Michael W. Deem and Ramdas Pophale) SiO2 
 PCOD8250091
Probable space group: P N M A
;
_chemical_formula_sum "Si O2"
_cell_formula_units_Z 64
_cell_length_a 30.828830
_cell_length_b 8.852527
_cell_length_c 11.984931
_cell_angle_alpha 90.000000
_cell_angle_beta 90.000000
_cell_angle_gamma 90.000000
_cell_volume 3270.844073
_symmetry_space_group_name_H-M "P N M A"
_symmetry_group_IT_number 62
_symmetry_cell_setting 'orthorhombic'
loop_
_space_group_symop_operation_xyz
x,y,z
1/2-x,-y,1/2+z
1/2+x,1/2-y,1/2-z
-x,1/2+y,-z
-x,-y,-z
1/2+x,y,1/2-z
1/2-x,1/2+y,1/2+z
x,1/2-y,z
loop_
_atom_site_type_symbol
_atom_site_label
_atom_site_fract_x
_atom_site_fract_y
_atom_site_fract_z
Si Si1 0.706600 0.071533 0.779240
Si Si2 0.131247 0.929262 0.859562
Si Si3 0.431038 0.570683 0.994921
Si Si4 0.045465 0.073845 0.252738
Si Si5 0.833971 0.928597 0.507279
Si Si6 0.297645 0.573519 0.760418
Si Si7 0.877790 0.926762 0.901473
Si Si8 0.950718 0.426168 0.281064
O O1 0.701693 0.250000 0.765747
O O2 0.693295 0.014818 0.901880
O O3 0.676041 0.995114 0.687182
O O4 0.755903 0.023513 0.767997
O O5 0.133340 0.750000 0.855053
O O6 0.090057 0.991677 0.788334
O O7 0.125576 0.980392 0.985739
O O8 0.434658 0.750000 0.002034
O O9 0.382226 0.509483 0.007073
O O10 0.457102 0.501915 0.098427
O O11 0.448512 0.506763 0.877217
O O12 0.056278 0.250000 0.261091
O O13 0.080203 0.007369 0.164918
O O14 0.995831 0.042564 0.213860
O O15 0.835478 0.750000 0.515666
O O16 0.813239 0.990787 0.620673
O O17 0.285497 0.750000 0.765298
O O18 0.334821 0.542821 0.670178
O O19 0.882979 0.750000 0.929064
O O20 0.944335 0.250000 0.301216
#
# Coordination Sequence:
#
# PCOD8250091 Si02
#       8
#     8   8   8   8   8   8   8   8
#     4  11  23  39  60  87 115 148 191 232 277 344
#     4  11  24  40  56  79 117 156 191 238 290 329
#     4  10  17  33  60  86 113 147 185 228 279 339
#     4   9  18  35  60  86 114 149 189 231 283 342
#     4   9  18  35  60  85 112 145 183 227 279 337
#     4  10  21  39  61  87 116 147 184 234 290 338
#     4  10  21  39  62  84 111 151 197 236 280 343
#     4  10  21  36  55  84 118 151 187 233 285 335
#
# _framework density 19.566814999999998
#
# number of rings (size 3 to 8) (size 9 to 14) (size 15 to 20)
#    0.000    2.000    2.500    1.125    1.750    1.500 
#    0.000    2.500    0.000    0.000    0.000    0.000 
#    0.000    0.000    0.000    0.000    0.000    0.000 
#
# Total GULP energy -793545.601657 kJ/mol
# GULP energy per Si atom -12399.150026 kJ/mol
# Density = 1.952228 g / cm^3
# Si number density = 19.566815 Si / 1000 Ang^3
#
#
#
# Elastic Constant Matrix: (Units=GPa)
#
#
# Indices 1 2 3 4 5 6 
#
# 1 112.4660 25.1748 34.5469 0.0000 0.0000 0.0000
# 2 25.1748 40.6039 27.7972 0.0000 0.0000 0.0000
# 3 34.5469 27.7972 118.6254 0.0000 0.0000 0.0000
# 4 0.0000 0.0000 0.0000 25.5566 0.0000 0.0000
# 5 0.0000 0.0000 0.0000 0.0000 26.7708 0.0000
# 6 0.0000 0.0000 0.0000 0.0000 0.0000 17.7631
#
#
#
# Elastic Compliance Matrix: (Units=1/GPa)
#
#
# Indices 1 2 3 4 5 6 
#
# 1 0.010656 -0.005339 -0.001852 0.000000 0.000000 0.000000
# 2 -0.005339 0.032009 -0.005946 0.000000 0.000000 0.000000
# 3 -0.001852 -0.005946 0.010363 0.000000 0.000000 0.000000
# 4 0.000000 0.000000 0.000000 0.039129 0.000000 0.000000
# 5 0.000000 0.000000 0.000000 0.000000 0.037354 0.000000
# 6 0.000000 0.000000 0.000000 0.000000 0.000000 0.056296
#
#
# Mechanical properties :
#
#
# Convention : Reuss Voigt Hill
#
# Bulk Modulus (GPa) = 37.37807 49.63700 43.50754
# Shear Modulus (GPa) = 22.62475 26.29653 24.46064
#
# Velocity S-wave (km/s) = 3.40410 3.66995 3.53952
# Velocity P-wave (km/s) = 5.88174 6.58643 6.24403
#
# Compressibility (1/GPa) = 0.02675366
#
# Stress axis : x y z
#
# Youngs Moduli (GPa) = 93.84809 31.24167 96.50122
#
# Poissons Ratio (x) = 0.16678 0.17874
# Poissons Ratio (y) = 0.50101 0.57377
# Poissons Ratio (z) = 0.17383 0.18576
#
# Static dielectric constant tensor:
#      x y z
#    x 3.736480 0.000000 0.000000 
#    y 0.000000 3.208840 0.000000 
#    z 0.000000 0.000000 3.697900 
# 
# 
# High freq. dielectric constant tensor:
#      x y z
#    x 1.779790 0.000000 0.000000 
#    y 0.000000 1.729280 0.000000 
#    z 0.000000 0.000000 1.768080 
# 
# From -- ./inp_files/15825.got.cif
#   From: 2010.03.12/outbox.cif.g09.slc.cpg/sg62_8_cif.got.tgz:15825.got - 2010.04.10 19:12:36.
