data_PCOD8250459
_publ_section_title
;
Structure prediction by ZEFSAII (Michael W. Deem and Ramdas Pophale) SiO2 
 PCOD8250459
Probable space group: P N M A
;
_chemical_formula_sum "Si O2"
_cell_formula_units_Z 36
_cell_length_a 8.886826
_cell_length_b 14.511207
_cell_length_c 15.982717
_cell_angle_alpha 90.000000
_cell_angle_beta 90.000000
_cell_angle_gamma 90.000000
_cell_volume 2061.108356
_symmetry_space_group_name_H-M "P N M A"
_symmetry_group_IT_number 62
_symmetry_cell_setting 'orthorhombic'
loop_
_space_group_symop_operation_xyz
x,y,z
1/2-x,-y,1/2+z
1/2+x,1/2-y,1/2-z
-x,1/2+y,-z
-x,-y,-z
1/2+x,y,1/2-z
1/2-x,1/2+y,1/2+z
x,1/2-y,z
loop_
_atom_site_type_symbol
_atom_site_label
_atom_site_fract_x
_atom_site_fract_y
_atom_site_fract_z
Si Si1 0.430966 0.750000 0.493691
Si Si2 0.966054 0.852354 0.163259
Si Si3 0.158543 0.750000 0.599015
Si Si4 0.288727 0.032041 0.756119
Si Si5 0.962097 0.404833 0.306516
Si Si6 0.962917 0.750000 0.821412
O O1 0.470026 0.659249 0.438222
O O2 0.249069 0.750000 0.511741
O O3 0.522164 0.750000 0.581477
O O4 0.968361 0.750000 0.205048
O O5 0.109673 0.909745 0.192207
O O6 0.810685 0.901621 0.186780
O O7 0.280180 0.750000 0.676343
O O8 0.054336 0.840671 0.610970
O O9 0.393534 0.970627 0.816971
O O10 0.186308 0.966552 0.699708
O O11 0.979206 0.342013 0.223537
#
# Coordination Sequence:
#
# PCOD8250459 Si02
#       6
#     4   8   4   8   8   4
#     4   8  18  34  52  74 100 144 166 200 260 310
#     4   9  19  33  55  73 102 134 173 209 257 294
#     4   9  17  33  51  73 103 132 166 205 252 304
#     4  10  18  31  51  83  97 129 175 215 243 297
#     4  10  18  31  54  78 101 130 170 212 249 297
#     4   9  17  33  53  75 101 136 162 205 254 310
#
# _framework density 17.466329999999999
#
# number of rings (size 3 to 8) (size 9 to 14) (size 15 to 20)
#    1.333    1.333    2.222    0.667    0.000    0.000 
#    0.000   11.111    0.000    8.000    0.000    0.000 
#    0.000    0.000    0.000    0.000    0.000    0.000 
#
# Total GULP energy -446005.143468 kJ/mol
# GULP energy per Si atom -12389.031763 kJ/mol
# Density = 1.742658 g / cm^3
# Si number density = 17.466330 Si / 1000 Ang^3
#
#
#
# Elastic Constant Matrix: (Units=GPa)
#
#
# Indices 1 2 3 4 5 6 
#
# 1 90.3049 44.1942 10.8836 0.0000 0.0000 0.0000
# 2 44.1942 109.5517 19.1668 0.0000 0.0000 0.0000
# 3 10.8836 19.1668 63.0296 0.0000 0.0000 0.0000
# 4 0.0000 0.0000 0.0000 7.7448 0.0000 0.0000
# 5 0.0000 0.0000 0.0000 0.0000 25.0646 0.0000
# 6 0.0000 0.0000 0.0000 0.0000 0.0000 24.6402
#
#
#
# Elastic Compliance Matrix: (Units=1/GPa)
#
#
# Indices 1 2 3 4 5 6 
#
# 1 0.013829 -0.005451 -0.000730 0.000000 0.000000 0.000000
# 2 -0.005451 0.011790 -0.002644 0.000000 0.000000 0.000000
# 3 -0.000730 -0.002644 0.016796 0.000000 0.000000 0.000000
# 4 0.000000 0.000000 0.000000 0.129118 0.000000 0.000000
# 5 0.000000 0.000000 0.000000 0.000000 0.039897 0.000000
# 6 0.000000 0.000000 0.000000 0.000000 0.000000 0.040584
#
#
# Mechanical properties :
#
#
# Convention : Reuss Voigt Hill
#
# Bulk Modulus (GPa) = 40.38116 45.70838 43.04477
# Shear Modulus (GPa) = 17.99084 24.06604 21.02844
#
# Velocity S-wave (km/s) = 3.21289 3.71597 3.47355
# Velocity P-wave (km/s) = 6.07727 6.68113 6.38634
#
# Compressibility (1/GPa) = 0.02476402
#
# Stress axis : x y z
#
# Youngs Moduli (GPa) = 72.31016 84.81988 59.53922
#
# Poissons Ratio (x) = 0.46236 0.04348
# Poissons Ratio (y) = 0.39417 0.15741
# Poissons Ratio (z) = 0.05281 0.22425
#
# Static dielectric constant tensor:
#      x y z
#    x 3.253150 0.000000 0.000000 
#    y 0.000000 3.410040 0.000000 
#    z 0.000000 0.000000 2.781150 
# 
# 
# High freq. dielectric constant tensor:
#      x y z
#    x 1.675970 0.000000 0.000000 
#    y 0.000000 1.689620 0.000000 
#    z 0.000000 0.000000 1.627720 
# 
# From -- ./inp_files/16633.got.cif
#   From: 2010.03.12/outbox.cif.g09.slc.cpg/sg62_9_cif.got.tgz:16633.got - 2010.04.10 19:12:36.
