data_PCOD8250045
_publ_section_title
;
Structure prediction by ZEFSAII (Michael W. Deem and Ramdas Pophale) SiO2 
 PCOD8250045
Probable space group: P N M A
;
_chemical_formula_sum "Si O2"
_cell_formula_units_Z 64
_cell_length_a 26.358811
_cell_length_b 21.698584
_cell_length_c 6.788019
_cell_angle_alpha 90.000000
_cell_angle_beta 90.000000
_cell_angle_gamma 90.000000
_cell_volume 3882.399828
_symmetry_space_group_name_H-M "P N M A"
_symmetry_group_IT_number 62
_symmetry_cell_setting 'orthorhombic'
loop_
_space_group_symop_operation_xyz
x,y,z
1/2-x,-y,1/2+z
1/2+x,1/2-y,1/2-z
-x,1/2+y,-z
-x,-y,-z
1/2+x,y,1/2-z
1/2-x,1/2+y,1/2+z
x,1/2-y,z
loop_
_atom_site_type_symbol
_atom_site_label
_atom_site_fract_x
_atom_site_fract_y
_atom_site_fract_z
Si Si1 0.184151 0.988765 0.167568
Si Si2 0.311728 0.678581 0.632482
Si Si3 0.070308 0.178563 0.066421
Si Si4 0.730180 0.078758 0.638001
Si Si5 0.571264 0.988109 0.415857
Si Si6 0.669078 0.097130 0.026801
Si Si7 0.557119 0.091325 0.098485
Si Si8 0.478216 0.918221 0.312476
O O1 0.129649 0.965892 0.086537
O O2 0.177464 0.038892 0.335028
O O3 0.214291 0.931302 0.264821
O O4 0.215404 0.017619 0.985091
O O5 0.297037 0.750000 0.616246
O O6 0.369276 0.665035 0.560887
O O7 0.272318 0.639628 0.498554
O O8 0.307413 0.656735 0.860023
O O9 0.057962 0.250000 0.063035
O O10 0.044694 0.149330 0.261368
O O11 0.043810 0.147672 0.878468
O O12 0.691510 0.088567 0.813756
O O13 0.558564 0.029952 0.227667
O O14 0.559537 0.027030 0.613940
O O15 0.534329 0.928927 0.404199
O O16 0.609784 0.105757 0.989426
O O17 0.516413 0.082621 0.924477
#
# Coordination Sequence:
#
# PCOD8250045 Si02
#       8
#     8   8   8   8   8   8   8   8
#     4  10  19  30  45  72  97 124 157 196 236 285
#     4   9  19  32  46  69  96 123 158 196 235 287
#     4   9  18  31  46  68  96 121 156 198 230 274
#     4  11  18  30  50  69  97 127 157 193 242 288
#     4   9  19  30  44  69 100 120 155 193 228 283
#     4   9  17  29  45  67  94 123 152 194 235 280
#     4   9  16  28  46  67  93 122 152 186 235 276
#     4  10  17  30  48  68  93 129 152 184 238 285
#
# _framework density 16.484649000000001
#
# number of rings (size 3 to 8) (size 9 to 14) (size 15 to 20)
#    0.000    2.500    1.250    4.125    0.000    1.000 
#    0.000    2.500    0.000    0.750    0.000    1.750 
#    0.000    0.000    0.000    0.000    0.000    0.000 
#
# Total GULP energy -793324.199467 kJ/mol
# GULP energy per Si atom -12395.690617 kJ/mol
# Density = 1.644713 g / cm^3
# Si number density = 16.484649 Si / 1000 Ang^3
#
#
#
# Elastic Constant Matrix: (Units=GPa)
#
#
# Indices 1 2 3 4 5 6 
#
# 1 55.4615 28.7317 10.1982 0.0000 0.0000 0.0000
# 2 28.7317 74.9914 18.4960 0.0000 0.0000 0.0000
# 3 10.1982 18.4960 69.8632 0.0000 0.0000 0.0000
# 4 0.0000 0.0000 0.0000 15.5033 0.0000 0.0000
# 5 0.0000 0.0000 0.0000 0.0000 21.4389 0.0000
# 6 0.0000 0.0000 0.0000 0.0000 0.0000 21.6770
#
#
#
# Elastic Compliance Matrix: (Units=1/GPa)
#
#
# Indices 1 2 3 4 5 6 
#
# 1 0.022571 -0.008382 -0.001076 0.000000 0.000000 0.000000
# 2 -0.008382 0.017379 -0.003378 0.000000 0.000000 0.000000
# 3 -0.001076 -0.003378 0.015365 0.000000 0.000000 0.000000
# 4 0.000000 0.000000 0.000000 0.064502 0.000000 0.000000
# 5 0.000000 0.000000 0.000000 0.000000 0.046644 0.000000
# 6 0.000000 0.000000 0.000000 0.000000 0.000000 0.046132
#
#
# Mechanical properties :
#
#
# Convention : Reuss Voigt Hill
#
# Bulk Modulus (GPa) = 33.73337 35.01865 34.37601
# Shear Modulus (GPa) = 20.14945 21.24986 20.69966
#
# Velocity S-wave (km/s) = 3.49996 3.59426 3.54742
# Velocity P-wave (km/s) = 6.06967 6.20598 6.13820
#
# Compressibility (1/GPa) = 0.02964423
#
# Stress axis : x y z
#
# Youngs Moduli (GPa) = 44.30521 57.53930 65.08354
#
# Poissons Ratio (x) = 0.48231 0.07000
# Poissons Ratio (y) = 0.37138 0.21982
# Poissons Ratio (z) = 0.04765 0.19434
#
# Static dielectric constant tensor:
#      x y z
#    x 3.053880 0.000000 0.000000 
#    y 0.000000 2.931080 0.000000 
#    z 0.000000 0.000000 3.218810 
# 
# 
# High freq. dielectric constant tensor:
#      x y z
#    x 1.609810 0.000000 0.000000 
#    y 0.000000 1.605900 0.000000 
#    z 0.000000 0.000000 1.646900 
# 
# From -- ./inp_files/3350.got.cif
#   From: 2010.03.12/outbox.cif.g09.slc.cpg/sg62_2_cif.got.tgz:3350.got - 2010.04.10 19:12:36.
