data_PCOD8250978
_publ_section_title
;
Structure prediction by ZEFSAII (Michael W. Deem and Ramdas Pophale) SiO2 
 PCOD8250978
Probable space group: P N M A
;
_chemical_formula_sum "Si O2"
_cell_formula_units_Z 64
_cell_length_a 19.591439
_cell_length_b 9.332169
_cell_length_c 19.154482
_cell_angle_alpha 90.000000
_cell_angle_beta 90.000000
_cell_angle_gamma 90.000000
_cell_volume 3502.025814
_symmetry_space_group_name_H-M "P N M A"
_symmetry_group_IT_number 62
_symmetry_cell_setting 'orthorhombic'
loop_
_space_group_symop_operation_xyz
x,y,z
1/2-x,-y,1/2+z
1/2+x,1/2-y,1/2-z
-x,1/2+y,-z
-x,-y,-z
1/2+x,y,1/2-z
1/2-x,1/2+y,1/2+z
x,1/2-y,z
loop_
_atom_site_type_symbol
_atom_site_label
_atom_site_fract_x
_atom_site_fract_y
_atom_site_fract_z
Si Si1 0.338653 0.083651 0.551637
Si Si2 0.005066 0.414631 0.731976
Si Si3 0.016808 0.584510 0.112537
Si Si4 0.783743 0.418424 0.384596
Si Si5 0.361563 0.415690 0.249476
Si Si6 0.952954 0.088049 0.589128
Si Si7 0.603187 0.085579 0.970388
Si Si8 0.382133 0.416195 0.403668
O O1 0.323792 0.250000 0.569026
O O2 0.415331 0.040046 0.571989
O O3 0.330973 0.052370 0.468361
O O4 0.288921 0.984791 0.596321
O O5 0.027932 0.250000 0.726860
O O6 0.073327 0.503578 0.719200
O O7 0.970754 0.451008 0.805851
O O8 0.949523 0.448701 0.671632
O O9 0.999199 0.750000 0.101189
O O10 0.952997 0.497063 0.083326
O O11 0.783742 0.250000 0.401245
O O12 0.797845 0.447494 0.301970
O O13 0.841002 0.493818 0.430556
O O14 0.380736 0.250000 0.247215
O O15 0.346481 0.462841 0.330109
O O16 0.928373 0.250000 0.573278
O O17 0.031802 0.069956 0.568457
O O18 0.904471 0.977996 0.548489
O O19 0.627598 0.250000 0.975760
O O20 0.401389 0.250000 0.402819
#
# Coordination Sequence:
#
# PCOD8250978 Si02
#       8
#     8   8   8   8   8   8   8   8
#     4  10  21  36  53  75 105 139 170 206 256 311
#     4   9  16  29  50  76 105 133 165 207 252 300
#     4   9  18  32  53  80 106 133 168 213 261 305
#     4  11  22  35  52  73 101 136 175 215 253 303
#     4   9  18  32  51  75 100 129 165 208 252 296
#     4   9  17  29  47  73 104 135 168 210 253 296
#     4  10  19  31  49  72  99 134 172 211 255 302
#     4   9  18  34  56  79 103 131 167 212 258 304
#
# _framework density 18.275137000000001
#
# number of rings (size 3 to 8) (size 9 to 14) (size 15 to 20)
#    0.000    2.500    1.250    1.125    0.000    2.500 
#    0.000    1.250    0.000    3.000    0.000    0.000 
#    0.000    0.000    0.000    0.000    0.000    0.000 
#
# Total GULP energy -793396.225922 kJ/mol
# GULP energy per Si atom -12396.816030 kJ/mol
# Density = 1.823354 g / cm^3
# Si number density = 18.275137 Si / 1000 Ang^3
#
#
#
# Elastic Constant Matrix: (Units=GPa)
#
#
# Indices 1 2 3 4 5 6 
#
# 1 62.3342 41.8897 44.9566 0.0000 0.0000 0.0000
# 2 41.8897 77.6589 47.7185 0.0000 0.0000 0.0000
# 3 44.9566 47.7185 113.4000 0.0000 0.0000 0.0000
# 4 0.0000 0.0000 0.0000 23.8305 0.0000 0.0000
# 5 0.0000 0.0000 0.0000 0.0000 23.8947 0.0000
# 6 0.0000 0.0000 0.0000 0.0000 0.0000 30.9136
#
#
#
# Elastic Compliance Matrix: (Units=1/GPa)
#
#
# Indices 1 2 3 4 5 6 
#
# 1 0.028291 -0.011287 -0.006466 0.000000 0.000000 0.000000
# 2 -0.011287 0.021871 -0.004728 0.000000 0.000000 0.000000
# 3 -0.006466 -0.004728 0.013372 0.000000 0.000000 0.000000
# 4 0.000000 0.000000 0.000000 0.041963 0.000000 0.000000
# 5 0.000000 0.000000 0.000000 0.000000 0.041850 0.000000
# 6 0.000000 0.000000 0.000000 0.000000 0.000000 0.032348
#
#
# Mechanical properties :
#
#
# Convention : Reuss Voigt Hill
#
# Bulk Modulus (GPa) = 53.85093 58.05806 55.95449
# Shear Modulus (GPa) = 21.65922 23.64967 22.65445
#
# Velocity S-wave (km/s) = 3.44637 3.60125 3.52466
# Velocity P-wave (km/s) = 6.73553 7.00927 6.87376
#
# Compressibility (1/GPa) = 0.01856978
#
# Stress axis : x y z
#
# Youngs Moduli (GPa) = 35.34652 45.72339 74.78583
#
# Poissons Ratio (x) = 0.51609 0.48358
# Poissons Ratio (y) = 0.39897 0.35362
# Poissons Ratio (z) = 0.22856 0.21620
#
# Static dielectric constant tensor:
#      x y z
#    x 3.015480 0.000000 0.000000 
#    y 0.000000 3.465830 0.000000 
#    z 0.000000 0.000000 3.831010 
# 
# 
# High freq. dielectric constant tensor:
#      x y z
#    x 1.667290 0.000000 0.000000 
#    y 0.000000 1.709880 0.000000 
#    z 0.000000 0.000000 1.726680 
# 
# From -- ./inp_files/27722.got.cif
#   From: 2010.03.12/outbox.cif.g09.slc.cpg/sg62_14_cif.got.tgz:27722.got - 2010.04.10 19:12:36.
