data_PCOD8250668
_publ_section_title
;
Structure prediction by ZEFSAII (Michael W. Deem and Ramdas Pophale) SiO2 
 PCOD8250668
Probable space group: P N M A
;
_chemical_formula_sum "Si O2"
_cell_formula_units_Z 48
_cell_length_a 8.942754
_cell_length_b 19.056688
_cell_length_c 15.094401
_cell_angle_alpha 90.000000
_cell_angle_beta 90.000000
_cell_angle_gamma 90.000000
_cell_volume 2572.376842
_symmetry_space_group_name_H-M "P N M A"
_symmetry_group_IT_number 62
_symmetry_cell_setting 'orthorhombic'
loop_
_space_group_symop_operation_xyz
x,y,z
1/2-x,-y,1/2+z
1/2+x,1/2-y,1/2-z
-x,1/2+y,-z
-x,-y,-z
1/2+x,y,1/2-z
1/2-x,1/2+y,1/2+z
x,1/2-y,z
loop_
_atom_site_type_symbol
_atom_site_label
_atom_site_fract_x
_atom_site_fract_y
_atom_site_fract_z
Si Si1 0.990112 0.031320 0.136071
Si Si2 0.002988 0.830849 0.645764
Si Si3 0.011888 0.750000 0.132910
Si Si4 0.528635 0.108874 0.537124
Si Si5 0.330258 0.250000 0.815482
Si Si6 0.338312 0.171581 0.974667
Si Si7 0.246555 0.407132 0.247806
O O1 0.856479 0.037758 0.205847
O O2 0.150092 0.051064 0.176390
O O3 0.952992 0.083803 0.054362
O O4 0.999519 0.950364 0.110004
O O5 0.965732 0.750000 0.659519
O O6 0.028833 0.850283 0.541567
O O7 0.154252 0.847991 0.699694
O O8 0.860417 0.873289 0.678731
O O9 0.849722 0.750000 0.177398
O O10 0.041376 0.818273 0.072110
O O11 0.129024 0.750000 0.213461
O O12 0.705665 0.115722 0.519017
O O13 0.390798 0.181016 0.870961
O O14 0.278318 0.250000 0.004346
#
# Coordination Sequence:
#
# PCOD8250668 Si02
#       7
#     8   8   4   8   4   8   8
#     4  10  22  37  58  81 118 150 187 226 283 339
#     4  10  18  34  56  83 112 147 183 233 284 328
#     4  10  20  38  60  83 105 142 194 233 277 330
#     4  10  19  38  60  80 112 152 186 226 286 335
#     4   8  18  34  54  79 107 140 178 233 281 320
#     4   8  16  33  57  76 110 143 176 227 286 325
#     4  10  21  36  54  84 113 147 192 228 275 349
#
# _framework density 18.659786
#
# number of rings (size 3 to 8) (size 9 to 14) (size 15 to 20)
#    0.500    2.000    2.500    0.500    0.000    2.667 
#   10.500    0.833    0.000    0.000    0.000    0.000 
#    0.000    0.000    0.000    0.000    0.000    0.000 
#
# Total GULP energy -594795.260449 kJ/mol
# GULP energy per Si atom -12391.567926 kJ/mol
# Density = 1.861732 g / cm^3
# Si number density = 18.659786 Si / 1000 Ang^3
#
#
#
# Elastic Constant Matrix: (Units=GPa)
#
#
# Indices 1 2 3 4 5 6 
#
# 1 52.1017 12.4226 12.6451 0.0000 0.0000 0.0000
# 2 12.4226 93.2886 35.6913 0.0000 0.0000 0.0000
# 3 12.6451 35.6913 69.9650 0.0000 0.0000 0.0000
# 4 0.0000 0.0000 0.0000 31.1721 0.0000 0.0000
# 5 0.0000 0.0000 0.0000 0.0000 30.9952 0.0000
# 6 0.0000 0.0000 0.0000 0.0000 0.0000 9.5861
#
#
#
# Elastic Compliance Matrix: (Units=1/GPa)
#
#
# Indices 1 2 3 4 5 6 
#
# 1 0.020267 -0.001612 -0.002841 0.000000 0.000000 0.000000
# 2 -0.001612 0.013447 -0.006568 0.000000 0.000000 0.000000
# 3 -0.002841 -0.006568 0.018157 0.000000 0.000000 0.000000
# 4 0.000000 0.000000 0.000000 0.032080 0.000000 0.000000
# 5 0.000000 0.000000 0.000000 0.000000 0.032263 0.000000
# 6 0.000000 0.000000 0.000000 0.000000 0.000000 0.104317
#
#
# Mechanical properties :
#
#
# Convention : Reuss Voigt Hill
#
# Bulk Modulus (GPa) = 33.52443 37.43036 35.47740
# Shear Modulus (GPa) = 19.80067 24.65711 22.22889
#
# Velocity S-wave (km/s) = 3.26105 3.63906 3.45523
# Velocity P-wave (km/s) = 5.67313 6.14491 5.91373
#
# Compressibility (1/GPa) = 0.02982899
#
# Stress axis : x y z
#
# Youngs Moduli (GPa) = 49.34132 74.36552 55.07518
#
# Poissons Ratio (x) = 0.11988 0.15645
# Poissons Ratio (y) = 0.07954 0.36176
# Poissons Ratio (z) = 0.14016 0.48846
#
# Static dielectric constant tensor:
#      x y z
#    x 3.162700 0.000000 0.000000 
#    y 0.000000 3.225380 0.000000 
#    z 0.000000 0.000000 3.653290 
# 
# 
# High freq. dielectric constant tensor:
#      x y z
#    x 1.704230 0.000000 0.000000 
#    y 0.000000 1.708460 0.000000 
#    z 0.000000 0.000000 1.734030 
# 
# From -- ./inp_files/22357.got.cif
#   From: 2010.03.12/outbox.cif.g09.slc.cpg/sg62_12_cif.got.tgz:22357.got - 2010.04.10 19:12:36.
