data_PCOD8250676
_publ_section_title
;
Structure prediction by ZEFSAII (Michael W. Deem and Ramdas Pophale) SiO2 
 PCOD8250676
Probable space group: P N M A
;
_chemical_formula_sum "Si O2"
_cell_formula_units_Z 32
_cell_length_a 12.954610
_cell_length_b 8.711767
_cell_length_c 15.216323
_cell_angle_alpha 90.000000
_cell_angle_beta 90.000000
_cell_angle_gamma 90.000000
_cell_volume 1717.276841
_symmetry_space_group_name_H-M "P N M A"
_symmetry_group_IT_number 62
_symmetry_cell_setting 'orthorhombic'
loop_
_space_group_symop_operation_xyz
x,y,z
1/2-x,-y,1/2+z
1/2+x,1/2-y,1/2-z
-x,1/2+y,-z
-x,-y,-z
1/2+x,y,1/2-z
1/2-x,1/2+y,1/2+z
x,1/2-y,z
loop_
_atom_site_type_symbol
_atom_site_label
_atom_site_fract_x
_atom_site_fract_y
_atom_site_fract_z
Si Si1 0.982243 0.069456 0.905070
Si Si2 0.231667 0.075811 0.129433
Si Si3 0.409521 0.424192 0.249644
Si Si4 0.071680 0.068204 0.574271
O O1 0.986744 0.250000 0.912471
O O2 0.072786 0.011721 0.840830
O O3 0.873472 0.017837 0.864687
O O4 0.000000 0.000000 0.000000
O O5 0.209769 0.250000 0.098372
O O6 0.286807 0.074085 0.225875
O O7 0.310981 0.995227 0.060501
O O8 0.451026 0.250000 0.257294
O O9 0.469838 0.509832 0.169603
O O10 0.070777 0.250000 0.569834
O O11 0.000000 0.000000 0.500000
#
# Coordination Sequence:
#
# PCOD8250676 Si02
#       4
#     8   8   8   8
#     4  12  24  40  63  89 124 162 202 249 303 363
#     4   9  20  39  60  84 118 153 197 247 297 354
#     4   9  20  39  61  86 119 156 199 248 296 352
#     4  10  18  34  58  87 120 155 197 244 299 355
#
# _framework density 18.634153000000001
#
# number of rings (size 3 to 8) (size 9 to 14) (size 15 to 20)
#    1.500    0.500    0.000    5.250    0.000    0.000 
#    4.500    0.000    0.000    0.000    0.000    0.000 
#    0.000    0.000    0.000    0.000    0.000    0.000 
#
# Total GULP energy -396547.964263 kJ/mol
# GULP energy per Si atom -12392.123883 kJ/mol
# Density = 1.859174 g / cm^3
# Si number density = 18.634153 Si / 1000 Ang^3
#
#
#
# Elastic Constant Matrix: (Units=GPa)
#
#
# Indices 1 2 3 4 5 6 
#
# 1 75.5966 39.2816 32.8661 0.0000 0.0000 0.0000
# 2 39.2816 194.1541 57.4592 0.0000 0.0000 0.0000
# 3 32.8661 57.4592 118.6861 0.0000 0.0000 0.0000
# 4 0.0000 0.0000 0.0000 36.3211 0.0000 0.0000
# 5 0.0000 0.0000 0.0000 0.0000 26.0827 0.0000
# 6 0.0000 0.0000 0.0000 0.0000 0.0000 34.1139
#
#
#
# Elastic Compliance Matrix: (Units=1/GPa)
#
#
# Indices 1 2 3 4 5 6 
#
# 1 0.015820 -0.002223 -0.003305 0.000000 0.000000 0.000000
# 2 -0.002223 0.006324 -0.002446 0.000000 0.000000 0.000000
# 3 -0.003305 -0.002446 0.010525 0.000000 0.000000 0.000000
# 4 0.000000 0.000000 0.000000 0.027532 0.000000 0.000000
# 5 0.000000 0.000000 0.000000 0.000000 0.038340 0.000000
# 6 0.000000 0.000000 0.000000 0.000000 0.000000 0.029314
#
#
# Mechanical properties :
#
#
# Convention : Reuss Voigt Hill
#
# Bulk Modulus (GPa) = 59.80221 71.96119 65.88170
# Shear Modulus (GPa) = 33.47270 36.55887 35.01578
#
# Velocity S-wave (km/s) = 4.24289 4.43417 4.33958
# Velocity P-wave (km/s) = 7.49435 8.05714 7.78084
#
# Compressibility (1/GPa) = 0.01672179
#
# Stress axis : x y z
#
# Youngs Moduli (GPa) = 63.21198 158.12288 95.01197
#
# Poissons Ratio (x) = 0.35146 0.31398
# Poissons Ratio (y) = 0.14050 0.23242
# Poissons Ratio (z) = 0.20890 0.38680
#
# Static dielectric constant tensor:
#      x y z
#    x 3.308260 0.000000 0.000000 
#    y 0.000000 3.731470 0.000000 
#    z 0.000000 0.000000 3.980970 
# 
# 
# High freq. dielectric constant tensor:
#      x y z
#    x 1.705730 0.000000 0.000000 
#    y 0.000000 1.747110 0.000000 
#    z 0.000000 0.000000 1.705960 
# 
# From -- ./inp_files/17584.got.cif
#   From: 2010.03.12/outbox.cif.g09.slc.cpg/sg62_9_cif.got.tgz:17584.got - 2010.04.10 19:12:36.
