data_PCOD8250283
_publ_section_title
;
Structure prediction by ZEFSAII (Michael W. Deem and Ramdas Pophale) SiO2 
 PCOD8250283
Probable space group: P N M A
;
_chemical_formula_sum "Si O2"
_cell_formula_units_Z 64
_cell_length_a 23.309488
_cell_length_b 8.889243
_cell_length_c 19.025501
_cell_angle_alpha 90.000000
_cell_angle_beta 90.000000
_cell_angle_gamma 90.000000
_cell_volume 3942.154259
_symmetry_space_group_name_H-M "P N M A"
_symmetry_group_IT_number 62
_symmetry_cell_setting 'orthorhombic'
loop_
_space_group_symop_operation_xyz
x,y,z
1/2-x,-y,1/2+z
1/2+x,1/2-y,1/2-z
-x,1/2+y,-z
-x,-y,-z
1/2+x,y,1/2-z
1/2-x,1/2+y,1/2+z
x,1/2-y,z
loop_
_atom_site_type_symbol
_atom_site_label
_atom_site_fract_x
_atom_site_fract_y
_atom_site_fract_z
Si Si1 0.435344 0.427107 0.154312
Si Si2 0.936304 0.571624 0.628868
Si Si3 0.216650 0.572071 0.867776
Si Si4 0.747494 0.925759 0.997065
Si Si5 0.758661 0.573943 0.839207
Si Si6 0.884312 0.073606 0.495453
Si Si7 0.156827 0.427862 0.743715
Si Si8 0.170703 0.426317 0.288536
O O1 0.429275 0.250000 0.167959
O O2 0.501302 0.480765 0.154094
O O3 0.406265 0.473521 0.081054
O O4 0.405013 0.516458 0.217272
O O5 0.933904 0.750000 0.623832
O O6 0.923568 0.509897 0.551705
O O7 0.889565 0.504974 0.684664
O O8 0.209584 0.750000 0.863909
O O9 0.213186 0.516577 0.948089
O O10 0.166836 0.497319 0.821107
O O11 0.277470 0.514192 0.837022
O O12 0.753426 0.750000 0.012786
O O13 0.771549 0.966273 0.919772
O O14 0.681552 0.978081 0.002824
O O15 0.742667 0.750000 0.830917
O O16 0.704290 0.482483 0.811802
O O17 0.815073 0.532618 0.792741
O O18 0.890946 0.250000 0.507431
O O19 0.158148 0.250000 0.749242
O O20 0.166581 0.250000 0.298174
#
# Coordination Sequence:
#
# PCOD8250283 Si02
#       8
#     8   8   8   8   8   8   8   8
#     4  10  20  34  48  64  94 134 167 200 242 283
#     4  10  19  31  48  69  93 126 173 206 230 280
#     4  10  19  32  50  68  95 125 155 196 244 290
#     4  10  18  29  47  70  96 128 160 191 232 289
#     4   9  17  32  50  67  97 130 157 192 245 293
#     4  10  19  30  43  64  98 133 164 195 236 279
#     4  11  21  32  48  70  94 121 163 205 238 287
#     4   8  15  28  46  68  89 119 157 194 232 277
#
# _framework density 16.234779
#
# number of rings (size 3 to 8) (size 9 to 14) (size 15 to 20)
#    0.000    2.250    2.500    2.625    0.000    1.500 
#    0.000    0.000    0.000    0.000    0.000    0.875 
#    0.000    0.000    0.000    0.000    0.000    0.000 
#
# Total GULP energy -793514.448372 kJ/mol
# GULP energy per Si atom -12398.663256 kJ/mol
# Density = 1.619783 g / cm^3
# Si number density = 16.234779 Si / 1000 Ang^3
#
#
#
# Elastic Constant Matrix: (Units=GPa)
#
#
# Indices 1 2 3 4 5 6 
#
# 1 56.4216 15.7453 30.1790 0.0000 0.0000 0.0000
# 2 15.7453 48.2305 28.2359 0.0000 0.0000 0.0000
# 3 30.1790 28.2359 96.8162 0.0000 0.0000 0.0000
# 4 0.0000 0.0000 0.0000 23.9783 0.0000 0.0000
# 5 0.0000 0.0000 0.0000 0.0000 25.8466 0.0000
# 6 0.0000 0.0000 0.0000 0.0000 0.0000 16.5244
#
#
#
# Elastic Compliance Matrix: (Units=1/GPa)
#
#
# Indices 1 2 3 4 5 6 
#
# 1 0.021830 -0.003790 -0.005699 0.000000 0.000000 0.000000
# 2 -0.003790 0.025661 -0.006302 0.000000 0.000000 0.000000
# 3 -0.005699 -0.006302 0.013943 0.000000 0.000000 0.000000
# 4 0.000000 0.000000 0.000000 0.041704 0.000000 0.000000
# 5 0.000000 0.000000 0.000000 0.000000 0.038690 0.000000
# 6 0.000000 0.000000 0.000000 0.000000 0.000000 0.060517
#
#
# Mechanical properties :
#
#
# Convention : Reuss Voigt Hill
#
# Bulk Modulus (GPa) = 33.50020 38.86540 36.18280
# Shear Modulus (GPa) = 20.50202 21.75706 21.12954
#
# Velocity S-wave (km/s) = 3.55751 3.66478 3.61154
# Velocity P-wave (km/s) = 6.12814 6.47295 6.30290
#
# Compressibility (1/GPa) = 0.02985057
#
# Stress axis : x y z
#
# Youngs Moduli (GPa) = 45.80889 38.97012 71.71814
#
# Poissons Ratio (x) = 0.14770 0.40875
# Poissons Ratio (y) = 0.17361 0.45200
# Poissons Ratio (z) = 0.26108 0.24561
#
# Static dielectric constant tensor:
#      x y z
#    x 3.130220 0.000000 0.000000 
#    y 0.000000 2.890780 0.000000 
#    z 0.000000 0.000000 3.179880 
# 
# 
# High freq. dielectric constant tensor:
#      x y z
#    x 1.599090 0.000000 0.000000 
#    y 0.000000 1.613230 0.000000 
#    z 0.000000 0.000000 1.622790 
# 
# From -- ./inp_files/24996.got.cif
#   From: 2010.03.12/outbox.cif.g09.slc.cpg/sg62_13_cif.got.tgz:24996.got - 2010.04.10 19:12:36.
