data_PCOD8250318
_publ_section_title
;
Structure prediction by ZEFSAII (Michael W. Deem and Ramdas Pophale) SiO2 
 PCOD8250318
Probable space group: P N M A
;
_chemical_formula_sum "Si O2"
_cell_formula_units_Z 64
_cell_length_a 11.840946
_cell_length_b 9.051521
_cell_length_c 33.455747
_cell_angle_alpha 90.000000
_cell_angle_beta 90.000000
_cell_angle_gamma 90.000000
_cell_volume 3585.739168
_symmetry_space_group_name_H-M "P N M A"
_symmetry_group_IT_number 62
_symmetry_cell_setting 'orthorhombic'
loop_
_space_group_symop_operation_xyz
x,y,z
1/2-x,-y,1/2+z
1/2+x,1/2-y,1/2-z
-x,1/2+y,-z
-x,-y,-z
1/2+x,y,1/2-z
1/2-x,1/2+y,1/2+z
x,1/2-y,z
loop_
_atom_site_type_symbol
_atom_site_label
_atom_site_fract_x
_atom_site_fract_y
_atom_site_fract_z
Si Si1 0.973286 0.918491 0.666379
Si Si2 0.676206 0.080245 0.868853
Si Si3 0.800787 0.575622 0.732743
Si Si4 0.368826 0.575946 0.323897
Si Si5 0.852306 0.078561 0.534472
Si Si6 0.731635 0.422030 0.109186
Si Si7 0.114952 0.421672 0.544829
Si Si8 0.627969 0.919437 0.311119
O O1 0.010755 0.750000 0.669021
O O2 0.911405 0.967681 0.707126
O O3 0.889936 0.946141 0.629371
O O4 0.086734 0.010243 0.661502
O O5 0.642066 0.250000 0.871386
O O6 0.668056 0.016292 0.913828
O O7 0.801477 0.055122 0.851799
O O8 0.777410 0.750000 0.730443
O O9 0.692340 0.493290 0.714611
O O10 0.819967 0.525510 0.777769
O O11 0.345293 0.750000 0.325326
O O12 0.326849 0.502783 0.364864
O O13 0.500204 0.537553 0.320273
O O14 0.820850 0.250000 0.535227
O O15 0.981511 0.049757 0.546403
O O16 0.771528 0.993545 0.565390
O O17 0.827837 0.014907 0.490500
O O18 0.762617 0.250000 0.106186
O O19 0.142298 0.250000 0.537446
O O20 0.638228 0.750000 0.296578
#
# Coordination Sequence:
#
# PCOD8250318 Si02
#       8
#     8   8   8   8   8   8   8   8
#     4   9  19  33  50  76 105 135 172 214 262 313
#     4  10  20  35  54  77 107 142 178 216 267 322
#     4  10  22  38  56  79 107 139 177 225 271 318
#     4  10  21  38  57  78 106 139 180 224 268 319
#     4  10  18  29  50  80 109 143 178 214 265 320
#     4  10  19  33  54  79 108 140 176 219 267 316
#     4   9  18  31  48  75 111 144 173 215 267 322
#     4  10  23  39  56  79 105 141 182 225 270 318
#
# _framework density 17.848481
#
# number of rings (size 3 to 8) (size 9 to 14) (size 15 to 20)
#    0.000    2.250    1.250    2.250    1.750    5.000 
#    0.000    0.000    0.000    0.750    0.000    0.000 
#    0.000    0.000    0.000    0.000    0.000    0.000 
#
# Total GULP energy -793759.556790 kJ/mol
# GULP energy per Si atom -12402.493075 kJ/mol
# Density = 1.780786 g / cm^3
# Si number density = 17.848481 Si / 1000 Ang^3
#
#
#
# Elastic Constant Matrix: (Units=GPa)
#
#
# Indices 1 2 3 4 5 6 
#
# 1 98.6335 47.9953 49.6774 0.0000 0.0000 0.0000
# 2 47.9953 85.8570 51.7713 0.0000 0.0000 0.0000
# 3 49.6774 51.7713 122.3392 0.0000 0.0000 0.0000
# 4 0.0000 0.0000 0.0000 33.4278 0.0000 0.0000
# 5 0.0000 0.0000 0.0000 0.0000 19.9263 0.0000
# 6 0.0000 0.0000 0.0000 0.0000 0.0000 15.5056
#
#
#
# Elastic Compliance Matrix: (Units=1/GPa)
#
#
# Indices 1 2 3 4 5 6 
#
# 1 0.014907 -0.006287 -0.003392 0.000000 0.000000 0.000000
# 2 -0.006287 0.018290 -0.005187 0.000000 0.000000 0.000000
# 3 -0.003392 -0.005187 0.011746 0.000000 0.000000 0.000000
# 4 0.000000 0.000000 0.000000 0.029915 0.000000 0.000000
# 5 0.000000 0.000000 0.000000 0.000000 0.050185 0.000000
# 6 0.000000 0.000000 0.000000 0.000000 0.000000 0.064493
#
#
# Mechanical properties :
#
#
# Convention : Reuss Voigt Hill
#
# Bulk Modulus (GPa) = 65.74745 67.30195 66.52470
# Shear Modulus (GPa) = 22.28781 24.26435 23.27608
#
# Velocity S-wave (km/s) = 3.53756 3.69109 3.61514
# Velocity P-wave (km/s) = 7.32135 7.48029 7.40125
#
# Compressibility (1/GPa) = 0.01520972
#
# Stress axis : x y z
#
# Youngs Moduli (GPa) = 67.08447 54.67594 85.13288
#
# Poissons Ratio (x) = 0.34377 0.28879
# Poissons Ratio (y) = 0.42179 0.44155
# Poissons Ratio (z) = 0.22757 0.28358
#
# Static dielectric constant tensor:
#      x y z
#    x 3.073110 0.000000 0.000000 
#    y 0.000000 3.319720 0.000000 
#    z 0.000000 0.000000 3.362970 
# 
# 
# High freq. dielectric constant tensor:
#      x y z
#    x 1.662950 0.000000 0.000000 
#    y 0.000000 1.697340 0.000000 
#    z 0.000000 0.000000 1.694810 
# 
# From -- ./inp_files/32517.got.cif
#   From: 2010.03.12/outbox.cif.g09.slc.cpg/sg62_17_cif.got.tgz:32517.got - 2010.04.10 19:12:36.
