data_PCOD8250519
_publ_section_title
;
Structure prediction by ZEFSAII (Michael W. Deem and Ramdas Pophale) SiO2 
 PCOD8250519
Probable space group: P N M A
;
_chemical_formula_sum "Si O2"
_cell_formula_units_Z 64
_cell_length_a 8.749057
_cell_length_b 19.177033
_cell_length_c 20.402962
_cell_angle_alpha 90.000000
_cell_angle_beta 90.000000
_cell_angle_gamma 90.000000
_cell_volume 3423.228445
_symmetry_space_group_name_H-M "P N M A"
_symmetry_group_IT_number 62
_symmetry_cell_setting 'orthorhombic'
loop_
_space_group_symop_operation_xyz
x,y,z
1/2-x,-y,1/2+z
1/2+x,1/2-y,1/2-z
-x,1/2+y,-z
-x,-y,-z
1/2+x,y,1/2-z
1/2-x,1/2+y,1/2+z
x,1/2-y,z
loop_
_atom_site_type_symbol
_atom_site_label
_atom_site_fract_x
_atom_site_fract_y
_atom_site_fract_z
Si Si1 0.605739 0.830134 0.047369
Si Si2 0.609582 0.935556 0.568544
Si Si3 0.584211 0.103726 0.690830
Si Si4 0.440672 0.389812 0.816622
Si Si5 0.909291 0.460983 0.325635
Si Si6 0.948194 0.951671 0.803319
Si Si7 0.959057 0.568545 0.541960
Si Si8 0.077670 0.401477 0.951372
O O1 0.633845 0.750000 0.029946
O O2 0.554232 0.836423 0.122870
O O3 0.755586 0.874922 0.028668
O O4 0.473855 0.862473 0.002239
O O5 0.531020 0.910794 0.636740
O O6 0.789940 0.930399 0.571032
O O7 0.542615 0.886801 0.509654
O O8 0.570425 0.016239 0.559467
O O9 0.764632 0.092299 0.697447
O O10 0.516586 0.148067 0.752355
O O11 0.537095 0.135006 0.619184
O O12 0.507551 0.029770 0.700770
O O13 0.535106 0.459130 0.835247
O O14 0.731894 0.453582 0.310221
O O15 0.002538 0.420633 0.267761
O O16 0.931738 0.423963 0.395354
O O17 0.000000 0.500000 0.500000
#
# Coordination Sequence:
#
# PCOD8250519 Si02
#       8
#     8   8   8   8   8   8   8   8
#     4  11  23  38  53  76 112 155 192 232 290 340
#     4  10  19  32  56  85 111 135 186 233 289 334
#     4   9  17  27  47  70 104 142 184 231 276 318
#     4  10  18  32  49  73 106 146 191 236 279 324
#     4  11  19  31  52  81 115 145 180 231 285 330
#     4  10  19  29  50  84 118 142 174 232 291 339
#     4  12  21  34  57  83 110 143 189 237 282 334
#     4   9  18  33  53  79 108 144 184 238 283 332
#
# _framework density 18.695802
#
# number of rings (size 3 to 8) (size 9 to 14) (size 15 to 20)
#    0.000    1.750    2.500    6.000    3.500    1.000 
#    0.000    3.125    0.000    0.000    0.000    7.875 
#    0.000    0.000    0.000    0.000    0.000    0.000 
#
# Total GULP energy -793027.769384 kJ/mol
# GULP energy per Si atom -12391.058897 kJ/mol
# Density = 1.865325 g / cm^3
# Si number density = 18.695802 Si / 1000 Ang^3
#
#
#
# Elastic Constant Matrix: (Units=GPa)
#
#
# Indices 1 2 3 4 5 6 
#
# 1 120.4765 6.0824 62.9534 0.0000 0.0000 0.0000
# 2 6.0824 24.6715 30.9183 0.0000 0.0000 0.0000
# 3 62.9534 30.9183 151.3415 0.0000 0.0000 0.0000
# 4 0.0000 0.0000 0.0000 14.6813 0.0000 0.0000
# 5 0.0000 0.0000 0.0000 0.0000 41.4065 0.0000
# 6 0.0000 0.0000 0.0000 0.0000 0.0000 4.9453
#
#
#
# Elastic Compliance Matrix: (Units=1/GPa)
#
#
# Indices 1 2 3 4 5 6 
#
# 1 0.010895 0.004024 -0.005354 0.000000 0.000000 0.000000
# 2 0.004024 0.055967 -0.013107 0.000000 0.000000 0.000000
# 3 -0.005354 -0.013107 0.011512 0.000000 0.000000 0.000000
# 4 0.000000 0.000000 0.000000 0.068114 0.000000 0.000000
# 5 0.000000 0.000000 0.000000 0.000000 0.024151 0.000000
# 6 0.000000 0.000000 0.000000 0.000000 0.000000 0.202213
#
#
# Mechanical properties :
#
#
# Convention : Reuss Voigt Hill
#
# Bulk Modulus (GPa) = 20.20264 55.15530 37.67897
# Shear Modulus (GPa) = 11.95525 25.30898 18.63211
#
# Velocity S-wave (km/s) = 2.53150 3.68329 3.16031
# Velocity P-wave (km/s) = 4.40160 6.90321 5.78915
#
# Compressibility (1/GPa) = 0.04949849
#
# Stress axis : x y z
#
# Youngs Moduli (GPa) = 91.78636 17.86777 86.86282
#
# Poissons Ratio (x) = -0.07189 0.46506
# Poissons Ratio (y) = -0.36931 1.13854
# Poissons Ratio (z) = 0.49142 0.23420
#
# Static dielectric constant tensor:
#      x y z
#    x 3.506220 0.000000 0.000000 
#    y 0.000000 2.745250 0.000000 
#    z 0.000000 0.000000 4.417080 
# 
# 
# High freq. dielectric constant tensor:
#      x y z
#    x 1.735710 0.000000 0.000000 
#    y 0.000000 1.634970 0.000000 
#    z 0.000000 0.000000 1.759560 
# 
# From -- ./inp_files/26195.got.cif
#   From: 2010.03.12/outbox.cif.g09.slc.cpg/sg62_14_cif.got.tgz:26195.got - 2010.04.10 19:12:36.
