data_PCOD8250178
_publ_section_title
;
Structure prediction by ZEFSAII (Michael W. Deem and Ramdas Pophale) SiO2 
 PCOD8250178
Probable space group: P N M A
;
_chemical_formula_sum "Si O2"
_cell_formula_units_Z 64
_cell_length_a 18.339385
_cell_length_b 8.903650
_cell_length_c 25.957392
_cell_angle_alpha 90.000000
_cell_angle_beta 90.000000
_cell_angle_gamma 90.000000
_cell_volume 4238.516744
_symmetry_space_group_name_H-M "P N M A"
_symmetry_group_IT_number 62
_symmetry_cell_setting 'orthorhombic'
loop_
_space_group_symop_operation_xyz
x,y,z
1/2-x,-y,1/2+z
1/2+x,1/2-y,1/2-z
-x,1/2+y,-z
-x,-y,-z
1/2+x,y,1/2-z
1/2-x,1/2+y,1/2+z
x,1/2-y,z
loop_
_atom_site_type_symbol
_atom_site_label
_atom_site_fract_x
_atom_site_fract_y
_atom_site_fract_z
Si Si1 0.803013 0.915973 0.300894
Si Si2 0.578723 0.926017 0.744192
Si Si3 0.086573 0.071173 0.241262
Si Si4 0.832732 0.428353 0.144694
Si Si5 0.292571 0.080701 0.801353
Si Si6 0.922375 0.575629 0.940964
Si Si7 0.336583 0.071465 0.644884
Si Si8 0.073939 0.424741 0.939314
O O1 0.832106 0.750000 0.313169
O O2 0.754192 0.916584 0.250135
O O3 0.748803 0.972242 0.346313
O O4 0.874062 0.018344 0.293193
O O5 0.581742 0.750000 0.745549
O O6 0.496398 0.983626 0.749074
O O7 0.613569 0.982830 0.690535
O O8 0.094339 0.250000 0.240925
O O9 0.131839 0.003899 0.289127
O O10 0.112274 0.008285 0.186594
O O11 0.830602 0.250000 0.139070
O O12 0.751200 0.489291 0.154967
O O13 0.860009 0.502668 0.092066
O O14 0.308485 0.250000 0.820628
O O15 0.921960 0.750000 0.925870
O O16 0.858442 0.488341 0.911229
O O17 0.999724 0.508163 0.923818
O O18 0.907773 0.549684 0.001003
O O19 0.346952 0.250000 0.649639
O O20 0.065333 0.250000 0.925936
#
# Coordination Sequence:
#
# PCOD8250178 Si02
#       8
#     8   8   8   8   8   8   8   8
#     4   8  16  28  41  58  80 106 137 171 206 246
#     4   9  18  28  40  60  84 110 140 172 206 247
#     4  10  18  28  42  62  87 113 143 177 211 251
#     4  10  18  29  45  63  84 113 146 177 213 253
#     4   9  17  29  42  59  83 111 143 176 211 250
#     4  10  20  32  45  62  84 112 145 179 215 252
#     4  10  19  30  44  62  83 111 145 178 214 253
#     4  10  20  32  45  62  85 112 143 180 216 250
#
# _framework density 15.099622
#
# number of rings (size 3 to 8) (size 9 to 14) (size 15 to 20)
#    0.000    2.500    0.000    3.750    0.000    7.500 
#    0.000    0.000    0.000    0.000    0.000    0.000 
#    0.000    1.000    0.000    3.250    0.000    4.750 
#
# Total GULP energy -793517.445110 kJ/mol
# GULP energy per Si atom -12398.710080 kJ/mol
# Density = 1.506525 g / cm^3
# Si number density = 15.099622 Si / 1000 Ang^3
#
#
#
# Elastic Constant Matrix: (Units=GPa)
#
#
# Indices 1 2 3 4 5 6 
#
# 1 98.9509 41.1135 39.9713 0.0000 0.0000 0.0000
# 2 41.1135 66.7533 28.0101 0.0000 0.0000 0.0000
# 3 39.9713 28.0101 54.6320 0.0000 0.0000 0.0000
# 4 0.0000 0.0000 0.0000 23.9984 0.0000 0.0000
# 5 0.0000 0.0000 0.0000 0.0000 27.9894 0.0000
# 6 0.0000 0.0000 0.0000 0.0000 0.0000 27.0439
#
#
#
# Elastic Compliance Matrix: (Units=1/GPa)
#
#
# Indices 1 2 3 4 5 6 
#
# 1 0.016236 -0.006390 -0.008603 0.000000 0.000000 0.000000
# 2 -0.006390 0.021602 -0.006400 0.000000 0.000000 0.000000
# 3 -0.008603 -0.006400 0.027880 0.000000 0.000000 0.000000
# 4 0.000000 0.000000 0.000000 0.041669 0.000000 0.000000
# 5 0.000000 0.000000 0.000000 0.000000 0.035728 0.000000
# 6 0.000000 0.000000 0.000000 0.000000 0.000000 0.036977
#
#
# Mechanical properties :
#
#
# Convention : Reuss Voigt Hill
#
# Bulk Modulus (GPa) = 43.60765 48.72510 46.16637
# Shear Modulus (GPa) = 21.68991 23.22243 22.45617
#
# Velocity S-wave (km/s) = 3.79417 3.92592 3.86061
# Velocity P-wave (km/s) = 6.93808 7.27253 7.10727
#
# Compressibility (1/GPa) = 0.02293176
#
# Stress axis : x y z
#
# Youngs Moduli (GPa) = 61.59069 46.29268 35.86815
#
# Poissons Ratio (x) = 0.29581 0.30857
# Poissons Ratio (y) = 0.39357 0.22956
# Poissons Ratio (z) = 0.52986 0.29627
#
# Static dielectric constant tensor:
#      x y z
#    x 3.032840 0.000000 0.000000 
#    y 0.000000 3.044450 0.000000 
#    z 0.000000 0.000000 2.736020 
# 
# 
# High freq. dielectric constant tensor:
#      x y z
#    x 1.566980 0.000000 0.000000 
#    y 0.000000 1.594920 0.000000 
#    z 0.000000 0.000000 1.542680 
# 
# From -- ./inp_files/30057.got.cif
#   From: 2010.03.12/outbox.cif.g09.slc.cpg/sg62_16_cif.got.tgz:30057.got - 2010.04.10 19:12:36.
