data_PCOD8250771
_publ_section_title
;
Structure prediction by ZEFSAII (Michael W. Deem and Ramdas Pophale) SiO2 
 PCOD8250771
Probable space group: P N M A
;
_chemical_formula_sum "Si O2"
_cell_formula_units_Z 56
_cell_length_a 18.200427
_cell_length_b 9.033849
_cell_length_c 20.493287
_cell_angle_alpha 90.000000
_cell_angle_beta 90.000000
_cell_angle_gamma 90.000000
_cell_volume 3369.504389
_symmetry_space_group_name_H-M "P N M A"
_symmetry_group_IT_number 62
_symmetry_cell_setting 'orthorhombic'
loop_
_space_group_symop_operation_xyz
x,y,z
1/2-x,-y,1/2+z
1/2+x,1/2-y,1/2-z
-x,1/2+y,-z
-x,-y,-z
1/2+x,y,1/2-z
1/2-x,1/2+y,1/2+z
x,1/2-y,z
loop_
_atom_site_type_symbol
_atom_site_label
_atom_site_fract_x
_atom_site_fract_y
_atom_site_fract_z
Si Si1 0.700940 0.412736 0.681211
Si Si2 0.925397 0.080959 0.238446
Si Si3 0.421162 0.574112 0.004088
Si Si4 0.652527 0.920412 0.876025
Si Si5 0.422671 0.424720 0.749760
Si Si6 0.780061 0.414325 0.819096
Si Si7 0.151930 0.575102 0.383084
O O1 0.670677 0.250000 0.662787
O O2 0.632499 0.524387 0.684200
O O3 0.740655 0.403509 0.750103
O O4 0.762131 0.463259 0.628763
O O5 0.941151 0.250000 0.223229
O O6 0.894023 0.056752 0.310601
O O7 0.000865 0.995335 0.230090
O O8 0.429948 0.750000 0.002608
O O9 0.383374 0.525756 0.070860
O O10 0.500000 0.500000 0.000000
O O11 0.371587 0.520782 0.944500
O O12 0.652225 0.750000 0.898942
O O13 0.736948 0.971329 0.865517
O O14 0.431265 0.250000 0.750392
O O15 0.362874 0.471558 0.694701
O O16 0.397089 0.477338 0.821552
O O17 0.780613 0.250000 0.851135
O O18 0.141353 0.750000 0.396131
#
# Coordination Sequence:
#
# PCOD8250771 Si02
#       7
#     8   8   8   8   8   8   8
#     4   8  15  29  48  66  88 119 152 186 229 277
#     4  10  19  28  43  69  97 122 152 191 232 270
#     4  12  24  35  48  67  93 126 160 194 227 265
#     4  10  20  33  47  66  93 125 158 192 229 270
#     4   9  17  29  47  69  94 123 153 187 231 278
#     4   8  15  29  47  67  89 117 153 189 227 274
#     4   9  18  33  50  68  91 122 158 193 228 272
#
# _framework density 16.619654000000001
#
# number of rings (size 3 to 8) (size 9 to 14) (size 15 to 20)
#    0.000    2.571    0.000    4.714    0.000    5.714 
#    0.000    2.857    0.000    0.000    0.000    1.000 
#    0.000    0.000    0.000    0.000    0.000    0.000 
#
# Total GULP energy -694229.383476 kJ/mol
# GULP energy per Si atom -12396.953276 kJ/mol
# Density = 1.658183 g / cm^3
# Si number density = 16.619654 Si / 1000 Ang^3
#
#
#
# Elastic Constant Matrix: (Units=GPa)
#
#
# Indices 1 2 3 4 5 6 
#
# 1 113.7788 43.8908 35.6750 0.0000 0.0000 0.0000
# 2 43.8908 74.8609 35.2458 0.0000 0.0000 0.0000
# 3 35.6750 35.2458 48.3571 0.0000 0.0000 0.0000
# 4 0.0000 0.0000 0.0000 23.0167 0.0000 0.0000
# 5 0.0000 0.0000 0.0000 0.0000 23.2580 0.0000
# 6 0.0000 0.0000 0.0000 0.0000 0.0000 27.4988
#
#
#
# Elastic Compliance Matrix: (Units=1/GPa)
#
#
# Indices 1 2 3 4 5 6 
#
# 1 0.012353 -0.004494 -0.005838 0.000000 0.000000 0.000000
# 2 -0.004494 0.021972 -0.012699 0.000000 0.000000 0.000000
# 3 -0.005838 -0.012699 0.034242 0.000000 0.000000 0.000000
# 4 0.000000 0.000000 0.000000 0.043447 0.000000 0.000000
# 5 0.000000 0.000000 0.000000 0.000000 0.042996 0.000000
# 6 0.000000 0.000000 0.000000 0.000000 0.000000 0.036365
#
#
# Mechanical properties :
#
#
# Convention : Reuss Voigt Hill
#
# Bulk Modulus (GPa) = 44.43406 51.84667 48.14036
# Shear Modulus (GPa) = 20.41326 22.90036 21.65681
#
# Velocity S-wave (km/s) = 3.50846 3.71605 3.61374
# Velocity P-wave (km/s) = 6.57315 7.04810 6.81476
#
# Compressibility (1/GPa) = 0.02250526
#
# Stress axis : x y z
#
# Youngs Moduli (GPa) = 80.95205 45.51260 29.20368
#
# Poissons Ratio (x) = 0.20453 0.17048
# Poissons Ratio (y) = 0.36380 0.37086
# Poissons Ratio (z) = 0.47258 0.57797
#
# Static dielectric constant tensor:
#      x y z
#    x 3.362850 0.000000 0.000000 
#    y 0.000000 3.278340 0.000000 
#    z 0.000000 0.000000 2.923940 
# 
# 
# High freq. dielectric constant tensor:
#      x y z
#    x 1.644710 0.000000 0.000000 
#    y 0.000000 1.644000 0.000000 
#    z 0.000000 0.000000 1.599610 
# 
# From -- ./inp_files/27516.got.cif
#   From: 2010.03.12/outbox.cif.g09.slc.cpg/sg62_14_cif.got.tgz:27516.got - 2010.04.10 19:12:36.
