data_PCOD8250244
_publ_section_title
;
Structure prediction by ZEFSAII (Michael W. Deem and Ramdas Pophale) SiO2 
 PCOD8250244
Probable space group: P N M A
;
_chemical_formula_sum "Si O2"
_cell_formula_units_Z 64
_cell_length_a 18.219245
_cell_length_b 9.166942
_cell_length_c 25.857373
_cell_angle_alpha 90.000000
_cell_angle_beta 90.000000
_cell_angle_gamma 90.000000
_cell_volume 4318.563003
_symmetry_space_group_name_H-M "P N M A"
_symmetry_group_IT_number 62
_symmetry_cell_setting 'orthorhombic'
loop_
_space_group_symop_operation_xyz
x,y,z
1/2-x,-y,1/2+z
1/2+x,1/2-y,1/2-z
-x,1/2+y,-z
-x,-y,-z
1/2+x,y,1/2-z
1/2-x,1/2+y,1/2+z
x,1/2-y,z
loop_
_atom_site_type_symbol
_atom_site_label
_atom_site_fract_x
_atom_site_fract_y
_atom_site_fract_z
Si Si1 0.831744 0.921744 0.144099
Si Si2 0.076289 0.918888 0.938789
Si Si3 0.419294 0.580035 0.253132
Si Si4 0.587456 0.920096 0.251353
Si Si5 0.428701 0.082650 0.557995
Si Si6 0.799750 0.413982 0.301912
Si Si7 0.677938 0.581766 0.352428
Si Si8 0.208126 0.415398 0.302790
O O1 0.821449 0.750000 0.136682
O O2 0.887466 0.959114 0.190565
O O3 0.862905 0.991408 0.092002
O O4 0.752358 0.993332 0.154313
O O5 0.078892 0.750000 0.922539
O O6 0.094821 0.941541 0.998978
O O7 0.995793 0.979807 0.926004
O O8 0.410183 0.750000 0.241886
O O9 0.503303 0.529447 0.251543
O O10 0.376370 0.496129 0.207722
O O11 0.595705 0.750000 0.238505
O O12 0.619975 0.956823 0.307566
O O13 0.629326 0.009885 0.206735
O O14 0.453016 0.250000 0.568142
O O15 0.359020 0.041158 0.593028
O O16 0.817215 0.250000 0.319233
O O17 0.752853 0.490332 0.347166
O O18 0.752878 0.420401 0.250033
O O19 0.700575 0.750000 0.349518
O O20 0.196820 0.250000 0.322172
#
# Coordination Sequence:
#
# PCOD8250244 Si02
#       8
#     8   8   8   8   8   8   8   8
#     4  10  18  29  44  59  79 110 144 172 201 240
#     4  10  19  29  42  61  84 108 137 175 212 241
#     4   9  17  28  42  59  80 109 142 170 198 240
#     4   9  16  26  41  60  80 105 138 170 199 236
#     4   9  18  31  44  59  81 110 142 173 205 242
#     4   9  17  27  39  58  82 105 132 168 207 242
#     4   9  16  28  44  58  77 108 142 170 198 237
#     4   9  17  28  40  57  81 106 133 167 206 243
#
# _framework density 14.819744999999999
#
# number of rings (size 3 to 8) (size 9 to 14) (size 15 to 20)
#    0.000    2.750    0.000    2.250    0.000    7.000 
#    0.000    2.500    0.000    0.000    0.000    0.000 
#    0.000    1.000    0.000    3.000    0.000    4.000 
#
# Total GULP energy -793653.070245 kJ/mol
# GULP energy per Si atom -12400.829223 kJ/mol
# Density = 1.478601 g / cm^3
# Si number density = 14.819745 Si / 1000 Ang^3
#
#
#
# Elastic Constant Matrix: (Units=GPa)
#
#
# Indices 1 2 3 4 5 6 
#
# 1 95.5708 50.3679 40.1865 0.0000 0.0000 0.0000
# 2 50.3679 85.7911 39.5493 0.0000 0.0000 0.0000
# 3 40.1865 39.5493 58.9936 0.0000 0.0000 0.0000
# 4 0.0000 0.0000 0.0000 20.9339 0.0000 0.0000
# 5 0.0000 0.0000 0.0000 0.0000 25.7998 0.0000
# 6 0.0000 0.0000 0.0000 0.0000 0.0000 24.8589
#
#
#
# Elastic Compliance Matrix: (Units=1/GPa)
#
#
# Indices 1 2 3 4 5 6 
#
# 1 0.016967 -0.006706 -0.007063 0.000000 0.000000 0.000000
# 2 -0.006706 0.019520 -0.008518 0.000000 0.000000 0.000000
# 3 -0.007063 -0.008518 0.027473 0.000000 0.000000 0.000000
# 4 0.000000 0.000000 0.000000 0.047769 0.000000 0.000000
# 5 0.000000 0.000000 0.000000 0.000000 0.038760 0.000000
# 6 0.000000 0.000000 0.000000 0.000000 0.000000 0.040227
#
#
# Mechanical properties :
#
#
# Convention : Reuss Voigt Hill
#
# Bulk Modulus (GPa) = 51.58150 55.61812 53.59981
# Shear Modulus (GPa) = 20.68236 21.66864 21.17550
#
# Velocity S-wave (km/s) = 3.73982 3.82795 3.78414
# Velocity P-wave (km/s) = 7.31641 7.55968 7.43904
#
# Compressibility (1/GPa) = 0.01938680
#
# Stress axis : x y z
#
# Youngs Moduli (GPa) = 58.93723 51.22949 36.39965
#
# Poissons Ratio (x) = 0.34352 0.25708
# Poissons Ratio (y) = 0.39521 0.31007
# Poissons Ratio (z) = 0.41625 0.43639
#
# Static dielectric constant tensor:
#      x y z
#    x 2.837330 0.000000 0.000000 
#    y 0.000000 2.986420 0.000000 
#    z 0.000000 0.000000 2.661770 
# 
# 
# High freq. dielectric constant tensor:
#      x y z
#    x 1.554420 0.000000 0.000000 
#    y 0.000000 1.578520 0.000000 
#    z 0.000000 0.000000 1.531170 
# 
# From -- ./inp_files/30071.got.cif
#   From: 2010.03.12/outbox.cif.g09.slc.cpg/sg62_16_cif.got.tgz:30071.got - 2010.04.10 19:12:36.
