data_PCOD8250284
_publ_section_title
;
Structure prediction by ZEFSAII (Michael W. Deem and Ramdas Pophale) SiO2 
 PCOD8250284
Probable space group: P N M A
;
_chemical_formula_sum "Si O2"
_cell_formula_units_Z 56
_cell_length_a 14.929213
_cell_length_b 9.023143
_cell_length_c 22.301912
_cell_angle_alpha 90.000000
_cell_angle_beta 90.000000
_cell_angle_gamma 90.000000
_cell_volume 3004.255413
_symmetry_space_group_name_H-M "P N M A"
_symmetry_group_IT_number 62
_symmetry_cell_setting 'orthorhombic'
loop_
_space_group_symop_operation_xyz
x,y,z
1/2-x,-y,1/2+z
1/2+x,1/2-y,1/2-z
-x,1/2+y,-z
-x,-y,-z
1/2+x,y,1/2-z
1/2-x,1/2+y,1/2+z
x,1/2-y,z
loop_
_atom_site_type_symbol
_atom_site_label
_atom_site_fract_x
_atom_site_fract_y
_atom_site_fract_z
Si Si1 0.659831 0.072650 0.647241
Si Si2 0.995393 0.074733 0.934443
Si Si3 0.802552 0.075022 0.884993
Si Si4 0.321745 0.920914 0.220233
Si Si5 0.659441 0.923399 0.094049
Si Si6 0.156424 0.575593 0.539933
Si Si7 0.530274 0.079398 0.873050
O O1 0.655378 0.250000 0.649242
O O2 0.575981 0.015580 0.607759
O O3 0.664279 0.004756 0.714700
O O4 0.749533 0.004388 0.618068
O O5 0.001207 0.250000 0.945161
O O6 0.905856 0.032929 0.896716
O O7 0.000000 0.000000 0.000000
O O8 0.786532 0.250000 0.888444
O O9 0.761290 0.016613 0.820796
O O10 0.747130 0.000620 0.938020
O O11 0.300514 0.750000 0.230793
O O12 0.416956 0.946904 0.188282
O O13 0.676891 0.750000 0.094048
O O14 0.574107 0.963234 0.135968
O O15 0.639659 0.978992 0.027391
O O16 0.168956 0.750000 0.545713
O O17 0.069795 0.525135 0.576058
O O18 0.539350 0.250000 0.894298
#
# Coordination Sequence:
#
# PCOD8250284 Si02
#       7
#     8   8   8   8   8   8   8
#     4   9  17  29  46  71  97 122 157 202 239 277
#     4  10  20  33  51  74 101 131 166 204 245 290
#     4   9  18  32  49  71  97 126 157 196 241 284
#     4   8  15  28  46  68  94 121 155 196 239 281
#     4   9  17  27  42  66  96 123 149 185 231 274
#     4  10  18  29  47  71  95 123 155 188 228 280
#     4   9  17  30  47  69  95 122 150 187 232 278
#
# _framework density 18.640225000000001
#
# number of rings (size 3 to 8) (size 9 to 14) (size 15 to 20)
#    0.000    2.857    0.000    2.571    0.000    2.857 
#    0.000    6.429    0.000    4.286    0.000    8.000 
#    0.000    0.000    0.000    0.000    0.000    0.000 
#
# Total GULP energy -693881.048536 kJ/mol
# GULP energy per Si atom -12390.733010 kJ/mol
# Density = 1.859780 g / cm^3
# Si number density = 18.640225 Si / 1000 Ang^3
#
#
#
# Elastic Constant Matrix: (Units=GPa)
#
#
# Indices 1 2 3 4 5 6 
#
# 1 170.2791 21.8715 71.5733 0.0000 0.0000 0.0000
# 2 21.8715 20.3467 20.1544 0.0000 0.0000 0.0000
# 3 71.5733 20.1544 126.2617 0.0000 0.0000 0.0000
# 4 0.0000 0.0000 0.0000 18.3120 0.0000 0.0000
# 5 0.0000 0.0000 0.0000 0.0000 23.8331 0.0000
# 6 0.0000 0.0000 0.0000 0.0000 0.0000 16.9547
#
#
#
# Elastic Compliance Matrix: (Units=1/GPa)
#
#
# Indices 1 2 3 4 5 6 
#
# 1 0.008108 -0.004945 -0.003807 0.000000 0.000000 0.000000
# 2 -0.004945 0.061394 -0.006997 0.000000 0.000000 0.000000
# 3 -0.003807 -0.006997 0.011195 0.000000 0.000000 0.000000
# 4 0.000000 0.000000 0.000000 0.054609 0.000000 0.000000
# 5 0.000000 0.000000 0.000000 0.000000 0.041958 0.000000
# 6 0.000000 0.000000 0.000000 0.000000 0.000000 0.058981
#
#
# Mechanical properties :
#
#
# Convention : Reuss Voigt Hill
#
# Bulk Modulus (GPa) = 20.32525 60.45401 40.38963
# Shear Modulus (GPa) = 17.59682 25.37251 21.48467
#
# Velocity S-wave (km/s) = 3.07583 3.69341 3.39867
# Velocity P-wave (km/s) = 4.85201 7.11974 6.09232
#
# Compressibility (1/GPa) = 0.04919989
#
# Stress axis : x y z
#
# Youngs Moduli (GPa) = 123.33563 16.28821 89.32641
#
# Poissons Ratio (x) = 0.08054 0.34005
# Poissons Ratio (y) = 0.60986 0.62501
# Poissons Ratio (z) = 0.46952 0.11397
#
# Static dielectric constant tensor:
#      x y z
#    x 3.701440 0.000000 0.000000 
#    y 0.000000 2.968310 0.000000 
#    z 0.000000 0.000000 3.649520 
# 
# 
# High freq. dielectric constant tensor:
#      x y z
#    x 1.737850 0.000000 0.000000 
#    y 0.000000 1.669220 0.000000 
#    z 0.000000 0.000000 1.725770 
# 
# From -- ./inp_files/27081.got.cif
#   From: 2010.03.12/outbox.cif.g09.slc.cpg/sg62_14_cif.got.tgz:27081.got - 2010.04.10 19:12:36.
