data_PCOD8250775
_publ_section_title
;
Structure prediction by ZEFSAII (Michael W. Deem and Ramdas Pophale) SiO2 
 PCOD8250775
Probable space group: P N M A
;
_chemical_formula_sum "Si O2"
_cell_formula_units_Z 64
_cell_length_a 26.346641
_cell_length_b 8.950884
_cell_length_c 18.074685
_cell_angle_alpha 90.000000
_cell_angle_beta 90.000000
_cell_angle_gamma 90.000000
_cell_volume 4262.475737
_symmetry_space_group_name_H-M "P N M A"
_symmetry_group_IT_number 62
_symmetry_cell_setting 'orthorhombic'
loop_
_space_group_symop_operation_xyz
x,y,z
1/2-x,-y,1/2+z
1/2+x,1/2-y,1/2-z
-x,1/2+y,-z
-x,-y,-z
1/2+x,y,1/2-z
1/2-x,1/2+y,1/2+z
x,1/2-y,z
loop_
_atom_site_type_symbol
_atom_site_label
_atom_site_fract_x
_atom_site_fract_y
_atom_site_fract_z
Si Si1 0.848777 0.076538 0.663490
Si Si2 0.055794 0.921554 0.428471
Si Si3 0.354946 0.424531 0.169580
Si Si4 0.797419 0.084351 0.805512
Si Si5 0.440380 0.576482 0.079820
Si Si6 0.257417 0.926591 0.917030
Si Si7 0.198576 0.082703 0.795221
Si Si8 0.256752 0.423359 0.073124
O O1 0.833754 0.250000 0.651428
O O2 0.906545 0.044828 0.639531
O O3 0.843705 0.035688 0.751011
O O4 0.811776 0.979137 0.612902
O O5 0.059848 0.750000 0.455044
O O6 0.999075 0.957734 0.401267
O O7 0.072146 0.024128 0.496897
O O8 0.359527 0.250000 0.183269
O O9 0.407551 0.486021 0.138500
O O10 0.345307 0.500458 0.248953
O O11 0.310202 0.461484 0.111680
O O12 0.806604 0.250000 0.838895
O O13 0.748906 0.085931 0.753068
O O14 0.789498 0.967099 0.871742
O O15 0.426853 0.750000 0.086375
O O16 0.254317 0.750000 0.911557
O O17 0.210527 0.994927 0.870793
O O18 0.251636 0.976803 0.001136
O O19 0.180310 0.250000 0.814551
O O20 0.252300 0.250000 0.052561
#
# Coordination Sequence:
#
# PCOD8250775 Si02
#       8
#     8   8   8   8   8   8   8   8
#     4   9  17  30  45  59  80 111 143 174 210 249
#     4   9  18  31  44  59  82 112 145 180 215 249
#     4  10  19  30  44  61  83 112 144 176 211 249
#     4   8  15  27  42  59  78 102 133 169 206 243
#     4  10  19  29  42  61  84 111 144 180 215 249
#     4  11  20  28  41  62  86 110 139 172 205 245
#     4   9  17  30  45  60  81 108 138 171 207 247
#     4  10  19  29  41  58  82 111 140 169 203 244
#
# _framework density 15.014748000000001
#
# number of rings (size 3 to 8) (size 9 to 14) (size 15 to 20)
#    0.000    2.500    0.000    4.125    0.000    8.500 
#    0.000    0.000    0.000    0.000    0.000    0.000 
#    0.000    1.000    0.000    2.750    0.000    4.000 
#
# Total GULP energy -793535.752780 kJ/mol
# GULP energy per Si atom -12398.996137 kJ/mol
# Density = 1.498057 g / cm^3
# Si number density = 15.014748 Si / 1000 Ang^3
#
#
#
# Elastic Constant Matrix: (Units=GPa)
#
#
# Indices 1 2 3 4 5 6 
#
# 1 71.2794 35.5791 45.2317 0.0000 0.0000 0.0000
# 2 35.5791 93.3877 50.7654 0.0000 0.0000 0.0000
# 3 45.2317 50.7654 79.9837 0.0000 0.0000 0.0000
# 4 0.0000 0.0000 0.0000 27.5834 0.0000 0.0000
# 5 0.0000 0.0000 0.0000 0.0000 26.1409 0.0000
# 6 0.0000 0.0000 0.0000 0.0000 0.0000 19.1463
#
#
#
# Elastic Compliance Matrix: (Units=1/GPa)
#
#
# Indices 1 2 3 4 5 6 
#
# 1 0.022258 -0.002500 -0.011000 0.000000 0.000000 0.000000
# 2 -0.002500 0.016630 -0.009141 0.000000 0.000000 0.000000
# 3 -0.011000 -0.009141 0.024525 0.000000 0.000000 0.000000
# 4 0.000000 0.000000 0.000000 0.036254 0.000000 0.000000
# 5 0.000000 0.000000 0.000000 0.000000 0.038254 0.000000
# 6 0.000000 0.000000 0.000000 0.000000 0.000000 0.052229
#
#
# Mechanical properties :
#
#
# Convention : Reuss Voigt Hill
#
# Bulk Modulus (GPa) = 55.15768 56.42258 55.79013
# Shear Modulus (GPa) = 20.70611 22.11243 21.40927
#
# Velocity S-wave (km/s) = 3.71759 3.84176 3.78018
# Velocity P-wave (km/s) = 7.43254 7.57222 7.50271
#
# Compressibility (1/GPa) = 0.01812984
#
# Stress axis : x y z
#
# Youngs Moduli (GPa) = 44.92857 60.13409 40.77483
#
# Poissons Ratio (x) = 0.15034 0.44853
# Poissons Ratio (y) = 0.11233 0.37272
# Poissons Ratio (z) = 0.49422 0.54968
#
# Static dielectric constant tensor:
#      x y z
#    x 2.809830 0.000000 0.000000 
#    y 0.000000 3.018650 0.000000 
#    z 0.000000 0.000000 2.925560 
# 
# 
# High freq. dielectric constant tensor:
#      x y z
#    x 1.541050 0.000000 0.000000 
#    y 0.000000 1.588580 0.000000 
#    z 0.000000 0.000000 1.561480 
# 
# From -- ./inp_files/24990.got.cif
#   From: 2010.03.12/outbox.cif.g09.slc.cpg/sg62_13_cif.got.tgz:24990.got - 2010.04.10 19:12:36.
