data_PCOD8250754
_publ_section_title
;
Structure prediction by ZEFSAII (Michael W. Deem and Ramdas Pophale) SiO2 
 PCOD8250754
Probable space group: P N M A
;
_chemical_formula_sum "Si O2"
_cell_formula_units_Z 64
_cell_length_a 18.061333
_cell_length_b 9.134028
_cell_length_c 26.483269
_cell_angle_alpha 90.000000
_cell_angle_beta 90.000000
_cell_angle_gamma 90.000000
_cell_volume 4369.016957
_symmetry_space_group_name_H-M "P N M A"
_symmetry_group_IT_number 62
_symmetry_cell_setting 'orthorhombic'
loop_
_space_group_symop_operation_xyz
x,y,z
1/2-x,-y,1/2+z
1/2+x,1/2-y,1/2-z
-x,1/2+y,-z
-x,-y,-z
1/2+x,y,1/2-z
1/2-x,1/2+y,1/2+z
x,1/2-y,z
loop_
_atom_site_type_symbol
_atom_site_label
_atom_site_fract_x
_atom_site_fract_y
_atom_site_fract_z
Si Si1 0.911627 0.081424 0.740882
Si Si2 0.804878 0.088131 0.201909
Si Si3 0.428739 0.581838 0.944103
Si Si4 0.798615 0.911139 0.799059
Si Si5 0.078731 0.420254 0.558986
Si Si6 0.916833 0.580653 0.261531
Si Si7 0.657372 0.576102 0.854088
Si Si8 0.836337 0.920565 0.650559
O O1 0.891085 0.250000 0.735444
O O2 0.997729 0.055841 0.751191
O O3 0.867150 0.019406 0.789481
O O4 0.889750 0.004956 0.688758
O O5 0.837809 0.250000 0.190692
O O6 0.752166 0.095401 0.250015
O O7 0.750610 0.033980 0.156424
O O8 0.871607 0.976157 0.212437
O O9 0.455293 0.750000 0.938700
O O10 0.496581 0.477887 0.929423
O O11 0.361114 0.545638 0.906593
O O12 0.400489 0.551114 0.000662
O O13 0.830732 0.750000 0.811149
O O14 0.743841 0.963857 0.843994
O O15 0.081729 0.250000 0.573437
O O16 0.137957 0.508923 0.591766
O O17 0.897828 0.750000 0.270756
O O18 0.896187 0.491541 0.311642
O O19 0.645119 0.750000 0.853652
O O20 0.844586 0.750000 0.664052
#
# Coordination Sequence:
#
# PCOD8250754 Si02
#       8
#     8   8   8   8   8   8   8   8
#     4  10  19  27  38  59  83 105 131 163 197 233
#     4   8  15  27  41  57  76 101 133 164 194 231
#     4   9  18  31  44  58  80 109 137 168 202 233
#     4   8  16  29  42  56  75 102 135 165 194 233
#     4  10  19  29  42  61  82 105 136 170 202 235
#     4  10  19  28  39  59  84 107 133 164 197 236
#     4  10  19  30  43  58  78 107 139 167 198 235
#     4   9  17  29  43  57  76 105 138 166 194 231
#
# _framework density 14.648604000000001
#
# number of rings (size 3 to 8) (size 9 to 14) (size 15 to 20)
#    0.000    2.750    0.000    3.750    0.000   10.000 
#    0.000    0.000    0.000    0.000    0.000    0.000 
#    0.000    1.000    0.000    2.250    0.000    3.500 
#
# Total GULP energy -793334.069492 kJ/mol
# GULP energy per Si atom -12395.844836 kJ/mol
# Density = 1.461526 g / cm^3
# Si number density = 14.648604 Si / 1000 Ang^3
#
#
#
# Elastic Constant Matrix: (Units=GPa)
#
#
# Indices 1 2 3 4 5 6 
#
# 1 84.5782 54.9949 52.3472 0.0000 0.0000 0.0000
# 2 54.9949 86.6407 41.9714 0.0000 0.0000 0.0000
# 3 52.3472 41.9714 80.0077 0.0000 0.0000 0.0000
# 4 0.0000 0.0000 0.0000 20.3378 0.0000 0.0000
# 5 0.0000 0.0000 0.0000 0.0000 27.1507 0.0000
# 6 0.0000 0.0000 0.0000 0.0000 0.0000 24.5002
#
#
#
# Elastic Compliance Matrix: (Units=1/GPa)
#
#
# Indices 1 2 3 4 5 6 
#
# 1 0.025909 -0.011039 -0.011160 0.000000 0.000000 0.000000
# 2 -0.011039 0.020178 -0.003363 0.000000 0.000000 0.000000
# 3 -0.011160 -0.003363 0.021565 0.000000 0.000000 0.000000
# 4 0.000000 0.000000 0.000000 0.049170 0.000000 0.000000
# 5 0.000000 0.000000 0.000000 0.000000 0.036831 0.000000
# 6 0.000000 0.000000 0.000000 0.000000 0.000000 0.040816
#
#
# Mechanical properties :
#
#
# Convention : Reuss Voigt Hill
#
# Bulk Modulus (GPa) = 60.50615 61.09482 60.80049
# Shear Modulus (GPa) = 19.91229 21.19195 20.55212
#
# Velocity S-wave (km/s) = 3.69091 3.80766 3.74974
# Velocity P-wave (km/s) = 7.71741 7.81847 7.76811
#
# Compressibility (1/GPa) = 0.01652725
#
# Stress axis : x y z
#
# Youngs Moduli (GPa) = 38.59721 49.55945 46.37185
#
# Poissons Ratio (x) = 0.54708 0.51753
# Poissons Ratio (y) = 0.42607 0.15593
# Poissons Ratio (z) = 0.43076 0.16665
#
# Static dielectric constant tensor:
#      x y z
#    x 2.967680 0.000000 0.000000 
#    y 0.000000 2.978740 0.000000 
#    z 0.000000 0.000000 2.872750 
# 
# 
# High freq. dielectric constant tensor:
#      x y z
#    x 1.544570 0.000000 0.000000 
#    y 0.000000 1.572100 0.000000 
#    z 0.000000 0.000000 1.529600 
# 
# From -- ./inp_files/31340.got.cif
#   From: 2010.03.12/outbox.cif.g09.slc.cpg/sg62_16_cif.got.tgz:31340.got - 2010.04.10 19:12:36.
