data_PCOD8250471
_publ_section_title
;
Structure prediction by ZEFSAII (Michael W. Deem and Ramdas Pophale) SiO2 
 PCOD8250471
Probable space group: P N M A
;
_chemical_formula_sum "Si O2"
_cell_formula_units_Z 56
_cell_length_a 18.821811
_cell_length_b 9.312470
_cell_length_c 17.099588
_cell_angle_alpha 90.000000
_cell_angle_beta 90.000000
_cell_angle_gamma 90.000000
_cell_volume 2997.173895
_symmetry_space_group_name_H-M "P N M A"
_symmetry_group_IT_number 62
_symmetry_cell_setting 'orthorhombic'
loop_
_space_group_symop_operation_xyz
x,y,z
1/2-x,-y,1/2+z
1/2+x,1/2-y,1/2-z
-x,1/2+y,-z
-x,-y,-z
1/2+x,y,1/2-z
1/2-x,1/2+y,1/2+z
x,1/2-y,z
loop_
_atom_site_type_symbol
_atom_site_label
_atom_site_fract_x
_atom_site_fract_y
_atom_site_fract_z
Si Si1 0.803932 0.087469 0.428055
Si Si2 0.444234 0.091869 0.598124
Si Si3 0.823895 0.912622 0.831785
Si Si4 0.212169 0.086084 0.921092
Si Si5 0.074058 0.082135 0.492633
Si Si6 0.570955 0.591426 0.583583
Si Si7 0.830293 0.588230 0.652403
O O1 0.834488 0.250000 0.429480
O O2 0.760884 0.054932 0.346896
O O3 0.742187 0.067106 0.492091
O O4 0.869345 0.980047 0.444016
O O5 0.448984 0.250000 0.636885
O O6 0.451232 0.107873 0.505779
O O7 0.369065 0.021915 0.617273
O O8 0.508745 0.993302 0.629768
O O9 0.838701 0.750000 0.860812
O O10 0.849961 0.929186 0.742833
O O11 0.194394 0.250000 0.901379
O O12 0.142873 0.994156 0.907179
O O13 0.270371 0.029087 0.861048
O O14 0.062949 0.250000 0.511086
O O15 0.102531 0.057383 0.404231
O O16 0.000000 0.000000 0.500000
O O17 0.579213 0.750000 0.621203
O O18 0.802179 0.750000 0.635261
#
# Coordination Sequence:
#
# PCOD8250471 Si02
#       7
#     8   8   8   8   8   8   8
#     4   9  18  32  54  80 104 134 172 215 264 317
#     4  10  20  31  48  75 106 138 173 215 259 307
#     4  10  19  35  55  77 107 142 177 216 266 326
#     4  10  18  31  52  77 104 133 170 217 261 307
#     4  10  20  36  58  82 107 138 182 229 271 320
#     4  10  19  31  49  73 103 137 174 213 255 309
#     4   9  20  36  55  78 106 141 178 217 267 324
#
# _framework density 18.684267999999999
#
# number of rings (size 3 to 8) (size 9 to 14) (size 15 to 20)
#    0.000    2.286    1.429    1.714    0.000    3.429 
#    0.000    1.429    0.000    3.429    0.000    0.000 
#    0.000    0.000    0.000    0.000    0.000    0.000 
#
# Total GULP energy -694155.004814 kJ/mol
# GULP energy per Si atom -12395.625086 kJ/mol
# Density = 1.864174 g / cm^3
# Si number density = 18.684268 Si / 1000 Ang^3
#
#
#
# Elastic Constant Matrix: (Units=GPa)
#
#
# Indices 1 2 3 4 5 6 
#
# 1 129.2235 85.6898 24.4120 0.0000 0.0000 0.0000
# 2 85.6898 158.1784 25.3662 0.0000 0.0000 0.0000
# 3 24.4120 25.3662 47.8042 0.0000 0.0000 0.0000
# 4 0.0000 0.0000 0.0000 15.9477 0.0000 0.0000
# 5 0.0000 0.0000 0.0000 0.0000 14.7444 0.0000
# 6 0.0000 0.0000 0.0000 0.0000 0.0000 41.2964
#
#
#
# Elastic Compliance Matrix: (Units=1/GPa)
#
#
# Indices 1 2 3 4 5 6 
#
# 1 0.012469 -0.006267 -0.003042 0.000000 0.000000 0.000000
# 2 -0.006267 0.010060 -0.002138 0.000000 0.000000 0.000000
# 3 -0.003042 -0.002138 0.023606 0.000000 0.000000 0.000000
# 4 0.000000 0.000000 0.000000 0.062705 0.000000 0.000000
# 5 0.000000 0.000000 0.000000 0.000000 0.067823 0.000000
# 6 0.000000 0.000000 0.000000 0.000000 0.000000 0.024215
#
#
# Mechanical properties :
#
#
# Convention : Reuss Voigt Hill
#
# Bulk Modulus (GPa) = 43.02590 67.34913 55.18752
# Shear Modulus (GPa) = 21.59655 27.71356 24.65506
#
# Velocity S-wave (km/s) = 3.40349 3.85548 3.63652
# Velocity P-wave (km/s) = 6.20668 7.47956 6.87265
#
# Compressibility (1/GPa) = 0.02324181
#
# Stress axis : x y z
#
# Youngs Moduli (GPa) = 80.19959 99.40597 42.36130
#
# Poissons Ratio (x) = 0.62297 0.12887
# Poissons Ratio (y) = 0.50260 0.09055
# Poissons Ratio (z) = 0.24397 0.21250
#
# Static dielectric constant tensor:
#      x y z
#    x 3.325520 0.000000 0.000000 
#    y 0.000000 4.716820 0.000000 
#    z 0.000000 0.000000 3.203420 
# 
# 
# High freq. dielectric constant tensor:
#      x y z
#    x 1.721390 0.000000 0.000000 
#    y 0.000000 1.741070 0.000000 
#    z 0.000000 0.000000 1.685990 
# 
# From -- ./inp_files/27589.got.cif
#   From: 2010.03.12/outbox.cif.g09.slc.cpg/sg62_14_cif.got.tgz:27589.got - 2010.04.10 19:12:36.
