data_PCOD8250569
_publ_section_title
;
Structure prediction by ZEFSAII (Michael W. Deem and Ramdas Pophale) SiO2 
 PCOD8250569
Probable space group: P N M A
;
_chemical_formula_sum "Si O2"
_cell_formula_units_Z 48
_cell_length_a 21.694383
_cell_length_b 9.042255
_cell_length_c 12.274191
_cell_angle_alpha 90.000000
_cell_angle_beta 90.000000
_cell_angle_gamma 90.000000
_cell_volume 2407.780709
_symmetry_space_group_name_H-M "P N M A"
_symmetry_group_IT_number 62
_symmetry_cell_setting 'orthorhombic'
loop_
_space_group_symop_operation_xyz
x,y,z
1/2-x,-y,1/2+z
1/2+x,1/2-y,1/2-z
-x,1/2+y,-z
-x,-y,-z
1/2+x,y,1/2-z
1/2-x,1/2+y,1/2+z
x,1/2-y,z
loop_
_atom_site_type_symbol
_atom_site_label
_atom_site_fract_x
_atom_site_fract_y
_atom_site_fract_z
Si Si1 0.932949 0.926489 0.507307
Si Si2 0.301978 0.924849 0.580043
Si Si3 0.853944 0.083594 0.125970
Si Si4 0.493559 0.418505 0.388073
Si Si5 0.167666 0.577192 0.633298
Si Si6 0.603089 0.425360 0.243706
O O1 0.940836 0.750000 0.501833
O O2 0.898477 0.979313 0.618587
O O3 0.889530 0.981540 0.409567
O O4 0.000000 0.000000 0.500000
O O5 0.304811 0.750000 0.584604
O O6 0.231144 0.977858 0.577820
O O7 0.338645 0.987409 0.686567
O O8 0.334041 0.974374 0.468952
O O9 0.840028 0.250000 0.085525
O O10 0.925223 0.063476 0.157550
O O11 0.819561 0.048789 0.238658
O O12 0.500000 0.500000 0.500000
O O13 0.511399 0.250000 0.410747
O O14 0.540598 0.485861 0.299917
O O15 0.153664 0.750000 0.611419
O O16 0.604156 0.250000 0.243956
#
# Coordination Sequence:
#
# PCOD8250569 Si02
#       6
#     8   8   8   8   8   8
#     4  11  23  41  66  91 121 159 203 249 302 364
#     4  10  21  38  60  86 116 155 199 246 295 351
#     4  10  21  37  59  84 116 155 194 243 299 355
#     4  10  18  32  54  81 111 145 186 233 286 343
#     4  10  23  41  61  86 120 159 200 245 298 355
#     4   9  19  36  59  85 117 156 194 239 298 356
#
# _framework density 19.935371
#
# number of rings (size 3 to 8) (size 9 to 14) (size 15 to 20)
#    0.000    2.000    1.667    1.500    2.333    4.000 
#    0.000    5.000    0.000    0.000    0.000    0.000 
#    0.000    0.000    0.000    0.000    0.000    0.000 
#
# Total GULP energy -595082.313148 kJ/mol
# GULP energy per Si atom -12397.548191 kJ/mol
# Density = 1.989000 g / cm^3
# Si number density = 19.935371 Si / 1000 Ang^3
#
#
#
# Elastic Constant Matrix: (Units=GPa)
#
#
# Indices 1 2 3 4 5 6 
#
# 1 116.1885 37.1547 39.3364 0.0000 0.0000 0.0000
# 2 37.1547 43.6624 23.5765 0.0000 0.0000 0.0000
# 3 39.3364 23.5765 94.1688 0.0000 0.0000 0.0000
# 4 0.0000 0.0000 0.0000 29.7531 0.0000 0.0000
# 5 0.0000 0.0000 0.0000 0.0000 30.3641 0.0000
# 6 0.0000 0.0000 0.0000 0.0000 0.0000 26.8240
#
#
#
# Elastic Compliance Matrix: (Units=1/GPa)
#
#
# Indices 1 2 3 4 5 6 
#
# 1 0.012498 -0.009038 -0.002958 0.000000 0.000000 0.000000
# 2 -0.009038 0.033019 -0.004491 0.000000 0.000000 0.000000
# 3 -0.002958 -0.004491 0.012979 0.000000 0.000000 0.000000
# 4 0.000000 0.000000 0.000000 0.033610 0.000000 0.000000
# 5 0.000000 0.000000 0.000000 0.000000 0.032934 0.000000
# 6 0.000000 0.000000 0.000000 0.000000 0.000000 0.037280
#
#
# Mechanical properties :
#
#
# Convention : Reuss Voigt Hill
#
# Bulk Modulus (GPa) = 39.18224 50.46164 44.82194
# Shear Modulus (GPa) = 24.53345 27.65172 26.09258
#
# Velocity S-wave (km/s) = 3.51187 3.72838 3.62174
# Velocity P-wave (km/s) = 6.01179 6.62586 6.32628
#
# Compressibility (1/GPa) = 0.02552177
#
# Stress axis : x y z
#
# Youngs Moduli (GPa) = 80.01007 30.28521 77.04562
#
# Poissons Ratio (x) = 0.27373 0.22790
# Poissons Ratio (y) = 0.72316 0.34604
# Poissons Ratio (z) = 0.23667 0.13602
#
# Static dielectric constant tensor:
#      x y z
#    x 3.587160 0.000000 0.000000 
#    y 0.000000 3.408590 0.000000 
#    z 0.000000 0.000000 5.699330 
# 
# 
# High freq. dielectric constant tensor:
#      x y z
#    x 1.789960 0.000000 0.000000 
#    y 0.000000 1.748000 0.000000 
#    z 0.000000 0.000000 1.785760 
# 
# From -- ./inp_files/15128.got.cif
#   From: 2010.03.12/outbox.cif.g09.slc.cpg/sg62_8_cif.got.tgz:15128.got - 2010.04.10 19:12:36.
