data_PCOD8250806
_publ_section_title
;
Structure prediction by ZEFSAII (Michael W. Deem and Ramdas Pophale) SiO2 
 PCOD8250806
Probable space group: P N M A
;
_chemical_formula_sum "Si O2"
_cell_formula_units_Z 48
_cell_length_a 15.933825
_cell_length_b 13.554453
_cell_length_c 12.447907
_cell_angle_alpha 90.000000
_cell_angle_beta 90.000000
_cell_angle_gamma 90.000000
_cell_volume 2688.427778
_symmetry_space_group_name_H-M "P N M A"
_symmetry_group_IT_number 62
_symmetry_cell_setting 'orthorhombic'
loop_
_space_group_symop_operation_xyz
x,y,z
1/2-x,-y,1/2+z
1/2+x,1/2-y,1/2-z
-x,1/2+y,-z
-x,-y,-z
1/2+x,y,1/2-z
1/2-x,1/2+y,1/2+z
x,1/2-y,z
loop_
_atom_site_type_symbol
_atom_site_label
_atom_site_fract_x
_atom_site_fract_y
_atom_site_fract_z
Si Si1 0.473705 0.539620 0.830476
Si Si2 0.898920 0.950414 0.884712
Si Si3 0.273008 0.138626 0.093340
Si Si4 0.053324 0.863954 0.477289
Si Si5 0.117614 0.860536 0.781177
Si Si6 0.053421 0.860042 0.002171
O O1 0.400532 0.568071 0.744801
O O2 0.462418 0.427250 0.870149
O O3 0.558285 0.551639 0.761011
O O4 0.480822 0.611038 0.934530
O O5 0.806008 0.931028 0.931017
O O6 0.963049 0.879745 0.947878
O O7 0.924530 0.064253 0.903731
O O8 0.246780 0.250000 0.064861
O O9 0.293682 0.128530 0.220752
O O10 0.354879 0.108052 0.024412
O O11 0.046941 0.750000 0.445601
O O12 0.081132 0.750000 0.752213
O O13 0.125265 0.870270 0.909669
O O14 0.053100 0.750000 0.051195
#
# Coordination Sequence:
#
# PCOD8250806 Si02
#       6
#     8   8   8   8   8   8
#     4   9  17  30  48  69  90 118 157 192 225 272
#     4  10  19  29  48  72  92 122 159 192 226 273
#     4   9  17  29  46  68  91 118 156 196 232 270
#     4   9  18  32  49  69  95 124 153 192 236 272
#     4   8  15  30  50  68  90 121 155 194 234 270
#     4   9  18  32  47  67  96 125 154 189 229 275
#
# _framework density 17.854301
#
# number of rings (size 3 to 8) (size 9 to 14) (size 15 to 20)
#    0.000    3.000    0.000    2.000    0.000    4.000 
#    0.000    0.000    0.000   12.000    0.000    0.000 
#    0.000    0.000    0.000    0.000    0.000    0.000 
#
# Total GULP energy -594666.060065 kJ/mol
# GULP energy per Si atom -12388.876251 kJ/mol
# Density = 1.781366 g / cm^3
# Si number density = 17.854301 Si / 1000 Ang^3
#
#
#
# Elastic Constant Matrix: (Units=GPa)
#
#
# Indices 1 2 3 4 5 6 
#
# 1 68.9092 48.8716 31.0286 0.0000 0.0000 0.0000
# 2 48.8716 95.3437 22.6760 0.0000 0.0000 0.0000
# 3 31.0286 22.6760 51.0904 0.0000 0.0000 0.0000
# 4 0.0000 0.0000 0.0000 23.1050 0.0000 0.0000
# 5 0.0000 0.0000 0.0000 0.0000 14.8295 0.0000
# 6 0.0000 0.0000 0.0000 0.0000 0.0000 19.9401
#
#
#
# Elastic Compliance Matrix: (Units=1/GPa)
#
#
# Indices 1 2 3 4 5 6 
#
# 1 0.028076 -0.011556 -0.011922 0.000000 0.000000 0.000000
# 2 -0.011556 0.016482 -0.000297 0.000000 0.000000 0.000000
# 3 -0.011922 -0.000297 0.026946 0.000000 0.000000 0.000000
# 4 0.000000 0.000000 0.000000 0.043281 0.000000 0.000000
# 5 0.000000 0.000000 0.000000 0.000000 0.067433 0.000000
# 6 0.000000 0.000000 0.000000 0.000000 0.000000 0.050150
#
#
# Mechanical properties :
#
#
# Convention : Reuss Voigt Hill
#
# Bulk Modulus (GPa) = 41.74814 46.72174 44.23494
# Shear Modulus (GPa) = 17.36696 19.09274 18.22985
#
# Velocity S-wave (km/s) = 3.12220 3.27366 3.19883
# Velocity P-wave (km/s) = 6.03581 6.36508 6.20263
#
# Compressibility (1/GPa) = 0.02395317
#
# Stress axis : x y z
#
# Youngs Moduli (GPa) = 35.61798 60.67103 37.11137
#
# Poissons Ratio (x) = 0.70109 0.44245
# Poissons Ratio (y) = 0.41159 0.01104
# Poissons Ratio (z) = 0.42465 0.01805
#
# Static dielectric constant tensor:
#      x y z
#    x 3.061550 0.000000 0.000000 
#    y 0.000000 3.251580 0.000000 
#    z 0.000000 0.000000 3.256520 
# 
# 
# High freq. dielectric constant tensor:
#      x y z
#    x 1.660720 0.000000 0.000000 
#    y 0.000000 1.685560 0.000000 
#    z 0.000000 0.000000 1.680090 
# 
# From -- ./inp_files/19076.got.cif
#   From: 2010.03.12/outbox.cif.g09.slc.cpg/sg62_10_cif.got.tgz:19076.got - 2010.04.10 19:12:36.
