data_PCOD8250096
_publ_section_title
;
Structure prediction by ZEFSAII (Michael W. Deem and Ramdas Pophale) SiO2 
 PCOD8250096
Probable space group: P N M A
;
_chemical_formula_sum "Si O2"
_cell_formula_units_Z 64
_cell_length_a 9.864418
_cell_length_b 18.641986
_cell_length_c 19.511952
_cell_angle_alpha 90.000000
_cell_angle_beta 90.000000
_cell_angle_gamma 90.000000
_cell_volume 3588.098555
_symmetry_space_group_name_H-M "P N M A"
_symmetry_group_IT_number 62
_symmetry_cell_setting 'orthorhombic'
loop_
_space_group_symop_operation_xyz
x,y,z
1/2-x,-y,1/2+z
1/2+x,1/2-y,1/2-z
-x,1/2+y,-z
-x,-y,-z
1/2+x,y,1/2-z
1/2-x,1/2+y,1/2+z
x,1/2-y,z
loop_
_atom_site_type_symbol
_atom_site_label
_atom_site_fract_x
_atom_site_fract_y
_atom_site_fract_z
Si Si1 0.381869 0.832716 0.874198
Si Si2 0.657464 0.921194 0.690539
Si Si3 0.888928 0.971350 0.082951
Si Si4 0.921326 0.671872 0.020449
Si Si5 0.654553 0.909377 0.843983
Si Si6 0.798599 0.021600 0.939137
Si Si7 0.409900 0.667412 0.631593
Si Si8 0.237997 0.671474 0.019023
O O1 0.392685 0.750000 0.851197
O O2 0.294019 0.874872 0.817623
O O3 0.530386 0.867092 0.877148
O O4 0.318221 0.840327 0.949039
O O5 0.618879 0.939809 0.768630
O O6 0.537884 0.878246 0.653830
O O7 0.676909 0.997934 0.652239
O O8 0.875625 0.884923 0.077975
O O9 0.048220 0.990802 0.086330
O O10 0.804409 0.005626 0.020314
O O11 0.871888 0.750000 0.046041
O O12 0.079513 0.671992 0.002736
O O13 0.860437 0.651092 0.946600
O O14 0.776606 0.854583 0.826838
O O15 0.697341 0.972868 0.895398
O O16 0.740131 0.103408 0.930371
O O17 0.448175 0.750000 0.642956
O O18 0.278775 0.750000 0.051193
#
# Coordination Sequence:
#
# PCOD8250096 Si02
#       8
#     8   8   8   8   8   8   8   8
#     4  11  23  37  51  76 114 151 180 212 262 326
#     4  12  22  37  54  76 106 151 189 221 261 321
#     4  10  17  34  59  79 102 139 181 230 269 305
#     4   9  16  30  58  86 102 128 178 229 267 308
#     4  12  25  34  50  80 114 144 183 223 269 319
#     4  10  18  35  57  80 105 137 181 230 268 310
#     4  11  20  35  55  76 106 146 185 217 258 314
#     4   9  17  33  57  80 103 135 178 219 265 320
#
# _framework density 17.836746000000002
#
# number of rings (size 3 to 8) (size 9 to 14) (size 15 to 20)
#    0.000    1.500    5.000    2.250    0.000    3.500 
#    0.000    0.000    0.000    0.750    0.000    0.000 
#    0.000    0.000    0.000    0.000    0.000    0.000 
#
# Total GULP energy -793160.742562 kJ/mol
# GULP energy per Si atom -12393.136603 kJ/mol
# Density = 1.779615 g / cm^3
# Si number density = 17.836746 Si / 1000 Ang^3
#
#
#
# Elastic Constant Matrix: (Units=GPa)
#
#
# Indices 1 2 3 4 5 6 
#
# 1 57.6388 44.9068 14.3191 0.0000 0.0000 0.0000
# 2 44.9068 133.5664 59.6230 0.0000 0.0000 0.0000
# 3 14.3191 59.6230 70.7616 0.0000 0.0000 0.0000
# 4 0.0000 0.0000 0.0000 16.2214 0.0000 0.0000
# 5 0.0000 0.0000 0.0000 0.0000 10.6687 0.0000
# 6 0.0000 0.0000 0.0000 0.0000 0.0000 23.4089
#
#
#
# Elastic Compliance Matrix: (Units=1/GPa)
#
#
# Indices 1 2 3 4 5 6 
#
# 1 0.023925 -0.009429 0.003104 0.000000 0.000000 0.000000
# 2 -0.009429 0.015717 -0.011335 0.000000 0.000000 0.000000
# 3 0.003104 -0.011335 0.023055 0.000000 0.000000 0.000000
# 4 0.000000 0.000000 0.000000 0.061647 0.000000 0.000000
# 5 0.000000 0.000000 0.000000 0.000000 0.093732 0.000000
# 6 0.000000 0.000000 0.000000 0.000000 0.000000 0.042719
#
#
# Mechanical properties :
#
#
# Convention : Reuss Voigt Hill
#
# Bulk Modulus (GPa) = 36.52923 55.51830 46.02377
# Shear Modulus (GPa) = 16.38052 19.60099 17.99075
#
# Velocity S-wave (km/s) = 3.03373 3.31858 3.17935
# Velocity P-wave (km/s) = 5.72674 6.77328 6.27188
#
# Compressibility (1/GPa) = 0.02737534
#
# Stress axis : x y z
#
# Youngs Moduli (GPa) = 41.79765 63.62551 43.37535
#
# Poissons Ratio (x) = 0.59994 -0.13462
# Poissons Ratio (y) = 0.39412 0.49165
# Poissons Ratio (z) = -0.12973 0.72119
#
# Static dielectric constant tensor:
#      x y z
#    x 3.166290 0.000000 0.000000 
#    y 0.000000 3.750280 0.000000 
#    z 0.000000 0.000000 3.016910 
# 
# 
# High freq. dielectric constant tensor:
#      x y z
#    x 1.674030 0.000000 0.000000 
#    y 0.000000 1.702560 0.000000 
#    z 0.000000 0.000000 1.654380 
# 
# From -- ./inp_files/22574.got.cif
#   From: 2010.03.12/outbox.cif.g09.slc.cpg/sg62_12_cif.got.tgz:22574.got - 2010.04.10 19:12:36.
