data_PCOD8250983
_publ_section_title
;
Structure prediction by ZEFSAII (Michael W. Deem and Ramdas Pophale) SiO2 
 PCOD8250983
Probable space group: P N M A
;
_chemical_formula_sum "Si O2"
_cell_formula_units_Z 48
_cell_length_a 13.634399
_cell_length_b 8.930238
_cell_length_c 23.562351
_cell_angle_alpha 90.000000
_cell_angle_beta 90.000000
_cell_angle_gamma 90.000000
_cell_volume 2868.914819
_symmetry_space_group_name_H-M "P N M A"
_symmetry_group_IT_number 62
_symmetry_cell_setting 'orthorhombic'
loop_
_space_group_symop_operation_xyz
x,y,z
1/2-x,-y,1/2+z
1/2+x,1/2-y,1/2-z
-x,1/2+y,-z
-x,-y,-z
1/2+x,y,1/2-z
1/2-x,1/2+y,1/2+z
x,1/2-y,z
loop_
_atom_site_type_symbol
_atom_site_label
_atom_site_fract_x
_atom_site_fract_y
_atom_site_fract_z
Si Si1 0.602339 0.925631 0.275562
Si Si2 0.614769 0.076036 0.060698
Si Si3 0.605360 0.574790 0.721278
Si Si4 0.218522 0.926102 0.335882
Si Si5 0.889010 0.423559 0.445107
Si Si6 0.776665 0.075932 0.332029
O O1 0.585763 0.750000 0.280880
O O2 0.642682 0.972014 0.213677
O O3 0.501425 0.007963 0.287084
O O4 0.679414 0.978256 0.323197
O O5 0.639158 0.250000 0.068249
O O6 0.500789 0.041144 0.071862
O O7 0.677748 0.981571 0.104603
O O8 0.644872 0.024510 0.997709
O O9 0.600757 0.750000 0.710035
O O10 0.676997 0.502873 0.674815
O O11 0.642759 0.536374 0.784433
O O12 0.234929 0.750000 0.337656
O O13 0.877853 0.250000 0.461806
O O14 0.821089 0.468325 0.392526
O O15 0.748242 0.250000 0.328811
#
# Coordination Sequence:
#
# PCOD8250983 Si02
#       6
#     8   8   8   8   8   8
#     4  10  20  32  48  72 100 128 159 197 241 286
#     4  10  19  31  49  73  99 128 163 200 240 286
#     4  10  19  32  51  73  98 128 162 199 238 284
#     4  10  20  33  49  71 100 131 162 198 240 285
#     4   9  18  32  49  71  99 129 161 198 240 285
#     4   9  18  32  50  71  96 128 163 197 235 282
#
# _framework density 16.731065000000001
#
# number of rings (size 3 to 8) (size 9 to 14) (size 15 to 20)
#    0.000    2.333    0.000    3.000    0.000    5.333 
#    0.000    0.000    0.000    1.000    0.000    0.000 
#    0.000    0.000    0.000    0.000    0.000    0.000 
#
# Total GULP energy -595395.473526 kJ/mol
# GULP energy per Si atom -12404.072365 kJ/mol
# Density = 1.669298 g / cm^3
# Si number density = 16.731065 Si / 1000 Ang^3
#
#
#
# Elastic Constant Matrix: (Units=GPa)
#
#
# Indices 1 2 3 4 5 6 
#
# 1 120.7916 55.4837 59.6425 0.0000 0.0000 0.0000
# 2 55.4837 73.0103 39.2634 0.0000 0.0000 0.0000
# 3 59.6425 39.2634 91.2030 0.0000 0.0000 0.0000
# 4 0.0000 0.0000 0.0000 29.5066 0.0000 0.0000
# 5 0.0000 0.0000 0.0000 0.0000 20.4868 0.0000
# 6 0.0000 0.0000 0.0000 0.0000 0.0000 30.1767
#
#
#
# Elastic Compliance Matrix: (Units=1/GPa)
#
#
# Indices 1 2 3 4 5 6 
#
# 1 0.015162 -0.008055 -0.006448 0.000000 0.000000 0.000000
# 2 -0.008055 0.022102 -0.004248 0.000000 0.000000 0.000000
# 3 -0.006448 -0.004248 0.017010 0.000000 0.000000 0.000000
# 4 0.000000 0.000000 0.000000 0.033891 0.000000 0.000000
# 5 0.000000 0.000000 0.000000 0.000000 0.048812 0.000000
# 6 0.000000 0.000000 0.000000 0.000000 0.000000 0.033138
#
#
# Mechanical properties :
#
#
# Convention : Reuss Voigt Hill
#
# Bulk Modulus (GPa) = 59.61722 65.97603 62.79662
# Shear Modulus (GPa) = 23.45138 24.74169 24.09653
#
# Velocity S-wave (km/s) = 3.74795 3.84967 3.79915
# Velocity P-wave (km/s) = 7.37831 7.69927 7.54050
#
# Compressibility (1/GPa) = 0.01677368
#
# Stress axis : x y z
#
# Youngs Moduli (GPa) = 65.95288 45.24403 58.79016
#
# Poissons Ratio (x) = 0.36444 0.37906
# Poissons Ratio (y) = 0.53126 0.24971
# Poissons Ratio (z) = 0.42525 0.19218
#
# Static dielectric constant tensor:
#      x y z
#    x 3.061470 0.000000 0.000000 
#    y 0.000000 3.204180 0.000000 
#    z 0.000000 0.000000 3.075100 
# 
# 
# High freq. dielectric constant tensor:
#      x y z
#    x 1.636070 0.000000 0.000000 
#    y 0.000000 1.657030 0.000000 
#    z 0.000000 0.000000 1.634390 
# 
# From -- ./inp_files/26848.got.cif
#   From: 2010.03.12/outbox.cif.g09.slc.cpg/sg62_14_cif.got.tgz:26848.got - 2010.04.10 19:12:36.
