data_PCOD8250356
_publ_section_title
;
Structure prediction by ZEFSAII (Michael W. Deem and Ramdas Pophale) SiO2 
 PCOD8250356
Probable space group: P N M A
;
_chemical_formula_sum "Si O2"
_cell_formula_units_Z 64
_cell_length_a 14.360579
_cell_length_b 9.628555
_cell_length_c 25.163968
_cell_angle_alpha 90.000000
_cell_angle_beta 90.000000
_cell_angle_gamma 90.000000
_cell_volume 3479.462740
_symmetry_space_group_name_H-M "P N M A"
_symmetry_group_IT_number 62
_symmetry_cell_setting 'orthorhombic'
loop_
_space_group_symop_operation_xyz
x,y,z
1/2-x,-y,1/2+z
1/2+x,1/2-y,1/2-z
-x,1/2+y,-z
-x,-y,-z
1/2+x,y,1/2-z
1/2-x,1/2+y,1/2+z
x,1/2-y,z
loop_
_atom_site_type_symbol
_atom_site_label
_atom_site_fract_x
_atom_site_fract_y
_atom_site_fract_z
Si Si1 0.158351 0.911775 0.599970
Si Si2 0.273869 0.903720 0.505431
Si Si3 0.473168 0.911593 0.948676
Si Si4 0.029299 0.096789 0.047405
Si Si5 0.982016 0.915262 0.834824
Si Si6 0.231957 0.413029 0.413020
Si Si7 0.221102 0.416188 0.196908
Si Si8 0.318127 0.085180 0.302628
O O1 0.182813 0.750000 0.600973
O O2 0.193627 0.969748 0.542857
O O3 0.211713 0.977893 0.650457
O O4 0.047324 0.938792 0.599365
O O5 0.247166 0.750000 0.483389
O O6 0.360063 0.890426 0.545131
O O7 0.294635 0.006405 0.456308
O O8 0.473673 0.750000 0.965407
O O9 0.374794 0.955695 0.923586
O O10 0.500000 0.000000 0.000000
O O11 0.983501 0.250000 0.040858
O O12 0.004108 0.031504 0.104647
O O13 0.000000 0.000000 0.000000
O O14 0.975865 0.750000 0.836448
O O15 0.885268 0.972161 0.809597
O O16 0.073527 0.965959 0.802436
O O17 0.249589 0.250000 0.419776
O O18 0.263366 0.465164 0.355086
O O19 0.222419 0.250000 0.197558
O O20 0.263702 0.475728 0.251800
O O21 0.317612 0.250000 0.300546
#
# Coordination Sequence:
#
# PCOD8250356 Si02
#       8
#     8   8   8   8   8   8   8   8
#     4   9  16  28  45  66  91 122 162 202 231 274
#     4  10  18  30  49  70  94 129 167 198 234 291
#     4  10  19  30  47  69  98 131 162 198 243 290
#     4  10  19  30  47  71  99 130 162 197 242 291
#     4   9  16  28  44  64  92 124 156 196 242 284
#     4  10  20  32  46  72 104 129 156 201 253 293
#     4   9  16  28  46  66  91 126 164 198 236 286
#     4   9  18  29  43  66  97 126 154 196 247 289
#
# _framework density 18.393643000000001
#
# number of rings (size 3 to 8) (size 9 to 14) (size 15 to 20)
#    0.000    2.500    2.500    0.750    0.000    2.500 
#    0.000    5.000    0.000    0.000    0.000    2.625 
#    0.000    0.000    0.000    0.000    0.000    0.000 
#
# Total GULP energy -793105.492953 kJ/mol
# GULP energy per Si atom -12392.273327 kJ/mol
# Density = 1.835178 g / cm^3
# Si number density = 18.393643 Si / 1000 Ang^3
#
#
#
# Elastic Constant Matrix: (Units=GPa)
#
#
# Indices 1 2 3 4 5 6 
#
# 1 113.5594 11.7081 57.6276 0.0000 0.0000 0.0000
# 2 11.7081 24.1357 23.1221 0.0000 0.0000 0.0000
# 3 57.6276 23.1221 138.5497 0.0000 0.0000 0.0000
# 4 0.0000 0.0000 0.0000 18.5306 0.0000 0.0000
# 5 0.0000 0.0000 0.0000 0.0000 33.0967 0.0000
# 6 0.0000 0.0000 0.0000 0.0000 0.0000 14.3617
#
#
#
# Elastic Compliance Matrix: (Units=1/GPa)
#
#
# Indices 1 2 3 4 5 6 
#
# 1 0.011189 -0.001154 -0.004461 0.000000 0.000000 0.000000
# 2 -0.001154 0.049436 -0.007770 0.000000 0.000000 0.000000
# 3 -0.004461 -0.007770 0.010370 0.000000 0.000000 0.000000
# 4 0.000000 0.000000 0.000000 0.053965 0.000000 0.000000
# 5 0.000000 0.000000 0.000000 0.000000 0.030215 0.000000
# 6 0.000000 0.000000 0.000000 0.000000 0.000000 0.069630
#
#
# Mechanical properties :
#
#
# Convention : Reuss Voigt Hill
#
# Bulk Modulus (GPa) = 22.61207 51.24004 36.92606
# Shear Modulus (GPa) = 18.77467 25.45024 22.11246
#
# Velocity S-wave (km/s) = 3.19833 3.72377 3.47101
# Velocity P-wave (km/s) = 5.09502 6.81224 6.01522
#
# Compressibility (1/GPa) = 0.04422416
#
# Stress axis : x y z
#
# Youngs Moduli (GPa) = 89.37456 20.22817 96.43196
#
# Poissons Ratio (x) = 0.02334 0.43021
# Poissons Ratio (y) = 0.10311 0.74931
# Poissons Ratio (z) = 0.39873 0.15718
#
# Static dielectric constant tensor:
#      x y z
#    x 3.775700 0.000000 0.000000 
#    y 0.000000 2.820230 0.000000 
#    z 0.000000 0.000000 3.469710 
# 
# 
# High freq. dielectric constant tensor:
#      x y z
#    x 1.734880 0.000000 0.000000 
#    y 0.000000 1.642770 0.000000 
#    z 0.000000 0.000000 1.708450 
# 
# From -- ./inp_files/29930.got.cif
#   From: 2010.03.12/outbox.cif.g09.slc.cpg/sg62_15_cif.got.tgz:29930.got - 2010.04.10 19:12:36.
