data_PCOD8250858
_publ_section_title
;
Structure prediction by ZEFSAII (Michael W. Deem and Ramdas Pophale) SiO2 
 PCOD8250858
Probable space group: P N M A
;
_chemical_formula_sum "Si O2"
_cell_formula_units_Z 48
_cell_length_a 13.567163
_cell_length_b 8.970403
_cell_length_c 23.623294
_cell_angle_alpha 90.000000
_cell_angle_beta 90.000000
_cell_angle_gamma 90.000000
_cell_volume 2875.023852
_symmetry_space_group_name_H-M "P N M A"
_symmetry_group_IT_number 62
_symmetry_cell_setting 'orthorhombic'
loop_
_space_group_symop_operation_xyz
x,y,z
1/2-x,-y,1/2+z
1/2+x,1/2-y,1/2-z
-x,1/2+y,-z
-x,-y,-z
1/2+x,y,1/2-z
1/2-x,1/2+y,1/2+z
x,1/2-y,z
loop_
_atom_site_type_symbol
_atom_site_label
_atom_site_fract_x
_atom_site_fract_y
_atom_site_fract_z
Si Si1 0.108075 0.423229 0.934427
Si Si2 0.221120 0.575945 0.837655
Si Si3 0.707644 0.421011 0.328195
Si Si4 0.905811 0.078856 0.271110
Si Si5 0.906465 0.920872 0.937484
Si Si6 0.108232 0.574598 0.273158
O O1 0.116288 0.250000 0.919745
O O2 0.186967 0.512022 0.897583
O O3 0.997719 0.475848 0.920414
O O4 0.133236 0.457948 0.999951
O O5 0.241246 0.750000 0.843572
O O6 0.137895 0.542464 0.790771
O O7 0.323286 0.499141 0.820677
O O8 0.686132 0.250000 0.310585
O O9 0.822552 0.456190 0.318223
O O10 0.682284 0.451140 0.393727
O O11 0.638463 0.522852 0.289505
O O12 0.940897 0.250000 0.274108
O O13 0.995972 0.971284 0.284729
O O14 0.943144 0.750000 0.934417
O O15 0.118846 0.750000 0.277799
#
# Coordination Sequence:
#
# PCOD8250858 Si02
#       6
#     8   8   8   8   8   8
#     4  10  19  30  47  73 101 126 157 199 240 277
#     4  10  20  34  51  69  94 129 163 193 231 284
#     4   9  18  33  51  69  93 128 163 191 226 279
#     4   9  18  32  49  68  91 122 158 192 229 277
#     4   9  18  32  49  70  98 131 162 192 233 285
#     4  11  21  31  47  72  99 123 151 194 241 280
#
# _framework density 16.695513999999999
#
# number of rings (size 3 to 8) (size 9 to 14) (size 15 to 20)
#    0.000    2.333    0.000    4.500    0.000    8.667 
#    0.000    0.000    0.000    1.000    0.000    0.000 
#    0.000    0.000    0.000    0.000    0.000    0.000 
#
# Total GULP energy -595321.398305 kJ/mol
# GULP energy per Si atom -12402.529131 kJ/mol
# Density = 1.665751 g / cm^3
# Si number density = 16.695514 Si / 1000 Ang^3
#
#
#
# Elastic Constant Matrix: (Units=GPa)
#
#
# Indices 1 2 3 4 5 6 
#
# 1 111.2062 61.1781 62.6838 0.0000 0.0000 0.0000
# 2 61.1781 103.4874 49.9695 0.0000 0.0000 0.0000
# 3 62.6838 49.9695 107.2735 0.0000 0.0000 0.0000
# 4 0.0000 0.0000 0.0000 26.0182 0.0000 0.0000
# 5 0.0000 0.0000 0.0000 0.0000 27.0672 0.0000
# 6 0.0000 0.0000 0.0000 0.0000 0.0000 24.6245
#
#
#
# Elastic Compliance Matrix: (Units=1/GPa)
#
#
# Indices 1 2 3 4 5 6 
#
# 1 0.016174 -0.006448 -0.006447 0.000000 0.000000 0.000000
# 2 -0.006448 0.015038 -0.003237 0.000000 0.000000 0.000000
# 3 -0.006447 -0.003237 0.014597 0.000000 0.000000 0.000000
# 4 0.000000 0.000000 0.000000 0.038435 0.000000 0.000000
# 5 0.000000 0.000000 0.000000 0.000000 0.036945 0.000000
# 6 0.000000 0.000000 0.000000 0.000000 0.000000 0.040610
#
#
# Mechanical properties :
#
#
# Convention : Reuss Voigt Hill
#
# Bulk Modulus (GPa) = 73.83342 74.40330 74.11836
# Shear Modulus (GPa) = 25.17899 25.41771 25.29835
#
# Velocity S-wave (km/s) = 3.88768 3.90606 3.89688
# Velocity P-wave (km/s) = 8.02942 8.06255 8.04600
#
# Compressibility (1/GPa) = 0.01354400
#
# Stress axis : x y z
#
# Youngs Moduli (GPa) = 61.82817 66.49826 68.50663
#
# Poissons Ratio (x) = 0.42880 0.44168
# Poissons Ratio (y) = 0.39869 0.22175
# Poissons Ratio (z) = 0.39862 0.21525
#
# Static dielectric constant tensor:
#      x y z
#    x 3.024420 0.000000 0.000000 
#    y 0.000000 3.177190 0.000000 
#    z 0.000000 0.000000 3.157610 
# 
# 
# High freq. dielectric constant tensor:
#      x y z
#    x 1.630470 0.000000 0.000000 
#    y 0.000000 1.650190 0.000000 
#    z 0.000000 0.000000 1.634110 
# 
# From -- ./inp_files/29219.got.cif
#   From: 2010.03.12/outbox.cif.g09.slc.cpg/sg62_15_cif.got.tgz:29219.got - 2010.04.10 19:12:36.
