data_PCOD8250172
_publ_section_title
;
Structure prediction by ZEFSAII (Michael W. Deem and Ramdas Pophale) SiO2 
 PCOD8250172
Probable space group: P N M A
;
_chemical_formula_sum "Si O2"
_cell_formula_units_Z 64
_cell_length_a 26.722505
_cell_length_b 9.016816
_cell_length_c 17.969304
_cell_angle_alpha 90.000000
_cell_angle_beta 90.000000
_cell_angle_gamma 90.000000
_cell_volume 4329.738132
_symmetry_space_group_name_H-M "P N M A"
_symmetry_group_IT_number 62
_symmetry_cell_setting 'orthorhombic'
loop_
_space_group_symop_operation_xyz
x,y,z
1/2-x,-y,1/2+z
1/2+x,1/2-y,1/2-z
-x,1/2+y,-z
-x,-y,-z
1/2+x,y,1/2-z
1/2-x,1/2+y,1/2+z
x,1/2-y,z
loop_
_atom_site_type_symbol
_atom_site_label
_atom_site_fract_x
_atom_site_fract_y
_atom_site_fract_z
Si Si1 0.252573 0.578123 0.926547
Si Si2 0.298488 0.585987 0.303688
Si Si3 0.850516 0.577123 0.668503
Si Si4 0.948614 0.924705 0.584106
Si Si5 0.951406 0.576180 0.414293
Si Si6 0.150808 0.075733 0.659028
Si Si7 0.243266 0.926012 0.582195
Si Si8 0.300143 0.415880 0.705050
O O1 0.246555 0.750000 0.947556
O O2 0.207883 0.532083 0.869949
O O3 0.305843 0.544583 0.888998
O O4 0.247515 0.477041 0.998424
O O5 0.308122 0.750000 0.337464
O O6 0.343207 0.539914 0.247223
O O7 0.249524 0.589217 0.253393
O O8 0.852938 0.750000 0.687184
O O9 0.901460 0.518019 0.631400
O O10 0.843730 0.491412 0.746248
O O11 0.953594 0.750000 0.590428
O O12 0.940411 0.974350 0.498810
O O13 0.999055 0.996592 0.616839
O O14 0.960689 0.750000 0.409541
O O15 0.904746 0.526587 0.363885
O O16 0.160217 0.250000 0.643132
O O17 0.189843 0.985595 0.609310
O O18 0.243500 0.750000 0.587415
O O19 0.289103 0.989117 0.631256
O O20 0.316948 0.250000 0.682399
#
# Coordination Sequence:
#
# PCOD8250172 Si02
#       8
#     8   8   8   8   8   8   8   8
#     4  10  18  28  42  59  82 110 138 168 203 243
#     4   8  15  27  41  58  79 103 133 168 204 242
#     4   9  17  29  44  60  81 111 143 173 208 246
#     4   9  17  28  41  59  84 111 140 175 209 240
#     4   9  17  29  43  59  81 110 142 174 208 242
#     4   9  17  30  45  59  80 110 141 173 209 246
#     4  11  20  28  41  61  84 109 139 171 203 244
#     4   9  17  29  43  59  81 107 136 170 206 244
#
# _framework density 14.781495
#
# number of rings (size 3 to 8) (size 9 to 14) (size 15 to 20)
#    0.000    2.750    0.000    3.375    0.000    6.500 
#    0.000    2.500    0.000    0.000    0.000    0.000 
#    0.000    1.000    0.000    3.000    0.000    4.625 
#
# Total GULP energy -793477.141021 kJ/mol
# GULP energy per Si atom -12398.080328 kJ/mol
# Density = 1.474785 g / cm^3
# Si number density = 14.781495 Si / 1000 Ang^3
#
#
#
# Elastic Constant Matrix: (Units=GPa)
#
#
# Indices 1 2 3 4 5 6 
#
# 1 93.5112 35.9688 54.4846 0.0000 0.0000 0.0000
# 2 35.9688 72.7779 47.0896 0.0000 0.0000 0.0000
# 3 54.4846 47.0896 82.3106 0.0000 0.0000 0.0000
# 4 0.0000 0.0000 0.0000 25.7439 0.0000 0.0000
# 5 0.0000 0.0000 0.0000 0.0000 26.1230 0.0000
# 6 0.0000 0.0000 0.0000 0.0000 0.0000 21.4845
#
#
#
# Elastic Compliance Matrix: (Units=1/GPa)
#
#
# Indices 1 2 3 4 5 6 
#
# 1 0.017561 -0.001838 -0.010573 0.000000 0.000000 0.000000
# 2 -0.001838 0.022008 -0.011374 0.000000 0.000000 0.000000
# 3 -0.010573 -0.011374 0.025655 0.000000 0.000000 0.000000
# 4 0.000000 0.000000 0.000000 0.038844 0.000000 0.000000
# 5 0.000000 0.000000 0.000000 0.000000 0.038280 0.000000
# 6 0.000000 0.000000 0.000000 0.000000 0.000000 0.046545
#
#
# Mechanical properties :
#
#
# Convention : Reuss Voigt Hill
#
# Bulk Modulus (GPa) = 56.64437 58.18730 57.41583
# Shear Modulus (GPa) = 20.63140 22.07406 21.35273
#
# Velocity S-wave (km/s) = 3.74004 3.86859 3.80486
# Velocity P-wave (km/s) = 7.55347 7.70747 7.63086
#
# Compressibility (1/GPa) = 0.01765401
#
# Stress axis : x y z
#
# Youngs Moduli (GPa) = 56.94334 45.43730 38.97924
#
# Poissons Ratio (x) = 0.08353 0.41212
# Poissons Ratio (y) = 0.10468 0.44335
# Poissons Ratio (z) = 0.60205 0.51680
#
# Static dielectric constant tensor:
#      x y z
#    x 2.811330 0.000000 0.000000 
#    y 0.000000 2.915350 0.000000 
#    z 0.000000 0.000000 2.902810 
# 
# 
# High freq. dielectric constant tensor:
#      x y z
#    x 1.533870 0.000000 0.000000 
#    y 0.000000 1.571770 0.000000 
#    z 0.000000 0.000000 1.552190 
# 
# From -- ./inp_files/21206.got.cif
#   From: 2010.03.12/outbox.cif.g09.slc.cpg/sg62_11_cif.got.tgz:21206.got - 2010.04.10 19:12:36.
