data_PCOD8250497
_publ_section_title
;
Structure prediction by ZEFSAII (Michael W. Deem and Ramdas Pophale) SiO2 
 PCOD8250497
Probable space group: P N M A
;
_chemical_formula_sum "Si O2"
_cell_formula_units_Z 56
_cell_length_a 14.748753
_cell_length_b 13.497550
_cell_length_c 14.694970
_cell_angle_alpha 90.000000
_cell_angle_beta 90.000000
_cell_angle_gamma 90.000000
_cell_volume 2925.357524
_symmetry_space_group_name_H-M "P N M A"
_symmetry_group_IT_number 62
_symmetry_cell_setting 'orthorhombic'
loop_
_space_group_symop_operation_xyz
x,y,z
1/2-x,-y,1/2+z
1/2+x,1/2-y,1/2-z
-x,1/2+y,-z
-x,-y,-z
1/2+x,y,1/2-z
1/2-x,1/2+y,1/2+z
x,1/2-y,z
loop_
_atom_site_type_symbol
_atom_site_label
_atom_site_fract_x
_atom_site_fract_y
_atom_site_fract_z
Si Si1 0.465837 0.988326 0.256247
Si Si2 0.030064 0.634728 0.077005
Si Si3 0.896406 0.641445 0.737085
Si Si4 0.785066 0.048693 0.979687
Si Si5 0.275716 0.469851 0.311724
Si Si6 0.371805 0.857900 0.560632
Si Si7 0.318745 0.866048 0.182359
O O1 0.523769 0.933475 0.334069
O O2 0.423063 0.903744 0.190529
O O3 0.533569 0.059217 0.197702
O O4 0.382488 0.055260 0.296798
O O5 0.031488 0.750000 0.104619
O O6 0.120664 0.608173 0.022384
O O7 0.944121 0.609054 0.014926
O O8 0.910274 0.750000 0.691473
O O9 0.790889 0.611975 0.730454
O O10 0.922699 0.647502 0.843272
O O11 0.713183 0.109942 0.919994
O O12 0.792711 0.939062 0.936563
O O13 0.750694 0.031344 0.081893
O O14 0.258864 0.576371 0.260385
O O15 0.330283 0.750000 0.536538
O O16 0.311292 0.750000 0.202415
#
# Coordination Sequence:
#
# PCOD8250497 Si02
#       7
#     8   8   8   8   8   8   8
#     4  10  20  38  61  84 120 160 201 246 304 359
#     4  11  20  31  57  91 122 151 193 248 311 370
#     4  11  22  38  57  83 120 160 197 242 299 360
#     4  12  20  36  60  90 120 157 202 253 302 362
#     4  10  23  37  63  88 125 155 203 251 302 361
#     4  10  18  31  53  83 118 153 184 235 304 360
#     4  10  22  40  60  85 124 164 200 248 305 360
#
# _framework density 19.142959999999999
#
# number of rings (size 3 to 8) (size 9 to 14) (size 15 to 20)
#    0.857    0.571    4.286    2.143    0.000    2.286 
#    0.000    2.143    0.000    0.000    0.000    0.000 
#    0.000    0.000    0.000    0.000    0.000    0.000 
#
# Total GULP energy -693888.853701 kJ/mol
# GULP energy per Si atom -12390.872388 kJ/mol
# Density = 1.909939 g / cm^3
# Si number density = 19.142960 Si / 1000 Ang^3
#
#
#
# Elastic Constant Matrix: (Units=GPa)
#
#
# Indices 1 2 3 4 5 6 
#
# 1 55.8088 43.6608 18.2271 0.0000 0.0000 0.0000
# 2 43.6608 124.8962 25.2914 0.0000 0.0000 0.0000
# 3 18.2271 25.2914 59.7388 0.0000 0.0000 0.0000
# 4 0.0000 0.0000 0.0000 19.1305 0.0000 0.0000
# 5 0.0000 0.0000 0.0000 0.0000 19.6024 0.0000
# 6 0.0000 0.0000 0.0000 0.0000 0.0000 26.3340
#
#
#
# Elastic Compliance Matrix: (Units=1/GPa)
#
#
# Indices 1 2 3 4 5 6 
#
# 1 0.025685 -0.008085 -0.004414 0.000000 0.000000 0.000000
# 2 -0.008085 0.011302 -0.002318 0.000000 0.000000 0.000000
# 3 -0.004414 -0.002318 0.019068 0.000000 0.000000 0.000000
# 4 0.000000 0.000000 0.000000 0.052273 0.000000 0.000000
# 5 0.000000 0.000000 0.000000 0.000000 0.051014 0.000000
# 6 0.000000 0.000000 0.000000 0.000000 0.000000 0.037974
#
#
# Mechanical properties :
#
#
# Convention : Reuss Voigt Hill
#
# Bulk Modulus (GPa) = 37.84889 46.08915 41.96902
# Shear Modulus (GPa) = 21.20827 23.23101 22.21964
#
# Velocity S-wave (km/s) = 3.33211 3.48739 3.41063
# Velocity P-wave (km/s) = 5.88375 6.35172 6.12221
#
# Compressibility (1/GPa) = 0.02642085
#
# Stress axis : x y z
#
# Youngs Moduli (GPa) = 38.93314 88.47647 52.44462
#
# Poissons Ratio (x) = 0.71534 0.23149
# Poissons Ratio (y) = 0.31478 0.12158
# Poissons Ratio (z) = 0.17185 0.20511
#
# Static dielectric constant tensor:
#      x y z
#    x 3.284020 0.000000 0.000000 
#    y 0.000000 3.685890 0.000000 
#    z 0.000000 0.000000 3.294720 
# 
# 
# High freq. dielectric constant tensor:
#      x y z
#    x 1.718850 0.000000 0.000000 
#    y 0.000000 1.755660 0.000000 
#    z 0.000000 0.000000 1.720850 
# 
# From -- ./inp_files/19139.got.cif
#   From: 2010.03.12/outbox.cif.g09.slc.cpg/sg62_10_cif.got.tgz:19139.got - 2010.04.10 19:12:36.
