data_PCOD8250042
_publ_section_title
;
Structure prediction by ZEFSAII (Michael W. Deem and Ramdas Pophale) SiO2 
 PCOD8250042
Probable space group: P N M A
;
_chemical_formula_sum "Si O2"
_cell_formula_units_Z 48
_cell_length_a 16.825130
_cell_length_b 24.899440
_cell_length_c 5.334789
_cell_angle_alpha 90.000000
_cell_angle_beta 90.000000
_cell_angle_gamma 90.000000
_cell_volume 2234.936845
_symmetry_space_group_name_H-M "P N M A"
_symmetry_group_IT_number 62
_symmetry_cell_setting 'orthorhombic'
loop_
_space_group_symop_operation_xyz
x,y,z
1/2-x,-y,1/2+z
1/2+x,1/2-y,1/2-z
-x,1/2+y,-z
-x,-y,-z
1/2+x,y,1/2-z
1/2-x,1/2+y,1/2+z
x,1/2-y,z
loop_
_atom_site_type_symbol
_atom_site_label
_atom_site_fract_x
_atom_site_fract_y
_atom_site_fract_z
Si Si1 0.951278 0.988307 0.750005
Si Si2 0.780791 0.027137 0.768875
Si Si3 0.743297 0.812200 0.747869
Si Si4 0.760128 0.150258 0.747814
Si Si5 0.585191 0.363976 0.250201
Si Si6 0.580692 0.187735 0.750170
O O1 0.921058 0.927650 0.750375
O O2 0.875733 0.027593 0.747469
O O3 0.000000 0.000000 0.500000
O O4 0.000000 0.000000 0.000000
O O5 0.747766 0.086956 0.742718
O O6 0.743090 0.993572 0.542950
O O7 0.766191 0.750000 0.744982
O O8 0.693845 0.829558 0.499008
O O9 0.822234 0.848620 0.750888
O O10 0.693957 0.828569 0.998276
O O11 0.675515 0.180528 0.750810
O O12 0.543855 0.339867 0.500540
O O13 0.543874 0.339872 0.999851
O O14 0.558087 0.250000 0.750041
#
# Coordination Sequence:
#
# PCOD8250042 Si02
#       6
#     8   8   8   8   8   8
#     4  12  26  43  61  88 128 175 213 254 313 376
#     4  12  23  40  64  92 123 161 211 262 304 360
#     4  10  18  31  53  88 119 146 188 254 313 357
#     4  10  18  29  49  80 115 146 182 240 305 352
#     4  10  18  32  51  76 112 152 193 239 291 356
#     4  10  17  29  52  88 117 142 187 257 314 353
#
# _framework density 21.477115999999999
#
# number of rings (size 3 to 8) (size 9 to 14) (size 15 to 20)
#    0.000    1.333    0.000   12.000    0.000    0.000 
#    0.000    0.000    0.000    0.000    0.000   39.667 
#    0.000    0.000    0.000    0.000    0.000    0.000 
#
# Total GULP energy -594981.982919 kJ/mol
# GULP energy per Si atom -12395.457977 kJ/mol
# Density = 2.142823 g / cm^3
# Si number density = 21.477116 Si / 1000 Ang^3
#
#
#
# Elastic Constant Matrix: (Units=GPa)
#
#
# Indices 1 2 3 4 5 6 
#
# 1 45.8932 1.8680 14.9948 0.0000 0.0000 0.0000
# 2 1.8680 139.4282 49.1052 0.0000 0.0000 0.0000
# 3 14.9948 49.1052 236.3447 0.0000 0.0000 0.0000
# 4 0.0000 0.0000 0.0000 48.1759 0.0000 0.0000
# 5 0.0000 0.0000 0.0000 0.0000 19.1328 0.0000
# 6 0.0000 0.0000 0.0000 0.0000 0.0000 16.2534
#
#
#
# Elastic Compliance Matrix: (Units=1/GPa)
#
#
# Indices 1 2 3 4 5 6 
#
# 1 0.022257 0.000215 -0.001457 0.000000 0.000000 0.000000
# 2 0.000215 0.007740 -0.001622 0.000000 0.000000 0.000000
# 3 -0.001457 -0.001622 0.004661 0.000000 0.000000 0.000000
# 4 0.000000 0.000000 0.000000 0.020757 0.000000 0.000000
# 5 0.000000 0.000000 0.000000 0.000000 0.052266 0.000000
# 6 0.000000 0.000000 0.000000 0.000000 0.000000 0.061526
#
#
# Mechanical properties :
#
#
# Convention : Reuss Voigt Hill
#
# Bulk Modulus (GPa) = 34.56569 61.51137 48.03853
# Shear Modulus (GPa) = 27.08881 40.42562 33.75721
#
# Velocity S-wave (km/s) = 3.55531 4.34321 3.96886
# Velocity P-wave (km/s) = 5.74307 7.33852 6.58926
#
# Compressibility (1/GPa) = 0.02893042
#
# Stress axis : x y z
#
# Youngs Moduli (GPa) = 44.92984 129.19105 214.56911
#
# Poissons Ratio (x) = -0.02776 0.31257
# Poissons Ratio (y) = -0.00965 0.34800
# Poissons Ratio (z) = 0.06545 0.20953
#
# Static dielectric constant tensor:
#      x y z
#    x 3.191570 0.000000 0.000000 
#    y 0.000000 3.949610 0.000000 
#    z 0.000000 0.000000 6.968340 
# 
# 
# High freq. dielectric constant tensor:
#      x y z
#    x 1.758830 0.000000 0.000000 
#    y 0.000000 1.858870 0.000000 
#    z 0.000000 0.000000 1.894180 
# 
# From -- ./inp_files/1697.got.cif
#   From: 2010.03.12/outbox.cif.g09.slc.cpg/sg62_1_cif.got.tgz:1697.got - 2010.04.10 19:12:36.
