data_PCOD8250167
_publ_section_title
;
Structure prediction by ZEFSAII (Michael W. Deem and Ramdas Pophale) SiO2 
 PCOD8250167
Probable space group: P N M A
;
_chemical_formula_sum "Si O2"
_cell_formula_units_Z 64
_cell_length_a 18.523463
_cell_length_b 8.720780
_cell_length_c 26.624704
_cell_angle_alpha 90.000000
_cell_angle_beta 90.000000
_cell_angle_gamma 90.000000
_cell_volume 4300.929275
_symmetry_space_group_name_H-M "P N M A"
_symmetry_group_IT_number 62
_symmetry_cell_setting 'orthorhombic'
loop_
_space_group_symop_operation_xyz
x,y,z
1/2-x,-y,1/2+z
1/2+x,1/2-y,1/2-z
-x,1/2+y,-z
-x,-y,-z
1/2+x,y,1/2-z
1/2-x,1/2+y,1/2+z
x,1/2-y,z
loop_
_atom_site_type_symbol
_atom_site_label
_atom_site_fract_x
_atom_site_fract_y
_atom_site_fract_z
Si Si1 0.715142 0.920168 0.298048
Si Si2 0.695488 0.082319 0.696500
Si Si3 0.332533 0.066084 0.852305
Si Si4 0.090147 0.431607 0.257644
Si Si5 0.420467 0.069256 0.945545
Si Si6 0.434608 0.934145 0.243924
Si Si7 0.571204 0.928668 0.942889
Si Si8 0.154040 0.570462 0.655092
O O1 0.696127 0.750000 0.318444
O O2 0.759194 0.904747 0.247229
O O3 0.641959 0.013966 0.287616
O O4 0.764600 0.008763 0.338443
O O5 0.676726 0.250000 0.675222
O O6 0.750105 0.001033 0.656578
O O7 0.619584 0.002708 0.711537
O O8 0.332659 0.250000 0.846036
O O9 0.358532 0.011086 0.907217
O O10 0.386928 0.998893 0.811250
O O11 0.090584 0.250000 0.260712
O O12 0.010993 0.491960 0.244539
O O13 0.423214 0.250000 0.943236
O O14 0.497437 0.009677 0.926553
O O15 0.403029 0.011353 0.002108
O O16 0.438409 0.750000 0.244267
O O17 0.404087 0.986268 0.190209
O O18 0.553840 0.750000 0.945554
O O19 0.632903 0.965248 0.902484
O O20 0.151558 0.750000 0.667464
#
# Coordination Sequence:
#
# PCOD8250167 Si02
#       8
#     8   8   8   8   8   8   8   8
#     4   9  17  30  44  58  78 105 137 167 199 243
#     4   7  13  25  40  56  73  96 127 164 196 228
#     4   9  16  28  44  59  77 105 141 172 201 240
#     4  11  20  28  40  60  84 107 134 168 206 243
#     4   9  17  28  42  58  78 108 143 175 204 237
#     4  10  18  28  41  57  80 109 139 167 200 244
#     4   9  18  29  39  56  83 110 137 172 209 241
#     4  10  18  28  42  60  83 109 138 172 209 244
#
# _framework density 14.880506
#
# number of rings (size 3 to 8) (size 9 to 14) (size 15 to 20)
#    0.000    2.750    0.000    4.500    0.000    3.500 
#    0.000    0.625    0.000    0.000    0.000    0.000 
#    0.000    1.000    0.000    1.750    0.000    2.500 
#
# Total GULP energy -792982.561321 kJ/mol
# GULP energy per Si atom -12390.352521 kJ/mol
# Density = 1.484664 g / cm^3
# Si number density = 14.880506 Si / 1000 Ang^3
#
#
#
# Elastic Constant Matrix: (Units=GPa)
#
#
# Indices 1 2 3 4 5 6 
#
# 1 114.3078 28.0001 55.5290 0.0000 0.0000 0.0000
# 2 28.0001 48.2743 21.2388 0.0000 0.0000 0.0000
# 3 55.5290 21.2388 78.3167 0.0000 0.0000 0.0000
# 4 0.0000 0.0000 0.0000 14.8885 0.0000 0.0000
# 5 0.0000 0.0000 0.0000 0.0000 24.0052 0.0000
# 6 0.0000 0.0000 0.0000 0.0000 0.0000 21.6269
#
#
#
# Elastic Compliance Matrix: (Units=1/GPa)
#
#
# Indices 1 2 3 4 5 6 
#
# 1 0.014085 -0.004287 -0.008824 0.000000 0.000000 0.000000
# 2 -0.004287 0.024826 -0.003693 0.000000 0.000000 0.000000
# 3 -0.008824 -0.003693 0.020027 0.000000 0.000000 0.000000
# 4 0.000000 0.000000 0.000000 0.067166 0.000000 0.000000
# 5 0.000000 0.000000 0.000000 0.000000 0.041658 0.000000
# 6 0.000000 0.000000 0.000000 0.000000 0.000000 0.046239
#
#
# Mechanical properties :
#
#
# Convention : Reuss Voigt Hill
#
# Bulk Modulus (GPa) = 39.47944 50.04829 44.76386
# Shear Modulus (GPa) = 19.52727 21.17953 20.35340
#
# Velocity S-wave (km/s) = 3.62646 3.77677 3.70238
# Velocity P-wave (km/s) = 6.64255 7.26120 6.95876
#
# Compressibility (1/GPa) = 0.02532964
#
# Stress axis : x y z
#
# Youngs Moduli (GPa) = 70.99683 40.27965 49.93341
#
# Poissons Ratio (x) = 0.17270 0.44062
# Poissons Ratio (y) = 0.30439 0.18439
# Poissons Ratio (z) = 0.62648 0.14874
#
# Static dielectric constant tensor:
#      x y z
#    x 3.128310 0.000000 0.000000 
#    y 0.000000 2.878820 0.000000 
#    z 0.000000 0.000000 2.943040 
# 
# 
# High freq. dielectric constant tensor:
#      x y z
#    x 1.562670 0.000000 0.000000 
#    y 0.000000 1.568890 0.000000 
#    z 0.000000 0.000000 1.536650 
# 
# From -- ./inp_files/31335.got.cif
#   From: 2010.03.12/outbox.cif.g09.slc.cpg/sg62_16_cif.got.tgz:31335.got - 2010.04.10 19:12:36.
