data_PCOD8250941
_publ_section_title
;
Structure prediction by ZEFSAII (Michael W. Deem and Ramdas Pophale) SiO2 
 PCOD8250941
Probable space group: P N M A
;
_chemical_formula_sum "Si O2"
_cell_formula_units_Z 64
_cell_length_a 30.379580
_cell_length_b 8.850346
_cell_length_c 14.420916
_cell_angle_alpha 90.000000
_cell_angle_beta 90.000000
_cell_angle_gamma 90.000000
_cell_volume 3877.348719
_symmetry_space_group_name_H-M "P N M A"
_symmetry_group_IT_number 62
_symmetry_cell_setting 'orthorhombic'
loop_
_space_group_symop_operation_xyz
x,y,z
1/2-x,-y,1/2+z
1/2+x,1/2-y,1/2-z
-x,1/2+y,-z
-x,-y,-z
1/2+x,y,1/2-z
1/2-x,1/2+y,1/2+z
x,1/2-y,z
loop_
_atom_site_type_symbol
_atom_site_label
_atom_site_fract_x
_atom_site_fract_y
_atom_site_fract_z
Si Si1 0.200784 0.929991 0.335817
Si Si2 0.956393 0.070726 0.892354
Si Si3 0.869671 0.419459 0.799259
Si Si4 0.286816 0.572351 0.228923
Si Si5 0.546628 0.927203 0.607868
Si Si6 0.183164 0.579855 0.016246
Si Si7 0.366812 0.928111 0.358376
Si Si8 0.773280 0.426276 0.465128
O O1 0.202030 0.750000 0.324271
O O2 0.156196 0.996680 0.287457
O O3 0.244956 0.995334 0.285497
O O4 0.198553 0.974547 0.444159
O O5 0.961557 0.250000 0.880950
O O6 0.915392 0.003370 0.831964
O O7 0.948052 0.030810 0.999678
O O8 0.999821 0.987471 0.855233
O O9 0.882597 0.250000 0.771488
O O10 0.833810 0.418844 0.879829
O O11 0.281751 0.750000 0.222445
O O12 0.332103 0.525927 0.279083
O O13 0.290345 0.512208 0.124704
O O14 0.550227 0.750000 0.626342
O O15 0.584306 0.013548 0.667073
O O16 0.196701 0.750000 0.986690
O O17 0.144816 0.517622 0.951542
O O18 0.223547 0.466192 0.008917
O O19 0.366694 0.750000 0.376409
O O20 0.776745 0.250000 0.445373
#
# Coordination Sequence:
#
# PCOD8250941 Si02
#       8
#     8   8   8   8   8   8   8   8
#     4   9  17  31  49  69  96 129 163 201 242 285
#     4   9  17  30  47  70  96 127 164 196 237 296
#     4   9  16  29  49  69  92 129 168 195 231 289
#     4  10  20  35  51  68  97 135 168 201 247 292
#     4  10  19  31  47  71  99 128 161 199 247 296
#     4  11  19  30  49  71  98 134 169 201 243 290
#     4  11  21  33  49  71  99 133 170 207 244 288
#     4  11  21  33  48  72 100 129 169 210 245 283
#
# _framework density 16.506124
#
# number of rings (size 3 to 8) (size 9 to 14) (size 15 to 20)
#    0.000    2.000    3.750    1.500    0.000    1.500 
#    0.000    0.000    0.000    0.000    0.000    0.875 
#    0.000    0.000    0.000    0.000    0.000    0.000 
#
# Total GULP energy -793299.681733 kJ/mol
# GULP energy per Si atom -12395.307527 kJ/mol
# Density = 1.646856 g / cm^3
# Si number density = 16.506124 Si / 1000 Ang^3
#
#
#
# Elastic Constant Matrix: (Units=GPa)
#
#
# Indices 1 2 3 4 5 6 
#
# 1 105.6662 20.3808 33.9997 0.0000 0.0000 0.0000
# 2 20.3808 25.0315 14.4578 0.0000 0.0000 0.0000
# 3 33.9997 14.4578 65.2300 0.0000 0.0000 0.0000
# 4 0.0000 0.0000 0.0000 20.1895 0.0000 0.0000
# 5 0.0000 0.0000 0.0000 0.0000 22.3520 0.0000
# 6 0.0000 0.0000 0.0000 0.0000 0.0000 22.9673
#
#
#
# Elastic Compliance Matrix: (Units=1/GPa)
#
#
# Indices 1 2 3 4 5 6 
#
# 1 0.012440 -0.007321 -0.004861 0.000000 0.000000 0.000000
# 2 -0.007321 0.050123 -0.007294 0.000000 0.000000 0.000000
# 3 -0.004861 -0.007294 0.019481 0.000000 0.000000 0.000000
# 4 0.000000 0.000000 0.000000 0.049531 0.000000 0.000000
# 5 0.000000 0.000000 0.000000 0.000000 0.044739 0.000000
# 6 0.000000 0.000000 0.000000 0.000000 0.000000 0.043540
#
#
# Mechanical properties :
#
#
# Convention : Reuss Voigt Hill
#
# Bulk Modulus (GPa) = 23.20610 37.06712 30.13661
# Shear Modulus (GPa) = 18.30366 21.57439 19.93903
#
# Velocity S-wave (km/s) = 3.33363 3.61924 3.47937
# Velocity P-wave (km/s) = 5.37653 6.32223 5.86846
#
# Compressibility (1/GPa) = 0.04309211
#
# Stress axis : x y z
#
# Youngs Moduli (GPa) = 80.38546 19.95092 51.33240
#
# Poissons Ratio (x) = 0.14606 0.24955
# Poissons Ratio (y) = 0.58849 0.37440
# Poissons Ratio (z) = 0.39079 0.14551
#
# Static dielectric constant tensor:
#      x y z
#    x 3.257220 0.000000 0.000000 
#    y 0.000000 2.947820 0.000000 
#    z 0.000000 0.000000 3.033740 
# 
# 
# High freq. dielectric constant tensor:
#      x y z
#    x 1.633960 0.000000 0.000000 
#    y 0.000000 1.620860 0.000000 
#    z 0.000000 0.000000 1.607940 
# 
# From -- ./inp_files/21212.got.cif
#   From: 2010.03.12/outbox.cif.g09.slc.cpg/sg62_11_cif.got.tgz:21212.got - 2010.04.10 19:12:36.
