data_PCOD8250734
_publ_section_title
;
Structure prediction by ZEFSAII (Michael W. Deem and Ramdas Pophale) SiO2 
 PCOD8250734
Probable space group: P N M A
;
_chemical_formula_sum "Si O2"
_cell_formula_units_Z 64
_cell_length_a 16.724615
_cell_length_b 8.501914
_cell_length_c 22.275176
_cell_angle_alpha 90.000000
_cell_angle_beta 90.000000
_cell_angle_gamma 90.000000
_cell_volume 3167.334861
_symmetry_space_group_name_H-M "P N M A"
_symmetry_group_IT_number 62
_symmetry_cell_setting 'orthorhombic'
loop_
_space_group_symop_operation_xyz
x,y,z
1/2-x,-y,1/2+z
1/2+x,1/2-y,1/2-z
-x,1/2+y,-z
-x,-y,-z
1/2+x,y,1/2-z
1/2-x,1/2+y,1/2+z
x,1/2-y,z
loop_
_atom_site_type_symbol
_atom_site_label
_atom_site_fract_x
_atom_site_fract_y
_atom_site_fract_z
Si Si1 0.911580 0.565682 0.500395
Si Si2 0.497679 0.563731 0.433451
Si Si3 0.826280 0.065850 0.615051
Si Si4 0.854538 0.436521 0.852887
Si Si5 0.091295 0.067296 0.270570
Si Si6 0.583289 0.063821 0.768593
Si Si7 0.321072 0.563683 0.115325
Si Si8 0.150554 0.435788 0.857729
O O1 0.917719 0.750000 0.492322
O O2 0.867855 0.526761 0.561764
O O3 0.861598 0.493019 0.444606
O O4 0.000000 0.500000 0.500000
O O5 0.500000 0.500000 0.500000
O O6 0.495010 0.750000 0.435046
O O7 0.576009 0.506544 0.397745
O O8 0.419440 0.494494 0.399962
O O9 0.827535 0.250000 0.600432
O O10 0.736213 0.998551 0.621209
O O11 0.873932 0.037024 0.675972
O O12 0.858186 0.250000 0.841546
O O13 0.862304 0.523266 0.789762
O O14 0.770815 0.491437 0.881827
O O15 0.103464 0.250000 0.285252
O O16 0.998627 0.029182 0.263143
O O17 0.565654 0.250000 0.770147
O O18 0.630296 0.002954 0.826931
O O19 0.636405 0.016444 0.711217
O O20 0.324093 0.750000 0.114492
O O21 0.150682 0.250000 0.863433
#
# Coordination Sequence:
#
# PCOD8250734 Si02
#       8
#     8   8   8   8   8   8   8   8
#     4  11  23  41  62  91 126 158 201 247 297 357
#     4  10  21  37  60  89 122 159 198 240 293 354
#     4  11  23  40  63  87 117 161 205 247 299 355
#     4  10  20  40  65  87 116 158 202 242 294 359
#     4  12  24  38  58  90 124 154 196 251 307 356
#     4  10  18  37  64  87 115 154 200 245 297 363
#     4   9  20  36  62  91 114 150 199 247 293 350
#     4   9  19  37  61  89 116 152 205 249 287 348
#
# _framework density 20.206261999999999
#
# number of rings (size 3 to 8) (size 9 to 14) (size 15 to 20)
#    0.000    1.750    1.250    3.375    1.750    3.500 
#    0.000    5.625    0.000    0.000    0.000    0.000 
#    0.000    0.000    0.000    0.000    0.000    0.000 
#
# Total GULP energy -793797.290747 kJ/mol
# GULP energy per Si atom -12403.082668 kJ/mol
# Density = 2.016027 g / cm^3
# Si number density = 20.206262 Si / 1000 Ang^3
#
#
#
# Elastic Constant Matrix: (Units=GPa)
#
#
# Indices 1 2 3 4 5 6 
#
# 1 172.3020 18.9836 77.3347 0.0000 0.0000 0.0000
# 2 18.9836 33.2264 11.0648 0.0000 0.0000 0.0000
# 3 77.3347 11.0648 166.0325 0.0000 0.0000 0.0000
# 4 0.0000 0.0000 0.0000 30.1736 0.0000 0.0000
# 5 0.0000 0.0000 0.0000 0.0000 40.1709 0.0000
# 6 0.0000 0.0000 0.0000 0.0000 0.0000 19.1744
#
#
#
# Elastic Compliance Matrix: (Units=1/GPa)
#
#
# Indices 1 2 3 4 5 6 
#
# 1 0.007669 -0.003265 -0.003355 0.000000 0.000000 0.000000
# 2 -0.003265 0.032169 -0.000623 0.000000 0.000000 0.000000
# 3 -0.003355 -0.000623 0.007627 0.000000 0.000000 0.000000
# 4 0.000000 0.000000 0.000000 0.033142 0.000000 0.000000
# 5 0.000000 0.000000 0.000000 0.000000 0.024894 0.000000
# 6 0.000000 0.000000 0.000000 0.000000 0.000000 0.052153
#
#
# Mechanical properties :
#
#
# Convention : Reuss Voigt Hill
#
# Bulk Modulus (GPa) = 30.32088 65.14746 47.73417
# Shear Modulus (GPa) = 27.30278 35.51564 31.40921
#
# Velocity S-wave (km/s) = 3.67986 4.19699 3.94690
# Velocity P-wave (km/s) = 5.75269 7.46977 6.66674
#
# Compressibility (1/GPa) = 0.03298057
#
# Stress axis : x y z
#
# Youngs Moduli (GPa) = 130.39393 31.08552 131.11420
#
# Poissons Ratio (x) = 0.10148 0.43983
# Poissons Ratio (y) = 0.42568 0.08172
# Poissons Ratio (z) = 0.43741 0.01938
#
# Static dielectric constant tensor:
#      x y z
#    x 3.948700 0.000000 0.000000 
#    y 0.000000 3.277070 0.000000 
#    z 0.000000 0.000000 5.414440 
# 
# 
# High freq. dielectric constant tensor:
#      x y z
#    x 1.807950 0.000000 0.000000 
#    y 0.000000 1.756760 0.000000 
#    z 0.000000 0.000000 1.803270 
# 
# From -- ./inp_files/27672.got.cif
#   From: 2010.03.12/outbox.cif.g09.slc.cpg/sg62_14_cif.got.tgz:27672.got - 2010.04.10 19:12:36.
