data_PCOD8250554
_publ_section_title
;
Structure prediction by ZEFSAII (Michael W. Deem and Ramdas Pophale) SiO2 
 PCOD8250554
Probable space group: P N M A
;
_chemical_formula_sum "Si O2"
_cell_formula_units_Z 64
_cell_length_a 14.784086
_cell_length_b 18.773923
_cell_length_c 12.422162
_cell_angle_alpha 90.000000
_cell_angle_beta 90.000000
_cell_angle_gamma 90.000000
_cell_volume 3447.836804
_symmetry_space_group_name_H-M "P N M A"
_symmetry_group_IT_number 62
_symmetry_cell_setting 'orthorhombic'
loop_
_space_group_symop_operation_xyz
x,y,z
1/2-x,-y,1/2+z
1/2+x,1/2-y,1/2-z
-x,1/2+y,-z
-x,-y,-z
1/2+x,y,1/2-z
1/2-x,1/2+y,1/2+z
x,1/2-y,z
loop_
_atom_site_type_symbol
_atom_site_label
_atom_site_fract_x
_atom_site_fract_y
_atom_site_fract_z
Si Si1 0.515403 0.668078 0.122710
Si Si2 0.698411 0.515404 0.818160
Si Si3 0.797100 0.094058 0.953192
Si Si4 0.874802 0.541862 0.702223
Si Si5 0.966422 0.420616 0.828312
Si Si6 0.366218 0.667942 0.943921
Si Si7 0.641772 0.467212 0.599107
Si Si8 0.829284 0.422835 0.536700
O O1 0.525109 0.750000 0.151022
O O2 0.494767 0.626387 0.231695
O O3 0.432662 0.653208 0.043105
O O4 0.611198 0.643843 0.072112
O O5 0.726590 0.441985 0.873427
O O6 0.782399 0.556201 0.765241
O O7 0.631382 0.492893 0.723279
O O8 0.655777 0.567405 0.908340
O O9 0.880968 0.122511 0.880416
O O10 0.738759 0.151045 0.021754
O O11 0.846284 0.036229 0.027135
O O12 0.940915 0.500265 0.783924
O O13 0.902778 0.619580 0.656141
O O14 0.860713 0.494970 0.595140
O O15 0.045072 0.428792 0.919110
O O16 0.370153 0.750000 0.907068
O O17 0.723918 0.412190 0.572186
#
# Coordination Sequence:
#
# PCOD8250554 Si02
#       8
#     8   8   8   8   8   8   8   8
#     4  10  23  37  52  81 112 146 187 223 278 338
#     4   9  15  29  54  76 106 138 175 221 271 330
#     4  10  19  35  51  81 115 138 180 231 277 322
#     4   9  18  33  50  83 104 141 185 227 274 322
#     4  10  21  32  59  80 110 146 183 231 276 325
#     4  11  21  36  54  75 114 148 179 229 280 330
#     4  10  18  32  53  87 107 136 182 227 274 329
#     4   9  18  33  56  76 114 138 175 236 270 321
#
# _framework density 18.562363000000001
#
# number of rings (size 3 to 8) (size 9 to 14) (size 15 to 20)
#    0.000    2.250    3.750    1.875    1.750    1.500 
#    0.000    2.500    0.000    0.750    0.000    4.375 
#    0.000    0.000    0.000    0.000    0.000    0.000 
#
# Total GULP energy -792944.818800 kJ/mol
# GULP energy per Si atom -12389.762794 kJ/mol
# Density = 1.852011 g / cm^3
# Si number density = 18.562363 Si / 1000 Ang^3
#
#
#
# Elastic Constant Matrix: (Units=GPa)
#
#
# Indices 1 2 3 4 5 6 
#
# 1 80.7705 30.9181 2.2595 0.0000 0.0000 0.0000
# 2 30.9181 72.6930 6.5951 0.0000 0.0000 0.0000
# 3 2.2595 6.5951 49.2558 0.0000 0.0000 0.0000
# 4 0.0000 0.0000 0.0000 14.1595 0.0000 0.0000
# 5 0.0000 0.0000 0.0000 0.0000 24.2554 0.0000
# 6 0.0000 0.0000 0.0000 0.0000 0.0000 19.3815
#
#
#
# Elastic Compliance Matrix: (Units=1/GPa)
#
#
# Indices 1 2 3 4 5 6 
#
# 1 0.014790 -0.006306 0.000166 0.000000 0.000000 0.000000
# 2 -0.006306 0.016614 -0.001935 0.000000 0.000000 0.000000
# 3 0.000166 -0.001935 0.020554 0.000000 0.000000 0.000000
# 4 0.000000 0.000000 0.000000 0.070624 0.000000 0.000000
# 5 0.000000 0.000000 0.000000 0.000000 0.041228 0.000000
# 6 0.000000 0.000000 0.000000 0.000000 0.000000 0.051596
#
#
# Mechanical properties :
#
#
# Convention : Reuss Voigt Hill
#
# Bulk Modulus (GPa) = 27.92707 31.36273 29.64490
# Shear Modulus (GPa) = 20.53467 22.42239 21.47853
#
# Velocity S-wave (km/s) = 3.32965 3.47933 3.40531
# Velocity P-wave (km/s) = 5.46440 5.75096 5.60951
#
# Compressibility (1/GPa) = 0.03580755
#
# Stress axis : x y z
#
# Youngs Moduli (GPa) = 67.61416 60.19034 48.65307
#
# Poissons Ratio (x) = 0.37953 -0.00807
# Poissons Ratio (y) = 0.42634 0.09416
# Poissons Ratio (z) = -0.01121 0.11648
#
# Static dielectric constant tensor:
#      x y z
#    x 3.574950 0.000000 0.000000 
#    y 0.000000 3.038940 0.000000 
#    z 0.000000 0.000000 3.696070 
# 
# 
# High freq. dielectric constant tensor:
#      x y z
#    x 1.726960 0.000000 0.000000 
#    y 0.000000 1.669590 0.000000 
#    z 0.000000 0.000000 1.726900 
# 
# From -- ./inp_files/13573.got.cif
#   From: 2010.03.12/outbox.cif.g09.slc.cpg/sg62_7_cif.got.tgz:13573.got - 2010.04.10 19:12:36.
