data_PCOD8250263
_publ_section_title
;
Structure prediction by ZEFSAII (Michael W. Deem and Ramdas Pophale) SiO2 
 PCOD8250263
Probable space group: P N M A
;
_chemical_formula_sum "Si O2"
_cell_formula_units_Z 64
_cell_length_a 30.164548
_cell_length_b 8.874611
_cell_length_c 14.607026
_cell_angle_alpha 90.000000
_cell_angle_beta 90.000000
_cell_angle_gamma 90.000000
_cell_volume 3910.280841
_symmetry_space_group_name_H-M "P N M A"
_symmetry_group_IT_number 62
_symmetry_cell_setting 'orthorhombic'
loop_
_space_group_symop_operation_xyz
x,y,z
1/2-x,-y,1/2+z
1/2+x,1/2-y,1/2-z
-x,1/2+y,-z
-x,-y,-z
1/2+x,y,1/2-z
1/2-x,1/2+y,1/2+z
x,1/2-y,z
loop_
_atom_site_type_symbol
_atom_site_label
_atom_site_fract_x
_atom_site_fract_y
_atom_site_fract_z
Si Si1 0.957103 0.078311 0.098357
Si Si2 0.226937 0.928346 0.508598
Si Si3 0.785908 0.426678 0.289227
Si Si4 0.175695 0.073510 0.013292
Si Si5 0.128280 0.428964 0.192624
Si Si6 0.953431 0.425072 0.888556
Si Si7 0.137202 0.921044 0.845538
Si Si8 0.201042 0.929383 0.311262
O O1 0.974562 0.250000 0.096705
O O2 0.915778 0.060991 0.169088
O O3 0.942573 0.033147 0.994526
O O4 0.996088 0.971390 0.134053
O O5 0.229755 0.750000 0.505799
O O6 0.206392 0.981038 0.605763
O O7 0.275956 0.999471 0.503268
O O8 0.201309 0.982809 0.417822
O O9 0.774359 0.250000 0.285497
O O10 0.833136 0.463877 0.242180
O O11 0.744584 0.510194 0.241759
O O12 0.179064 0.250000 0.025594
O O13 0.147746 0.036766 0.924815
O O14 0.152950 0.006995 0.103110
O O15 0.128735 0.250000 0.203312
O O16 0.077842 0.485667 0.182804
O O17 0.154738 0.502402 0.276613
O O18 0.947087 0.250000 0.869137
O O19 0.147829 0.750000 0.876481
O O20 0.201046 0.750000 0.301292
#
# Coordination Sequence:
#
# PCOD8250263 Si02
#       8
#     8   8   8   8   8   8   8   8
#     4   9  18  31  45  69 101 128 158 195 238 287
#     4   9  18  33  47  65  95 129 162 198 236 281
#     4  10  19  33  50  69  95 128 164 198 239 283
#     4  10  18  29  46  66  95 131 162 192 235 282
#     4  11  21  33  49  69  96 131 164 198 241 287
#     4  10  19  31  48  70  97 127 161 198 238 288
#     4  10  19  30  48  72  97 127 163 202 234 276
#     4  11  21  32  48  69  95 127 164 201 235 278
#
# _framework density 16.36711
#
# number of rings (size 3 to 8) (size 9 to 14) (size 15 to 20)
#    0.000    2.000    3.750    1.125    0.000    1.500 
#    0.000    1.250    0.000    0.000    0.000    0.875 
#    0.000    0.000    0.000    0.000    0.000    0.000 
#
# Total GULP energy -793216.184920 kJ/mol
# GULP energy per Si atom -12394.002889 kJ/mol
# Density = 1.632986 g / cm^3
# Si number density = 16.367110 Si / 1000 Ang^3
#
#
#
# Elastic Constant Matrix: (Units=GPa)
#
#
# Indices 1 2 3 4 5 6 
#
# 1 101.3424 29.6519 40.6064 0.0000 0.0000 0.0000
# 2 29.6519 44.8186 25.9657 0.0000 0.0000 0.0000
# 3 40.6064 25.9657 92.9836 0.0000 0.0000 0.0000
# 4 0.0000 0.0000 0.0000 13.1679 0.0000 0.0000
# 5 0.0000 0.0000 0.0000 0.0000 25.8351 0.0000
# 6 0.0000 0.0000 0.0000 0.0000 0.0000 26.5906
#
#
#
# Elastic Compliance Matrix: (Units=1/GPa)
#
#
# Indices 1 2 3 4 5 6 
#
# 1 0.013390 -0.006527 -0.004025 0.000000 0.000000 0.000000
# 2 -0.006527 0.029800 -0.005471 0.000000 0.000000 0.000000
# 3 -0.004025 -0.005471 0.014040 0.000000 0.000000 0.000000
# 4 0.000000 0.000000 0.000000 0.075942 0.000000 0.000000
# 5 0.000000 0.000000 0.000000 0.000000 0.038707 0.000000
# 6 0.000000 0.000000 0.000000 0.000000 0.000000 0.037607
#
#
# Mechanical properties :
#
#
# Convention : Reuss Voigt Hill
#
# Bulk Modulus (GPa) = 39.70772 47.95473 43.83122
# Shear Modulus (GPa) = 20.00578 22.64676 21.32627
#
# Velocity S-wave (km/s) = 3.49996 3.72381 3.61362
# Velocity P-wave (km/s) = 6.37544 6.91752 6.65201
#
# Compressibility (1/GPa) = 0.02518402
#
# Stress axis : x y z
#
# Youngs Moduli (GPa) = 74.68287 33.55672 71.22445
#
# Poissons Ratio (x) = 0.21902 0.28666
# Poissons Ratio (y) = 0.48746 0.38970
# Poissons Ratio (z) = 0.30058 0.18360
#
# Static dielectric constant tensor:
#      x y z
#    x 3.113900 0.000000 0.000000 
#    y 0.000000 2.986900 0.000000 
#    z 0.000000 0.000000 3.177650 
# 
# 
# High freq. dielectric constant tensor:
#      x y z
#    x 1.624540 0.000000 0.000000 
#    y 0.000000 1.624670 0.000000 
#    z 0.000000 0.000000 1.602700 
# 
# From -- ./inp_files/21221.got.cif
#   From: 2010.03.12/outbox.cif.g09.slc.cpg/sg62_11_cif.got.tgz:21221.got - 2010.04.10 19:12:36.
