data_PCOD8250207
_publ_section_title
;
Structure prediction by ZEFSAII (Michael W. Deem and Ramdas Pophale) SiO2 
 PCOD8250207
Probable space group: P N M A
;
_chemical_formula_sum "Si O2"
_cell_formula_units_Z 56
_cell_length_a 21.064862
_cell_length_b 8.809157
_cell_length_c 18.387573
_cell_angle_alpha 90.000000
_cell_angle_beta 90.000000
_cell_angle_gamma 90.000000
_cell_volume 3412.065649
_symmetry_space_group_name_H-M "P N M A"
_symmetry_group_IT_number 62
_symmetry_cell_setting 'orthorhombic'
loop_
_space_group_symop_operation_xyz
x,y,z
1/2-x,-y,1/2+z
1/2+x,1/2-y,1/2-z
-x,1/2+y,-z
-x,-y,-z
1/2+x,y,1/2-z
1/2-x,1/2+y,1/2+z
x,1/2-y,z
loop_
_atom_site_type_symbol
_atom_site_label
_atom_site_fract_x
_atom_site_fract_y
_atom_site_fract_z
Si Si1 0.742979 0.428235 0.579080
Si Si2 0.373687 0.425047 0.849778
Si Si3 0.875904 0.071580 0.353643
Si Si4 0.312155 0.423411 0.290734
Si Si5 0.800322 0.422277 0.782519
Si Si6 0.245048 0.424430 0.571240
Si Si7 0.999373 0.569041 0.420555
O O1 0.741873 0.250000 0.568486
O O2 0.811095 0.488774 0.608906
O O3 0.687346 0.474883 0.636161
O O4 0.728265 0.504913 0.502350
O O5 0.378343 0.250000 0.869549
O O6 0.366180 0.450433 0.761817
O O7 0.438543 0.498848 0.878947
O O8 0.881444 0.250000 0.369797
O O9 0.868100 0.039161 0.266964
O O10 0.817537 0.009757 0.401145
O O11 0.938991 0.985967 0.376257
O O12 0.314835 0.250000 0.315774
O O13 0.248169 0.453322 0.246295
O O14 0.776577 0.250000 0.762787
O O15 0.803009 0.439595 0.869867
O O16 0.226633 0.250000 0.558670
O O17 0.998805 0.750000 0.425037
O O18 0.000000 0.500000 0.500000
#
# Coordination Sequence:
#
# PCOD8250207 Si02
#       7
#     8   8   8   8   8   8   8
#     4  10  18  29  46  67  94 121 145 181 229 275
#     4   8  16  30  45  61  84 118 152 180 215 260
#     4  10  20  33  46  63  92 125 155 189 228 266
#     4   9  17  29  45  64  87 116 151 188 224 267
#     4   8  15  29  46  63  86 115 147 184 226 270
#     4  10  18  28  46  70  92 116 149 186 226 273
#     4  11  21  32  47  66  91 123 158 190 221 265
#
# _framework density 16.412344999999998
#
# number of rings (size 3 to 8) (size 9 to 14) (size 15 to 20)
#    0.000    2.571    0.000    3.857    0.000    3.429 
#    0.000    6.429    0.000    0.000    0.000    1.000 
#    0.000    0.000    0.000    0.000    0.000    0.000 
#
# Total GULP energy -693833.593642 kJ/mol
# GULP energy per Si atom -12389.885601 kJ/mol
# Density = 1.637499 g / cm^3
# Si number density = 16.412345 Si / 1000 Ang^3
#
#
#
# Elastic Constant Matrix: (Units=GPa)
#
#
# Indices 1 2 3 4 5 6 
#
# 1 71.3056 29.7565 56.9428 0.0000 0.0000 0.0000
# 2 29.7565 67.0352 45.6702 0.0000 0.0000 0.0000
# 3 56.9428 45.6702 141.5768 0.0000 0.0000 0.0000
# 4 0.0000 0.0000 0.0000 28.4764 0.0000 0.0000
# 5 0.0000 0.0000 0.0000 0.0000 26.2607 0.0000
# 6 0.0000 0.0000 0.0000 0.0000 0.0000 16.2286
#
#
#
# Elastic Compliance Matrix: (Units=1/GPa)
#
#
# Indices 1 2 3 4 5 6 
#
# 1 0.021775 -0.004741 -0.007229 0.000000 0.000000 0.000000
# 2 -0.004741 0.020152 -0.004594 0.000000 0.000000 0.000000
# 3 -0.007229 -0.004594 0.011453 0.000000 0.000000 0.000000
# 4 0.000000 0.000000 0.000000 0.035117 0.000000 0.000000
# 5 0.000000 0.000000 0.000000 0.000000 0.038080 0.000000
# 6 0.000000 0.000000 0.000000 0.000000 0.000000 0.061620
#
#
# Mechanical properties :
#
#
# Convention : Reuss Voigt Hill
#
# Bulk Modulus (GPa) = 49.37648 60.51738 54.94693
# Shear Modulus (GPa) = 21.92274 24.02968 22.97621
#
# Velocity S-wave (km/s) = 3.65875 3.83054 3.74563
# Velocity P-wave (km/s) = 6.92812 7.51779 7.22897
#
# Compressibility (1/GPa) = 0.02025256
#
# Stress axis : x y z
#
# Youngs Moduli (GPa) = 45.92355 49.62365 87.31657
#
# Poissons Ratio (x) = 0.23527 0.63119
# Poissons Ratio (y) = 0.21773 0.40111
# Poissons Ratio (z) = 0.33197 0.22796
#
# Static dielectric constant tensor:
#      x y z
#    x 3.023660 0.000000 0.000000 
#    y 0.000000 3.101060 0.000000 
#    z 0.000000 0.000000 3.296210 
# 
# 
# High freq. dielectric constant tensor:
#      x y z
#    x 1.583930 0.000000 0.000000 
#    y 0.000000 1.636350 0.000000 
#    z 0.000000 0.000000 1.641720 
# 
# From -- ./inp_files/24597.got.cif
#   From: 2010.03.12/outbox.cif.g09.slc.cpg/sg62_13_cif.got.tgz:24597.got - 2010.04.10 19:12:36.
