data_PCOD8250954
_publ_section_title
;
Structure prediction by ZEFSAII (Michael W. Deem and Ramdas Pophale) SiO2 
 PCOD8250954
Probable space group: P N M A
;
_chemical_formula_sum "Si O2"
_cell_formula_units_Z 64
_cell_length_a 5.403168
_cell_length_b 22.788582
_cell_length_c 27.428481
_cell_angle_alpha 90.000000
_cell_angle_beta 90.000000
_cell_angle_gamma 90.000000
_cell_volume 3377.283595
_symmetry_space_group_name_H-M "P N M A"
_symmetry_group_IT_number 62
_symmetry_cell_setting 'orthorhombic'
loop_
_space_group_symop_operation_xyz
x,y,z
1/2-x,-y,1/2+z
1/2+x,1/2-y,1/2-z
-x,1/2+y,-z
-x,-y,-z
1/2+x,y,1/2-z
1/2-x,1/2+y,1/2+z
x,1/2-y,z
loop_
_atom_site_type_symbol
_atom_site_label
_atom_site_fract_x
_atom_site_fract_y
_atom_site_fract_z
Si Si1 0.354645 0.075380 0.452658
Si Si2 0.882322 0.184263 0.987717
Si Si3 0.110542 0.683822 0.427931
Si Si4 0.045404 0.522683 0.729947
Si Si5 0.585235 0.483861 0.125996
Si Si6 0.783684 0.028216 0.946281
Si Si7 0.114005 0.409180 0.873580
Si Si8 0.491267 0.109462 0.731099
O O1 0.405793 0.143207 0.464476
O O2 0.211901 0.046358 0.498903
O O3 0.191992 0.072273 0.403220
O O4 0.602626 0.037460 0.445025
O O5 0.827438 0.250000 0.006230
O O6 0.645238 0.164294 0.954521
O O7 0.146312 0.182091 0.961568
O O8 0.075636 0.750000 0.407327
O O9 0.168531 0.638241 0.384188
O O10 0.287400 0.553394 0.753610
O O11 0.027561 0.454706 0.744653
O O12 0.081963 0.533959 0.671850
O O13 0.456588 0.526246 0.086736
O O14 0.795141 0.527477 0.146458
O O15 0.963676 0.078565 0.923743
O O16 0.950832 0.387996 0.827498
O O17 0.251435 0.141501 0.754770
#
# Coordination Sequence:
#
# PCOD8250954 Si02
#       8
#     8   8   8   8   8   8   8   8
#     4  10  21  32  48  78 111 140 173 212 264 318
#     4  10  21  39  57  73 103 143 180 218 255 305
#     4  10  22  37  55  76  97 133 185 228 261 305
#     4  10  19  34  49  70 102 134 178 211 251 314
#     4  11  21  30  52  75 109 144 171 214 269 322
#     4  10  20  32  46  76 111 141 171 208 264 325
#     4  11  20  31  54  73 100 141 177 223 267 321
#     4  10  19  31  48  72  96 129 177 214 262 317
#
# _framework density 18.950140000000001
#
# number of rings (size 3 to 8) (size 9 to 14) (size 15 to 20)
#    0.000    1.750    3.750    2.625    3.500    0.000 
#    0.000    0.000    0.000    0.750    0.000    0.000 
#    0.000    1.000    0.000    0.000    0.000    0.000 
#
# Total GULP energy -792914.807025 kJ/mol
# GULP energy per Si atom -12389.293860 kJ/mol
# Density = 1.890701 g / cm^3
# Si number density = 18.950140 Si / 1000 Ang^3
#
#
#
# Elastic Constant Matrix: (Units=GPa)
#
#
# Indices 1 2 3 4 5 6 
#
# 1 96.5716 1.3359 11.2225 0.0000 0.0000 0.0000
# 2 1.3359 52.1309 13.8742 0.0000 0.0000 0.0000
# 3 11.2225 13.8742 78.0773 0.0000 0.0000 0.0000
# 4 0.0000 0.0000 0.0000 12.6798 0.0000 0.0000
# 5 0.0000 0.0000 0.0000 0.0000 17.2701 0.0000
# 6 0.0000 0.0000 0.0000 0.0000 0.0000 14.4656
#
#
#
# Elastic Compliance Matrix: (Units=1/GPa)
#
#
# Indices 1 2 3 4 5 6 
#
# 1 0.010532 0.000140 -0.001539 0.000000 0.000000 0.000000
# 2 0.000140 0.020137 -0.003598 0.000000 0.000000 0.000000
# 3 -0.001539 -0.003598 0.013668 0.000000 0.000000 0.000000
# 4 0.000000 0.000000 0.000000 0.078865 0.000000 0.000000
# 5 0.000000 0.000000 0.000000 0.000000 0.057903 0.000000
# 6 0.000000 0.000000 0.000000 0.000000 0.000000 0.069129
#
#
# Mechanical properties :
#
#
# Convention : Reuss Voigt Hill
#
# Bulk Modulus (GPa) = 29.11870 31.07168 30.09519
# Shear Modulus (GPa) = 18.40420 22.23960 20.32190
#
# Velocity S-wave (km/s) = 3.11977 3.42948 3.27829
# Velocity P-wave (km/s) = 5.32697 5.66691 5.49957
#
# Compressibility (1/GPa) = 0.03434220
#
# Stress axis : x y z
#
# Youngs Moduli (GPa) = 94.94984 49.66088 73.16154
#
# Poissons Ratio (x) = -0.00693 0.11257
# Poissons Ratio (y) = -0.01326 0.26326
# Poissons Ratio (z) = 0.14609 0.17870
#
# Static dielectric constant tensor:
#      x y z
#    x 4.446580 0.000000 0.000000 
#    y 0.000000 3.232600 0.000000 
#    z 0.000000 0.000000 3.401860 
# 
# 
# High freq. dielectric constant tensor:
#      x y z
#    x 1.753340 0.000000 0.000000 
#    y 0.000000 1.675720 0.000000 
#    z 0.000000 0.000000 1.724720 
# 
# From -- ./inp_files/30588.got.cif
#   From: 2010.03.12/outbox.cif.g09.slc.cpg/sg62_16_cif.got.tgz:30588.got - 2010.04.10 19:12:36.
