data_PCOD8250712
_publ_section_title
;
Structure prediction by ZEFSAII (Michael W. Deem and Ramdas Pophale) SiO2 
 PCOD8250712
Probable space group: P N M A
;
_chemical_formula_sum "Si O2"
_cell_formula_units_Z 48
_cell_length_a 13.019674
_cell_length_b 18.551978
_cell_length_c 11.152669
_cell_angle_alpha 90.000000
_cell_angle_beta 90.000000
_cell_angle_gamma 90.000000
_cell_volume 2693.823540
_symmetry_space_group_name_H-M "P N M A"
_symmetry_group_IT_number 62
_symmetry_cell_setting 'orthorhombic'
loop_
_space_group_symop_operation_xyz
x,y,z
1/2-x,-y,1/2+z
1/2+x,1/2-y,1/2-z
-x,1/2+y,-z
-x,-y,-z
1/2+x,y,1/2-z
1/2-x,1/2+y,1/2+z
x,1/2-y,z
loop_
_atom_site_type_symbol
_atom_site_label
_atom_site_fract_x
_atom_site_fract_y
_atom_site_fract_z
Si Si1 0.724860 0.865537 0.707645
Si Si2 0.420114 0.078041 0.087448
Si Si3 0.642853 0.250000 0.331777
Si Si4 0.368499 0.981273 0.886208
Si Si5 0.912952 0.250000 0.086699
Si Si6 0.290300 0.750000 0.396729
Si Si7 0.621882 0.638128 0.152285
Si Si8 0.982538 0.250000 0.816393
O O1 0.659922 0.895105 0.816881
O O2 0.819937 0.819982 0.759377
O O3 0.768756 0.932453 0.632473
O O4 0.651560 0.820476 0.620586
O O5 0.529341 0.063182 0.150373
O O6 0.430772 0.137782 0.980681
O O7 0.377136 0.003689 0.026979
O O8 0.519677 0.250000 0.340000
O O9 0.694308 0.250000 0.461544
O O10 0.359780 0.054928 0.806568
O O11 0.928804 0.250000 0.945174
O O12 0.230454 0.821427 0.356191
O O13 0.396002 0.750000 0.325826
O O14 0.548263 0.677904 0.245675
#
# Coordination Sequence:
#
# PCOD8250712 Si02
#       8
#     8   8   4   8   4   4   8   4
#     4  11  20  35  60  83 108 156 184 236 287 334
#     4   9  19  38  57  83 110 146 195 229 277 349
#     4  10  18  36  55  74 114 143 186 226 278 338
#     4   9  20  36  57  85 114 145 190 239 281 331
#     4  10  24  35  51  86 118 138 187 250 273 341
#     4  10  18  36  58  79 105 151 193 216 282 343
#     4   9  19  39  57  80 111 153 182 234 280 343
#     4  10  22  37  54  85 117 146 186 240 289 336
#
# _framework density 17.818539999999999
#
# number of rings (size 3 to 8) (size 9 to 14) (size 15 to 20)
#    1.000    1.333    1.667    1.000    0.000    2.667 
#    6.000    1.667    0.000    7.000    0.000    0.000 
#    0.000    0.000    0.000    0.000    0.000    0.000 
#
# Total GULP energy -594924.755053 kJ/mol
# GULP energy per Si atom -12394.265730 kJ/mol
# Density = 1.777798 g / cm^3
# Si number density = 17.818540 Si / 1000 Ang^3
#
#
#
# Elastic Constant Matrix: (Units=GPa)
#
#
# Indices 1 2 3 4 5 6 
#
# 1 115.9628 80.2568 55.5370 0.0000 0.0000 0.0000
# 2 80.2568 121.1116 44.0270 0.0000 0.0000 0.0000
# 3 55.5370 44.0270 78.6150 0.0000 0.0000 0.0000
# 4 0.0000 0.0000 0.0000 26.7393 0.0000 0.0000
# 5 0.0000 0.0000 0.0000 0.0000 28.3138 0.0000
# 6 0.0000 0.0000 0.0000 0.0000 0.0000 9.2462
#
#
#
# Elastic Compliance Matrix: (Units=1/GPa)
#
#
# Indices 1 2 3 4 5 6 
#
# 1 0.019350 -0.009861 -0.008147 0.000000 0.000000 0.000000
# 2 -0.009861 0.015393 -0.001654 0.000000 0.000000 0.000000
# 3 -0.008147 -0.001654 0.019402 0.000000 0.000000 0.000000
# 4 0.000000 0.000000 0.000000 0.037398 0.000000 0.000000
# 5 0.000000 0.000000 0.000000 0.000000 0.035318 0.000000
# 6 0.000000 0.000000 0.000000 0.000000 0.000000 0.108152
#
#
# Mechanical properties :
#
#
# Convention : Reuss Voigt Hill
#
# Bulk Modulus (GPa) = 67.47580 75.03677 71.25628
# Shear Modulus (GPa) = 17.90329 21.91779 19.91054
#
# Velocity S-wave (km/s) = 3.17323 3.51102 3.34639
# Velocity P-wave (km/s) = 7.16773 7.65764 7.41673
#
# Compressibility (1/GPa) = 0.01482013
#
# Stress axis : x y z
#
# Youngs Moduli (GPa) = 51.67972 64.96580 51.54056
#
# Poissons Ratio (x) = 0.64062 0.41991
# Poissons Ratio (y) = 0.50961 0.08526
# Poissons Ratio (z) = 0.42105 0.10747
#
# Static dielectric constant tensor:
#      x y z
#    x 3.225860 0.000000 0.000000 
#    y 0.000000 3.371910 0.000000 
#    z 0.000000 0.000000 3.110280 
# 
# 
# High freq. dielectric constant tensor:
#      x y z
#    x 1.690600 0.000000 0.000000 
#    y 0.000000 1.693070 0.000000 
#    z 0.000000 0.000000 1.674340 
# 
# From -- ./inp_files/12391.got.cif
#   From: 2010.03.12/outbox.cif.g09.slc.cpg/sg62_7_cif.got.tgz:12391.got - 2010.04.10 19:12:36.
