data_PCOD8250947
_publ_section_title
;
Structure prediction by ZEFSAII (Michael W. Deem and Ramdas Pophale) SiO2 
 PCOD8250947
Probable space group: P N M A
;
_chemical_formula_sum "Si O2"
_cell_formula_units_Z 64
_cell_length_a 13.199604
_cell_length_b 9.385464
_cell_length_c 27.689506
_cell_angle_alpha 90.000000
_cell_angle_beta 90.000000
_cell_angle_gamma 90.000000
_cell_volume 3430.298063
_symmetry_space_group_name_H-M "P N M A"
_symmetry_group_IT_number 62
_symmetry_cell_setting 'orthorhombic'
loop_
_space_group_symop_operation_xyz
x,y,z
1/2-x,-y,1/2+z
1/2+x,1/2-y,1/2-z
-x,1/2+y,-z
-x,-y,-z
1/2+x,y,1/2-z
1/2-x,1/2+y,1/2+z
x,1/2-y,z
loop_
_atom_site_type_symbol
_atom_site_label
_atom_site_fract_x
_atom_site_fract_y
_atom_site_fract_z
Si Si1 0.561411 0.582338 0.173756
Si Si2 0.186281 0.597182 0.415619
Si Si3 0.749694 0.418469 0.411044
Si Si4 0.647383 0.917012 0.813730
Si Si5 0.140952 0.585150 0.882564
Si Si6 0.750930 0.416737 0.212888
Si Si7 0.409481 0.404985 0.016139
Si Si8 0.963970 0.579980 0.951273
O O1 0.552980 0.750000 0.186412
O O2 0.589475 0.554841 0.117441
O O3 0.454794 0.507589 0.183448
O O4 0.649916 0.510166 0.205827
O O5 0.227054 0.750000 0.395777
O O6 0.272508 0.481222 0.415190
O O7 0.161726 0.615638 0.470827
O O8 0.745455 0.250000 0.417472
O O9 0.772114 0.460275 0.355568
O O10 0.844318 0.479613 0.441737
O O11 0.644925 0.478640 0.433027
O O12 0.619117 0.750000 0.816900
O O13 0.702966 0.955668 0.764323
O O14 0.153998 0.750000 0.889465
O O15 0.161521 0.542978 0.826551
O O16 0.033775 0.538066 0.905044
O O17 0.721602 0.250000 0.209309
O O18 0.450084 0.250000 0.033393
O O19 0.500000 0.500000 0.000000
O O20 0.964681 0.750000 0.961219
O O21 0.000000 0.500000 0.000000
#
# Coordination Sequence:
#
# PCOD8250947 Si02
#       8
#     8   8   8   8   8   8   8   8
#     4  10  20  34  53  77 106 137 169 212 264 312
#     4   9  18  32  50  72  99 132 166 200 244 300
#     4   9  19  34  52  76 105 136 169 209 259 311
#     4  10  20  35  56  79 104 137 176 218 263 311
#     4   9  18  32  52  77 100 126 166 215 257 295
#     4   9  19  35  55  79 104 135 179 223 263 314
#     4  10  19  31  48  70  97 130 165 200 243 295
#     4  10  20  35  54  76 106 141 175 213 261 316
#
# _framework density 18.657271000000001
#
# number of rings (size 3 to 8) (size 9 to 14) (size 15 to 20)
#    0.000    2.500    0.000    1.875    0.000    4.000 
#    0.000    5.000    0.000    1.500    0.000    0.000 
#    0.000    0.000    0.000    0.000    0.000    0.000 
#
# Total GULP energy -793071.635025 kJ/mol
# GULP energy per Si atom -12391.744297 kJ/mol
# Density = 1.861481 g / cm^3
# Si number density = 18.657271 Si / 1000 Ang^3
#
#
#
# Elastic Constant Matrix: (Units=GPa)
#
#
# Indices 1 2 3 4 5 6 
#
# 1 130.9087 46.4098 65.5342 0.0000 0.0000 0.0000
# 2 46.4098 34.9533 49.6877 0.0000 0.0000 0.0000
# 3 65.5342 49.6877 112.9385 0.0000 0.0000 0.0000
# 4 0.0000 0.0000 0.0000 22.8019 0.0000 0.0000
# 5 0.0000 0.0000 0.0000 0.0000 26.7540 0.0000
# 6 0.0000 0.0000 0.0000 0.0000 0.0000 26.6261
#
#
#
# Elastic Compliance Matrix: (Units=1/GPa)
#
#
# Indices 1 2 3 4 5 6 
#
# 1 0.014434 -0.019378 0.000150 0.000000 0.000000 0.000000
# 2 -0.019378 0.102392 -0.033804 0.000000 0.000000 0.000000
# 3 0.000150 -0.033804 0.023639 0.000000 0.000000 0.000000
# 4 0.000000 0.000000 0.000000 0.043856 0.000000 0.000000
# 5 0.000000 0.000000 0.000000 0.000000 0.037378 0.000000
# 6 0.000000 0.000000 0.000000 0.000000 0.000000 0.037557
#
#
# Mechanical properties :
#
#
# Convention : Reuss Voigt Hill
#
# Bulk Modulus (GPa) = 29.06766 66.89601 47.98184
# Shear Modulus (GPa) = 13.27012 23.04765 18.15889
#
# Velocity S-wave (km/s) = 2.66983 3.51852 3.12314
# Velocity P-wave (km/s) = 5.01175 7.24153 6.22725
#
# Compressibility (1/GPa) = 0.03440249
#
# Stress axis : x y z
#
# Youngs Moduli (GPa) = 69.28265 9.76636 42.30225
#
# Poissons Ratio (x) = 0.18925 -0.00634
# Poissons Ratio (y) = 1.34254 1.42997
# Poissons Ratio (z) = -0.01039 0.33014
#
# Static dielectric constant tensor:
#      x y z
#    x 3.158120 0.000000 0.000000 
#    y 0.000000 3.494120 0.000000 
#    z 0.000000 0.000000 3.654520 
# 
# 
# High freq. dielectric constant tensor:
#      x y z
#    x 1.721030 0.000000 0.000000 
#    y 0.000000 1.708690 0.000000 
#    z 0.000000 0.000000 1.732220 
# 
# From -- ./inp_files/32543.got.cif
#   From: 2010.03.12/outbox.cif.g09.slc.cpg/sg62_17_cif.got.tgz:32543.got - 2010.04.10 19:12:36.
