data_PCOD8250817
_publ_section_title
;
Structure prediction by ZEFSAII (Michael W. Deem and Ramdas Pophale) SiO2 
 PCOD8250817
Probable space group: P N M A
;
_chemical_formula_sum "Si O2"
_cell_formula_units_Z 56
_cell_length_a 20.592973
_cell_length_b 9.281307
_cell_length_c 18.254666
_cell_angle_alpha 90.000000
_cell_angle_beta 90.000000
_cell_angle_gamma 90.000000
_cell_volume 3489.008918
_symmetry_space_group_name_H-M "P N M A"
_symmetry_group_IT_number 62
_symmetry_cell_setting 'orthorhombic'
loop_
_space_group_symop_operation_xyz
x,y,z
1/2-x,-y,1/2+z
1/2+x,1/2-y,1/2-z
-x,1/2+y,-z
-x,-y,-z
1/2+x,y,1/2-z
1/2-x,1/2+y,1/2+z
x,1/2-y,z
loop_
_atom_site_type_symbol
_atom_site_label
_atom_site_fract_x
_atom_site_fract_y
_atom_site_fract_z
Si Si1 0.497846 0.416853 0.575431
Si Si2 0.752897 0.419009 0.074283
Si Si3 0.375397 0.417499 0.665508
Si Si4 0.366001 0.918158 0.347914
Si Si5 0.260288 0.916988 0.092571
Si Si6 0.322018 0.908926 0.789472
Si Si7 0.181961 0.912276 0.716015
O O1 0.500000 0.500000 0.500000
O O2 0.486432 0.250000 0.557093
O O3 0.438160 0.478239 0.623449
O O4 0.562851 0.442432 0.620587
O O5 0.771280 0.250000 0.082845
O O6 0.815534 0.512193 0.095304
O O7 0.691436 0.458089 0.126615
O O8 0.731741 0.457025 0.992290
O O9 0.382679 0.250000 0.679985
O O10 0.312854 0.455703 0.616679
O O11 0.370914 0.487229 0.746407
O O12 0.349070 0.750000 0.337976
O O13 0.364754 0.996017 0.268977
O O14 0.274926 0.750000 0.107861
O O15 0.312943 0.010722 0.137005
O O16 0.352920 0.750000 0.787521
O O17 0.252460 0.909739 0.751259
O O18 0.154726 0.750000 0.706329
#
# Coordination Sequence:
#
# PCOD8250817 Si02
#       7
#     8   8   8   8   8   8   8
#     4  10  21  33  45  64  89 118 151 183 213 251
#     4   9  17  29  45  66  92 118 143 177 222 265
#     4   9  17  29  43  60  85 116 147 176 209 251
#     4  10  19  30  44  63  88 118 152 184 214 255
#     4   9  16  27  45  66  88 115 143 174 216 263
#     4   8  15  27  42  61  84 111 143 176 212 256
#     4   9  17  29  44  62  86 114 144 180 220 261
#
# _framework density 16.050402999999999
#
# number of rings (size 3 to 8) (size 9 to 14) (size 15 to 20)
#    0.000    2.857    0.000    2.571    0.000    6.857 
#    0.000    2.857    0.000    0.000    0.000    1.000 
#    0.000    0.000    0.000    0.000    0.000    0.000 
#
# Total GULP energy -694269.400459 kJ/mol
# GULP energy per Si atom -12397.667865 kJ/mol
# Density = 1.601387 g / cm^3
# Si number density = 16.050403 Si / 1000 Ang^3
#
#
#
# Elastic Constant Matrix: (Units=GPa)
#
#
# Indices 1 2 3 4 5 6 
#
# 1 54.6814 41.0179 49.7574 0.0000 0.0000 0.0000
# 2 41.0179 83.3309 65.5594 0.0000 0.0000 0.0000
# 3 49.7574 65.5594 146.9958 0.0000 0.0000 0.0000
# 4 0.0000 0.0000 0.0000 30.6859 0.0000 0.0000
# 5 0.0000 0.0000 0.0000 0.0000 21.3457 0.0000
# 6 0.0000 0.0000 0.0000 0.0000 0.0000 18.3477
#
#
#
# Elastic Compliance Matrix: (Units=1/GPa)
#
#
# Indices 1 2 3 4 5 6 
#
# 1 0.031963 -0.011125 -0.005858 0.000000 0.000000 0.000000
# 2 -0.011125 0.022359 -0.006206 0.000000 0.000000 0.000000
# 3 -0.005858 -0.006206 0.011554 0.000000 0.000000 0.000000
# 4 0.000000 0.000000 0.000000 0.032588 0.000000 0.000000
# 5 0.000000 0.000000 0.000000 0.000000 0.046848 0.000000
# 6 0.000000 0.000000 0.000000 0.000000 0.000000 0.054503
#
#
# Mechanical properties :
#
#
# Convention : Reuss Voigt Hill
#
# Bulk Modulus (GPa) = 51.28682 66.40861 58.84771
# Shear Modulus (GPa) = 19.78698 22.65407 21.22052
#
# Velocity S-wave (km/s) = 3.51494 3.76098 3.64004
# Velocity P-wave (km/s) = 6.96391 7.76691 7.37634
#
# Compressibility (1/GPa) = 0.01949819
#
# Stress axis : x y z
#
# Youngs Moduli (GPa) = 31.28628 44.72478 86.55178
#
# Poissons Ratio (x) = 0.49754 0.50700
# Poissons Ratio (y) = 0.34805 0.53717
# Poissons Ratio (z) = 0.18327 0.27758
#
# Static dielectric constant tensor:
#      x y z
#    x 2.806470 0.000000 0.000000 
#    y 0.000000 3.178720 0.000000 
#    z 0.000000 0.000000 3.245480 
# 
# 
# High freq. dielectric constant tensor:
#      x y z
#    x 1.574200 0.000000 0.000000 
#    y 0.000000 1.622180 0.000000 
#    z 0.000000 0.000000 1.621580 
# 
# From -- ./inp_files/24553.got.cif
#   From: 2010.03.12/outbox.cif.g09.slc.cpg/sg62_13_cif.got.tgz:24553.got - 2010.04.10 19:12:36.
