data_PCOD8250376
_publ_section_title
;
Structure prediction by ZEFSAII (Michael W. Deem and Ramdas Pophale) SiO2 
 PCOD8250376
Probable space group: P N M A
;
_chemical_formula_sum "Si O2"
_cell_formula_units_Z 64
_cell_length_a 19.094314
_cell_length_b 9.326785
_cell_length_c 22.733400
_cell_angle_alpha 90.000000
_cell_angle_beta 90.000000
_cell_angle_gamma 90.000000
_cell_volume 4048.558502
_symmetry_space_group_name_H-M "P N M A"
_symmetry_group_IT_number 62
_symmetry_cell_setting 'orthorhombic'
loop_
_space_group_symop_operation_xyz
x,y,z
1/2-x,-y,1/2+z
1/2+x,1/2-y,1/2-z
-x,1/2+y,-z
-x,-y,-z
1/2+x,y,1/2-z
1/2-x,1/2+y,1/2+z
x,1/2-y,z
loop_
_atom_site_type_symbol
_atom_site_label
_atom_site_fract_x
_atom_site_fract_y
_atom_site_fract_z
Si Si1 0.354124 0.418730 0.061689
Si Si2 0.497181 0.584704 0.240553
Si Si3 0.775644 0.587055 0.341820
Si Si4 0.850324 0.914061 0.218964
Si Si5 0.650737 0.585644 0.264686
Si Si6 0.269156 0.914993 0.831788
Si Si7 0.000112 0.082090 0.380314
Si Si8 0.359175 0.585276 0.943976
O O1 0.343310 0.250000 0.057229
O O2 0.297257 0.479250 0.107127
O O3 0.432188 0.459858 0.081977
O O4 0.339574 0.487472 0.998772
O O5 0.488871 0.750000 0.221671
O O6 0.432153 0.540987 0.282448
O O7 0.568652 0.558351 0.277062
O O8 0.496960 0.494245 0.181732
O O9 0.783875 0.750000 0.364496
O O10 0.823725 0.560095 0.285100
O O11 0.695054 0.552897 0.323701
O O12 0.839351 0.750000 0.199730
O O13 0.807111 0.011985 0.173647
O O14 0.665122 0.750000 0.245478
O O15 0.674435 0.486813 0.211042
O O16 0.262451 0.750000 0.813466
O O17 0.295903 0.932057 0.898084
O O18 0.004275 0.250000 0.367372
O O19 0.068130 0.029916 0.415913
O O20 0.367138 0.750000 0.964193
#
# Coordination Sequence:
#
# PCOD8250376 Si02
#       8
#     8   8   8   8   8   8   8   8
#     4  11  22  32  47  69  92 125 167 202 233 273
#     4  10  18  30  50  73  96 128 161 191 233 283
#     4   9  17  31  47  66  94 125 154 191 237 280
#     4   9  18  31  48  70  96 125 157 193 236 283
#     4   9  18  31  49  71  95 123 158 195 235 283
#     4  10  19  31  48  69  93 125 159 195 239 281
#     4  10  20  33  45  66  98 128 162 199 231 272
#     4  10  21  35  48  64  93 130 164 197 238 281
#
# _framework density 15.808096000000001
#
# number of rings (size 3 to 8) (size 9 to 14) (size 15 to 20)
#    0.000    2.250    2.500    1.875    0.000    4.500 
#    0.000    0.000    0.000    0.000    0.000    0.875 
#    0.000    0.000    0.000    0.000    0.000    0.000 
#
# Total GULP energy -793624.954829 kJ/mol
# GULP energy per Si atom -12400.389919 kJ/mol
# Density = 1.577212 g / cm^3
# Si number density = 15.808096 Si / 1000 Ang^3
#
#
#
# Elastic Constant Matrix: (Units=GPa)
#
#
# Indices 1 2 3 4 5 6 
#
# 1 126.0082 50.0207 48.7995 0.0000 0.0000 0.0000
# 2 50.0207 74.9743 48.4260 0.0000 0.0000 0.0000
# 3 48.7995 48.4260 70.2909 0.0000 0.0000 0.0000
# 4 0.0000 0.0000 0.0000 26.4931 0.0000 0.0000
# 5 0.0000 0.0000 0.0000 0.0000 20.2541 0.0000
# 6 0.0000 0.0000 0.0000 0.0000 0.0000 22.7803
#
#
#
# Elastic Compliance Matrix: (Units=1/GPa)
#
#
# Indices 1 2 3 4 5 6 
#
# 1 0.011673 -0.004601 -0.004934 0.000000 0.000000 0.000000
# 2 -0.004601 0.025845 -0.014611 0.000000 0.000000 0.000000
# 3 -0.004934 -0.014611 0.027719 0.000000 0.000000 0.000000
# 4 0.000000 0.000000 0.000000 0.037746 0.000000 0.000000
# 5 0.000000 0.000000 0.000000 0.000000 0.049373 0.000000
# 6 0.000000 0.000000 0.000000 0.000000 0.000000 0.043898
#
#
# Mechanical properties :
#
#
# Convention : Reuss Voigt Hill
#
# Bulk Modulus (GPa) = 59.01983 62.86286 60.94134
# Shear Modulus (GPa) = 19.98444 22.17398 21.07921
#
# Velocity S-wave (km/s) = 3.55940 3.74932 3.65560
# Velocity P-wave (km/s) = 7.36944 7.65479 7.51347
#
# Compressibility (1/GPa) = 0.01694346
#
# Stress axis : x y z
#
# Youngs Moduli (GPa) = 85.66484 38.69212 36.07678
#
# Poissons Ratio (x) = 0.17802 0.17802
# Poissons Ratio (y) = 0.39414 0.52713
# Poissons Ratio (z) = 0.42271 0.56534
#
# Static dielectric constant tensor:
#      x y z
#    x 3.338560 0.000000 0.000000 
#    y 0.000000 3.053880 0.000000 
#    z 0.000000 0.000000 2.718740 
# 
# 
# High freq. dielectric constant tensor:
#      x y z
#    x 1.610460 0.000000 0.000000 
#    y 0.000000 1.613120 0.000000 
#    z 0.000000 0.000000 1.572480 
# 
# From -- ./inp_files/27893.got.cif
#   From: 2010.03.12/outbox.cif.g09.slc.cpg/sg62_14_cif.got.tgz:27893.got - 2010.04.10 19:12:36.
