data_PCOD8250089
_publ_section_title
;
Structure prediction by ZEFSAII (Michael W. Deem and Ramdas Pophale) SiO2 
 PCOD8250089
Probable space group: P N M A
;
_chemical_formula_sum "Si O2"
_cell_formula_units_Z 40
_cell_length_a 12.862780
_cell_length_b 9.703716
_cell_length_c 16.137672
_cell_angle_alpha 90.000000
_cell_angle_beta 90.000000
_cell_angle_gamma 90.000000
_cell_volume 2014.251999
_symmetry_space_group_name_H-M "P N M A"
_symmetry_group_IT_number 62
_symmetry_cell_setting 'orthorhombic'
loop_
_space_group_symop_operation_xyz
x,y,z
1/2-x,-y,1/2+z
1/2+x,1/2-y,1/2-z
-x,1/2+y,-z
-x,-y,-z
1/2+x,y,1/2-z
1/2-x,1/2+y,1/2+z
x,1/2-y,z
loop_
_atom_site_type_symbol
_atom_site_label
_atom_site_fract_x
_atom_site_fract_y
_atom_site_fract_z
Si Si1 0.555107 0.750000 0.809627
Si Si2 0.209943 0.250000 0.120647
Si Si3 0.332116 0.481736 0.879829
Si Si4 0.082371 0.041820 0.216286
Si Si5 0.001287 0.250000 0.624398
Si Si6 0.892744 0.750000 0.542820
Si Si7 0.997397 0.750000 0.189749
Si Si8 0.312630 0.750000 0.426699
O O1 0.677422 0.750000 0.833383
O O2 0.521740 0.883133 0.753708
O O3 0.494456 0.750000 0.897800
O O4 0.139139 0.119123 0.142005
O O5 0.217784 0.250000 0.022347
O O6 0.331165 0.544075 0.788129
O O7 0.434371 0.387601 0.890696
O O8 0.327819 0.610113 0.942820
O O9 0.230804 0.390180 0.888576
O O10 0.064726 0.888051 0.183674
O O11 0.088394 0.250000 0.555007
O O12 0.052981 0.250000 0.716812
O O13 0.929281 0.750000 0.106468
#
# Coordination Sequence:
#
# PCOD8250089 Si02
#       8
#     4   4   8   8   4   4   4   4
#     4   9  19  36  63  93 115 157 195 245 312 360
#     4  11  23  40  63  88 119 158 210 245 289 367
#     4   9  19  36  55  85 123 147 191 247 295 348
#     4   9  21  41  61  88 119 159 199 249 297 361
#     4   9  17  32  57  81 111 154 186 238 307 361
#     4  10  17  33  59  87 126 149 186 245 304 357
#     4  10  22  39  57  80 117 161 204 241 304 344
#     4  11  24  38  57  89 122 163 199 246 302 343
#
# _framework density 19.858488000000001
#
# number of rings (size 3 to 8) (size 9 to 14) (size 15 to 20)
#    0.000    2.400    0.000    3.000    2.800    4.000 
#    0.000    1.000    0.000    0.000    0.000    0.000 
#    0.000    0.000    0.000    0.000    0.000    0.000 
#
# Total GULP energy -495547.996782 kJ/mol
# GULP energy per Si atom -12388.699920 kJ/mol
# Density = 1.981329 g / cm^3
# Si number density = 19.858488 Si / 1000 Ang^3
#
#
#
# Elastic Constant Matrix: (Units=GPa)
#
#
# Indices 1 2 3 4 5 6 
#
# 1 64.2144 25.6448 22.3226 0.0000 0.0000 0.0000
# 2 25.6448 141.2448 15.5462 0.0000 0.0000 0.0000
# 3 22.3226 15.5462 46.0250 0.0000 0.0000 0.0000
# 4 0.0000 0.0000 0.0000 -1.0979 0.0000 0.0000
# 5 0.0000 0.0000 0.0000 0.0000 19.8247 0.0000
# 6 0.0000 0.0000 0.0000 0.0000 0.0000 12.7562
#
#
#
# Elastic Compliance Matrix: (Units=1/GPa)
#
#
# Indices 1 2 3 4 5 6 
#
# 1 0.019617 -0.002612 -0.008632 0.000000 0.000000 0.000000
# 2 -0.002612 0.007701 -0.001335 0.000000 0.000000 0.000000
# 3 -0.008632 -0.001335 0.026365 0.000000 0.000000 0.000000
# 4 0.000000 0.000000 0.000000 -0.910806 0.000000 0.000000
# 5 0.000000 0.000000 0.000000 0.000000 0.050442 0.000000
# 6 0.000000 0.000000 0.000000 0.000000 0.000000 0.078393
#
#
# Mechanical properties :
#
#
# Convention : Reuss Voigt Hill
#
# Bulk Modulus (GPa) = 35.05597 42.05682 38.55639
# Shear Modulus (GPa) = -7.20852 18.82796 5.80972
#
# Velocity S-wave (km/s) = -1.90731 3.08247 1.71228
# Velocity P-wave (km/s) = 3.58340 5.82178 4.83394
#
# Compressibility (1/GPa) = 0.02852581
#
# Stress axis : x y z
#
# Youngs Moduli (GPa) = 50.97737 129.85397 37.92938
#
# Poissons Ratio (x) = 0.33912 0.32741
# Poissons Ratio (y) = 0.13313 0.05062
# Poissons Ratio (z) = 0.44004 0.17330
#
# Static dielectric constant tensor:
#      x y z
#    x 3.140490 0.000000 0.000000 
#    y 0.000000 3.994890 0.000000 
#    z 0.000000 0.000000 3.554640 
# 
# 
# High freq. dielectric constant tensor:
#      x y z
#    x 1.727600 0.000000 0.000000 
#    y 0.000000 1.801410 0.000000 
#    z 0.000000 0.000000 1.769490 
# 
# From -- ./inp_files/22855.got.cif
#   From: 2010.03.12/outbox.cif.g09.slc.cpg/sg62_12_cif.got.tgz:22855.got - 2010.04.10 19:12:36.
