data_PCOD8250398
_publ_section_title
;
Structure prediction by ZEFSAII (Michael W. Deem and Ramdas Pophale) SiO2 
 PCOD8250398
Probable space group: P N M A
;
_chemical_formula_sum "Si O2"
_cell_formula_units_Z 64
_cell_length_a 21.492943
_cell_length_b 18.274240
_cell_length_c 8.979017
_cell_angle_alpha 90.000000
_cell_angle_beta 90.000000
_cell_angle_gamma 90.000000
_cell_volume 3526.663354
_symmetry_space_group_name_H-M "P N M A"
_symmetry_group_IT_number 62
_symmetry_cell_setting 'orthorhombic'
loop_
_space_group_symop_operation_xyz
x,y,z
1/2-x,-y,1/2+z
1/2+x,1/2-y,1/2-z
-x,1/2+y,-z
-x,-y,-z
1/2+x,y,1/2-z
1/2-x,1/2+y,1/2+z
x,1/2-y,z
loop_
_atom_site_type_symbol
_atom_site_label
_atom_site_fract_x
_atom_site_fract_y
_atom_site_fract_z
Si Si1 0.632466 0.831860 0.562596
Si Si2 0.313246 0.035523 0.944681
Si Si3 0.802490 0.034676 0.901786
Si Si4 0.942172 0.954803 0.565308
Si Si5 0.019071 0.886779 0.083994
Si Si6 0.869601 0.166752 0.406119
Si Si7 0.496183 0.333880 0.914187
Si Si8 0.923966 0.541951 0.905722
O O1 0.661144 0.750000 0.547852
O O2 0.675407 0.889072 0.474340
O O3 0.562475 0.826998 0.495676
O O4 0.626601 0.855779 0.733882
O O5 0.295079 0.047122 0.773864
O O6 0.378390 0.994980 0.972634
O O7 0.318070 0.115889 0.016495
O O8 0.262468 0.986681 0.026748
O O9 0.849522 0.965740 0.923749
O O10 0.947577 0.941229 0.740465
O O11 0.944993 0.874812 0.488351
O O12 0.000000 0.000000 0.500000
O O13 0.018396 0.872085 0.258155
O O14 0.051253 0.963258 0.044890
O O15 0.949627 0.892906 0.013014
O O16 0.847061 0.250000 0.426329
O O17 0.936694 0.155840 0.480879
O O18 0.514713 0.250000 0.889433
#
# Coordination Sequence:
#
# PCOD8250398 Si02
#       8
#     8   8   8   8   8   8   8   8
#     4  10  20  34  54  82 115 148 188 232 282 339
#     4  11  22  37  60  82 113 149 190 238 278 340
#     4  10  22  38  56  84 110 149 192 232 285 337
#     4  11  19  35  58  83 108 144 185 236 281 333
#     4  10  18  30  52  80 111 145 176 233 282 328
#     4  10  20  34  56  83 111 145 184 234 285 335
#     4  11  21  33  51  82 117 146 184 232 291 344
#     4   9  19  33  53  81 110 140 186 229 278 330
#
# _framework density 18.147465
#
# number of rings (size 3 to 8) (size 9 to 14) (size 15 to 20)
#    0.000    1.750    2.500    3.375    0.000    3.500 
#    0.000    1.250    0.000    6.000    0.000    0.000 
#    0.000    0.000    0.000    0.000    0.000    0.000 
#
# Total GULP energy -793430.244398 kJ/mol
# GULP energy per Si atom -12397.347569 kJ/mol
# Density = 1.810616 g / cm^3
# Si number density = 18.147465 Si / 1000 Ang^3
#
#
#
# Elastic Constant Matrix: (Units=GPa)
#
#
# Indices 1 2 3 4 5 6 
#
# 1 89.7337 41.5518 57.7531 0.0000 0.0000 0.0000
# 2 41.5518 86.9179 44.8172 0.0000 0.0000 0.0000
# 3 57.7531 44.8172 135.0830 0.0000 0.0000 0.0000
# 4 0.0000 0.0000 0.0000 28.1214 0.0000 0.0000
# 5 0.0000 0.0000 0.0000 0.0000 29.7597 0.0000
# 6 0.0000 0.0000 0.0000 0.0000 0.0000 23.5474
#
#
#
# Elastic Compliance Matrix: (Units=1/GPa)
#
#
# Indices 1 2 3 4 5 6 
#
# 1 0.017217 -0.005350 -0.005586 0.000000 0.000000 0.000000
# 2 -0.005350 0.015542 -0.002869 0.000000 0.000000 0.000000
# 3 -0.005586 -0.002869 0.010743 0.000000 0.000000 0.000000
# 4 0.000000 0.000000 0.000000 0.035560 0.000000 0.000000
# 5 0.000000 0.000000 0.000000 0.000000 0.033602 0.000000
# 6 0.000000 0.000000 0.000000 0.000000 0.000000 0.042467
#
#
# Mechanical properties :
#
#
# Convention : Reuss Voigt Hill
#
# Bulk Modulus (GPa) = 62.92668 66.66431 64.79549
# Shear Modulus (GPa) = 26.59025 27.45988 27.02506
#
# Velocity S-wave (km/s) = 3.83199 3.89415 3.86319
# Velocity P-wave (km/s) = 7.37084 7.55207 7.46200
#
# Compressibility (1/GPa) = 0.01589151
#
# Stress axis : x y z
#
# Youngs Moduli (GPa) = 58.08365 64.34068 93.08579
#
# Poissons Ratio (x) = 0.34425 0.51994
# Poissons Ratio (y) = 0.31077 0.26707
# Poissons Ratio (z) = 0.32443 0.18460
#
# Static dielectric constant tensor:
#      x y z
#    x 3.332290 0.000000 0.000000 
#    y 0.000000 3.499470 0.000000 
#    z 0.000000 0.000000 3.490860 
# 
# 
# High freq. dielectric constant tensor:
#      x y z
#    x 1.677790 0.000000 0.000000 
#    y 0.000000 1.697060 0.000000 
#    z 0.000000 0.000000 1.722910 
# 
# From -- ./inp_files/8870.got.cif
#   From: 2010.03.12/outbox.cif.g09.slc.cpg/sg62_5_cif.got.tgz:8870.got - 2010.04.10 19:12:36.
