data_PCOD8250012
_publ_section_title
;
Structure prediction by ZEFSAII (Michael W. Deem and Ramdas Pophale) SiO2 
 PCOD8250012
Probable space group: P N M A
;
_chemical_formula_sum "Si O2"
_cell_formula_units_Z 56
_cell_length_a 12.216710
_cell_length_b 20.964590
_cell_length_c 12.731752
_cell_angle_alpha 90.000000
_cell_angle_beta 90.000000
_cell_angle_gamma 90.000000
_cell_volume 3260.834886
_symmetry_space_group_name_H-M "P N M A"
_symmetry_group_IT_number 62
_symmetry_cell_setting 'orthorhombic'
loop_
_space_group_symop_operation_xyz
x,y,z
1/2-x,-y,1/2+z
1/2+x,1/2-y,1/2-z
-x,1/2+y,-z
-x,-y,-z
1/2+x,y,1/2-z
1/2-x,1/2+y,1/2+z
x,1/2-y,z
loop_
_atom_site_type_symbol
_atom_site_label
_atom_site_fract_x
_atom_site_fract_y
_atom_site_fract_z
Si Si1 0.928646 0.078970 0.923551
Si Si2 0.166126 0.464749 0.944042
Si Si3 0.724171 0.593084 0.866591
Si Si4 0.168450 0.514171 0.259836
Si Si5 0.991744 0.904323 0.705462
Si Si6 0.425869 0.176909 0.403456
Si Si7 0.303188 0.820112 0.804947
O O1 0.862534 0.075944 0.812514
O O2 0.052695 0.058957 0.894972
O O3 0.936875 0.148066 0.978886
O O4 0.862783 0.032357 0.002932
O O5 0.267914 0.466953 0.864469
O O6 0.210926 0.412256 0.025407
O O7 0.745434 0.530950 0.797387
O O8 0.592689 0.595793 0.875121
O O9 0.767787 0.656532 0.810700
O O10 0.054198 0.475693 0.276988
O O11 0.897583 0.864421 0.646642
O O12 0.016746 0.869653 0.817774
O O13 0.472038 0.250000 0.399384
O O14 0.297110 0.178257 0.383855
O O15 0.351843 0.750000 0.791495
#
# Coordination Sequence:
#
# PCOD8250012 Si02
#       7
#     8   8   8   8   8   8   8
#     4  10  18  32  52  69  95 128 158 197 239 284
#     4  10  19  32  49  72  97 126 160 194 240 292
#     4   9  18  29  45  69  97 126 160 198 234 286
#     4  10  19  30  47  70  97 125 157 196 242 289
#     4  10  17  28  45  71 102 125 151 194 243 287
#     4  10  19  31  50  73  95 126 165 199 238 289
#     4   9  17  29  46  70 100 130 159 195 242 293
#
# _framework density 17.173515999999999
#
# number of rings (size 3 to 8) (size 9 to 14) (size 15 to 20)
#    0.000    2.286    0.000    7.286    0.000    1.143 
#    0.000    1.429    0.000    1.714    0.000    0.000 
#    0.000    0.000    0.000    0.000    0.000    0.000 
#
# Total GULP energy -693788.622697 kJ/mol
# GULP energy per Si atom -12389.082548 kJ/mol
# Density = 1.713443 g / cm^3
# Si number density = 17.173516 Si / 1000 Ang^3
#
#
#
# Elastic Constant Matrix: (Units=GPa)
#
#
# Indices 1 2 3 4 5 6 
#
# 1 85.0124 7.0008 22.9949 0.0000 0.0000 0.0000
# 2 7.0008 46.2214 18.1158 0.0000 0.0000 0.0000
# 3 22.9949 18.1158 48.2818 0.0000 0.0000 0.0000
# 4 0.0000 0.0000 0.0000 18.3566 0.0000 0.0000
# 5 0.0000 0.0000 0.0000 0.0000 26.0067 0.0000
# 6 0.0000 0.0000 0.0000 0.0000 0.0000 21.1721
#
#
#
# Elastic Compliance Matrix: (Units=1/GPa)
#
#
# Indices 1 2 3 4 5 6 
#
# 1 0.013515 0.000558 -0.006646 0.000000 0.000000 0.000000
# 2 0.000558 0.025388 -0.009791 0.000000 0.000000 0.000000
# 3 -0.006646 -0.009791 0.027551 0.000000 0.000000 0.000000
# 4 0.000000 0.000000 0.000000 0.054476 0.000000 0.000000
# 5 0.000000 0.000000 0.000000 0.000000 0.038452 0.000000
# 6 0.000000 0.000000 0.000000 0.000000 0.000000 0.047232
#
#
# Mechanical properties :
#
#
# Convention : Reuss Voigt Hill
#
# Bulk Modulus (GPa) = 28.82307 30.63763 29.73035
# Shear Modulus (GPa) = 20.00500 21.86735 20.93617
#
# Velocity S-wave (km/s) = 3.41673 3.57223 3.49534
# Velocity P-wave (km/s) = 5.69080 5.90705 5.79993
#
# Compressibility (1/GPa) = 0.03469443
#
# Stress axis : x y z
#
# Youngs Moduli (GPa) = 73.99357 39.38849 36.29662
#
# Poissons Ratio (x) = -0.02197 0.24122
# Poissons Ratio (y) = -0.04127 0.35540
# Poissons Ratio (z) = 0.49175 0.38567
#
# Static dielectric constant tensor:
#      x y z
#    x 3.423590 0.000000 0.000000 
#    y 0.000000 3.167390 0.000000 
#    z 0.000000 0.000000 2.994500 
# 
# 
# High freq. dielectric constant tensor:
#      x y z
#    x 1.682870 0.000000 0.000000 
#    y 0.000000 1.638140 0.000000 
#    z 0.000000 0.000000 1.624370 
# 
# From -- ./inp_files/12406.got.cif
#   From: 2010.03.12/outbox.cif.g09.slc.cpg/sg62_7_cif.got.tgz:12406.got - 2010.04.10 19:12:36.
