data_PCOD8250327
_publ_section_title
;
Structure prediction by ZEFSAII (Michael W. Deem and Ramdas Pophale) SiO2 
 PCOD8250327
Probable space group: P N M A
;
_chemical_formula_sum "Si O2"
_cell_formula_units_Z 64
_cell_length_a 11.184623
_cell_length_b 20.366202
_cell_length_c 17.588597
_cell_angle_alpha 90.000000
_cell_angle_beta 90.000000
_cell_angle_gamma 90.000000
_cell_volume 4006.476457
_symmetry_space_group_name_H-M "P N M A"
_symmetry_group_IT_number 62
_symmetry_cell_setting 'orthorhombic'
loop_
_space_group_symop_operation_xyz
x,y,z
1/2-x,-y,1/2+z
1/2+x,1/2-y,1/2-z
-x,1/2+y,-z
-x,-y,-z
1/2+x,y,1/2-z
1/2-x,1/2+y,1/2+z
x,1/2-y,z
loop_
_atom_site_type_symbol
_atom_site_label
_atom_site_fract_x
_atom_site_fract_y
_atom_site_fract_z
Si Si1 0.834816 0.674971 0.282231
Si Si2 0.018398 0.044674 0.725369
Si Si3 0.574221 0.467716 0.611055
Si Si4 0.968175 0.391962 0.522151
Si Si5 0.648342 0.558939 0.483889
Si Si6 0.199457 0.322852 0.540997
Si Si7 0.804796 0.108027 0.657400
Si Si8 0.371663 0.008355 0.085289
O O1 0.881537 0.750000 0.270092
O O2 0.938349 0.621100 0.269760
O O3 0.790398 0.665884 0.368461
O O4 0.726163 0.661505 0.222766
O O5 0.018799 0.011487 0.808016
O O6 0.882474 0.048447 0.694395
O O7 0.106953 0.997802 0.675931
O O8 0.619991 0.531860 0.567439
O O9 0.473193 0.430911 0.562474
O O10 0.683152 0.418687 0.622582
O O11 0.877989 0.362471 0.585752
O O12 0.900424 0.417990 0.446138
O O13 0.066252 0.335764 0.507418
O O14 0.036103 0.455189 0.553699
O O15 0.706855 0.629285 0.498840
O O16 0.736759 0.509857 0.438183
O O17 0.236470 0.250000 0.518000
#
# Coordination Sequence:
#
# PCOD8250327 Si02
#       8
#     8   8   8   8   8   8   8   8
#     4  10  19  28  40  64  97 136 165 189 229 278
#     4  10  19  31  47  68  97 125 166 214 245 290
#     4  10  21  29  49  71  96 133 163 202 252 296
#     4   9  16  29  48  69  92 123 166 200 247 282
#     4  10  18  34  46  69 103 130 167 198 248 298
#     4  10  19  32  50  70  96 133 167 201 239 288
#     4  10  18  30  44  67  95 128 167 203 239 279
#     4   9  16  29  49  70  93 128 152 211 252 277
#
# _framework density 15.974136
#
# number of rings (size 3 to 8) (size 9 to 14) (size 15 to 20)
#    0.000    2.250    5.000    0.750    3.500    1.000 
#    0.000    3.750    0.000    0.000    0.000    0.875 
#    0.000    0.000    0.000    0.000    0.000    0.000 
#
# Total GULP energy -793068.809064 kJ/mol
# GULP energy per Si atom -12391.700142 kJ/mol
# Density = 1.593778 g / cm^3
# Si number density = 15.974136 Si / 1000 Ang^3
#
#
#
# Elastic Constant Matrix: (Units=GPa)
#
#
# Indices 1 2 3 4 5 6 
#
# 1 86.6879 36.0839 26.3436 0.0000 0.0000 0.0000
# 2 36.0839 68.7410 39.6895 0.0000 0.0000 0.0000
# 3 26.3436 39.6895 75.3848 0.0000 0.0000 0.0000
# 4 0.0000 0.0000 0.0000 17.5561 0.0000 0.0000
# 5 0.0000 0.0000 0.0000 0.0000 21.5743 0.0000
# 6 0.0000 0.0000 0.0000 0.0000 0.0000 15.9756
#
#
#
# Elastic Compliance Matrix: (Units=1/GPa)
#
#
# Indices 1 2 3 4 5 6 
#
# 1 0.014888 -0.006912 -0.001563 0.000000 0.000000 0.000000
# 2 -0.006912 0.024110 -0.010278 0.000000 0.000000 0.000000
# 3 -0.001563 -0.010278 0.019223 0.000000 0.000000 0.000000
# 4 0.000000 0.000000 0.000000 0.056960 0.000000 0.000000
# 5 0.000000 0.000000 0.000000 0.000000 0.046351 0.000000
# 6 0.000000 0.000000 0.000000 0.000000 0.000000 0.062595
#
#
# Mechanical properties :
#
#
# Convention : Reuss Voigt Hill
#
# Bulk Modulus (GPa) = 48.27842 48.33863 48.30853
# Shear Modulus (GPa) = 18.61912 19.60098 19.11005
#
# Velocity S-wave (km/s) = 3.41776 3.50672 3.46253
# Velocity P-wave (km/s) = 6.77224 6.83538 6.80388
#
# Compressibility (1/GPa) = 0.02071319
#
# Stress axis : x y z
#
# Youngs Moduli (GPa) = 67.16792 41.47592 52.02092
#
# Poissons Ratio (x) = 0.28670 0.08133
# Poissons Ratio (y) = 0.46430 0.53469
# Poissons Ratio (z) = 0.10501 0.42630
#
# Static dielectric constant tensor:
#      x y z
#    x 3.181460 0.000000 0.000000 
#    y 0.000000 2.853660 0.000000 
#    z 0.000000 0.000000 3.289340 
# 
# 
# High freq. dielectric constant tensor:
#      x y z
#    x 1.622840 0.000000 0.000000 
#    y 0.000000 1.568640 0.000000 
#    z 0.000000 0.000000 1.603910 
# 
# From -- ./inp_files/23354.got.cif
#   From: 2010.03.12/outbox.cif.g09.slc.cpg/sg62_12_cif.got.tgz:23354.got - 2010.04.10 19:12:36.
