data_PCOD8250914
_publ_section_title
;
Structure prediction by ZEFSAII (Michael W. Deem and Ramdas Pophale) SiO2 
 PCOD8250914
Probable space group: P N M A
;
_chemical_formula_sum "Si O2"
_cell_formula_units_Z 64
_cell_length_a 24.133622
_cell_length_b 19.244282
_cell_length_c 7.940729
_cell_angle_alpha 90.000000
_cell_angle_beta 90.000000
_cell_angle_gamma 90.000000
_cell_volume 3687.946339
_symmetry_space_group_name_H-M "P N M A"
_symmetry_group_IT_number 62
_symmetry_cell_setting 'orthorhombic'
loop_
_space_group_symop_operation_xyz
x,y,z
1/2-x,-y,1/2+z
1/2+x,1/2-y,1/2-z
-x,1/2+y,-z
-x,-y,-z
1/2+x,y,1/2-z
1/2-x,1/2+y,1/2+z
x,1/2-y,z
loop_
_atom_site_type_symbol
_atom_site_label
_atom_site_fract_x
_atom_site_fract_y
_atom_site_fract_z
Si Si1 0.927894 0.329011 0.385209
Si Si2 0.140596 0.422042 0.572688
Si Si3 0.462939 0.671495 0.082004
Si Si4 0.570538 0.948214 0.633205
Si Si5 0.680626 0.473875 0.599298
Si Si6 0.382126 0.055803 0.909933
Si Si7 0.988405 0.441252 0.794498
Si Si8 0.292507 0.969194 0.776132
O O1 0.907330 0.250000 0.359324
O O2 0.918711 0.374205 0.219440
O O3 0.889423 0.364455 0.530847
O O4 0.993099 0.331277 0.429117
O O5 0.093737 0.366243 0.530653
O O6 0.166254 0.413175 0.761958
O O7 0.119165 0.503111 0.571548
O O8 0.183883 0.414262 0.415293
O O9 0.448694 0.750000 0.132507
O O10 0.491198 0.634963 0.240935
O O11 0.526429 0.932727 0.487828
O O12 0.627867 0.977988 0.561085
O O13 0.538869 0.005913 0.746276
O O14 0.728169 0.520249 0.685925
O O15 0.700287 0.442767 0.417909
O O16 0.435250 0.031373 0.805241
O O17 0.326171 0.042761 0.800382
#
# Coordination Sequence:
#
# PCOD8250914 Si02
#       8
#     8   8   8   8   8   8   8   8
#     4  10  20  32  50  74 108 147 175 211 270 325
#     4  10  19  34  56  80 104 144 175 228 265 315
#     4  10  20  35  52  75 112 148 177 212 269 330
#     4  11  19  31  52  80 108 137 181 229 264 328
#     4  12  19  34  55  88 106 136 182 230 277 319
#     4   9  17  33  51  77 103 137 175 223 265 317
#     4  10  19  30  52  80 108 139 177 220 274 323
#     4  10  21  33  56  86 105 136 179 233 273 315
#
# _framework density 17.353831
#
# number of rings (size 3 to 8) (size 9 to 14) (size 15 to 20)
#    0.750    1.000    5.000    0.750    0.000    2.500 
#    0.000    0.000    0.000    1.500    0.000    0.000 
#    0.000    0.000    0.000    0.000    0.000    0.000 
#
# Total GULP energy -792906.005195 kJ/mol
# GULP energy per Si atom -12389.156331 kJ/mol
# Density = 1.731433 g / cm^3
# Si number density = 17.353831 Si / 1000 Ang^3
#
#
#
# Elastic Constant Matrix: (Units=GPa)
#
#
# Indices 1 2 3 4 5 6 
#
# 1 76.1605 13.2939 7.6037 0.0000 0.0000 0.0000
# 2 13.2939 71.8386 8.4986 0.0000 0.0000 0.0000
# 3 7.6037 8.4986 87.5192 0.0000 0.0000 0.0000
# 4 0.0000 0.0000 0.0000 15.9370 0.0000 0.0000
# 5 0.0000 0.0000 0.0000 0.0000 27.7997 0.0000
# 6 0.0000 0.0000 0.0000 0.0000 0.0000 15.6446
#
#
#
# Elastic Compliance Matrix: (Units=1/GPa)
#
#
# Indices 1 2 3 4 5 6 
#
# 1 0.013646 -0.002413 -0.000951 0.000000 0.000000 0.000000
# 2 -0.002413 0.014508 -0.001199 0.000000 0.000000 0.000000
# 3 -0.000951 -0.001199 0.011625 0.000000 0.000000 0.000000
# 4 0.000000 0.000000 0.000000 0.062747 0.000000 0.000000
# 5 0.000000 0.000000 0.000000 0.000000 0.035972 0.000000
# 6 0.000000 0.000000 0.000000 0.000000 0.000000 0.063920
#
#
# Mechanical properties :
#
#
# Convention : Reuss Voigt Hill
#
# Bulk Modulus (GPa) = 32.62283 32.70116 32.66200
# Shear Modulus (GPa) = 22.54663 25.61774 24.08219
#
# Velocity S-wave (km/s) = 3.60839 3.84630 3.72925
# Velocity P-wave (km/s) = 6.01665 6.21370 6.11597
#
# Compressibility (1/GPa) = 0.03065338
#
# Stress axis : x y z
#
# Youngs Moduli (GPa) = 73.28003 68.92540 86.02026
#
# Poissons Ratio (x) = 0.16630 0.08183
# Poissons Ratio (y) = 0.17680 0.10316
# Poissons Ratio (z) = 0.06971 0.08266
#
# Static dielectric constant tensor:
#      x y z
#    x 3.286470 0.000000 0.000000 
#    y 0.000000 2.902730 0.000000 
#    z 0.000000 0.000000 3.306280 
# 
# 
# High freq. dielectric constant tensor:
#      x y z
#    x 1.676940 0.000000 0.000000 
#    y 0.000000 1.618620 0.000000 
#    z 0.000000 0.000000 1.679080 
# 
# From -- ./inp_files/9560.got.cif
#   From: 2010.03.12/outbox.cif.g09.slc.cpg/sg62_5_cif.got.tgz:9560.got - 2010.04.10 19:12:36.
