data_PCOD8250598
_publ_section_title
;
Structure prediction by ZEFSAII (Michael W. Deem and Ramdas Pophale) SiO2 
 PCOD8250598
Probable space group: P N M A
;
_chemical_formula_sum "Si O2"
_cell_formula_units_Z 32
_cell_length_a 12.351465
_cell_length_b 8.656077
_cell_length_c 14.297207
_cell_angle_alpha 90.000000
_cell_angle_beta 90.000000
_cell_angle_gamma 90.000000
_cell_volume 1528.589205
_symmetry_space_group_name_H-M "P N M A"
_symmetry_group_IT_number 62
_symmetry_cell_setting 'orthorhombic'
loop_
_space_group_symop_operation_xyz
x,y,z
1/2-x,-y,1/2+z
1/2+x,1/2-y,1/2-z
-x,1/2+y,-z
-x,-y,-z
1/2+x,y,1/2-z
1/2-x,1/2+y,1/2+z
x,1/2-y,z
loop_
_atom_site_type_symbol
_atom_site_label
_atom_site_fract_x
_atom_site_fract_y
_atom_site_fract_z
Si Si1 0.095947 0.933120 0.562353
Si Si2 0.279696 0.571413 0.909646
Si Si3 0.964637 0.431998 0.715010
Si Si4 0.530043 0.928672 0.598386
O O1 0.100214 0.750000 0.561130
O O2 0.204748 0.000712 0.514676
O O3 0.000000 0.000000 0.500000
O O4 0.072073 0.992309 0.667210
O O5 0.313815 0.750000 0.911254
O O6 0.353864 0.485125 0.833972
O O7 0.156453 0.547369 0.880413
O O8 0.974159 0.250000 0.707191
O O9 0.961220 0.484408 0.822390
O O10 0.497654 0.750000 0.598862
O O11 0.500000 0.000000 0.500000
#
# Coordination Sequence:
#
# PCOD8250598 Si02
#       4
#     8   8   8   8
#     4  10  18  32  57  87 118 150 190 240 289 341
#     4  10  21  39  62  88 119 155 196 242 295 350
#     4  11  22  38  62  89 119 156 199 245 291 347
#     4  11  25  43  62  86 119 157 196 243 295 350
#
# _framework density 20.934336999999999
#
# number of rings (size 3 to 8) (size 9 to 14) (size 15 to 20)
#    0.000    1.500    0.000    9.000    0.000    6.000 
#    0.000    0.000    0.000    0.000    0.000    0.000 
#    0.000    0.000    0.000    0.000    0.000    0.000 
#
# Total GULP energy -396814.912817 kJ/mol
# GULP energy per Si atom -12400.466026 kJ/mol
# Density = 2.088669 g / cm^3
# Si number density = 20.934337 Si / 1000 Ang^3
#
#
#
# Elastic Constant Matrix: (Units=GPa)
#
#
# Indices 1 2 3 4 5 6 
#
# 1 52.5656 40.1396 29.0228 0.0000 0.0000 0.0000
# 2 40.1396 188.7616 54.3991 0.0000 0.0000 0.0000
# 3 29.0228 54.3991 143.0117 0.0000 0.0000 0.0000
# 4 0.0000 0.0000 0.0000 41.5088 0.0000 0.0000
# 5 0.0000 0.0000 0.0000 0.0000 27.6643 0.0000
# 6 0.0000 0.0000 0.0000 0.0000 0.0000 28.5286
#
#
#
# Elastic Compliance Matrix: (Units=1/GPa)
#
#
# Indices 1 2 3 4 5 6 
#
# 1 0.024017 -0.004158 -0.003292 0.000000 0.000000 0.000000
# 2 -0.004158 0.006670 -0.001693 0.000000 0.000000 0.000000
# 3 -0.003292 -0.001693 0.008305 0.000000 0.000000 0.000000
# 4 0.000000 0.000000 0.000000 0.024091 0.000000 0.000000
# 5 0.000000 0.000000 0.000000 0.000000 0.036148 0.000000
# 6 0.000000 0.000000 0.000000 0.000000 0.000000 0.035053
#
#
# Mechanical properties :
#
#
# Convention : Reuss Voigt Hill
#
# Bulk Modulus (GPa) = 48.30014 70.16244 59.23129
# Shear Modulus (GPa) = 31.35348 36.92549 34.13948
#
# Velocity S-wave (km/s) = 3.87422 4.20440 4.04268
# Velocity P-wave (km/s) = 6.56773 7.56026 7.08141
#
# Compressibility (1/GPa) = 0.02070388
#
# Stress axis : x y z
#
# Youngs Moduli (GPa) = 41.63728 149.92703 120.41469
#
# Poissons Ratio (x) = 0.62345 0.39644
# Poissons Ratio (y) = 0.17314 0.20389
# Poissons Ratio (z) = 0.13708 0.25386
#
# Static dielectric constant tensor:
#      x y z
#    x 3.761320 0.000000 0.000000 
#    y 0.000000 3.961150 0.000000 
#    z 0.000000 0.000000 4.176110 
# 
# 
# High freq. dielectric constant tensor:
#      x y z
#    x 1.803380 0.000000 0.000000 
#    y 0.000000 1.839340 0.000000 
#    z 0.000000 0.000000 1.825280 
# 
# From -- ./inp_files/17624.got.cif
#   From: 2010.03.12/outbox.cif.g09.slc.cpg/sg62_9_cif.got.tgz:17624.got - 2010.04.10 19:12:36.
