data_PCOD8250347
_publ_section_title
;
Structure prediction by ZEFSAII (Michael W. Deem and Ramdas Pophale) SiO2 
 PCOD8250347
Probable space group: P N M A
;
_chemical_formula_sum "Si O2"
_cell_formula_units_Z 64
_cell_length_a 9.964180
_cell_length_b 14.381414
_cell_length_c 26.166083
_cell_angle_alpha 90.000000
_cell_angle_beta 90.000000
_cell_angle_gamma 90.000000
_cell_volume 3749.573469
_symmetry_space_group_name_H-M "P N M A"
_symmetry_group_IT_number 62
_symmetry_cell_setting 'orthorhombic'
loop_
_space_group_symop_operation_xyz
x,y,z
1/2-x,-y,1/2+z
1/2+x,1/2-y,1/2-z
-x,1/2+y,-z
-x,-y,-z
1/2+x,y,1/2-z
1/2-x,1/2+y,1/2+z
x,1/2-y,z
loop_
_atom_site_type_symbol
_atom_site_label
_atom_site_fract_x
_atom_site_fract_y
_atom_site_fract_z
Si Si1 0.321242 0.642929 0.196298
Si Si2 0.633961 0.144698 0.522806
Si Si3 0.368062 0.355032 0.051328
Si Si4 0.020429 0.034388 0.887492
Si Si5 0.150534 0.356049 0.496496
Si Si6 0.787993 0.536227 0.403584
Si Si7 0.580643 0.643339 0.562887
Si Si8 0.984991 0.357405 0.788350
O O1 0.331552 0.750000 0.179295
O O2 0.352490 0.579689 0.147200
O O3 0.435493 0.617610 0.237038
O O4 0.173332 0.622619 0.219580
O O5 0.607104 0.250000 0.540174
O O6 0.782384 0.130504 0.500358
O O7 0.620989 0.080908 0.572205
O O8 0.528112 0.115873 0.479565
O O9 0.347316 0.250000 0.072294
O O10 0.521090 0.375323 0.037754
O O11 0.319079 0.425784 0.095467
O O12 0.869387 0.057973 0.904178
O O13 0.047139 0.076086 0.831720
O O14 0.051925 0.923676 0.888477
O O15 0.157052 0.250000 0.515778
O O16 0.145863 0.420095 0.546180
O O17 0.274894 0.379041 0.460230
O O18 0.566509 0.750000 0.581084
O O19 0.009194 0.250000 0.803932
#
# Coordination Sequence:
#
# PCOD8250347 Si02
#       8
#     8   8   8   8   8   8   8   8
#     4   9  19  36  55  74  97 124 158 202 248 292
#     4  10  18  30  48  72 101 130 161 197 236 282
#     4  10  21  34  46  69 106 136 162 200 239 281
#     4  11  19  30  52  76  97 126 167 204 238 286
#     4  10  20  33  47  70 104 135 164 199 239 285
#     4  11  19  31  53  74  95 132 170 196 237 295
#     4  10  19  31  49  71 100 133 162 196 236 282
#     4   9  19  36  54  73  98 125 156 200 249 291
#
# _framework density 17.068608000000001
#
# number of rings (size 3 to 8) (size 9 to 14) (size 15 to 20)
#    0.000    2.000    2.500    2.250    0.000    1.000 
#    4.500    0.000    0.000    0.750    0.000    0.000 
#    0.000    0.000    0.000    0.000    0.000    0.000 
#
# Total GULP energy -793703.381389 kJ/mol
# GULP energy per Si atom -12401.615334 kJ/mol
# Density = 1.702976 g / cm^3
# Si number density = 17.068608 Si / 1000 Ang^3
#
#
#
# Elastic Constant Matrix: (Units=GPa)
#
#
# Indices 1 2 3 4 5 6 
#
# 1 57.3742 12.6847 15.7700 0.0000 0.0000 0.0000
# 2 12.6847 92.9397 51.8302 0.0000 0.0000 0.0000
# 3 15.7700 51.8302 72.0707 0.0000 0.0000 0.0000
# 4 0.0000 0.0000 0.0000 28.0076 0.0000 0.0000
# 5 0.0000 0.0000 0.0000 0.0000 19.9088 0.0000
# 6 0.0000 0.0000 0.0000 0.0000 0.0000 20.8476
#
#
#
# Elastic Compliance Matrix: (Units=1/GPa)
#
#
# Indices 1 2 3 4 5 6 
#
# 1 0.018556 -0.000448 -0.003738 0.000000 0.000000 0.000000
# 2 -0.000448 0.017975 -0.012829 0.000000 0.000000 0.000000
# 3 -0.003738 -0.012829 0.023919 0.000000 0.000000 0.000000
# 4 0.000000 0.000000 0.000000 0.035705 0.000000 0.000000
# 5 0.000000 0.000000 0.000000 0.000000 0.050229 0.000000
# 6 0.000000 0.000000 0.000000 0.000000 0.000000 0.047967
#
#
# Mechanical properties :
#
#
# Convention : Reuss Voigt Hill
#
# Bulk Modulus (GPa) = 37.84965 42.55048 40.20006
# Shear Modulus (GPa) = 21.08030 23.22611 22.15321
#
# Velocity S-wave (km/s) = 3.51812 3.69284 3.60653
# Velocity P-wave (km/s) = 6.22302 6.57008 6.39890
#
# Compressibility (1/GPa) = 0.02642032
#
# Stress axis : x y z
#
# Youngs Moduli (GPa) = 53.89105 55.63218 41.80719
#
# Poissons Ratio (x) = 0.02492 0.15628
# Poissons Ratio (y) = 0.02414 0.53635
# Poissons Ratio (z) = 0.20146 0.71371
#
# Static dielectric constant tensor:
#      x y z
#    x 3.300880 0.000000 0.000000 
#    y 0.000000 3.402480 0.000000 
#    z 0.000000 0.000000 2.867580 
# 
# 
# High freq. dielectric constant tensor:
#      x y z
#    x 1.665830 0.000000 0.000000 
#    y 0.000000 1.667070 0.000000 
#    z 0.000000 0.000000 1.616140 
# 
# From -- ./inp_files/29015.got.cif
#   From: 2010.03.12/outbox.cif.g09.slc.cpg/sg62_15_cif.got.tgz:29015.got - 2010.04.10 19:12:36.
