data_PCOD8250777
_publ_section_title
;
Structure prediction by ZEFSAII (Michael W. Deem and Ramdas Pophale) SiO2 
 PCOD8250777
Probable space group: P N M A
;
_chemical_formula_sum "Si O2"
_cell_formula_units_Z 56
_cell_length_a 13.874112
_cell_length_b 9.114884
_cell_length_c 28.989063
_cell_angle_alpha 90.000000
_cell_angle_beta 90.000000
_cell_angle_gamma 90.000000
_cell_volume 3665.983620
_symmetry_space_group_name_H-M "P N M A"
_symmetry_group_IT_number 62
_symmetry_cell_setting 'orthorhombic'
loop_
_space_group_symop_operation_xyz
x,y,z
1/2-x,-y,1/2+z
1/2+x,1/2-y,1/2-z
-x,1/2+y,-z
-x,-y,-z
1/2+x,y,1/2-z
1/2-x,1/2+y,1/2+z
x,1/2-y,z
loop_
_atom_site_type_symbol
_atom_site_label
_atom_site_fract_x
_atom_site_fract_y
_atom_site_fract_z
Si Si1 0.395357 0.576335 0.230519
Si Si2 0.615970 0.076793 0.407093
Si Si3 0.392852 0.076345 0.771660
Si Si4 0.708619 0.922459 0.321938
Si Si5 0.899800 0.419670 0.995289
Si Si6 0.292609 0.575853 0.321521
Si Si7 0.607259 0.917114 0.597395
O O1 0.401065 0.750000 0.234165
O O2 0.500779 0.509825 0.218452
O O3 0.318590 0.534232 0.191049
O O4 0.362045 0.517564 0.280624
O O5 0.627766 0.250000 0.412276
O O6 0.504255 0.031369 0.399766
O O7 0.679962 0.018774 0.365428
O O8 0.657336 0.000110 0.453832
O O9 0.395352 0.250000 0.774407
O O10 0.360025 0.031475 0.720350
O O11 0.316053 0.019932 0.809711
O O12 0.698947 0.750000 0.333254
O O13 0.915724 0.250000 0.982423
O O14 0.849538 0.434005 0.045498
O O15 0.000000 0.500000 0.000000
O O16 0.295616 0.750000 0.324376
O O17 0.325894 0.513969 0.370175
O O18 0.613919 0.750000 0.614038
#
# Coordination Sequence:
#
# PCOD8250777 Si02
#       7
#     8   8   8   8   8   8   8
#     4   8  14  25  40  60  86 111 137 171 204 236
#     4  10  19  29  41  60  86 112 137 169 208 247
#     4   8  14  25  40  61  87 110 138 174 204 237
#     4   9  16  26  43  63  81 109 144 171 202 242
#     4   9  17  29  43  60  83 110 138 167 204 249
#     4   9  16  25  42  64  81 107 144 172 198 237
#     4   9  18  29  40  58  85 111 132 162 205 246
#
# _framework density 15.275574000000001
#
# number of rings (size 3 to 8) (size 9 to 14) (size 15 to 20)
#    0.000    3.143    0.000    4.286    0.000    4.571 
#    0.000    2.857    0.000    2.571    0.000    1.000 
#    0.000    0.000    0.000    0.000    0.000    0.000 
#
# Total GULP energy -693922.408803 kJ/mol
# GULP energy per Si atom -12391.471586 kJ/mol
# Density = 1.524081 g / cm^3
# Si number density = 15.275574 Si / 1000 Ang^3
#
#
#
# Elastic Constant Matrix: (Units=GPa)
#
#
# Indices 1 2 3 4 5 6 
#
# 1 107.1959 27.6662 55.0581 0.0000 0.0000 0.0000
# 2 27.6662 53.2284 44.9177 0.0000 0.0000 0.0000
# 3 55.0581 44.9177 113.5378 0.0000 0.0000 0.0000
# 4 0.0000 0.0000 0.0000 27.5135 0.0000 0.0000
# 5 0.0000 0.0000 0.0000 0.0000 20.6057 0.0000
# 6 0.0000 0.0000 0.0000 0.0000 0.0000 13.8076
#
#
#
# Elastic Compliance Matrix: (Units=1/GPa)
#
#
# Indices 1 2 3 4 5 6 
#
# 1 0.012575 -0.002087 -0.005273 0.000000 0.000000 0.000000
# 2 -0.002087 0.028549 -0.010282 0.000000 0.000000 0.000000
# 3 -0.005273 -0.010282 0.015432 0.000000 0.000000 0.000000
# 4 0.000000 0.000000 0.000000 0.036346 0.000000 0.000000
# 5 0.000000 0.000000 0.000000 0.000000 0.048530 0.000000
# 6 0.000000 0.000000 0.000000 0.000000 0.000000 0.072424
#
#
# Mechanical properties :
#
#
# Convention : Reuss Voigt Hill
#
# Bulk Modulus (GPa) = 47.00863 58.80513 52.90688
# Shear Modulus (GPa) = 19.51365 22.14004 20.82684
#
# Velocity S-wave (km/s) = 3.57801 3.81120 3.69644
# Velocity P-wave (km/s) = 6.92171 7.61227 7.27519
#
# Compressibility (1/GPa) = 0.02127269
#
# Stress axis : x y z
#
# Youngs Moduli (GPa) = 79.52000 35.02805 64.79878
#
# Poissons Ratio (x) = 0.07310 0.34166
# Poissons Ratio (y) = 0.16595 0.66628
# Poissons Ratio (z) = 0.41928 0.36017
#
# Static dielectric constant tensor:
#      x y z
#    x 3.138220 0.000000 0.000000 
#    y 0.000000 2.738640 0.000000 
#    z 0.000000 0.000000 2.916860 
# 
# 
# High freq. dielectric constant tensor:
#      x y z
#    x 1.558920 0.000000 0.000000 
#    y 0.000000 1.566160 0.000000 
#    z 0.000000 0.000000 1.583670 
# 
# From -- ./inp_files/32642.got.cif
#   From: 2010.03.12/outbox.cif.g09.slc.cpg/sg62_17_cif.got.tgz:32642.got - 2010.04.10 19:12:36.
