data_PCOD8250931
_publ_section_title
;
Structure prediction by ZEFSAII (Michael W. Deem and Ramdas Pophale) SiO2 
 PCOD8250931
Probable space group: P N M A
;
_chemical_formula_sum "Si O2"
_cell_formula_units_Z 56
_cell_length_a 21.725729
_cell_length_b 9.492412
_cell_length_c 14.685256
_cell_angle_alpha 90.000000
_cell_angle_beta 90.000000
_cell_angle_gamma 90.000000
_cell_volume 3028.534040
_symmetry_space_group_name_H-M "P N M A"
_symmetry_group_IT_number 62
_symmetry_cell_setting 'orthorhombic'
loop_
_space_group_symop_operation_xyz
x,y,z
1/2-x,-y,1/2+z
1/2+x,1/2-y,1/2-z
-x,1/2+y,-z
-x,-y,-z
1/2+x,y,1/2-z
1/2-x,1/2+y,1/2+z
x,1/2-y,z
loop_
_atom_site_type_symbol
_atom_site_label
_atom_site_fract_x
_atom_site_fract_y
_atom_site_fract_z
Si Si1 0.720584 0.917852 0.821828
Si Si2 0.379169 0.412805 0.038222
Si Si3 0.841122 0.091772 0.838580
Si Si4 0.975386 0.087278 0.315708
Si Si5 0.908357 0.090927 0.656241
Si Si6 0.064525 0.583537 0.006735
Si Si7 0.373991 0.416180 0.322106
O O1 0.728462 0.750000 0.823918
O O2 0.674718 0.977302 0.899788
O O3 0.691387 0.966494 0.723078
O O4 0.785041 0.985768 0.848163
O O5 0.363264 0.250000 0.029861
O O6 0.445359 0.436199 0.085182
O O7 0.381464 0.478440 0.936711
O O8 0.821790 0.250000 0.868471
O O9 0.856399 0.089499 0.732266
O O10 0.899643 0.044421 0.900165
O O11 0.991289 0.250000 0.298680
O O12 0.929758 0.026312 0.239154
O O13 0.036525 0.999710 0.305469
O O14 0.931564 0.250000 0.636838
O O15 0.049362 0.750000 0.000894
O O16 0.112164 0.537259 0.925842
O O17 0.000000 0.500000 0.000000
O O18 0.373999 0.250000 0.312489
#
# Coordination Sequence:
#
# PCOD8250931 Si02
#       7
#     8   8   8   8   8   8   8
#     4   9  18  35  55  71  89 123 170 204 233 283
#     4   8  16  31  50  70  94 124 155 191 233 277
#     4  10  22  35  47  70 103 130 154 197 249 288
#     4   9  16  29  50  74  95 117 155 198 229 268
#     4  10  19  31  46  67  99 130 149 178 236 293
#     4  10  20  35  53  74 102 133 166 205 250 295
#     4   8  16  32  53  72  94 127 162 201 243 280
#
# _framework density 18.490796
#
# number of rings (size 3 to 8) (size 9 to 14) (size 15 to 20)
#    0.000    2.857    0.000    3.000    0.000    2.286 
#    0.000    4.286    0.000    0.000    0.000    0.000 
#    0.000    0.000    0.000    0.000    0.000    0.000 
#
# Total GULP energy -693882.579423 kJ/mol
# GULP energy per Si atom -12390.760347 kJ/mol
# Density = 1.844871 g / cm^3
# Si number density = 18.490796 Si / 1000 Ang^3
#
#
#
# Elastic Constant Matrix: (Units=GPa)
#
#
# Indices 1 2 3 4 5 6 
#
# 1 93.9140 39.3453 19.1059 0.0000 0.0000 0.0000
# 2 39.3453 45.3666 15.6610 0.0000 0.0000 0.0000
# 3 19.1059 15.6610 94.4910 0.0000 0.0000 0.0000
# 4 0.0000 0.0000 0.0000 16.0633 0.0000 0.0000
# 5 0.0000 0.0000 0.0000 0.0000 23.0643 0.0000
# 6 0.0000 0.0000 0.0000 0.0000 0.0000 32.9559
#
#
#
# Elastic Compliance Matrix: (Units=1/GPa)
#
#
# Indices 1 2 3 4 5 6 
#
# 1 0.016821 -0.014229 -0.001043 0.000000 0.000000 0.000000
# 2 -0.014229 0.035416 -0.002993 0.000000 0.000000 0.000000
# 3 -0.001043 -0.002993 0.011290 0.000000 0.000000 0.000000
# 4 0.000000 0.000000 0.000000 0.062254 0.000000 0.000000
# 5 0.000000 0.000000 0.000000 0.000000 0.043357 0.000000
# 6 0.000000 0.000000 0.000000 0.000000 0.000000 0.030344
#
#
# Mechanical properties :
#
#
# Convention : Reuss Voigt Hill
#
# Bulk Modulus (GPa) = 37.03944 42.44400 39.74172
# Shear Modulus (GPa) = 20.40733 25.06066 22.73400
#
# Velocity S-wave (km/s) = 3.32572 3.68544 3.51019
# Velocity P-wave (km/s) = 5.90102 6.41201 6.16182
#
# Compressibility (1/GPa) = 0.02699825
#
# Stress axis : x y z
#
# Youngs Moduli (GPa) = 59.44835 28.23586 88.57447
#
# Poissons Ratio (x) = 0.40176 0.09238
# Poissons Ratio (y) = 0.84587 0.26509
# Poissons Ratio (z) = 0.06200 0.08451
#
# Static dielectric constant tensor:
#      x y z
#    x 3.233750 0.000000 0.000000 
#    y 0.000000 3.047940 0.000000 
#    z 0.000000 0.000000 3.901920 
# 
# 
# High freq. dielectric constant tensor:
#      x y z
#    x 1.707010 0.000000 0.000000 
#    y 0.000000 1.679630 0.000000 
#    z 0.000000 0.000000 1.732440 
# 
# From -- ./inp_files/20223.got.cif
#   From: 2010.03.12/outbox.cif.g09.slc.cpg/sg62_11_cif.got.tgz:20223.got - 2010.04.10 19:12:36.
