data_PCOD8250567
_publ_section_title
;
Structure prediction by ZEFSAII (Michael W. Deem and Ramdas Pophale) SiO2 
 PCOD8250567
Probable space group: P N M A
;
_chemical_formula_sum "Si O2"
_cell_formula_units_Z 56
_cell_length_a 21.704470
_cell_length_b 8.821634
_cell_length_c 17.855761
_cell_angle_alpha 90.000000
_cell_angle_beta 90.000000
_cell_angle_gamma 90.000000
_cell_volume 3418.822748
_symmetry_space_group_name_H-M "P N M A"
_symmetry_group_IT_number 62
_symmetry_cell_setting 'orthorhombic'
loop_
_space_group_symop_operation_xyz
x,y,z
1/2-x,-y,1/2+z
1/2+x,1/2-y,1/2-z
-x,1/2+y,-z
-x,-y,-z
1/2+x,y,1/2-z
1/2-x,1/2+y,1/2+z
x,1/2-y,z
loop_
_atom_site_type_symbol
_atom_site_label
_atom_site_fract_x
_atom_site_fract_y
_atom_site_fract_z
Si Si1 0.410301 0.582652 0.963945
Si Si2 0.128517 0.577942 0.844366
Si Si3 0.193748 0.571528 0.548898
Si Si4 0.630747 0.430235 0.810285
Si Si5 0.489482 0.582602 0.113257
Si Si6 0.816616 0.422547 0.004944
Si Si7 0.937810 0.569546 0.030675
O O1 0.385730 0.750000 0.943656
O O2 0.449526 0.520599 0.893113
O O3 0.352073 0.477032 0.981958
O O4 0.454879 0.590281 0.034495
O O5 0.107844 0.750000 0.826425
O O6 0.150926 0.494617 0.769615
O O7 0.185531 0.577388 0.903662
O O8 0.071610 0.486440 0.882975
O O9 0.190733 0.750000 0.558361
O O10 0.176154 0.495558 0.627300
O O11 0.261994 0.520792 0.528450
O O12 0.636392 0.250000 0.812586
O O13 0.559791 0.481225 0.826438
O O14 0.511606 0.750000 0.136658
O O15 0.813936 0.250000 0.974390
O O16 0.881200 0.502419 0.980686
O O17 0.939373 0.750000 0.026536
O O18 0.000000 0.500000 0.000000
#
# Coordination Sequence:
#
# PCOD8250567 Si02
#       7
#     8   8   8   8   8   8   8
#     4   9  16  26  41  62  90 124 160 202 242 281
#     4   9  19  33  51  75 102 131 164 207 253 299
#     4  11  20  30  48  72 100 134 172 209 247 298
#     4  10  19  31  49  72 101 133 166 209 255 299
#     4   8  15  26  40  62  90 122 160 198 240 285
#     4   9  19  34  51  74 101 129 166 209 248 296
#     4  10  18  32  54  79 102 127 160 200 248 295
#
# _framework density 16.379908
#
# number of rings (size 3 to 8) (size 9 to 14) (size 15 to 20)
#    0.857    1.714    0.000    4.714    0.000    4.000 
#    0.000    0.000    0.000    1.714    0.000    4.000 
#    0.000    0.000    0.000    0.000    0.000    0.000 
#
# Total GULP energy -693903.893357 kJ/mol
# GULP energy per Si atom -12391.140953 kJ/mol
# Density = 1.634263 g / cm^3
# Si number density = 16.379908 Si / 1000 Ang^3
#
#
#
# Elastic Constant Matrix: (Units=GPa)
#
#
# Indices 1 2 3 4 5 6 
#
# 1 95.5932 44.1180 35.2324 0.0000 0.0000 0.0000
# 2 44.1180 126.6547 34.3268 0.0000 0.0000 0.0000
# 3 35.2324 34.3268 60.2549 0.0000 0.0000 0.0000
# 4 0.0000 0.0000 0.0000 24.8230 0.0000 0.0000
# 5 0.0000 0.0000 0.0000 0.0000 17.7360 0.0000
# 6 0.0000 0.0000 0.0000 0.0000 0.0000 29.9112
#
#
#
# Elastic Compliance Matrix: (Units=1/GPa)
#
#
# Indices 1 2 3 4 5 6 
#
# 1 0.014369 -0.003226 -0.006564 0.000000 0.000000 0.000000
# 2 -0.003226 0.010062 -0.003846 0.000000 0.000000 0.000000
# 3 -0.006564 -0.003846 0.022625 0.000000 0.000000 0.000000
# 4 0.000000 0.000000 0.000000 0.040285 0.000000 0.000000
# 5 0.000000 0.000000 0.000000 0.000000 0.056383 0.000000
# 6 0.000000 0.000000 0.000000 0.000000 0.000000 0.033432
#
#
# Mechanical properties :
#
#
# Convention : Reuss Voigt Hill
#
# Bulk Modulus (GPa) = 50.54537 56.65079 53.59808
# Shear Modulus (GPa) = 23.69418 25.74908 24.72163
#
# Velocity S-wave (km/s) = 3.80747 3.96914 3.88914
# Velocity P-wave (km/s) = 7.08902 7.46097 7.27737
#
# Compressibility (1/GPa) = 0.01978421
#
# Stress axis : x y z
#
# Youngs Moduli (GPa) = 69.59303 99.38849 44.19874
#
# Poissons Ratio (x) = 0.32065 0.29012
# Poissons Ratio (y) = 0.22452 0.16997
# Poissons Ratio (z) = 0.45681 0.38220
#
# Static dielectric constant tensor:
#      x y z
#    x 2.973350 0.000000 0.000000 
#    y 0.000000 3.281020 0.000000 
#    z 0.000000 0.000000 2.840840 
# 
# 
# High freq. dielectric constant tensor:
#      x y z
#    x 1.611980 0.000000 0.000000 
#    y 0.000000 1.650940 0.000000 
#    z 0.000000 0.000000 1.591460 
# 
# From -- ./inp_files/27856.got.cif
#   From: 2010.03.12/outbox.cif.g09.slc.cpg/sg62_14_cif.got.tgz:27856.got - 2010.04.10 19:12:36.
