data_PCOD8250783
_publ_section_title
;
Structure prediction by ZEFSAII (Michael W. Deem and Ramdas Pophale) SiO2 
 PCOD8250783
Probable space group: P N M A
;
_chemical_formula_sum "Si O2"
_cell_formula_units_Z 48
_cell_length_a 13.893597
_cell_length_b 9.088640
_cell_length_c 23.779485
_cell_angle_alpha 90.000000
_cell_angle_beta 90.000000
_cell_angle_gamma 90.000000
_cell_volume 3002.728345
_symmetry_space_group_name_H-M "P N M A"
_symmetry_group_IT_number 62
_symmetry_cell_setting 'orthorhombic'
loop_
_space_group_symop_operation_xyz
x,y,z
1/2-x,-y,1/2+z
1/2+x,1/2-y,1/2-z
-x,1/2+y,-z
-x,-y,-z
1/2+x,y,1/2-z
1/2-x,1/2+y,1/2+z
x,1/2-y,z
loop_
_atom_site_type_symbol
_atom_site_label
_atom_site_fract_x
_atom_site_fract_y
_atom_site_fract_z
Si Si1 0.400785 0.924249 0.769303
Si Si2 0.602720 0.576431 0.562440
Si Si3 0.290866 0.078188 0.671755
Si Si4 0.778407 0.422769 0.164299
Si Si5 0.093479 0.579920 0.063351
Si Si6 0.381516 0.422743 0.222963
O O1 0.393309 0.750000 0.758373
O O2 0.329560 0.975879 0.819843
O O3 0.508263 0.970865 0.786395
O O4 0.369296 0.003190 0.712101
O O5 0.594256 0.750000 0.569834
O O6 0.683524 0.510492 0.605205
O O7 0.500189 0.511482 0.580134
O O8 0.630933 0.532524 0.498692
O O9 0.286704 0.250000 0.685902
O O10 0.321910 0.048320 0.607533
O O11 0.184984 0.008798 0.678673
O O12 0.776709 0.250000 0.157898
O O13 0.850982 0.468836 0.214125
O O14 0.063176 0.750000 0.063412
O O15 0.366493 0.250000 0.212945
#
# Coordination Sequence:
#
# PCOD8250783 Si02
#       6
#     8   8   8   8   8   8
#     4   9  17  30  47  66  86 109 143 183 216 251
#     4   9  16  28  46  64  84 112 142 174 214 254
#     4  10  19  29  42  63  91 118 142 171 211 260
#     4   8  14  25  43  65  83 103 136 174 211 248
#     4   9  18  29  41  62  89 114 141 172 208 254
#     4   9  17  29  45  64  85 110 142 178 212 250
#
# _framework density 15.985462
#
# number of rings (size 3 to 8) (size 9 to 14) (size 15 to 20)
#    0.000    3.000    0.000    2.500    0.000    3.333 
#    0.000    5.000    0.000    1.000    0.000    0.000 
#    0.000    0.000    0.000    0.000    0.000    0.167 
#
# Total GULP energy -594959.475457 kJ/mol
# GULP energy per Si atom -12394.989072 kJ/mol
# Density = 1.594908 g / cm^3
# Si number density = 15.985462 Si / 1000 Ang^3
#
#
#
# Elastic Constant Matrix: (Units=GPa)
#
#
# Indices 1 2 3 4 5 6 
#
# 1 144.6442 39.5517 75.1904 0.0000 0.0000 0.0000
# 2 39.5517 34.1760 30.5575 0.0000 0.0000 0.0000
# 3 75.1904 30.5575 108.9525 0.0000 0.0000 0.0000
# 4 0.0000 0.0000 0.0000 19.0768 0.0000 0.0000
# 5 0.0000 0.0000 0.0000 0.0000 26.4715 0.0000
# 6 0.0000 0.0000 0.0000 0.0000 0.0000 20.3589
#
#
#
# Elastic Compliance Matrix: (Units=1/GPa)
#
#
# Indices 1 2 3 4 5 6 
#
# 1 0.012588 -0.009077 -0.006142 0.000000 0.000000 0.000000
# 2 -0.009077 0.045599 -0.006525 0.000000 0.000000 0.000000
# 3 -0.006142 -0.006525 0.015247 0.000000 0.000000 0.000000
# 4 0.000000 0.000000 0.000000 0.052420 0.000000 0.000000
# 5 0.000000 0.000000 0.000000 0.000000 0.037776 0.000000
# 6 0.000000 0.000000 0.000000 0.000000 0.000000 0.049118
#
#
# Mechanical properties :
#
#
# Convention : Reuss Voigt Hill
#
# Bulk Modulus (GPa) = 33.39211 64.26357 48.82784
# Shear Modulus (GPa) = 18.78167 22.67964 20.73066
#
# Velocity S-wave (km/s) = 3.43143 3.77074 3.60508
# Velocity P-wave (km/s) = 6.05261 7.69717 6.92389
#
# Compressibility (1/GPa) = 0.02994720
#
# Stress axis : x y z
#
# Youngs Moduli (GPa) = 79.44040 21.93041 65.58788
#
# Poissons Ratio (x) = 0.19906 0.40281
# Poissons Ratio (y) = 0.72106 0.42795
# Poissons Ratio (z) = 0.48789 0.14309
#
# Static dielectric constant tensor:
#      x y z
#    x 3.144320 0.000000 0.000000 
#    y 0.000000 2.899480 0.000000 
#    z 0.000000 0.000000 3.254520 
# 
# 
# High freq. dielectric constant tensor:
#      x y z
#    x 1.607040 0.000000 0.000000 
#    y 0.000000 1.599600 0.000000 
#    z 0.000000 0.000000 1.606000 
# 
# From -- ./inp_files/26849.got.cif
#   From: 2010.03.12/outbox.cif.g09.slc.cpg/sg62_14_cif.got.tgz:26849.got - 2010.04.10 19:12:36.
