data_PCOD8250574
_publ_section_title
;
Structure prediction by ZEFSAII (Michael W. Deem and Ramdas Pophale) SiO2 
 PCOD8250574
Probable space group: P N M A
;
_chemical_formula_sum "Si O2"
_cell_formula_units_Z 64
_cell_length_a 12.017266
_cell_length_b 9.092062
_cell_length_c 30.815322
_cell_angle_alpha 90.000000
_cell_angle_beta 90.000000
_cell_angle_gamma 90.000000
_cell_volume 3366.935316
_symmetry_space_group_name_H-M "P N M A"
_symmetry_group_IT_number 62
_symmetry_cell_setting 'orthorhombic'
loop_
_space_group_symop_operation_xyz
x,y,z
1/2-x,-y,1/2+z
1/2+x,1/2-y,1/2-z
-x,1/2+y,-z
-x,-y,-z
1/2+x,y,1/2-z
1/2-x,1/2+y,1/2+z
x,1/2-y,z
loop_
_atom_site_type_symbol
_atom_site_label
_atom_site_fract_x
_atom_site_fract_y
_atom_site_fract_z
Si Si1 0.262034 0.424791 0.698107
Si Si2 0.246695 0.419476 0.052117
Si Si3 0.606200 0.075234 0.878652
Si Si4 0.708999 0.079744 0.544540
Si Si5 0.503453 0.919529 0.337975
Si Si6 0.498319 0.423665 0.425733
Si Si7 0.646260 0.574610 0.125143
Si Si8 0.220842 0.080320 0.792739
O O1 0.255780 0.250000 0.700832
O O2 0.168912 0.482539 0.664533
O O3 0.381582 0.478374 0.681556
O O4 0.243815 0.494402 0.745958
O O5 0.258569 0.250000 0.065984
O O6 0.335542 0.513667 0.078462
O O7 0.122031 0.476343 0.061933
O O8 0.272092 0.441541 0.001154
O O9 0.610669 0.250000 0.881558
O O10 0.480008 0.016655 0.876652
O O11 0.680234 0.250000 0.552620
O O12 0.788011 0.017066 0.582696
O O13 0.592173 0.993581 0.541932
O O14 0.512836 0.750000 0.353196
O O15 0.409859 0.938163 0.301483
O O16 0.468056 0.019112 0.378076
O O17 0.487472 0.250000 0.428258
O O18 0.649623 0.750000 0.125565
O O19 0.705029 0.509899 0.168563
O O20 0.255033 0.250000 0.789949
#
# Coordination Sequence:
#
# PCOD8250574 Si02
#       8
#     8   8   8   8   8   8   8   8
#     4   9  18  29  48  81 109 132 171 220 260 307
#     4  10  22  37  54  76 106 141 176 217 265 320
#     4  10  20  34  53  78 107 136 173 219 262 309
#     4  10  20  37  57  78 104 139 179 216 267 324
#     4  10  18  32  55  79 105 143 176 211 269 323
#     4  11  21  34  53  80 109 137 173 222 269 309
#     4   9  18  32  52  78 106 135 170 219 267 309
#     4   9  17  29  50  80 108 133 169 218 264 305
#
# _framework density 19.008384
#
# number of rings (size 3 to 8) (size 9 to 14) (size 15 to 20)
#    0.000    2.250    2.500    0.750    1.750    1.500 
#    0.000    0.625    0.000    1.500    0.000    0.000 
#    0.000    0.000    0.000    0.000    0.000    0.000 
#
# Total GULP energy -793590.591304 kJ/mol
# GULP energy per Si atom -12399.852989 kJ/mol
# Density = 1.896512 g / cm^3
# Si number density = 19.008384 Si / 1000 Ang^3
#
#
#
# Elastic Constant Matrix: (Units=GPa)
#
#
# Indices 1 2 3 4 5 6 
#
# 1 137.5876 22.1392 51.2959 0.0000 0.0000 0.0000
# 2 22.1392 24.6691 16.8025 0.0000 0.0000 0.0000
# 3 51.2959 16.8025 124.8050 0.0000 0.0000 0.0000
# 4 0.0000 0.0000 0.0000 18.4441 0.0000 0.0000
# 5 0.0000 0.0000 0.0000 0.0000 28.1262 0.0000
# 6 0.0000 0.0000 0.0000 0.0000 0.0000 15.9172
#
#
#
# Elastic Compliance Matrix: (Units=1/GPa)
#
#
# Indices 1 2 3 4 5 6 
#
# 1 0.009421 -0.006405 -0.003010 0.000000 0.000000 0.000000
# 2 -0.006405 0.048983 -0.003962 0.000000 0.000000 0.000000
# 3 -0.003010 -0.003962 0.009783 0.000000 0.000000 0.000000
# 4 0.000000 0.000000 0.000000 0.054218 0.000000 0.000000
# 5 0.000000 0.000000 0.000000 0.000000 0.035554 0.000000
# 6 0.000000 0.000000 0.000000 0.000000 0.000000 0.062825
#
#
# Mechanical properties :
#
#
# Convention : Reuss Voigt Hill
#
# Bulk Modulus (GPa) = 24.13505 51.94857 38.04181
# Shear Modulus (GPa) = 19.13156 25.61911 22.37534
#
# Velocity S-wave (km/s) = 3.17595 3.67519 3.43465
# Velocity P-wave (km/s) = 5.11600 6.73781 5.98212
#
# Compressibility (1/GPa) = 0.04143352
#
# Stress axis : x y z
#
# Youngs Moduli (GPa) = 106.14844 20.41523 102.21838
#
# Poissons Ratio (x) = 0.13075 0.30765
# Poissons Ratio (y) = 0.67984 0.40502
# Poissons Ratio (z) = 0.31948 0.08089
#
# Static dielectric constant tensor:
#      x y z
#    x 3.619240 0.000000 0.000000 
#    y 0.000000 2.996720 0.000000 
#    z 0.000000 0.000000 3.700330 
# 
# 
# High freq. dielectric constant tensor:
#      x y z
#    x 1.745590 0.000000 0.000000 
#    y 0.000000 1.683330 0.000000 
#    z 0.000000 0.000000 1.751950 
# 
# From -- ./inp_files/32608.got.cif
#   From: 2010.03.12/outbox.cif.g09.slc.cpg/sg62_17_cif.got.tgz:32608.got - 2010.04.10 19:12:36.
