data_PCOD8250003
_publ_section_title
;
Structure prediction by ZEFSAII (Michael W. Deem and Ramdas Pophale) SiO2 
 PCOD8250003
Probable space group: P N M A
;
_chemical_formula_sum "Si O2"
_cell_formula_units_Z 64
_cell_length_a 30.292789
_cell_length_b 9.235855
_cell_length_c 14.508160
_cell_angle_alpha 90.000000
_cell_angle_beta 90.000000
_cell_angle_gamma 90.000000
_cell_volume 4059.090201
_symmetry_space_group_name_H-M "P N M A"
_symmetry_group_IT_number 62
_symmetry_cell_setting 'orthorhombic'
loop_
_space_group_symop_operation_xyz
x,y,z
1/2-x,-y,1/2+z
1/2+x,1/2-y,1/2-z
-x,1/2+y,-z
-x,-y,-z
1/2+x,y,1/2-z
1/2-x,1/2+y,1/2+z
x,1/2-y,z
loop_
_atom_site_type_symbol
_atom_site_label
_atom_site_fract_x
_atom_site_fract_y
_atom_site_fract_z
Si Si1 0.550070 0.579414 0.907435
Si Si2 0.450120 0.580562 0.901309
Si Si3 0.874201 0.080797 0.680866
Si Si4 0.733229 0.917466 0.504708
Si Si5 0.319372 0.090287 0.992397
Si Si6 0.296373 0.418035 0.691383
Si Si7 0.633829 0.909588 0.817062
Si Si8 0.784018 0.423199 0.209144
O O1 0.557729 0.750000 0.927509
O O2 0.500643 0.550596 0.871654
O O3 0.584142 0.523889 0.826426
O O4 0.559783 0.493341 0.001001
O O5 0.440059 0.750000 0.910007
O O6 0.419484 0.510804 0.821434
O O7 0.886116 0.250000 0.674346
O O8 0.844992 0.026873 0.594935
O O9 0.845331 0.044387 0.771504
O O10 0.743480 0.750000 0.513415
O O11 0.701329 0.951792 0.418172
O O12 0.713364 0.971124 0.602057
O O13 0.779080 0.990445 0.480816
O O14 0.301194 0.250000 0.967816
O O15 0.351873 0.097035 0.077409
O O16 0.285132 0.250000 0.710225
O O17 0.259112 0.510925 0.742941
O O18 0.629611 0.750000 0.773698
O O19 0.671003 0.989959 0.755142
O O20 0.781638 0.250000 0.223626
#
# Coordination Sequence:
#
# PCOD8250003 Si02
#       8
#     8   8   8   8   8   8   8   8
#     4   9  17  31  46  63  90 121 148 176 218 275
#     4  10  19  28  44  68  91 113 144 188 227 258
#     4  10  19  31  45  60  86 124 155 176 212 271
#     4  10  20  31  43  65  94 115 145 196 230 246
#     4  10  17  27  45  64  85 120 157 179 208 264
#     4  10  20  32  45  63  89 122 152 181 221 268
#     4   9  16  28  45  63  85 117 151 175 208 263
#     4  10  19  30  46  67  89 116 150 189 222 256
#
# _framework density 15.76708
#
# number of rings (size 3 to 8) (size 9 to 14) (size 15 to 20)
#    0.000    2.250    3.750    0.375    0.000    1.500 
#    0.000    0.625    0.000    0.000    0.000    0.875 
#    0.000    0.000    0.000    0.000    0.000    0.000 
#
# Total GULP energy -793058.770310 kJ/mol
# GULP energy per Si atom -12391.543286 kJ/mol
# Density = 1.573119 g / cm^3
# Si number density = 15.767080 Si / 1000 Ang^3
#
#
#
# Elastic Constant Matrix: (Units=GPa)
#
#
# Indices 1 2 3 4 5 6 
#
# 1 116.7921 35.7769 41.8241 0.0000 0.0000 0.0000
# 2 35.7769 37.5918 23.1372 0.0000 0.0000 0.0000
# 3 41.8241 23.1372 77.6810 0.0000 0.0000 0.0000
# 4 0.0000 0.0000 0.0000 13.9609 0.0000 0.0000
# 5 0.0000 0.0000 0.0000 0.0000 25.2459 0.0000
# 6 0.0000 0.0000 0.0000 0.0000 0.0000 22.5671
#
#
#
# Elastic Compliance Matrix: (Units=1/GPa)
#
#
# Indices 1 2 3 4 5 6 
#
# 1 0.013062 -0.009921 -0.004077 0.000000 0.000000 0.000000
# 2 -0.009921 0.040109 -0.006605 0.000000 0.000000 0.000000
# 3 -0.004077 -0.006605 0.017036 0.000000 0.000000 0.000000
# 4 0.000000 0.000000 0.000000 0.071628 0.000000 0.000000
# 5 0.000000 0.000000 0.000000 0.000000 0.039610 0.000000
# 6 0.000000 0.000000 0.000000 0.000000 0.000000 0.044312
#
#
# Mechanical properties :
#
#
# Convention : Reuss Voigt Hill
#
# Bulk Modulus (GPa) = 34.48353 48.17124 41.32739
# Shear Modulus (GPa) = 18.07464 21.10989 19.59227
#
# Velocity S-wave (km/s) = 3.38946 3.66301 3.52889
# Velocity P-wave (km/s) = 6.10213 6.96479 6.54768
#
# Compressibility (1/GPa) = 0.02899935
#
# Stress axis : x y z
#
# Youngs Moduli (GPa) = 76.56036 24.93208 58.70051
#
# Poissons Ratio (x) = 0.24736 0.23934
# Poissons Ratio (y) = 0.75959 0.38769
# Poissons Ratio (z) = 0.31217 0.16467
#
# Static dielectric constant tensor:
#      x y z
#    x 3.145840 0.000000 0.000000 
#    y 0.000000 2.970760 0.000000 
#    z 0.000000 0.000000 3.053580 
# 
# 
# High freq. dielectric constant tensor:
#      x y z
#    x 1.602620 0.000000 0.000000 
#    y 0.000000 1.592920 0.000000 
#    z 0.000000 0.000000 1.581050 
# 
# From -- ./inp_files/21204.got.cif
#   From: 2010.03.12/outbox.cif.g09.slc.cpg/sg62_11_cif.got.tgz:21204.got - 2010.04.10 19:12:36.
