data_PCOD8250887
_publ_section_title
;
Structure prediction by ZEFSAII (Michael W. Deem and Ramdas Pophale) SiO2 
 PCOD8250887
Probable space group: P N M A
;
_chemical_formula_sum "Si O2"
_cell_formula_units_Z 64
_cell_length_a 23.083091
_cell_length_b 8.810997
_cell_length_c 19.096719
_cell_angle_alpha 90.000000
_cell_angle_beta 90.000000
_cell_angle_gamma 90.000000
_cell_volume 3883.987064
_symmetry_space_group_name_H-M "P N M A"
_symmetry_group_IT_number 62
_symmetry_cell_setting 'orthorhombic'
loop_
_space_group_symop_operation_xyz
x,y,z
1/2-x,-y,1/2+z
1/2+x,1/2-y,1/2-z
-x,1/2+y,-z
-x,-y,-z
1/2+x,y,1/2-z
1/2-x,1/2+y,1/2+z
x,1/2-y,z
loop_
_atom_site_type_symbol
_atom_site_label
_atom_site_fract_x
_atom_site_fract_y
_atom_site_fract_z
Si Si1 0.217609 0.928930 0.135362
Si Si2 0.437790 0.574239 0.862060
Si Si3 0.237734 0.072590 0.843108
Si Si4 0.338421 0.576103 0.758542
Si Si5 0.330793 0.927522 0.213497
Si Si6 0.440348 0.569549 0.131754
Si Si7 0.885474 0.428938 0.502285
Si Si8 0.251480 0.072901 0.998809
O O1 0.214792 0.750000 0.135913
O O2 0.277697 0.993827 0.167748
O O3 0.165499 0.989470 0.184163
O O4 0.212586 0.987005 0.056011
O O5 0.438892 0.750000 0.885674
O O6 0.402317 0.553527 0.790115
O O7 0.501632 0.514695 0.845704
O O8 0.408853 0.472750 0.921867
O O9 0.253367 0.250000 0.837593
O O10 0.181144 0.034367 0.795451
O O11 0.293269 0.984395 0.815598
O O12 0.225561 0.026161 0.923143
O O13 0.324066 0.750000 0.744090
O O14 0.332192 0.750000 0.199974
O O15 0.391774 0.992806 0.186444
O O16 0.449099 0.750000 0.134984
O O17 0.422365 0.522731 0.053730
O O18 0.894083 0.250000 0.490501
O O19 0.818439 0.477121 0.496446
O O20 0.245078 0.250000 0.012281
#
# Coordination Sequence:
#
# PCOD8250887 Si02
#       8
#     8   8   8   8   8   8   8   8
#     4  10  19  32  51  71  98 128 161 199 243 295
#     4  11  23  36  49  68  96 132 170 208 246 288
#     4   9  17  32  51  72  98 127 160 197 245 296
#     4  10  20  33  49  70  96 125 163 206 248 291
#     4   8  16  30  48  69  92 123 159 198 238 283
#     4  11  21  34  50  69  96 132 172 206 242 287
#     4  11  21  33  48  70 100 133 169 204 238 284
#     4  10  19  30  49  75 102 130 161 196 240 294
#
# _framework density 16.477912
#
# number of rings (size 3 to 8) (size 9 to 14) (size 15 to 20)
#    0.000    2.000    2.500    3.000    0.000    2.500 
#    0.000    0.625    0.000    0.000    0.000    0.875 
#    0.000    0.000    0.000    0.000    0.000    0.000 
#
# Total GULP energy -793545.859803 kJ/mol
# GULP energy per Si atom -12399.154059 kJ/mol
# Density = 1.644041 g / cm^3
# Si number density = 16.477912 Si / 1000 Ang^3
#
#
#
# Elastic Constant Matrix: (Units=GPa)
#
#
# Indices 1 2 3 4 5 6 
#
# 1 58.1283 22.3966 36.5033 0.0000 0.0000 0.0000
# 2 22.3966 51.1513 33.9818 0.0000 0.0000 0.0000
# 3 36.5033 33.9818 110.0812 0.0000 0.0000 0.0000
# 4 0.0000 0.0000 0.0000 24.0648 0.0000 0.0000
# 5 0.0000 0.0000 0.0000 0.0000 24.2788 0.0000
# 6 0.0000 0.0000 0.0000 0.0000 0.0000 20.2748
#
#
#
# Elastic Compliance Matrix: (Units=1/GPa)
#
#
# Indices 1 2 3 4 5 6 
#
# 1 0.023268 -0.006368 -0.005750 0.000000 0.000000 0.000000
# 2 -0.006368 0.026336 -0.006018 0.000000 0.000000 0.000000
# 3 -0.005750 -0.006018 0.012849 0.000000 0.000000 0.000000
# 4 0.000000 0.000000 0.000000 0.041554 0.000000 0.000000
# 5 0.000000 0.000000 0.000000 0.000000 0.041188 0.000000
# 6 0.000000 0.000000 0.000000 0.000000 0.000000 0.049322
#
#
# Mechanical properties :
#
#
# Convention : Reuss Voigt Hill
#
# Bulk Modulus (GPa) = 38.19644 45.01380 41.60512
# Shear Modulus (GPa) = 20.87539 22.15563 21.51551
#
# Velocity S-wave (km/s) = 3.56317 3.67081 3.61739
# Velocity P-wave (km/s) = 6.33711 6.73375 6.53844
#
# Compressibility (1/GPa) = 0.02618045
#
# Stress axis : x y z
#
# Youngs Moduli (GPa) = 42.97817 37.97047 77.82866
#
# Poissons Ratio (x) = 0.24179 0.44751
# Poissons Ratio (y) = 0.27368 0.46840
# Poissons Ratio (z) = 0.24712 0.22852
#
# Static dielectric constant tensor:
#      x y z
#    x 3.069210 0.000000 0.000000 
#    y 0.000000 3.072280 0.000000 
#    z 0.000000 0.000000 3.234220 
# 
# 
# High freq. dielectric constant tensor:
#      x y z
#    x 1.605100 0.000000 0.000000 
#    y 0.000000 1.637510 0.000000 
#    z 0.000000 0.000000 1.632350 
# 
# From -- ./inp_files/24915.got.cif
#   From: 2010.03.12/outbox.cif.g09.slc.cpg/sg62_13_cif.got.tgz:24915.got - 2010.04.10 19:12:36.
