data_PCOD8250196
_publ_section_title
;
Structure prediction by ZEFSAII (Michael W. Deem and Ramdas Pophale) SiO2 
 PCOD8250196
Probable space group: P N M A
;
_chemical_formula_sum "Si O2"
_cell_formula_units_Z 48
_cell_length_a 23.775511
_cell_length_b 9.050741
_cell_length_c 13.889510
_cell_angle_alpha 90.000000
_cell_angle_beta 90.000000
_cell_angle_gamma 90.000000
_cell_volume 2988.827991
_symmetry_space_group_name_H-M "P N M A"
_symmetry_group_IT_number 62
_symmetry_cell_setting 'orthorhombic'
loop_
_space_group_symop_operation_xyz
x,y,z
1/2-x,-y,1/2+z
1/2+x,1/2-y,1/2-z
-x,1/2+y,-z
-x,-y,-z
1/2+x,y,1/2-z
1/2-x,1/2+y,1/2+z
x,1/2-y,z
loop_
_atom_site_type_symbol
_atom_site_label
_atom_site_fract_x
_atom_site_fract_y
_atom_site_fract_z
Si Si1 0.671499 0.577938 0.292290
Si Si2 0.936157 0.077864 0.905635
Si Si3 0.562128 0.076756 0.601425
Si Si4 0.730775 0.921998 0.104959
Si Si5 0.774152 0.425928 0.391096
Si Si6 0.835469 0.575232 0.227230
O O1 0.685332 0.750000 0.312366
O O2 0.607662 0.537766 0.321110
O O3 0.679596 0.542734 0.178703
O O4 0.713631 0.479486 0.354451
O O5 0.935797 0.250000 0.928955
O O6 0.998516 0.027327 0.872134
O O7 0.917500 0.997236 0.002846
O O8 0.566774 0.250000 0.584249
O O9 0.603164 0.028620 0.688161
O O10 0.738689 0.750000 0.088834
O O11 0.788838 0.982382 0.150915
O O12 0.718333 0.989272 0.999861
O O13 0.777355 0.250000 0.384700
O O14 0.824901 0.494499 0.328603
O O15 0.830109 0.750000 0.243825
#
# Coordination Sequence:
#
# PCOD8250196 Si02
#       6
#     8   8   8   8   8   8
#     4   9  17  30  45  62  87 115 141 171 212 259
#     4   9  17  28  45  68  89 113 147 181 211 251
#     4   9  17  29  45  65  90 118 144 174 216 260
#     4   8  15  27  42  59  81 111 140 168 207 253
#     4  10  18  28  44  65  85 108 143 180 214 252
#     4   9  17  30  45  61  86 117 143 170 212 261
#
# _framework density 16.059806999999999
#
# number of rings (size 3 to 8) (size 9 to 14) (size 15 to 20)
#    0.000    3.000    0.000    2.500    0.000    2.667 
#    0.000    8.333    0.000    1.000    0.000    0.000 
#    0.000    0.000    0.000    0.000    0.000    0.167 
#
# Total GULP energy -594954.733645 kJ/mol
# GULP energy per Si atom -12394.890284 kJ/mol
# Density = 1.602325 g / cm^3
# Si number density = 16.059807 Si / 1000 Ang^3
#
#
#
# Elastic Constant Matrix: (Units=GPa)
#
#
# Indices 1 2 3 4 5 6 
#
# 1 101.8393 26.0992 65.5672 0.0000 0.0000 0.0000
# 2 26.0992 32.6563 33.0628 0.0000 0.0000 0.0000
# 3 65.5672 33.0628 140.3976 0.0000 0.0000 0.0000
# 4 0.0000 0.0000 0.0000 23.0980 0.0000 0.0000
# 5 0.0000 0.0000 0.0000 0.0000 27.8332 0.0000
# 6 0.0000 0.0000 0.0000 0.0000 0.0000 18.8658
#
#
#
# Elastic Compliance Matrix: (Units=1/GPa)
#
#
# Indices 1 2 3 4 5 6 
#
# 1 0.015004 -0.006430 -0.005493 0.000000 0.000000 0.000000
# 2 -0.006430 0.042964 -0.007115 0.000000 0.000000 0.000000
# 3 -0.005493 -0.007115 0.011363 0.000000 0.000000 0.000000
# 4 0.000000 0.000000 0.000000 0.043294 0.000000 0.000000
# 5 0.000000 0.000000 0.000000 0.000000 0.035928 0.000000
# 6 0.000000 0.000000 0.000000 0.000000 0.000000 0.053006
#
#
# Mechanical properties :
#
#
# Convention : Reuss Voigt Hill
#
# Bulk Modulus (GPa) = 31.99380 58.26127 45.12754
# Shear Modulus (GPa) = 19.99577 23.97036 21.98307
#
# Velocity S-wave (km/s) = 3.53240 3.86757 3.70378
# Velocity P-wave (km/s) = 6.04996 7.50337 6.81552
#
# Compressibility (1/GPa) = 0.03125605
#
# Stress axis : x y z
#
# Youngs Moduli (GPa) = 66.65087 23.27511 88.00294
#
# Poissons Ratio (x) = 0.14966 0.48336
# Poissons Ratio (y) = 0.42857 0.62614
# Poissons Ratio (z) = 0.36609 0.16560
#
# Static dielectric constant tensor:
#      x y z
#    x 3.168120 0.000000 0.000000 
#    y 0.000000 2.891940 0.000000 
#    z 0.000000 0.000000 3.208960 
# 
# 
# High freq. dielectric constant tensor:
#      x y z
#    x 1.608410 0.000000 0.000000 
#    y 0.000000 1.603430 0.000000 
#    z 0.000000 0.000000 1.609590 
# 
# From -- ./inp_files/15396.got.cif
#   From: 2010.03.12/outbox.cif.g09.slc.cpg/sg62_8_cif.got.tgz:15396.got - 2010.04.10 19:12:36.
