data_PCOD8250526
_publ_section_title
;
Structure prediction by ZEFSAII (Michael W. Deem and Ramdas Pophale) SiO2 
 PCOD8250526
Probable space group: P N M A
;
_chemical_formula_sum "Si O2"
_cell_formula_units_Z 56
_cell_length_a 16.131056
_cell_length_b 22.305643
_cell_length_c 8.413785
_cell_angle_alpha 90.000000
_cell_angle_beta 90.000000
_cell_angle_gamma 90.000000
_cell_volume 3027.394071
_symmetry_space_group_name_H-M "P N M A"
_symmetry_group_IT_number 62
_symmetry_cell_setting 'orthorhombic'
loop_
_space_group_symop_operation_xyz
x,y,z
1/2-x,-y,1/2+z
1/2+x,1/2-y,1/2-z
-x,1/2+y,-z
-x,-y,-z
1/2+x,y,1/2-z
1/2-x,1/2+y,1/2+z
x,1/2-y,z
loop_
_atom_site_type_symbol
_atom_site_label
_atom_site_fract_x
_atom_site_fract_y
_atom_site_fract_z
Si Si1 0.660009 0.680384 0.569387
Si Si2 0.603580 0.084790 0.072701
Si Si3 0.647214 0.391137 0.582684
Si Si4 0.491611 0.406539 0.364411
Si Si5 0.813053 0.681855 0.368422
Si Si6 0.888862 0.501868 0.285962
Si Si7 0.247713 0.904501 0.713594
O O1 0.635669 0.750000 0.590443
O O2 0.578309 0.639705 0.576977
O O3 0.714843 0.669710 0.408198
O O4 0.718844 0.658518 0.712104
O O5 0.530576 0.106906 0.190594
O O6 0.683309 0.062909 0.175592
O O7 0.625534 0.143879 0.976738
O O8 0.576353 0.031044 0.951320
O O9 0.556939 0.400069 0.506199
O O10 0.661837 0.331466 0.686410
O O11 0.663763 0.447554 0.696649
O O12 0.717076 0.386369 0.453743
O O13 0.458150 0.474790 0.335684
O O14 0.833972 0.750000 0.406903
O O15 0.828008 0.447766 0.324609
#
# Coordination Sequence:
#
# PCOD8250526 Si02
#       7
#     8   8   8   8   8   8   8
#     4   9  19  36  54  72  98 132 168 209 255 299
#     4   9  18  32  51  75 103 135 170 206 248 299
#     4  10  20  33  52  78 103 132 169 208 249 297
#     4  10  20  33  51  77 106 133 166 207 254 304
#     4   9  19  36  54  72  98 132 170 211 254 299
#     4  10  18  32  50  74 106 138 165 203 250 298
#     4   9  18  32  52  76  99 132 175 210 242 290
#
# _framework density 18.497757
#
# number of rings (size 3 to 8) (size 9 to 14) (size 15 to 20)
#    0.000    2.571    0.000    1.714    0.000    2.857 
#    0.000   10.000    0.000    0.000    0.000    0.000 
#    0.000    0.000    0.000    0.000    0.000    0.000 
#
# Total GULP energy -693743.575391 kJ/mol
# GULP energy per Si atom -12388.278132 kJ/mol
# Density = 1.845566 g / cm^3
# Si number density = 18.497757 Si / 1000 Ang^3
#
#
#
# Elastic Constant Matrix: (Units=GPa)
#
#
# Indices 1 2 3 4 5 6 
#
# 1 75.4489 30.3054 34.0232 0.0000 0.0000 0.0000
# 2 30.3054 93.8034 37.0750 0.0000 0.0000 0.0000
# 3 34.0232 37.0750 96.7330 0.0000 0.0000 0.0000
# 4 0.0000 0.0000 0.0000 23.4245 0.0000 0.0000
# 5 0.0000 0.0000 0.0000 0.0000 25.0025 0.0000
# 6 0.0000 0.0000 0.0000 0.0000 0.0000 22.3784
#
#
#
# Elastic Compliance Matrix: (Units=1/GPa)
#
#
# Indices 1 2 3 4 5 6 
#
# 1 0.016740 -0.003631 -0.004496 0.000000 0.000000 0.000000
# 2 -0.003631 0.013351 -0.003840 0.000000 0.000000 0.000000
# 3 -0.004496 -0.003840 0.013391 0.000000 0.000000 0.000000
# 4 0.000000 0.000000 0.000000 0.042690 0.000000 0.000000
# 5 0.000000 0.000000 0.000000 0.000000 0.039996 0.000000
# 6 0.000000 0.000000 0.000000 0.000000 0.000000 0.044686
#
#
# Mechanical properties :
#
#
# Convention : Reuss Voigt Hill
#
# Bulk Modulus (GPa) = 51.15703 52.08805 51.62254
# Shear Modulus (GPa) = 24.83787 25.13318 24.98553
#
# Velocity S-wave (km/s) = 3.66833 3.69007 3.67922
# Velocity P-wave (km/s) = 6.75707 6.80998 6.78358
#
# Compressibility (1/GPa) = 0.01954766
#
# Stress axis : x y z
#
# Youngs Moduli (GPa) = 59.73701 74.89804 74.67752
#
# Poissons Ratio (x) = 0.27197 0.33576
# Poissons Ratio (y) = 0.21692 0.28677
# Poissons Ratio (z) = 0.26858 0.28761
#
# Static dielectric constant tensor:
#      x y z
#    x 3.455510 0.000000 0.000000 
#    y 0.000000 3.302800 0.000000 
#    z 0.000000 0.000000 3.553750 
# 
# 
# High freq. dielectric constant tensor:
#      x y z
#    x 1.713560 0.000000 0.000000 
#    y 0.000000 1.709250 0.000000 
#    z 0.000000 0.000000 1.720950 
# 
# From -- ./inp_files/8058.got.cif
#   From: 2010.03.12/outbox.cif.g09.slc.cpg/sg62_5_cif.got.tgz:8058.got - 2010.04.10 19:12:36.
