data_PCOD8250513
_publ_section_title
;
Structure prediction by ZEFSAII (Michael W. Deem and Ramdas Pophale) SiO2 
 PCOD8250513
Probable space group: P N M A
;
_chemical_formula_sum "Si O2"
_cell_formula_units_Z 64
_cell_length_a 14.564014
_cell_length_b 9.172479
_cell_length_c 30.336941
_cell_angle_alpha 90.000000
_cell_angle_beta 90.000000
_cell_angle_gamma 90.000000
_cell_volume 4052.654689
_symmetry_space_group_name_H-M "P N M A"
_symmetry_group_IT_number 62
_symmetry_cell_setting 'orthorhombic'
loop_
_space_group_symop_operation_xyz
x,y,z
1/2-x,-y,1/2+z
1/2+x,1/2-y,1/2-z
-x,1/2+y,-z
-x,-y,-z
1/2+x,y,1/2-z
1/2-x,1/2+y,1/2+z
x,1/2-y,z
loop_
_atom_site_type_symbol
_atom_site_label
_atom_site_fract_x
_atom_site_fract_y
_atom_site_fract_z
Si Si1 0.474903 0.078027 0.769390
Si Si2 0.228645 0.577456 0.285173
Si Si3 0.391377 0.080071 0.542620
Si Si4 0.139537 0.080838 0.861983
Si Si5 0.898116 0.916399 0.042194
Si Si6 0.022296 0.423233 0.179785
Si Si7 0.166040 0.080511 0.699914
Si Si8 0.315781 0.421205 0.634578
O O1 0.471532 0.250000 0.758605
O O2 0.376833 0.021149 0.787271
O O3 0.557969 0.039292 0.803290
O O4 0.504521 0.990337 0.726433
O O5 0.227605 0.750000 0.282575
O O6 0.277212 0.528187 0.330762
O O7 0.281336 0.509488 0.242484
O O8 0.381374 0.250000 0.535360
O O9 0.496772 0.033788 0.551766
O O10 0.328175 0.029399 0.583867
O O11 0.354031 0.005790 0.498070
O O12 0.113364 0.250000 0.852587
O O13 0.163469 0.060717 0.913834
O O14 0.052594 0.978032 0.854784
O O15 0.897928 0.750000 0.027092
O O16 0.024805 0.250000 0.181657
O O17 0.120322 0.485141 0.166198
O O18 0.175339 0.250000 0.708972
O O19 0.213695 0.042278 0.653008
O O20 0.340352 0.250000 0.639524
#
# Coordination Sequence:
#
# PCOD8250513 Si02
#       8
#     8   8   8   8   8   8   8   8
#     4  10  18  32  48  65  90 119 153 190 223 257
#     4   9  16  26  48  71  86 113 152 189 218 257
#     4   9  17  28  44  64  88 115 143 180 220 264
#     4  10  18  32  48  65  88 122 157 182 218 263
#     4   9  17  28  44  64  88 115 143 180 220 264
#     4  12  22  28  41  67  94 123 152 186 221 259
#     4   9  16  26  48  71  86 113 152 189 218 257
#     4  10  18  32  48  65  88 122 157 182 218 263
#
# _framework density 15.792119
#
# number of rings (size 3 to 8) (size 9 to 14) (size 15 to 20)
#    0.000    2.250    3.750    1.125    0.000    1.000 
#    0.000    2.500    0.000    0.000    0.000    0.875 
#    0.000    0.000    0.000    0.000    0.000    0.000 
#
# Total GULP energy -793122.058110 kJ/mol
# GULP energy per Si atom -12392.532158 kJ/mol
# Density = 1.575618 g / cm^3
# Si number density = 15.792119 Si / 1000 Ang^3
#
#
#
# Elastic Constant Matrix: (Units=GPa)
#
#
# Indices 1 2 3 4 5 6 
#
# 1 78.0995 7.2217 30.8231 0.0000 0.0000 0.0000
# 2 7.2217 35.7835 15.1374 0.0000 0.0000 0.0000
# 3 30.8231 15.1374 99.3430 0.0000 0.0000 0.0000
# 4 0.0000 0.0000 0.0000 19.0732 0.0000 0.0000
# 5 0.0000 0.0000 0.0000 0.0000 24.4322 0.0000
# 6 0.0000 0.0000 0.0000 0.0000 0.0000 5.6614
#
#
#
# Elastic Compliance Matrix: (Units=1/GPa)
#
#
# Indices 1 2 3 4 5 6 
#
# 1 0.014632 -0.001104 -0.004372 0.000000 0.000000 0.000000
# 2 -0.001104 0.029955 -0.004222 0.000000 0.000000 0.000000
# 3 -0.004372 -0.004222 0.012066 0.000000 0.000000 0.000000
# 4 0.000000 0.000000 0.000000 0.052430 0.000000 0.000000
# 5 0.000000 0.000000 0.000000 0.000000 0.040930 0.000000
# 6 0.000000 0.000000 0.000000 0.000000 0.000000 0.176636
#
#
# Mechanical properties :
#
#
# Convention : Reuss Voigt Hill
#
# Bulk Modulus (GPa) = 26.84006 35.51004 31.17505
# Shear Modulus (GPa) = 13.94855 20.50294 17.22575
#
# Velocity S-wave (km/s) = 2.97519 3.60711 3.30628
# Velocity P-wave (km/s) = 5.36983 6.31530 5.86166
#
# Compressibility (1/GPa) = 0.03725774
#
# Stress axis : x y z
#
# Youngs Moduli (GPa) = 68.34565 33.38394 82.87880
#
# Poissons Ratio (x) = 0.03684 0.36231
# Poissons Ratio (y) = 0.07542 0.34991
# Poissons Ratio (z) = 0.29878 0.14094
#
# Static dielectric constant tensor:
#      x y z
#    x 3.062930 0.000000 0.000000 
#    y 0.000000 2.737620 0.000000 
#    z 0.000000 0.000000 3.081260 
# 
# 
# High freq. dielectric constant tensor:
#      x y z
#    x 1.580560 0.000000 0.000000 
#    y 0.000000 1.576790 0.000000 
#    z 0.000000 0.000000 1.600050 
# 
# From -- ./inp_files/32698.got.cif
#   From: 2010.03.12/outbox.cif.g09.slc.cpg/sg62_17_cif.got.tgz:32698.got - 2010.04.10 19:12:36.
