data_PCOD8250448
_publ_section_title
;
Structure prediction by ZEFSAII (Michael W. Deem and Ramdas Pophale) SiO2 
 PCOD8250448
Probable space group: P N M A
;
_chemical_formula_sum "Si O2"
_cell_formula_units_Z 64
_cell_length_a 18.803297
_cell_length_b 9.103428
_cell_length_c 23.018364
_cell_angle_alpha 90.000000
_cell_angle_beta 90.000000
_cell_angle_gamma 90.000000
_cell_volume 3940.156037
_symmetry_space_group_name_H-M "P N M A"
_symmetry_group_IT_number 62
_symmetry_cell_setting 'orthorhombic'
loop_
_space_group_symop_operation_xyz
x,y,z
1/2-x,-y,1/2+z
1/2+x,1/2-y,1/2-z
-x,1/2+y,-z
-x,-y,-z
1/2+x,y,1/2-z
1/2-x,1/2+y,1/2+z
x,1/2-y,z
loop_
_atom_site_type_symbol
_atom_site_label
_atom_site_fract_x
_atom_site_fract_y
_atom_site_fract_z
Si Si1 0.855709 0.420133 0.431254
Si Si2 0.994325 0.080030 0.745964
Si Si3 0.144329 0.077480 0.225320
Si Si4 0.264359 0.577797 0.160725
Si Si5 0.348088 0.918045 0.276020
Si Si6 0.853753 0.082036 0.566107
Si Si7 0.731194 0.078611 0.160643
Si Si8 0.506129 0.422261 0.887878
O O1 0.855595 0.250000 0.412918
O O2 0.794022 0.505756 0.397615
O O3 0.838265 0.440340 0.498703
O O4 0.932658 0.486138 0.418577
O O5 0.971527 0.250000 0.750004
O O6 0.068139 0.050293 0.779086
O O7 0.001943 0.032633 0.679256
O O8 0.935951 0.980504 0.777577
O O9 0.146324 0.250000 0.213168
O O10 0.176368 0.036873 0.288211
O O11 0.188997 0.995903 0.175545
O O12 0.253126 0.750000 0.150789
O O13 0.321103 0.544237 0.211355
O O14 0.330460 0.750000 0.290555
O O15 0.309027 0.016401 0.323996
O O16 0.844988 0.250000 0.585768
O O17 0.933421 0.030053 0.580929
O O18 0.796047 0.988072 0.600682
O O19 0.738989 0.250000 0.152259
O O20 0.523234 0.250000 0.894973
#
# Coordination Sequence:
#
# PCOD8250448 Si02
#       8
#     8   8   8   8   8   8   8   8
#     4  11  22  33  48  72 100 132 170 212 252 285
#     4  10  18  31  51  74  98 133 171 199 238 299
#     4  10  20  32  48  74 102 127 159 207 257 293
#     4  10  19  34  52  70  94 132 170 204 245 294
#     4   9  18  32  50  70  95 128 165 202 245 294
#     4  10  21  35  50  68  97 137 173 206 245 290
#     4  10  20  32  48  72  97 126 164 207 252 291
#     4  10  19  33  49  68  98 137 177 205 234 289
#
# _framework density 16.243012
#
# number of rings (size 3 to 8) (size 9 to 14) (size 15 to 20)
#    0.000    2.000    2.500    1.875    0.000    4.000 
#    0.000    0.000    0.000    0.000    0.000    0.875 
#    0.000    0.000    0.000    0.000    0.000    0.000 
#
# Total GULP energy -793887.760554 kJ/mol
# GULP energy per Si atom -12404.496259 kJ/mol
# Density = 1.620604 g / cm^3
# Si number density = 16.243012 Si / 1000 Ang^3
#
#
#
# Elastic Constant Matrix: (Units=GPa)
#
#
# Indices 1 2 3 4 5 6 
#
# 1 96.0782 54.0890 47.4365 0.0000 0.0000 0.0000
# 2 54.0890 88.4118 48.8823 0.0000 0.0000 0.0000
# 3 47.4365 48.8823 72.9249 0.0000 0.0000 0.0000
# 4 0.0000 0.0000 0.0000 25.2738 0.0000 0.0000
# 5 0.0000 0.0000 0.0000 0.0000 24.7626 0.0000
# 6 0.0000 0.0000 0.0000 0.0000 0.0000 30.7236
#
#
#
# Elastic Compliance Matrix: (Units=1/GPa)
#
#
# Indices 1 2 3 4 5 6 
#
# 1 0.017765 -0.007117 -0.006785 0.000000 0.000000 0.000000
# 2 -0.007117 0.020822 -0.009328 0.000000 0.000000 0.000000
# 3 -0.006785 -0.009328 0.024379 0.000000 0.000000 0.000000
# 4 0.000000 0.000000 0.000000 0.039567 0.000000 0.000000
# 5 0.000000 0.000000 0.000000 0.000000 0.040383 0.000000
# 6 0.000000 0.000000 0.000000 0.000000 0.000000 0.032548
#
#
# Mechanical properties :
#
#
# Convention : Reuss Voigt Hill
#
# Bulk Modulus (GPa) = 60.58400 62.02563 61.30482
# Shear Modulus (GPa) = 21.98521 23.28581 22.63551
#
# Velocity S-wave (km/s) = 3.68301 3.79038 3.73708
# Velocity P-wave (km/s) = 7.44752 7.57793 7.51301
#
# Compressibility (1/GPa) = 0.01650601
#
# Stress axis : x y z
#
# Youngs Moduli (GPa) = 56.29127 48.02647 41.01882
#
# Poissons Ratio (x) = 0.34179 0.27833
# Poissons Ratio (y) = 0.40060 0.38262
# Poissons Ratio (z) = 0.38196 0.44798
#
# Static dielectric constant tensor:
#      x y z
#    x 3.035070 0.000000 0.000000 
#    y 0.000000 3.098050 0.000000 
#    z 0.000000 0.000000 2.866030 
# 
# 
# High freq. dielectric constant tensor:
#      x y z
#    x 1.619620 0.000000 0.000000 
#    y 0.000000 1.633930 0.000000 
#    z 0.000000 0.000000 1.598120 
# 
# From -- ./inp_files/27616.got.cif
#   From: 2010.03.12/outbox.cif.g09.slc.cpg/sg62_14_cif.got.tgz:27616.got - 2010.04.10 19:12:36.
