data_PCOD8250664
_publ_section_title
;
Structure prediction by ZEFSAII (Michael W. Deem and Ramdas Pophale) SiO2 
 PCOD8250664
Probable space group: P N M A
;
_chemical_formula_sum "Si O2"
_cell_formula_units_Z 64
_cell_length_a 24.361708
_cell_length_b 14.282543
_cell_length_c 9.627611
_cell_angle_alpha 90.000000
_cell_angle_beta 90.000000
_cell_angle_gamma 90.000000
_cell_volume 3349.899732
_symmetry_space_group_name_H-M "P N M A"
_symmetry_group_IT_number 62
_symmetry_cell_setting 'orthorhombic'
loop_
_space_group_symop_operation_xyz
x,y,z
1/2-x,-y,1/2+z
1/2+x,1/2-y,1/2-z
-x,1/2+y,-z
-x,-y,-z
1/2+x,y,1/2-z
1/2-x,1/2+y,1/2+z
x,1/2-y,z
loop_
_atom_site_type_symbol
_atom_site_label
_atom_site_fract_x
_atom_site_fract_y
_atom_site_fract_z
Si Si1 0.477351 0.641036 0.159589
Si Si2 0.195552 0.062901 0.400268
Si Si3 0.294162 0.934228 0.340348
Si Si4 0.529239 0.495970 0.352285
Si Si5 0.119517 0.004602 0.634396
Si Si6 0.732372 0.850212 0.390524
Si Si7 0.156622 0.032366 0.112862
Si Si8 0.526945 0.859018 0.856112
O O1 0.473019 0.750000 0.198499
O O2 0.519319 0.591170 0.265421
O O3 0.418415 0.592351 0.178150
O O4 0.496729 0.625684 0.002092
O O5 0.225517 0.147742 0.478910
O O6 0.239510 0.981119 0.396275
O O7 0.142625 0.022985 0.480905
O O8 0.175896 0.092034 0.246475
O O9 0.272570 0.850123 0.244388
O O10 0.330970 0.003868 0.245082
O O11 0.329329 0.905486 0.476476
O O12 0.500000 0.500000 0.500000
O O13 0.592970 0.487713 0.382309
O O14 0.508739 0.406018 0.265529
O O15 0.086512 0.907340 0.635921
O O16 0.701668 0.750000 0.393875
O O17 0.687849 0.932431 0.392576
O O18 0.534950 0.750000 0.821524
#
# Coordination Sequence:
#
# PCOD8250664 Si02
#       8
#     8   8   8   8   8   8   8   8
#     4  10  21  36  57  82 107 141 189 231 268 321
#     4   9  18  33  55  76 101 135 176 217 260 315
#     4   9  19  34  53  76 107 141 172 208 263 325
#     4  11  22  37  56  81 115 148 179 224 280 333
#     4  10  18  35  57  78 108 147 180 218 274 326
#     4   9  19  35  55  80 105 136 180 225 263 312
#     4  10  18  34  56  77 105 144 178 212 267 325
#     4  10  21  38  58  82 109 142 189 237 272 317
#
# _framework density 19.105049999999999
#
# number of rings (size 3 to 8) (size 9 to 14) (size 15 to 20)
#    0.000    2.250    0.000    5.250    0.000    3.000 
#    0.000   10.625    0.000    0.000    0.000    0.000 
#    0.000    0.000    0.000    0.000    0.000    0.000 
#
# Total GULP energy -793198.640964 kJ/mol
# GULP energy per Si atom -12393.728765 kJ/mol
# Density = 1.906157 g / cm^3
# Si number density = 19.105050 Si / 1000 Ang^3
#
#
#
# Elastic Constant Matrix: (Units=GPa)
#
#
# Indices 1 2 3 4 5 6 
#
# 1 74.3553 1.9196 4.2954 0.0000 0.0000 0.0000
# 2 1.9196 85.5201 7.2982 0.0000 0.0000 0.0000
# 3 4.2954 7.2982 110.8922 0.0000 0.0000 0.0000
# 4 0.0000 0.0000 0.0000 10.0936 0.0000 0.0000
# 5 0.0000 0.0000 0.0000 0.0000 38.0730 0.0000
# 6 0.0000 0.0000 0.0000 0.0000 0.0000 17.0435
#
#
#
# Elastic Compliance Matrix: (Units=1/GPa)
#
#
# Indices 1 2 3 4 5 6 
#
# 1 0.013485 -0.000260 -0.000505 0.000000 0.000000 0.000000
# 2 -0.000260 0.011764 -0.000764 0.000000 0.000000 0.000000
# 3 -0.000505 -0.000764 0.009088 0.000000 0.000000 0.000000
# 4 0.000000 0.000000 0.000000 0.099073 0.000000 0.000000
# 5 0.000000 0.000000 0.000000 0.000000 0.026265 0.000000
# 6 0.000000 0.000000 0.000000 0.000000 0.000000 0.058673
#
#
# Mechanical properties :
#
#
# Convention : Reuss Voigt Hill
#
# Bulk Modulus (GPa) = 31.97069 33.08822 32.52945
# Shear Modulus (GPa) = 21.56729 30.19231 25.87980
#
# Velocity S-wave (km/s) = 3.36352 3.97965 3.68449
# Velocity P-wave (km/s) = 5.64401 6.20270 5.92994
#
# Compressibility (1/GPa) = 0.03127865
#
# Stress axis : x y z
#
# Youngs Moduli (GPa) = 74.15738 85.00367 110.03972
#
# Poissons Ratio (x) = 0.02206 0.05560
# Poissons Ratio (y) = 0.01925 0.08409
# Poissons Ratio (z) = 0.03747 0.06496
#
# Static dielectric constant tensor:
#      x y z
#    x 3.483030 0.000000 0.000000 
#    y 0.000000 3.206820 0.000000 
#    z 0.000000 0.000000 4.164250 
# 
# 
# High freq. dielectric constant tensor:
#      x y z
#    x 1.753890 0.000000 0.000000 
#    y 0.000000 1.707180 0.000000 
#    z 0.000000 0.000000 1.762880 
# 
# From -- ./inp_files/9504.got.cif
#   From: 2010.03.12/outbox.cif.g09.slc.cpg/sg62_5_cif.got.tgz:9504.got - 2010.04.10 19:12:36.
