data_PCOD8250648
_publ_section_title
;
Structure prediction by ZEFSAII (Michael W. Deem and Ramdas Pophale) SiO2 
 PCOD8250648
Probable space group: P N M A
;
_chemical_formula_sum "Si O2"
_cell_formula_units_Z 64
_cell_length_a 18.820915
_cell_length_b 18.337494
_cell_length_c 9.649688
_cell_angle_alpha 90.000000
_cell_angle_beta 90.000000
_cell_angle_gamma 90.000000
_cell_volume 3330.381533
_symmetry_space_group_name_H-M "P N M A"
_symmetry_group_IT_number 62
_symmetry_cell_setting 'orthorhombic'
loop_
_space_group_symop_operation_xyz
x,y,z
1/2-x,-y,1/2+z
1/2+x,1/2-y,1/2-z
-x,1/2+y,-z
-x,-y,-z
1/2+x,y,1/2-z
1/2-x,1/2+y,1/2+z
x,1/2-y,z
loop_
_atom_site_type_symbol
_atom_site_label
_atom_site_fract_x
_atom_site_fract_y
_atom_site_fract_z
Si Si1 0.017465 0.423248 0.572967
Si Si2 0.553613 0.930617 0.349002
Si Si3 0.953997 0.901123 0.908158
Si Si4 0.675385 0.076077 0.809912
Si Si5 0.317091 0.094146 0.198495
Si Si6 0.803981 0.906730 0.004323
Si Si7 0.198209 0.580312 0.005929
Si Si8 0.034981 0.833879 0.663780
O O1 0.094695 0.418021 0.641521
O O2 0.000000 0.500000 0.500000
O O3 0.958680 0.406577 0.690762
O O4 0.015047 0.358170 0.462374
O O5 0.492328 0.896829 0.444111
O O6 0.629281 0.900238 0.401264
O O7 0.544613 0.017651 0.347571
O O8 0.993431 0.846144 0.806109
O O9 0.873092 0.875863 0.926216
O O10 0.691957 0.118078 0.665255
O O11 0.693350 0.991642 0.795994
O O12 0.730080 0.109442 0.921846
O O13 0.304002 0.121084 0.356675
O O14 0.395295 0.116474 0.153274
O O15 0.262350 0.125713 0.083088
O O16 0.802990 0.993749 0.009460
O O17 0.056411 0.750000 0.650596
#
# Coordination Sequence:
#
# PCOD8250648 Si02
#       8
#     8   8   8   8   8   8   8   8
#     4  12  22  35  62  91 120 158 204 253 305 353
#     4  10  18  33  60  91 117 150 195 253 302 357
#     4  10  18  36  59  87 117 150 199 251 301 347
#     4  10  19  33  55  95 122 147 190 251 307 350
#     4  10  19  36  55  85 122 156 190 240 307 364
#     4   9  19  31  56  88 121 146 187 244 303 358
#     4   9  19  29  54  90 125 145 181 245 306 362
#     4  12  26  41  58  85 123 163 208 252 302 375
#
# _framework density 19.217019000000001
#
# number of rings (size 3 to 8) (size 9 to 14) (size 15 to 20)
#    0.000    1.750    5.000    0.000    3.500    1.000 
#    0.000    1.250    0.000    0.750    0.000    0.000 
#    0.000    0.000    0.000    0.000    0.000    0.000 
#
# Total GULP energy -793365.462723 kJ/mol
# GULP energy per Si atom -12396.335355 kJ/mol
# Density = 1.917328 g / cm^3
# Si number density = 19.217019 Si / 1000 Ang^3
#
#
#
# Elastic Constant Matrix: (Units=GPa)
#
#
# Indices 1 2 3 4 5 6 
#
# 1 125.4954 0.3389 63.7802 0.0000 0.0000 0.0000
# 2 0.3389 22.3379 17.6495 0.0000 0.0000 0.0000
# 3 63.7802 17.6495 132.7871 0.0000 0.0000 0.0000
# 4 0.0000 0.0000 0.0000 12.0749 0.0000 0.0000
# 5 0.0000 0.0000 0.0000 0.0000 40.4894 0.0000
# 6 0.0000 0.0000 0.0000 0.0000 0.0000 4.8043
#
#
#
# Elastic Compliance Matrix: (Units=1/GPa)
#
#
# Indices 1 2 3 4 5 6 
#
# 1 0.010923 0.004447 -0.005838 0.000000 0.000000 0.000000
# 2 0.004447 0.051830 -0.009025 0.000000 0.000000 0.000000
# 3 -0.005838 -0.009025 0.011534 0.000000 0.000000 0.000000
# 4 0.000000 0.000000 0.000000 0.082817 0.000000 0.000000
# 5 0.000000 0.000000 0.000000 0.000000 0.024698 0.000000
# 6 0.000000 0.000000 0.000000 0.000000 0.000000 0.208148
#
#
# Mechanical properties :
#
#
# Convention : Reuss Voigt Hill
#
# Bulk Modulus (GPa) = 18.70690 49.35083 34.02887
# Shear Modulus (GPa) = 11.66585 24.73048 18.19817
#
# Velocity S-wave (km/s) = 2.46653 3.59124 3.08065
# Velocity P-wave (km/s) = 4.22698 6.55229 5.51361
#
# Compressibility (1/GPa) = 0.05345620
#
# Stress axis : x y z
#
# Youngs Moduli (GPa) = 91.54748 19.29374 86.69751
#
# Poissons Ratio (x) = -0.08579 0.50611
# Poissons Ratio (y) = -0.40709 0.78244
# Poissons Ratio (z) = 0.53443 0.17412
#
# Static dielectric constant tensor:
#      x y z
#    x 3.637710 0.000000 0.000000 
#    y 0.000000 2.853650 0.000000 
#    z 0.000000 0.000000 3.864440 
# 
# 
# High freq. dielectric constant tensor:
#      x y z
#    x 1.760250 0.000000 0.000000 
#    y 0.000000 1.667400 0.000000 
#    z 0.000000 0.000000 1.769220 
# 
# From -- ./inp_files/8967.got.cif
#   From: 2010.03.12/outbox.cif.g09.slc.cpg/sg62_5_cif.got.tgz:8967.got - 2010.04.10 19:12:36.
