data_PCOD8250545
_publ_section_title
;
Structure prediction by ZEFSAII (Michael W. Deem and Ramdas Pophale) SiO2 
 PCOD8250545
Probable space group: P N M A
;
_chemical_formula_sum "Si O2"
_cell_formula_units_Z 64
_cell_length_a 12.328453
_cell_length_b 8.940388
_cell_length_c 29.195778
_cell_angle_alpha 90.000000
_cell_angle_beta 90.000000
_cell_angle_gamma 90.000000
_cell_volume 3217.992321
_symmetry_space_group_name_H-M "P N M A"
_symmetry_group_IT_number 62
_symmetry_cell_setting 'orthorhombic'
loop_
_space_group_symop_operation_xyz
x,y,z
1/2-x,-y,1/2+z
1/2+x,1/2-y,1/2-z
-x,1/2+y,-z
-x,-y,-z
1/2+x,y,1/2-z
1/2-x,1/2+y,1/2+z
x,1/2-y,z
loop_
_atom_site_type_symbol
_atom_site_label
_atom_site_fract_x
_atom_site_fract_y
_atom_site_fract_z
Si Si1 0.762725 0.426937 0.975956
Si Si2 0.435873 0.072563 0.277329
Si Si3 0.497250 0.423580 0.812730
Si Si4 0.470105 0.579514 0.560793
Si Si5 0.375005 0.582220 0.659650
Si Si6 0.754986 0.426167 0.665649
Si Si7 0.678591 0.077804 0.880561
Si Si8 0.801303 0.573142 0.063256
O O1 0.755051 0.250000 0.983237
O O2 0.886062 0.476401 0.966397
O O3 0.689497 0.483816 0.932689
O O4 0.722718 0.511000 0.022463
O O5 0.427291 0.250000 0.280103
O O6 0.547228 0.014653 0.300968
O O7 0.439574 0.018759 0.225197
O O8 0.331302 0.007379 0.302528
O O9 0.503483 0.250000 0.798955
O O10 0.373953 0.477289 0.818074
O O11 0.558200 0.451043 0.861265
O O12 0.466730 0.750000 0.542164
O O13 0.446080 0.576511 0.614270
O O14 0.586254 0.508047 0.553589
O O15 0.340531 0.750000 0.672321
O O16 0.264472 0.491326 0.654903
O O17 0.738214 0.250000 0.670925
O O18 0.744087 0.474451 0.612683
O O19 0.709578 0.250000 0.882405
O O20 0.813898 0.750000 0.059468
#
# Coordination Sequence:
#
# PCOD8250545 Si02
#       8
#     8   8   8   8   8   8   8   8
#     4  10  20  34  54  82 114 152 194 239 292 347
#     4  11  23  39  60  89 120 150 188 239 297 354
#     4  10  23  43  63  85 114 153 200 245 290 342
#     4  10  18  32  52  78 114 153 187 231 284 339
#     4   9  19  34  54  82 116 149 182 229 287 341
#     4  10  23  42  63  86 117 156 198 242 288 349
#     4   9  20  38  60  83 112 151 197 242 282 339
#     4  11  21  34  54  82 114 152 194 239 290 344
#
# _framework density 19.888176000000001
#
# number of rings (size 3 to 8) (size 9 to 14) (size 15 to 20)
#    0.000    2.000    1.250    1.875    1.750    3.500 
#    0.000    0.625    0.000    0.000    0.000    0.000 
#    0.000    0.000    0.000    0.000    0.000    0.000 
#
# Total GULP energy -793513.212717 kJ/mol
# GULP energy per Si atom -12398.643949 kJ/mol
# Density = 1.984291 g / cm^3
# Si number density = 19.888176 Si / 1000 Ang^3
#
#
#
# Elastic Constant Matrix: (Units=GPa)
#
#
# Indices 1 2 3 4 5 6 
#
# 1 73.6249 20.3387 54.0709 0.0000 0.0000 0.0000
# 2 20.3387 48.2513 39.7892 0.0000 0.0000 0.0000
# 3 54.0709 39.7892 125.4396 0.0000 0.0000 0.0000
# 4 0.0000 0.0000 0.0000 30.8784 0.0000 0.0000
# 5 0.0000 0.0000 0.0000 0.0000 13.4272 0.0000
# 6 0.0000 0.0000 0.0000 0.0000 0.0000 15.8976
#
#
#
# Elastic Compliance Matrix: (Units=1/GPa)
#
#
# Indices 1 2 3 4 5 6 
#
# 1 0.019987 -0.001788 -0.008048 0.000000 0.000000 0.000000
# 2 -0.001788 0.028226 -0.008182 0.000000 0.000000 0.000000
# 3 -0.008048 -0.008182 0.014037 0.000000 0.000000 0.000000
# 4 0.000000 0.000000 0.000000 0.032385 0.000000 0.000000
# 5 0.000000 0.000000 0.000000 0.000000 0.074476 0.000000
# 6 0.000000 0.000000 0.000000 0.000000 0.000000 0.062902
#
#
# Mechanical properties :
#
#
# Convention : Reuss Voigt Hill
#
# Bulk Modulus (GPa) = 38.15041 52.85706 45.50373
# Shear Modulus (GPa) = 18.06437 20.91512 19.48975
#
# Velocity S-wave (km/s) = 3.01707 3.24641 3.13384
# Velocity P-wave (km/s) = 5.60009 6.37864 6.00200
#
# Compressibility (1/GPa) = 0.02621204
#
# Stress axis : x y z
#
# Youngs Moduli (GPa) = 50.03236 35.42836 71.24215
#
# Poissons Ratio (x) = 0.06335 0.57338
# Poissons Ratio (y) = 0.08946 0.58294
# Poissons Ratio (z) = 0.40267 0.28989
#
# Static dielectric constant tensor:
#      x y z
#    x 3.434470 0.000000 0.000000 
#    y 0.000000 3.585060 0.000000 
#    z 0.000000 0.000000 3.973170 
# 
# 
# High freq. dielectric constant tensor:
#      x y z
#    x 1.753340 0.000000 0.000000 
#    y 0.000000 1.772570 0.000000 
#    z 0.000000 0.000000 1.792000 
# 
# From -- ./inp_files/32493.got.cif
#   From: 2010.03.12/outbox.cif.g09.slc.cpg/sg62_17_cif.got.tgz:32493.got - 2010.04.10 19:12:36.
