data_PCOD8250550
_publ_section_title
;
Structure prediction by ZEFSAII (Michael W. Deem and Ramdas Pophale) SiO2 
 PCOD8250550
Probable space group: P N M A
;
_chemical_formula_sum "Si O2"
_cell_formula_units_Z 64
_cell_length_a 14.642039
_cell_length_b 8.919401
_cell_length_c 25.182320
_cell_angle_alpha 90.000000
_cell_angle_beta 90.000000
_cell_angle_gamma 90.000000
_cell_volume 3288.766099
_symmetry_space_group_name_H-M "P N M A"
_symmetry_group_IT_number 62
_symmetry_cell_setting 'orthorhombic'
loop_
_space_group_symop_operation_xyz
x,y,z
1/2-x,-y,1/2+z
1/2+x,1/2-y,1/2-z
-x,1/2+y,-z
-x,-y,-z
1/2+x,y,1/2-z
1/2-x,1/2+y,1/2+z
x,1/2-y,z
loop_
_atom_site_type_symbol
_atom_site_label
_atom_site_fract_x
_atom_site_fract_y
_atom_site_fract_z
Si Si1 0.299976 0.571850 0.191077
Si Si2 0.957125 0.582096 0.579921
Si Si3 0.882197 0.573523 0.775245
Si Si4 0.310671 0.915630 0.391630
Si Si5 0.076777 0.428440 0.791985
Si Si6 0.877034 0.085370 0.669064
Si Si7 0.778547 0.576034 0.515982
Si Si8 0.159688 0.579137 0.582728
O O1 0.290657 0.750000 0.190612
O O2 0.199096 0.500834 0.191457
O O3 0.361243 0.519907 0.241680
O O4 0.345284 0.513602 0.137136
O O5 0.936420 0.750000 0.600712
O O6 0.956070 0.469993 0.629906
O O7 0.880050 0.539285 0.537292
O O8 0.058697 0.571883 0.556007
O O9 0.882890 0.750000 0.785055
O O10 0.863032 0.536598 0.714235
O O11 0.978897 0.504877 0.791215
O O12 0.342777 0.750000 0.410124
O O13 0.379582 0.983209 0.347826
O O14 0.214467 0.901114 0.363477
O O15 0.300299 0.019974 0.443535
O O16 0.067465 0.250000 0.791102
O O17 0.904276 0.250000 0.692284
O O18 0.762371 0.750000 0.505837
O O19 0.769549 0.491663 0.459522
O O20 0.188945 0.750000 0.594472
#
# Coordination Sequence:
#
# PCOD8250550 Si02
#       8
#     8   8   8   8   8   8   8   8
#     4  11  23  41  61  84 116 155 197 240 287 345
#     4   9  19  33  51  80 114 148 190 236 284 337
#     4  12  24  36  55  84 118 153 190 235 290 346
#     4   9  18  35  57  81 108 142 186 233 279 328
#     4  10  21  39  62  86 114 150 193 237 286 344
#     4  10  18  32  53  78 109 147 188 228 277 335
#     4  10  20  34  54  81 112 151 193 235 284 339
#     4  11  22  36  53  78 114 153 193 237 287 342
#
# _framework density 19.460186
#
# number of rings (size 3 to 8) (size 9 to 14) (size 15 to 20)
#    0.000    1.750    1.250    3.750    0.000    5.500 
#    0.000    0.000    0.000    0.750    0.000    0.000 
#    0.000    0.000    0.000    0.000    0.000    0.000 
#
# Total GULP energy -793378.656541 kJ/mol
# GULP energy per Si atom -12396.541508 kJ/mol
# Density = 1.941589 g / cm^3
# Si number density = 19.460186 Si / 1000 Ang^3
#
#
#
# Elastic Constant Matrix: (Units=GPa)
#
#
# Indices 1 2 3 4 5 6 
#
# 1 70.1863 35.0464 28.1963 0.0000 0.0000 0.0000
# 2 35.0464 78.8729 26.6774 0.0000 0.0000 0.0000
# 3 28.1963 26.6774 44.2771 0.0000 0.0000 0.0000
# 4 0.0000 0.0000 0.0000 37.9834 0.0000 0.0000
# 5 0.0000 0.0000 0.0000 0.0000 10.1528 0.0000
# 6 0.0000 0.0000 0.0000 0.0000 0.0000 24.7221
#
#
#
# Elastic Compliance Matrix: (Units=1/GPa)
#
#
# Indices 1 2 3 4 5 6 
#
# 1 0.021259 -0.006113 -0.009855 0.000000 0.000000 0.000000
# 2 -0.006113 0.017681 -0.006760 0.000000 0.000000 0.000000
# 3 -0.009855 -0.006760 0.032934 0.000000 0.000000 0.000000
# 4 0.000000 0.000000 0.000000 0.026327 0.000000 0.000000
# 5 0.000000 0.000000 0.000000 0.000000 0.098495 0.000000
# 6 0.000000 0.000000 0.000000 0.000000 0.000000 0.040450
#
#
# Mechanical properties :
#
#
# Convention : Reuss Voigt Hill
#
# Bulk Modulus (GPa) = 37.85315 41.46406 39.65860
# Shear Modulus (GPa) = 17.15795 21.46608 19.31201
#
# Velocity S-wave (km/s) = 2.97256 3.32486 3.15363
# Velocity P-wave (km/s) = 5.59243 6.00774 5.80380
#
# Compressibility (1/GPa) = 0.02641788
#
# Stress axis : x y z
#
# Youngs Moduli (GPa) = 47.03794 56.55629 30.36365
#
# Poissons Ratio (x) = 0.34573 0.29924
# Poissons Ratio (y) = 0.28755 0.20527
# Poissons Ratio (z) = 0.46356 0.38234
#
# Static dielectric constant tensor:
#      x y z
#    x 3.414470 0.000000 0.000000 
#    y 0.000000 3.746750 0.000000 
#    z 0.000000 0.000000 3.556860 
# 
# 
# High freq. dielectric constant tensor:
#      x y z
#    x 1.734260 0.000000 0.000000 
#    y 0.000000 1.763320 0.000000 
#    z 0.000000 0.000000 1.749630 
# 
# From -- ./inp_files/29822.got.cif
#   From: 2010.03.12/outbox.cif.g09.slc.cpg/sg62_15_cif.got.tgz:29822.got - 2010.04.10 19:12:36.
