data_PCOD8250186
_publ_section_title
;
Structure prediction by ZEFSAII (Michael W. Deem and Ramdas Pophale) SiO2 
 PCOD8250186
Probable space group: P N M A
;
_chemical_formula_sum "Si O2"
_cell_formula_units_Z 56
_cell_length_a 19.461117
_cell_length_b 9.245318
_cell_length_c 19.409404
_cell_angle_alpha 90.000000
_cell_angle_beta 90.000000
_cell_angle_gamma 90.000000
_cell_volume 3492.221784
_symmetry_space_group_name_H-M "P N M A"
_symmetry_group_IT_number 62
_symmetry_cell_setting 'orthorhombic'
loop_
_space_group_symop_operation_xyz
x,y,z
1/2-x,-y,1/2+z
1/2+x,1/2-y,1/2-z
-x,1/2+y,-z
-x,-y,-z
1/2+x,y,1/2-z
1/2-x,1/2+y,1/2+z
x,1/2-y,z
loop_
_atom_site_type_symbol
_atom_site_label
_atom_site_fract_x
_atom_site_fract_y
_atom_site_fract_z
Si Si1 0.153624 0.578663 0.267811
Si Si2 0.447350 0.079546 0.549177
Si Si3 0.757912 0.579610 0.120711
Si Si4 0.791560 0.420565 0.983404
Si Si5 0.631748 0.421677 0.732547
Si Si6 0.237630 0.078043 0.659892
Si Si7 0.517850 0.578018 0.297002
O O1 0.154555 0.750000 0.260858
O O2 0.186263 0.535410 0.341511
O O3 0.200233 0.515139 0.206067
O O4 0.075608 0.521703 0.257328
O O5 0.458741 0.250000 0.542241
O O6 0.370505 0.034715 0.528002
O O7 0.461652 0.026379 0.626749
O O8 0.500000 0.000000 0.500000
O O9 0.761599 0.750000 0.107008
O O10 0.821451 0.528138 0.168315
O O11 0.759911 0.497766 0.049098
O O12 0.784843 0.250000 0.993478
O O13 0.746289 0.476248 0.918334
O O14 0.627932 0.250000 0.731604
O O15 0.665738 0.473191 0.805095
O O16 0.555691 0.489584 0.724875
O O17 0.242298 0.250000 0.660794
O O18 0.513536 0.750000 0.295377
#
# Coordination Sequence:
#
# PCOD8250186 Si02
#       7
#     8   8   8   8   8   8   8
#     4   8  13  24  42  60  80 108 144 179 210 244
#     4  10  19  28  41  63  92 119 139 165 208 262
#     4   9  17  28  43  64  87 110 138 178 216 247
#     4  10  18  28  43  62  86 117 143 167 207 258
#     4   8  14  23  40  63  84 105 137 180 214 239
#     4   8  13  24  39  57  79 108 144 174 202 244
#     4   9  14  23  40  63  85 107 138 178 215 245
#
# _framework density 16.035637000000001
#
# number of rings (size 3 to 8) (size 9 to 14) (size 15 to 20)
#    0.000    3.143    1.429    2.571    0.000    1.714 
#    0.000    0.000    0.000    5.143    0.000    0.000 
#    0.000    0.000    0.000    0.000    0.000    0.000 
#
# Total GULP energy -693893.672059 kJ/mol
# GULP energy per Si atom -12390.958430 kJ/mol
# Density = 1.599914 g / cm^3
# Si number density = 16.035637 Si / 1000 Ang^3
#
#
#
# Elastic Constant Matrix: (Units=GPa)
#
#
# Indices 1 2 3 4 5 6 
#
# 1 107.1277 13.9079 79.6792 0.0000 0.0000 0.0000
# 2 13.9079 12.7260 25.5846 0.0000 0.0000 0.0000
# 3 79.6792 25.5846 146.4328 0.0000 0.0000 0.0000
# 4 0.0000 0.0000 0.0000 22.9017 0.0000 0.0000
# 5 0.0000 0.0000 0.0000 0.0000 28.9237 0.0000
# 6 0.0000 0.0000 0.0000 0.0000 0.0000 11.6374
#
#
#
# Elastic Compliance Matrix: (Units=1/GPa)
#
#
# Indices 1 2 3 4 5 6 
#
# 1 0.015681 0.000026 -0.008537 0.000000 0.000000 0.000000
# 2 0.000026 0.121126 -0.021177 0.000000 0.000000 0.000000
# 3 -0.008537 -0.021177 0.015174 0.000000 0.000000 0.000000
# 4 0.000000 0.000000 0.000000 0.043665 0.000000 0.000000
# 5 0.000000 0.000000 0.000000 0.000000 0.034574 0.000000
# 6 0.000000 0.000000 0.000000 0.000000 0.000000 0.085930
#
#
# Mechanical properties :
#
#
# Convention : Reuss Voigt Hill
#
# Bulk Modulus (GPa) = 10.79859 56.07000 33.43429
# Shear Modulus (GPa) = 12.30330 22.50021 17.40175
#
# Velocity S-wave (km/s) = 2.77293 3.74991 3.29780
# Velocity P-wave (km/s) = 4.12322 7.33423 5.94945
#
# Compressibility (1/GPa) = 0.09260469
#
# Stress axis : x y z
#
# Youngs Moduli (GPa) = 63.77144 8.25587 65.90026
#
# Poissons Ratio (x) = -0.00021 0.56260
# Poissons Ratio (y) = -0.00165 1.39558
# Poissons Ratio (z) = 0.54442 0.17484
#
# Static dielectric constant tensor:
#      x y z
#    x 3.471800 0.000000 0.000000 
#    y 0.000000 2.479640 0.000000 
#    z 0.000000 0.000000 3.142510 
# 
# 
# High freq. dielectric constant tensor:
#      x y z
#    x 1.617560 0.000000 0.000000 
#    y 0.000000 1.556360 0.000000 
#    z 0.000000 0.000000 1.614360 
# 
# From -- ./inp_files/24423.got.cif
#   From: 2010.03.12/outbox.cif.g09.slc.cpg/sg62_13_cif.got.tgz:24423.got - 2010.04.10 19:12:36.
