data_PCOD8250461
_publ_section_title
;
Structure prediction by ZEFSAII (Michael W. Deem and Ramdas Pophale) SiO2 
 PCOD8250461
Probable space group: P N M A
;
_chemical_formula_sum "Si O2"
_cell_formula_units_Z 48
_cell_length_a 16.782600
_cell_length_b 18.595702
_cell_length_c 8.472078
_cell_angle_alpha 90.000000
_cell_angle_beta 90.000000
_cell_angle_gamma 90.000000
_cell_volume 2644.001925
_symmetry_space_group_name_H-M "P N M A"
_symmetry_group_IT_number 62
_symmetry_cell_setting 'orthorhombic'
loop_
_space_group_symop_operation_xyz
x,y,z
1/2-x,-y,1/2+z
1/2+x,1/2-y,1/2-z
-x,1/2+y,-z
-x,-y,-z
1/2+x,y,1/2-z
1/2-x,1/2+y,1/2+z
x,1/2-y,z
loop_
_atom_site_type_symbol
_atom_site_label
_atom_site_fract_x
_atom_site_fract_y
_atom_site_fract_z
Si Si1 0.682641 0.933954 0.707888
Si Si2 0.399964 0.573671 0.912244
Si Si3 0.212522 0.667896 0.384319
Si Si4 0.306085 0.666502 0.686442
Si Si5 0.246401 0.562113 0.113207
Si Si6 0.573964 0.580227 0.981616
O O1 0.723518 0.855389 0.725817
O O2 0.678170 0.951239 0.521136
O O3 0.598712 0.940792 0.799599
O O4 0.746124 0.989178 0.787181
O O5 0.378282 0.615239 0.748777
O O6 0.482661 0.606194 0.979904
O O7 0.329496 0.586869 0.035742
O O8 0.413339 0.487163 0.897783
O O9 0.203979 0.750000 0.339268
O O10 0.288758 0.654537 0.499325
O O11 0.221347 0.626867 0.222366
O O12 0.130161 0.644738 0.466200
O O13 0.325469 0.750000 0.722676
#
# Coordination Sequence:
#
# PCOD8250461 Si02
#       6
#     8   8   8   8   8   8
#     4   9  17  30  51  73  97 126 162 205 245 294
#     4   9  18  32  54  77 100 130 166 207 249 300
#     4  10  20  33  50  73 102 134 168 207 249 295
#     4   9  17  30  49  71  95 126 163 201 243 293
#     4  10  18  31  52  74  96 129 169 206 246 294
#     4   9  18  34  52  76 104 130 164 205 254 300
#
# _framework density 18.154299000000002
#
# number of rings (size 3 to 8) (size 9 to 14) (size 15 to 20)
#    0.000    2.667    0.000    4.000    0.000    3.333 
#    0.000    1.667    0.000   14.000    0.000    0.000 
#    0.000    0.000    0.000    0.000    0.000    0.000 
#
# Total GULP energy -594697.091628 kJ/mol
# GULP energy per Si atom -12389.522742 kJ/mol
# Density = 1.811298 g / cm^3
# Si number density = 18.154299 Si / 1000 Ang^3
#
#
#
# Elastic Constant Matrix: (Units=GPa)
#
#
# Indices 1 2 3 4 5 6 
#
# 1 76.7469 22.2989 19.2645 0.0000 0.0000 0.0000
# 2 22.2989 78.0933 44.6390 0.0000 0.0000 0.0000
# 3 19.2645 44.6390 103.1164 0.0000 0.0000 0.0000
# 4 0.0000 0.0000 0.0000 27.7415 0.0000 0.0000
# 5 0.0000 0.0000 0.0000 0.0000 15.2256 0.0000
# 6 0.0000 0.0000 0.0000 0.0000 0.0000 20.0701
#
#
#
# Elastic Compliance Matrix: (Units=1/GPa)
#
#
# Indices 1 2 3 4 5 6 
#
# 1 0.014320 -0.003401 -0.001203 0.000000 0.000000 0.000000
# 2 -0.003401 0.017824 -0.007080 0.000000 0.000000 0.000000
# 3 -0.001203 -0.007080 0.012988 0.000000 0.000000 0.000000
# 4 0.000000 0.000000 0.000000 0.036047 0.000000 0.000000
# 5 0.000000 0.000000 0.000000 0.000000 0.065679 0.000000
# 6 0.000000 0.000000 0.000000 0.000000 0.000000 0.049825
#
#
# Mechanical properties :
#
#
# Convention : Reuss Voigt Hill
#
# Bulk Modulus (GPa) = 45.95160 47.81793 46.88477
# Shear Modulus (GPa) = 21.99679 24.05772 23.02726
#
# Velocity S-wave (km/s) = 3.48466 3.64425 3.56535
# Velocity P-wave (km/s) = 6.44648 6.64111 6.54452
#
# Compressibility (1/GPa) = 0.02176203
#
# Stress axis : x y z
#
# Youngs Moduli (GPa) = 69.83211 56.10521 76.99661
#
# Poissons Ratio (x) = 0.19084 0.09262
# Poissons Ratio (y) = 0.23753 0.54517
# Poissons Ratio (z) = 0.08400 0.39725
#
# Static dielectric constant tensor:
#      x y z
#    x 3.210250 0.000000 0.000000 
#    y 0.000000 3.353890 0.000000 
#    z 0.000000 0.000000 3.421660 
# 
# 
# High freq. dielectric constant tensor:
#      x y z
#    x 1.676330 0.000000 0.000000 
#    y 0.000000 1.699510 0.000000 
#    z 0.000000 0.000000 1.695460 
# 
# From -- ./inp_files/8002.got.cif
#   From: 2010.03.12/outbox.cif.g09.slc.cpg/sg62_5_cif.got.tgz:8002.got - 2010.04.10 19:12:36.
