data_PCOD8250510
_publ_section_title
;
Structure prediction by ZEFSAII (Michael W. Deem and Ramdas Pophale) SiO2 
 PCOD8250510
Probable space group: P N M A
;
_chemical_formula_sum "Si O2"
_cell_formula_units_Z 48
_cell_length_a 9.530823
_cell_length_b 17.329449
_cell_length_c 12.615981
_cell_angle_alpha 90.000000
_cell_angle_beta 90.000000
_cell_angle_gamma 90.000000
_cell_volume 2083.704764
_symmetry_space_group_name_H-M "P N M A"
_symmetry_group_IT_number 62
_symmetry_cell_setting 'orthorhombic'
loop_
_space_group_symop_operation_xyz
x,y,z
1/2-x,-y,1/2+z
1/2+x,1/2-y,1/2-z
-x,1/2+y,-z
-x,-y,-z
1/2+x,y,1/2-z
1/2-x,1/2+y,1/2+z
x,1/2-y,z
loop_
_atom_site_type_symbol
_atom_site_label
_atom_site_fract_x
_atom_site_fract_y
_atom_site_fract_z
Si Si1 0.173580 0.750000 0.921720
Si Si2 0.226647 0.408616 0.444065
Si Si3 0.120238 0.906572 0.164134
Si Si4 0.554175 0.250000 0.260148
Si Si5 0.936902 0.121136 0.389688
Si Si6 0.759982 0.750000 0.947655
Si Si7 0.646338 0.491742 0.734018
Si Si8 0.012872 0.750000 0.116897
O O1 0.260552 0.675261 0.886156
O O2 0.021500 0.750000 0.873236
O O3 0.155355 0.750000 0.047785
O O4 0.332888 0.414217 0.542123
O O5 0.059027 0.414519 0.467043
O O6 0.270005 0.474721 0.364536
O O7 0.262678 0.916385 0.232256
O O8 0.011252 0.973419 0.196753
O O9 0.033570 0.827223 0.187069
O O10 0.513295 0.327550 0.199541
O O11 0.706653 0.250000 0.318536
O O12 0.832194 0.171962 0.462471
O O13 0.855015 0.050971 0.333218
O O14 0.873940 0.750000 0.042932
#
# Coordination Sequence:
#
# PCOD8250510 Si02
#       8
#     4   8   8   4   8   4   8   4
#     4   9  17  34  64  91 126 178 225 276 349 421
#     4  11  22  42  66 100 147 186 231 288 356 431
#     4  11  27  47  73  97 135 190 244 297 355 422
#     4  10  18  31  58  98 142 181 215 284 360 436
#     4  11  22  34  64 105 148 180 226 296 353 436
#     4  10  22  37  65 108 140 185 236 280 366 423
#     4  12  24  44  70 107 139 188 234 293 369 429
#     4   9  23  48  69  93 126 182 248 290 329 424
#
# _framework density 23.035893000000002
#
# number of rings (size 3 to 8) (size 9 to 14) (size 15 to 20)
#    0.000    1.333    3.333    2.500    2.333    2.667 
#    3.000    0.000    0.000    0.000    0.000    0.000 
#    0.000    0.000    0.000    0.000    0.000    0.000 
#
# Total GULP energy -594670.633805 kJ/mol
# GULP energy per Si atom -12388.971538 kJ/mol
# Density = 2.298346 g / cm^3
# Si number density = 23.035893 Si / 1000 Ang^3
#
#
#
# Elastic Constant Matrix: (Units=GPa)
#
#
# Indices 1 2 3 4 5 6 
#
# 1 133.2705 45.9146 36.8747 0.0000 0.0000 0.0000
# 2 45.9146 98.7804 34.8474 0.0000 0.0000 0.0000
# 3 36.8747 34.8474 44.6491 0.0000 0.0000 0.0000
# 4 0.0000 0.0000 0.0000 26.7116 0.0000 0.0000
# 5 0.0000 0.0000 0.0000 0.0000 39.7320 0.0000
# 6 0.0000 0.0000 0.0000 0.0000 0.0000 -25.4298
#
#
#
# Elastic Compliance Matrix: (Units=1/GPa)
#
#
# Indices 1 2 3 4 5 6 
#
# 1 0.010130 -0.002425 -0.006474 0.000000 0.000000 0.000000
# 2 -0.002425 0.014550 -0.009353 0.000000 0.000000 0.000000
# 3 -0.006474 -0.009353 0.035043 0.000000 0.000000 0.000000
# 4 0.000000 0.000000 0.000000 0.037437 0.000000 0.000000
# 5 0.000000 0.000000 0.000000 0.000000 0.025169 0.000000
# 6 0.000000 0.000000 0.000000 0.000000 0.000000 -0.039324
#
#
# Mechanical properties :
#
#
# Convention : Reuss Voigt Hill
#
# Bulk Modulus (GPa) = 43.06667 56.88595 49.97631
# Shear Modulus (GPa) = 39.29284 18.80697 29.04990
#
# Velocity S-wave (km/s) = 4.13452 2.86041 3.55501
# Velocity P-wave (km/s) = 6.44425 5.97138 6.21232
#
# Compressibility (1/GPa) = 0.02321982
#
# Stress axis : x y z
#
# Youngs Moduli (GPa) = 98.71492 68.72735 28.53597
#
# Poissons Ratio (x) = 0.16665 0.18473
# Poissons Ratio (y) = 0.23937 0.26691
# Poissons Ratio (z) = 0.63906 0.64284
#
# Static dielectric constant tensor:
#      x y z
#    x 4.289870 0.000000 0.000000 
#    y 0.000000 4.296510 0.000000 
#    z 0.000000 0.000000 3.781960 
# 
# 
# High freq. dielectric constant tensor:
#      x y z
#    x 1.929920 0.000000 0.000000 
#    y 0.000000 1.908240 0.000000 
#    z 0.000000 0.000000 1.879910 
# 
# From -- ./inp_files/17033.got.cif
#   From: 2010.03.12/outbox.cif.g09.slc.cpg/sg62_9_cif.got.tgz:17033.got - 2010.04.10 19:12:36.
