data_PCOD8250535
_publ_section_title
;
Structure prediction by ZEFSAII (Michael W. Deem and Ramdas Pophale) SiO2 
 PCOD8250535
Probable space group: P N M A
;
_chemical_formula_sum "Si O2"
_cell_formula_units_Z 64
_cell_length_a 23.217487
_cell_length_b 8.489326
_cell_length_c 19.139217
_cell_angle_alpha 90.000000
_cell_angle_beta 90.000000
_cell_angle_gamma 90.000000
_cell_volume 3772.355289
_symmetry_space_group_name_H-M "P N M A"
_symmetry_group_IT_number 62
_symmetry_cell_setting 'orthorhombic'
loop_
_space_group_symop_operation_xyz
x,y,z
1/2-x,-y,1/2+z
1/2+x,1/2-y,1/2-z
-x,1/2+y,-z
-x,-y,-z
1/2+x,y,1/2-z
1/2-x,1/2+y,1/2+z
x,1/2-y,z
loop_
_atom_site_type_symbol
_atom_site_label
_atom_site_fract_x
_atom_site_fract_y
_atom_site_fract_z
Si Si1 0.942598 0.066894 0.857391
Si Si2 0.338168 0.435740 0.736186
Si Si3 0.268615 0.568492 0.851374
Si Si4 0.614135 0.431432 0.491978
Si Si5 0.738904 0.567068 0.497141
Si Si6 0.564515 0.930959 0.629625
Si Si7 0.340283 0.933812 0.278221
Si Si8 0.229166 0.435900 0.651237
O O1 0.958529 0.250000 0.852037
O O2 0.899902 0.015588 0.794711
O O3 0.912282 0.038749 0.931510
O O4 0.999276 0.963134 0.847810
O O5 0.333831 0.250000 0.746244
O O6 0.327067 0.517721 0.811342
O O7 0.289380 0.499405 0.682731
O O8 0.253829 0.750000 0.836286
O O9 0.215231 0.462506 0.826697
O O10 0.277785 0.539859 0.934208
O O11 0.606083 0.250000 0.471311
O O12 0.680760 0.468641 0.503864
O O13 0.580198 0.461996 0.563607
O O14 0.721602 0.750000 0.488558
O O15 0.775498 0.508639 0.429449
O O16 0.572323 0.750000 0.608303
O O17 0.605170 0.968471 0.695460
O O18 0.355901 0.750000 0.280735
O O19 0.324493 0.993035 0.199210
O O20 0.230322 0.250000 0.656197
#
# Coordination Sequence:
#
# PCOD8250535 Si02
#       8
#     8   8   8   8   8   8   8   8
#     4  11  22  38  55  71  96 135 175 212 250 297
#     4   9  18  33  52  70  96 133 167 204 249 298
#     4  10  19  29  49  75 103 132 163 206 251 296
#     4  12  23  34  49  73 102 136 172 209 243 292
#     4  10  18  32  51  74 102 136 168 202 249 297
#     4  12  24  37  51  71 100 135 171 212 252 296
#     4  10  19  33  51  72  97 131 171 208 248 297
#     4   8  15  30  51  72  96 128 164 202 246 296
#
# _framework density 16.965529
#
# number of rings (size 3 to 8) (size 9 to 14) (size 15 to 20)
#    0.000    1.750    2.500    4.500    0.000    1.500 
#    0.000    0.625    0.000    0.000    0.000    0.875 
#    0.000    0.000    0.000    0.000    0.000    0.000 
#
# Total GULP energy -793540.386484 kJ/mol
# GULP energy per Si atom -12399.068539 kJ/mol
# Density = 1.692691 g / cm^3
# Si number density = 16.965529 Si / 1000 Ang^3
#
#
#
# Elastic Constant Matrix: (Units=GPa)
#
#
# Indices 1 2 3 4 5 6 
#
# 1 70.2299 14.9949 50.2315 0.0000 0.0000 0.0000
# 2 14.9949 46.0757 18.3041 0.0000 0.0000 0.0000
# 3 50.2315 18.3041 123.3933 0.0000 0.0000 0.0000
# 4 0.0000 0.0000 0.0000 21.3136 0.0000 0.0000
# 5 0.0000 0.0000 0.0000 0.0000 24.4802 0.0000
# 6 0.0000 0.0000 0.0000 0.0000 0.0000 23.0672
#
#
#
# Elastic Compliance Matrix: (Units=1/GPa)
#
#
# Indices 1 2 3 4 5 6 
#
# 1 0.020632 -0.003589 -0.007866 0.000000 0.000000 0.000000
# 2 -0.003589 0.023687 -0.002053 0.000000 0.000000 0.000000
# 3 -0.007866 -0.002053 0.011611 0.000000 0.000000 0.000000
# 4 0.000000 0.000000 0.000000 0.046918 0.000000 0.000000
# 5 0.000000 0.000000 0.000000 0.000000 0.040849 0.000000
# 6 0.000000 0.000000 0.000000 0.000000 0.000000 0.043352
#
#
# Mechanical properties :
#
#
# Convention : Reuss Voigt Hill
#
# Bulk Modulus (GPa) = 34.58660 45.19556 39.89108
# Shear Modulus (GPa) = 22.35103 24.18341 23.26722
#
# Velocity S-wave (km/s) = 3.63359 3.77960 3.70731
# Velocity P-wave (km/s) = 6.16722 6.76348 6.47222
#
# Compressibility (1/GPa) = 0.02891293
#
# Stress axis : x y z
#
# Youngs Moduli (GPa) = 48.46904 42.21739 86.12575
#
# Poissons Ratio (x) = 0.15154 0.67750
# Poissons Ratio (y) = 0.17397 0.17677
# Poissons Ratio (z) = 0.38128 0.08665
#
# Static dielectric constant tensor:
#      x y z
#    x 3.057690 0.000000 0.000000 
#    y 0.000000 3.108670 0.000000 
#    z 0.000000 0.000000 3.482600 
# 
# 
# High freq. dielectric constant tensor:
#      x y z
#    x 1.622180 0.000000 0.000000 
#    y 0.000000 1.654050 0.000000 
#    z 0.000000 0.000000 1.651530 
# 
# From -- ./inp_files/24917.got.cif
#   From: 2010.03.12/outbox.cif.g09.slc.cpg/sg62_13_cif.got.tgz:24917.got - 2010.04.10 19:12:36.
