data_PCOD8250757
_publ_section_title
;
Structure prediction by ZEFSAII (Michael W. Deem and Ramdas Pophale) SiO2 
 PCOD8250757
Probable space group: P N M A
;
_chemical_formula_sum "Si O2"
_cell_formula_units_Z 64
_cell_length_a 22.463990
_cell_length_b 9.300987
_cell_length_c 19.909940
_cell_angle_alpha 90.000000
_cell_angle_beta 90.000000
_cell_angle_gamma 90.000000
_cell_volume 4159.928688
_symmetry_space_group_name_H-M "P N M A"
_symmetry_group_IT_number 62
_symmetry_cell_setting 'orthorhombic'
loop_
_space_group_symop_operation_xyz
x,y,z
1/2-x,-y,1/2+z
1/2+x,1/2-y,1/2-z
-x,1/2+y,-z
-x,-y,-z
1/2+x,y,1/2-z
1/2-x,1/2+y,1/2+z
x,1/2-y,z
loop_
_atom_site_type_symbol
_atom_site_label
_atom_site_fract_x
_atom_site_fract_y
_atom_site_fract_z
Si Si1 0.438334 0.079129 0.685951
Si Si2 0.072087 0.416997 0.801223
Si Si3 0.360958 0.419858 0.562172
Si Si4 0.663384 0.910552 0.221301
Si Si5 0.247270 0.588028 0.852542
Si Si6 0.663830 0.910839 0.776736
Si Si7 0.653093 0.417798 0.571029
Si Si8 0.752381 0.091293 0.849544
O O1 0.436276 0.250000 0.684499
O O2 0.505280 0.021047 0.692876
O O3 0.409673 0.025115 0.616123
O O4 0.399240 0.027339 0.750135
O O5 0.072540 0.250000 0.781737
O O6 0.104520 0.501201 0.741270
O O7 0.104015 0.443226 0.871944
O O8 0.367363 0.250000 0.547774
O O9 0.373325 0.510376 0.495535
O O10 0.294627 0.456741 0.589048
O O11 0.655594 0.750000 0.190949
O O12 0.708860 0.902396 0.282596
O O13 0.688886 0.015826 0.163868
O O14 0.257767 0.750000 0.879005
O O15 0.207333 0.589444 0.786460
O O16 0.214902 0.495169 0.909810
O O17 0.645541 0.750000 0.797279
O O18 0.697257 0.982520 0.840317
O O19 0.665866 0.250000 0.559673
O O20 0.726133 0.250000 0.863530
#
# Coordination Sequence:
#
# PCOD8250757 Si02
#       8
#     8   8   8   8   8   8   8   8
#     4   8  15  28  44  59  78 109 143 170 199 238
#     4   9  17  29  42  56  79 112 145 170 195 236
#     4   9  17  29  43  58  79 108 141 173 204 239
#     4   8  13  24  42  60  76  96 127 166 205 243
#     4   9  16  26  40  57  77 101 129 164 208 249
#     4   9  16  25  39  59  79  99 127 167 210 243
#     4  10  19  28  39  57  81 110 143 174 201 232
#     4   8  14  25  41  58  75  99 129 162 204 250
#
# _framework density 15.384878
#
# number of rings (size 3 to 8) (size 9 to 14) (size 15 to 20)
#    0.000    3.250    0.000    2.625    0.000    4.500 
#    0.000    3.125    0.000    0.000    0.000    0.000 
#    0.000    1.000    0.000    3.000    0.000    4.000 
#
# Total GULP energy -793285.336162 kJ/mol
# GULP energy per Si atom -12395.083378 kJ/mol
# Density = 1.534986 g / cm^3
# Si number density = 15.384878 Si / 1000 Ang^3
#
#
#
# Elastic Constant Matrix: (Units=GPa)
#
#
# Indices 1 2 3 4 5 6 
#
# 1 102.4257 52.3674 39.6016 0.0000 0.0000 0.0000
# 2 52.3674 84.0125 22.8535 0.0000 0.0000 0.0000
# 3 39.6016 22.8535 18.8815 0.0000 0.0000 0.0000
# 4 0.0000 0.0000 0.0000 21.7892 0.0000 0.0000
# 5 0.0000 0.0000 0.0000 0.0000 14.3535 0.0000
# 6 0.0000 0.0000 0.0000 0.0000 0.0000 14.0618
#
#
#
# Elastic Compliance Matrix: (Units=1/GPa)
#
#
# Indices 1 2 3 4 5 6 
#
# 1 0.052583 -0.004139 -0.105278 0.000000 0.000000 0.000000
# 2 -0.004139 0.018071 -0.013193 0.000000 0.000000 0.000000
# 3 -0.105278 -0.013193 0.289736 0.000000 0.000000 0.000000
# 4 0.000000 0.000000 0.000000 0.045894 0.000000 0.000000
# 5 0.000000 0.000000 0.000000 0.000000 0.069669 0.000000
# 6 0.000000 0.000000 0.000000 0.000000 0.000000 0.071115
#
#
# Mechanical properties :
#
#
# Convention : Reuss Voigt Hill
#
# Bulk Modulus (GPa) = 8.68261 48.32940 28.50600
# Shear Modulus (GPa) = 6.01918 16.07405 11.04661
#
# Velocity S-wave (km/s) = 1.98012 3.23584 2.68249
# Velocity P-wave (km/s) = 3.29905 6.74111 5.30690
#
# Compressibility (1/GPa) = 0.11517278
#
# Stress axis : x y z
#
# Youngs Moduli (GPa) = 19.01740 55.33581 3.45142
#
# Poissons Ratio (x) = 0.22901 0.36336
# Poissons Ratio (y) = 0.07871 0.04553
# Poissons Ratio (z) = 2.00211 0.73003
#
# Static dielectric constant tensor:
#      x y z
#    x 3.053440 0.000000 0.000000 
#    y 0.000000 3.021290 0.000000 
#    z 0.000000 0.000000 2.678740 
# 
# 
# High freq. dielectric constant tensor:
#      x y z
#    x 1.572330 0.000000 0.000000 
#    y 0.000000 1.586960 0.000000 
#    z 0.000000 0.000000 1.549800 
# 
# From -- ./inp_files/24964.got.cif
#   From: 2010.03.12/outbox.cif.g09.slc.cpg/sg62_13_cif.got.tgz:24964.got - 2010.04.10 19:12:36.
