data_PCOD8250200
_publ_section_title
;
Structure prediction by ZEFSAII (Michael W. Deem and Ramdas Pophale) SiO2 
 PCOD8250200
Probable space group: P N M A
;
_chemical_formula_sum "Si O2"
_cell_formula_units_Z 64
_cell_length_a 14.195598
_cell_length_b 9.838465
_cell_length_c 29.386219
_cell_angle_alpha 90.000000
_cell_angle_beta 90.000000
_cell_angle_gamma 90.000000
_cell_volume 4104.164392
_symmetry_space_group_name_H-M "P N M A"
_symmetry_group_IT_number 62
_symmetry_cell_setting 'orthorhombic'
loop_
_space_group_symop_operation_xyz
x,y,z
1/2-x,-y,1/2+z
1/2+x,1/2-y,1/2-z
-x,1/2+y,-z
-x,-y,-z
1/2+x,y,1/2-z
1/2-x,1/2+y,1/2+z
x,1/2-y,z
loop_
_atom_site_type_symbol
_atom_site_label
_atom_site_fract_x
_atom_site_fract_y
_atom_site_fract_z
Si Si1 0.671430 0.401796 0.361002
Si Si2 0.609958 0.907101 0.540435
Si Si3 0.701604 0.908128 0.634989
Si Si4 0.017883 0.900982 0.810948
Si Si5 0.482379 0.903102 0.230527
Si Si6 0.228533 0.408669 0.710258
Si Si7 0.892680 0.906938 0.958057
Si Si8 0.820143 0.095123 0.693805
O O1 0.712960 0.250000 0.352793
O O2 0.561625 0.402588 0.348995
O O3 0.729164 0.509149 0.331768
O O4 0.672930 0.439653 0.414425
O O5 0.620936 0.750000 0.526611
O O6 0.676636 0.942558 0.583044
O O7 0.501809 0.940778 0.552820
O O8 0.645236 0.999344 0.498781
O O9 0.727717 0.750000 0.640455
O O10 0.614129 0.949432 0.666408
O O11 0.787883 0.999873 0.652297
O O12 0.029268 0.750000 0.790224
O O13 0.987829 0.002367 0.771770
O O14 0.476324 0.750000 0.249640
O O15 0.382242 0.945000 0.209553
O O16 0.566281 0.915872 0.193946
O O17 0.247673 0.250000 0.701538
O O18 0.275381 0.454074 0.758028
O O19 0.882235 0.750000 0.972430
O O20 0.787956 0.250000 0.684504
#
# Coordination Sequence:
#
# PCOD8250200 Si02
#       8
#     8   8   8   8   8   8   8   8
#     4  10  19  31  47  68  95 126 158 191 228 271
#     4   9  17  30  46  67  95 124 153 187 228 274
#     4  10  19  31  47  68  95 126 158 191 228 271
#     4  10  18  28  45  67  93 125 157 190 226 267
#     4  10  20  34  46  63  94 125 155 198 235 265
#     4  10  20  32  47  67  92 123 159 194 231 275
#     4   9  17  30  46  67  95 124 153 187 228 274
#     4  10  20  32  47  67  92 123 159 194 231 275
#
# _framework density 15.593916999999999
#
# number of rings (size 3 to 8) (size 9 to 14) (size 15 to 20)
#    0.000    2.250    3.750    0.000    0.000    2.500 
#    0.000    0.000    0.000    0.000    0.000    0.875 
#    0.000    0.000    0.000    0.000    0.000    0.000 
#
# Total GULP energy -793519.680946 kJ/mol
# GULP energy per Si atom -12398.745015 kJ/mol
# Density = 1.555842 g / cm^3
# Si number density = 15.593917 Si / 1000 Ang^3
#
#
#
# Elastic Constant Matrix: (Units=GPa)
#
#
# Indices 1 2 3 4 5 6 
#
# 1 64.4360 24.2100 25.2016 0.0000 0.0000 0.0000
# 2 24.2100 66.6128 55.3391 0.0000 0.0000 0.0000
# 3 25.2016 55.3391 92.8797 0.0000 0.0000 0.0000
# 4 0.0000 0.0000 0.0000 31.1103 0.0000 0.0000
# 5 0.0000 0.0000 0.0000 0.0000 21.0147 0.0000
# 6 0.0000 0.0000 0.0000 0.0000 0.0000 23.8624
#
#
#
# Elastic Compliance Matrix: (Units=1/GPa)
#
#
# Indices 1 2 3 4 5 6 
#
# 1 0.018154 -0.004962 -0.001970 0.000000 0.000000 0.000000
# 2 -0.004962 0.031082 -0.017173 0.000000 0.000000 0.000000
# 3 -0.001970 -0.017173 0.021533 0.000000 0.000000 0.000000
# 4 0.000000 0.000000 0.000000 0.032144 0.000000 0.000000
# 5 0.000000 0.000000 0.000000 0.000000 0.047586 0.000000
# 6 0.000000 0.000000 0.000000 0.000000 0.000000 0.041907
#
#
# Mechanical properties :
#
#
# Convention : Reuss Voigt Hill
#
# Bulk Modulus (GPa) = 44.32524 48.15888 46.24206
# Shear Modulus (GPa) = 20.15052 23.14267 21.64659
#
# Velocity S-wave (km/s) = 3.59862 3.85656 3.72982
# Velocity P-wave (km/s) = 6.76411 7.12607 6.94745
#
# Compressibility (1/GPa) = 0.02256051
#
# Stress axis : x y z
#
# Youngs Moduli (GPa) = 55.08496 32.17325 46.44090
#
# Poissons Ratio (x) = 0.15963 0.09147
# Poissons Ratio (y) = 0.27331 0.79751
# Poissons Ratio (z) = 0.10849 0.55250
#
# Static dielectric constant tensor:
#      x y z
#    x 2.839390 0.000000 0.000000 
#    y 0.000000 3.012980 0.000000 
#    z 0.000000 0.000000 2.831210 
# 
# 
# High freq. dielectric constant tensor:
#      x y z
#    x 1.576170 0.000000 0.000000 
#    y 0.000000 1.604660 0.000000 
#    z 0.000000 0.000000 1.580130 
# 
# From -- ./inp_files/32719.got.cif
#   From: 2010.03.12/outbox.cif.g09.slc.cpg/sg62_17_cif.got.tgz:32719.got - 2010.04.10 19:12:36.
