data_PCOD8250944
_publ_section_title
;
Structure prediction by ZEFSAII (Michael W. Deem and Ramdas Pophale) SiO2 
 PCOD8250944
Probable space group: P N M A
;
_chemical_formula_sum "Si O2"
_cell_formula_units_Z 48
_cell_length_a 30.552730
_cell_length_b 9.170362
_cell_length_c 9.449973
_cell_angle_alpha 90.000000
_cell_angle_beta 90.000000
_cell_angle_gamma 90.000000
_cell_volume 2647.689600
_symmetry_space_group_name_H-M "P N M A"
_symmetry_group_IT_number 62
_symmetry_cell_setting 'orthorhombic'
loop_
_space_group_symop_operation_xyz
x,y,z
1/2-x,-y,1/2+z
1/2+x,1/2-y,1/2-z
-x,1/2+y,-z
-x,-y,-z
1/2+x,y,1/2-z
1/2-x,1/2+y,1/2+z
x,1/2-y,z
loop_
_atom_site_type_symbol
_atom_site_label
_atom_site_fract_x
_atom_site_fract_y
_atom_site_fract_z
Si Si1 0.551858 0.914722 0.361266
Si Si2 0.888575 0.588737 0.244859
Si Si3 0.469023 0.413594 0.307835
Si Si4 0.133972 0.086057 0.083619
Si Si5 0.217558 0.919841 0.010107
Si Si6 0.706865 0.418858 0.775096
O O1 0.556610 0.750000 0.305020
O O2 0.541915 0.915004 0.527130
O O3 0.512279 0.991904 0.277482
O O4 0.596518 0.001916 0.328157
O O5 0.902235 0.750000 0.296858
O O6 0.928180 0.479451 0.280522
O O7 0.880038 0.591501 0.078308
O O8 0.843062 0.537888 0.318076
O O9 0.477247 0.250000 0.253867
O O10 0.139163 0.250000 0.144314
O O11 0.179552 0.000231 0.098480
O O12 0.205345 0.750000 0.999793
O O13 0.223827 0.983650 0.854003
O O14 0.263172 0.946410 0.089569
O O15 0.707749 0.250000 0.725567
#
# Coordination Sequence:
#
# PCOD8250944 Si02
#       6
#     8   8   8   8   8   8
#     4   9  15  22  33  50  74 106 141 173 210 259
#     4   8  14  25  38  52  76 109 140 173 215 259
#     4   9  15  21  31  50  75 103 137 174 211 255
#     4   9  16  26  39  56  81 111 142 179 221 262
#     4  10  19  31  48  68  90 119 154 189 227 271
#     4   9  19  33  47  66  92 120 152 190 228 268
#
# _framework density 18.129011999999999
#
# number of rings (size 3 to 8) (size 9 to 14) (size 15 to 20)
#    0.000    3.000    0.000    3.000    0.000    9.333 
#    0.000    0.000    0.000    0.000    0.000    0.000 
#    0.000    1.333    0.000    4.000    0.000   11.167 
#
# Total GULP energy -595035.131834 kJ/mol
# GULP energy per Si atom -12396.565247 kJ/mol
# Density = 1.808775 g / cm^3
# Si number density = 18.129012 Si / 1000 Ang^3
#
#
#
# Elastic Constant Matrix: (Units=GPa)
#
#
# Indices 1 2 3 4 5 6 
#
# 1 18.4770 8.8607 -4.4283 0.0000 0.0000 0.0000
# 2 8.8607 110.2260 5.8439 0.0000 0.0000 0.0000
# 3 -4.4283 5.8439 9.9540 0.0000 0.0000 0.0000
# 4 0.0000 0.0000 0.0000 10.5141 0.0000 0.0000
# 5 0.0000 0.0000 0.0000 0.0000 15.5301 0.0000
# 6 0.0000 0.0000 0.0000 0.0000 0.0000 36.9680
#
#
#
# Elastic Compliance Matrix: (Units=1/GPa)
#
#
# Indices 1 2 3 4 5 6 
#
# 1 0.065458 -0.007024 0.033244 0.000000 0.000000 0.000000
# 2 -0.007024 0.010118 -0.009065 0.000000 0.000000 0.000000
# 3 0.033244 -0.009065 0.120573 0.000000 0.000000 0.000000
# 4 0.000000 0.000000 0.000000 0.095110 0.000000 0.000000
# 5 0.000000 0.000000 0.000000 0.000000 0.064391 0.000000
# 6 0.000000 0.000000 0.000000 0.000000 0.000000 0.027050
#
#
# Mechanical properties :
#
#
# Convention : Reuss Voigt Hill
#
# Bulk Modulus (GPa) = 4.33917 17.68994 11.01456
# Shear Modulus (GPa) = 11.75891 21.16115 16.46003
#
# Velocity S-wave (km/s) = 2.54957 3.42022 3.01647
# Velocity P-wave (km/s) = 3.32653 5.03748 4.26860
#
# Compressibility (1/GPa) = 0.23045862
#
# Stress axis : x y z
#
# Youngs Moduli (GPa) = 15.27707 98.83832 8.29371
#
# Poissons Ratio (x) = 0.69428 -0.27572
# Poissons Ratio (y) = 0.10731 0.07518
# Poissons Ratio (z) = -0.50788 0.89596
#
# Static dielectric constant tensor:
#      x y z
#    x 3.682860 0.000000 0.000000 
#    y 0.000000 3.589300 0.000000 
#    z 0.000000 0.000000 2.540510 
# 
# 
# High freq. dielectric constant tensor:
#      x y z
#    x 1.718390 0.000000 0.000000 
#    y 0.000000 1.716970 0.000000 
#    z 0.000000 0.000000 1.612130 
# 
# From -- ./inp_files/15391.got.cif
#   From: 2010.03.12/outbox.cif.g09.slc.cpg/sg62_8_cif.got.tgz:15391.got - 2010.04.10 19:12:36.
