data_PCOD8250859
_publ_section_title
;
Structure prediction by ZEFSAII (Michael W. Deem and Ramdas Pophale) SiO2 
 PCOD8250859
Probable space group: P N M A
;
_chemical_formula_sum "Si O2"
_cell_formula_units_Z 64
_cell_length_a 18.838347
_cell_length_b 8.909999
_cell_length_c 21.450123
_cell_angle_alpha 90.000000
_cell_angle_beta 90.000000
_cell_angle_gamma 90.000000
_cell_volume 3600.395701
_symmetry_space_group_name_H-M "P N M A"
_symmetry_group_IT_number 62
_symmetry_cell_setting 'orthorhombic'
loop_
_space_group_symop_operation_xyz
x,y,z
1/2-x,-y,1/2+z
1/2+x,1/2-y,1/2-z
-x,1/2+y,-z
-x,-y,-z
1/2+x,y,1/2-z
1/2-x,1/2+y,1/2+z
x,1/2-y,z
loop_
_atom_site_type_symbol
_atom_site_label
_atom_site_fract_x
_atom_site_fract_y
_atom_site_fract_z
Si Si1 0.528461 0.571822 0.062609
Si Si2 0.332558 0.927000 0.410197
Si Si3 0.469363 0.915773 0.191590
Si Si4 0.421536 0.577963 0.641681
Si Si5 0.373580 0.416444 0.755899
Si Si6 0.578907 0.922768 0.692833
Si Si7 0.825185 0.072883 0.615826
Si Si8 0.074743 0.572827 0.014789
O O1 0.528244 0.750000 0.055615
O O2 0.477336 0.523723 0.120522
O O3 0.608881 0.510919 0.074806
O O4 0.500000 0.500000 0.000000
O O5 0.345151 0.750000 0.418158
O O6 0.249596 0.970684 0.414419
O O7 0.363941 0.977801 0.343867
O O8 0.367588 0.017197 0.465992
O O9 0.434134 0.750000 0.191614
O O10 0.546591 0.903305 0.220626
O O11 0.422359 0.025823 0.234723
O O12 0.406399 0.750000 0.624914
O O13 0.369349 0.528375 0.697393
O O14 0.503319 0.552642 0.659733
O O15 0.401035 0.474772 0.583413
O O16 0.346783 0.250000 0.736063
O O17 0.327578 0.487051 0.812601
O O18 0.601869 0.750000 0.690596
O O19 0.835106 0.250000 0.621577
O O20 0.067141 0.750000 0.009621
O O21 0.000000 0.500000 0.000000
#
# Coordination Sequence:
#
# PCOD8250859 Si02
#       8
#     8   8   8   8   8   8   8   8
#     4   9  17  32  55  82 108 135 173 220 267 317
#     4  11  21  34  54  75 102 142 180 217 267 321
#     4   8  15  28  48  73 100 128 162 204 252 304
#     4  10  19  31  49  75 105 133 167 214 263 306
#     4   8  14  29  52  74  96 125 165 208 249 301
#     4  10  19  30  47  73 104 132 167 214 260 305
#     4   8  17  34  55  78 104 137 175 215 264 322
#     4  12  23  35  51  75 106 142 183 224 264 312
#
# _framework density 17.775824
#
# number of rings (size 3 to 8) (size 9 to 14) (size 15 to 20)
#    0.000    2.500    1.250    3.750    0.000    1.500 
#    0.000    4.375    2.750    0.000    0.000    0.000 
#    0.000    0.000    0.000    0.000    0.000    0.000 
#
# Total GULP energy -793346.464153 kJ/mol
# GULP energy per Si atom -12396.038502 kJ/mol
# Density = 1.773537 g / cm^3
# Si number density = 17.775824 Si / 1000 Ang^3
#
#
#
# Elastic Constant Matrix: (Units=GPa)
#
#
# Indices 1 2 3 4 5 6 
#
# 1 74.9923 37.4835 54.0349 0.0000 0.0000 0.0000
# 2 37.4835 93.1113 54.8988 0.0000 0.0000 0.0000
# 3 54.0349 54.8988 148.1735 0.0000 0.0000 0.0000
# 4 0.0000 0.0000 0.0000 34.1657 0.0000 0.0000
# 5 0.0000 0.0000 0.0000 0.0000 23.0643 0.0000
# 6 0.0000 0.0000 0.0000 0.0000 0.0000 16.6744
#
#
#
# Elastic Compliance Matrix: (Units=1/GPa)
#
#
# Indices 1 2 3 4 5 6 
#
# 1 0.019571 -0.004697 -0.005397 0.000000 0.000000 0.000000
# 2 -0.004697 0.014869 -0.003796 0.000000 0.000000 0.000000
# 3 -0.005397 -0.003796 0.010123 0.000000 0.000000 0.000000
# 4 0.000000 0.000000 0.000000 0.029269 0.000000 0.000000
# 5 0.000000 0.000000 0.000000 0.000000 0.043357 0.000000
# 6 0.000000 0.000000 0.000000 0.000000 0.000000 0.059972
#
#
# Mechanical properties :
#
#
# Convention : Reuss Voigt Hill
#
# Bulk Modulus (GPa) = 59.58136 67.67905 63.63020
# Shear Modulus (GPa) = 23.74900 26.10488 24.92694
#
# Velocity S-wave (km/s) = 3.65914 3.83634 3.74879
# Velocity P-wave (km/s) = 7.17240 7.60129 7.38996
#
# Compressibility (1/GPa) = 0.01678377
#
# Stress axis : x y z
#
# Youngs Moduli (GPa) = 51.09646 67.25508 98.78052
#
# Poissons Ratio (x) = 0.31587 0.53311
# Poissons Ratio (y) = 0.23998 0.37499
# Poissons Ratio (z) = 0.27576 0.25532
#
# Static dielectric constant tensor:
#      x y z
#    x 3.048660 0.000000 0.000000 
#    y 0.000000 3.257910 0.000000 
#    z 0.000000 0.000000 3.709030 
# 
# 
# High freq. dielectric constant tensor:
#      x y z
#    x 1.649150 0.000000 0.000000 
#    y 0.000000 1.681280 0.000000 
#    z 0.000000 0.000000 1.695790 
# 
# From -- ./inp_files/27681.got.cif
#   From: 2010.03.12/outbox.cif.g09.slc.cpg/sg62_14_cif.got.tgz:27681.got - 2010.04.10 19:12:36.
