data_PCOD8250564
_publ_section_title
;
Structure prediction by ZEFSAII (Michael W. Deem and Ramdas Pophale) SiO2 
 PCOD8250564
Probable space group: P N M A
;
_chemical_formula_sum "Si O2"
_cell_formula_units_Z 40
_cell_length_a 9.708714
_cell_length_b 8.725056
_cell_length_c 25.860743
_cell_angle_alpha 90.000000
_cell_angle_beta 90.000000
_cell_angle_gamma 90.000000
_cell_volume 2190.639575
_symmetry_space_group_name_H-M "P N M A"
_symmetry_group_IT_number 62
_symmetry_cell_setting 'orthorhombic'
loop_
_space_group_symop_operation_xyz
x,y,z
1/2-x,-y,1/2+z
1/2+x,1/2-y,1/2-z
-x,1/2+y,-z
-x,-y,-z
1/2+x,y,1/2-z
1/2-x,1/2+y,1/2+z
x,1/2-y,z
loop_
_atom_site_type_symbol
_atom_site_label
_atom_site_fract_x
_atom_site_fract_y
_atom_site_fract_z
Si Si1 0.000634 0.431040 0.443591
Si Si2 0.982529 0.068462 0.164552
Si Si3 0.502546 0.069083 0.216403
Si Si4 0.779171 0.069664 0.363163
Si Si5 0.201725 0.569425 0.361865
O O1 0.016750 0.250000 0.446464
O O2 0.856575 0.477937 0.415946
O O3 0.000000 0.500000 0.500000
O O4 0.127999 0.496058 0.411358
O O5 0.961884 0.250000 0.158163
O O6 0.987407 0.020920 0.224508
O O7 0.123687 0.006160 0.138272
O O8 0.860529 0.980392 0.135960
O O9 0.524699 0.250000 0.209873
O O10 0.367284 0.009913 0.185908
O O11 0.636585 0.989449 0.191827
O O12 0.769304 0.250000 0.357508
O O13 0.188491 0.750000 0.365770
#
# Coordination Sequence:
#
# PCOD8250564 Si02
#       5
#     8   8   8   8   8
#     4  10  20  38  60  79  99 130 175 222 269 319
#     4  10  18  32  54  78 106 140 175 213 256 301
#     4   9  17  32  54  77 103 141 183 215 249 302
#     4   8  16  30  51  78 103 129 169 217 257 301
#     4  11  22  34  50  78 112 142 173 211 257 311
#
# _framework density 18.259506999999999
#
# number of rings (size 3 to 8) (size 9 to 14) (size 15 to 20)
#    0.000    2.400    0.000    4.800    0.000    4.000 
#    0.000    6.000    0.000    0.000    0.000    0.000 
#    0.000    0.000    0.000    0.000    0.000    0.000 
#
# Total GULP energy -495966.445485 kJ/mol
# GULP energy per Si atom -12399.161137 kJ/mol
# Density = 1.821795 g / cm^3
# Si number density = 18.259507 Si / 1000 Ang^3
#
#
#
# Elastic Constant Matrix: (Units=GPa)
#
#
# Indices 1 2 3 4 5 6 
#
# 1 168.4917 46.9709 71.5039 0.0000 0.0000 0.0000
# 2 46.9709 69.4415 56.6027 0.0000 0.0000 0.0000
# 3 71.5039 56.6027 127.4753 0.0000 0.0000 0.0000
# 4 0.0000 0.0000 0.0000 26.7878 0.0000 0.0000
# 5 0.0000 0.0000 0.0000 0.0000 12.8194 0.0000
# 6 0.0000 0.0000 0.0000 0.0000 0.0000 17.4599
#
#
#
# Elastic Compliance Matrix: (Units=1/GPa)
#
#
# Indices 1 2 3 4 5 6 
#
# 1 0.008120 -0.002789 -0.003316 0.000000 0.000000 0.000000
# 2 -0.002789 0.023527 -0.008882 0.000000 0.000000 0.000000
# 3 -0.003316 -0.008882 0.013649 0.000000 0.000000 0.000000
# 4 0.000000 0.000000 0.000000 0.037330 0.000000 0.000000
# 5 0.000000 0.000000 0.000000 0.000000 0.078007 0.000000
# 6 0.000000 0.000000 0.000000 0.000000 0.000000 0.057274
#
#
# Mechanical properties :
#
#
# Convention : Reuss Voigt Hill
#
# Bulk Modulus (GPa) = 65.27152 79.50707 72.38929
# Shear Modulus (GPa) = 19.76365 24.10214 21.93289
#
# Velocity S-wave (km/s) = 3.29352 3.63709 3.46956
# Velocity P-wave (km/s) = 7.09135 7.82785 7.46868
#
# Compressibility (1/GPa) = 0.01532062
#
# Stress axis : x y z
#
# Youngs Moduli (GPa) = 123.15462 42.50365 73.26716
#
# Poissons Ratio (x) = 0.11856 0.24296
# Poissons Ratio (y) = 0.34353 0.65077
# Poissons Ratio (z) = 0.40839 0.37753
#
# Static dielectric constant tensor:
#      x y z
#    x 3.698020 0.000000 0.000000 
#    y 0.000000 3.137280 0.000000 
#    z 0.000000 0.000000 3.286850 
# 
# 
# High freq. dielectric constant tensor:
#      x y z
#    x 1.717750 0.000000 0.000000 
#    y 0.000000 1.686980 0.000000 
#    z 0.000000 0.000000 1.694420 
# 
# From -- ./inp_files/28579.got.cif
#   From: 2010.03.12/outbox.cif.g09.slc.cpg/sg62_15_cif.got.tgz:28579.got - 2010.04.10 19:12:36.
