data_PCOD8250974
_publ_section_title
;
Structure prediction by ZEFSAII (Michael W. Deem and Ramdas Pophale) SiO2 
 PCOD8250974
Probable space group: P N M A
;
_chemical_formula_sum "Si O2"
_cell_formula_units_Z 48
_cell_length_a 13.764567
_cell_length_b 8.674437
_cell_length_c 23.505556
_cell_angle_alpha 90.000000
_cell_angle_beta 90.000000
_cell_angle_gamma 90.000000
_cell_volume 2806.560314
_symmetry_space_group_name_H-M "P N M A"
_symmetry_group_IT_number 62
_symmetry_cell_setting 'orthorhombic'
loop_
_space_group_symop_operation_xyz
x,y,z
1/2-x,-y,1/2+z
1/2+x,1/2-y,1/2-z
-x,1/2+y,-z
-x,-y,-z
1/2+x,y,1/2-z
1/2-x,1/2+y,1/2+z
x,1/2-y,z
loop_
_atom_site_type_symbol
_atom_site_label
_atom_site_fract_x
_atom_site_fract_y
_atom_site_fract_z
Si Si1 0.404103 0.428522 0.063343
Si Si2 0.608800 0.570405 0.268811
Si Si3 0.281214 0.930326 0.834238
Si Si4 0.277170 0.429737 0.168170
Si Si5 0.107607 0.928289 0.433995
Si Si6 0.887769 0.569842 0.229723
O O1 0.434642 0.250000 0.068630
O O2 0.315641 0.469623 0.105253
O O3 0.496864 0.529222 0.080801
O O4 0.369465 0.467628 0.999648
O O5 0.622496 0.750000 0.255983
O O6 0.638590 0.479031 0.212138
O O7 0.676937 0.521111 0.321517
O O8 0.498692 0.530023 0.285391
O O9 0.262803 0.750000 0.830075
O O10 0.317827 0.973052 0.896852
O O11 0.179345 0.016419 0.822685
O O12 0.255872 0.250000 0.175458
O O13 0.358468 0.478926 0.213516
O O14 0.123367 0.750000 0.419783
O O15 0.872467 0.750000 0.240965
#
# Coordination Sequence:
#
# PCOD8250974 Si02
#       6
#     8   8   8   8   8   8
#     4   9  19  33  49  72  99 128 161 195 236 283
#     4  10  20  33  50  72  97 126 159 195 237 284
#     4  11  21  32  49  72  98 127 159 196 237 283
#     4  10  19  31  49  72  98 126 156 193 235 281
#     4  10  19  32  50  71  98 129 160 197 237 280
#     4  10  20  33  49  70  96 126 159 194 234 280
#
# _framework density 17.102785999999998
#
# number of rings (size 3 to 8) (size 9 to 14) (size 15 to 20)
#    0.000    2.000    0.000    6.500    0.000    7.333 
#    0.000    0.000    0.000    1.000    0.000    0.000 
#    0.000    0.000    0.000    0.000    0.000    0.000 
#
# Total GULP energy -595332.308840 kJ/mol
# GULP energy per Si atom -12402.756434 kJ/mol
# Density = 1.706386 g / cm^3
# Si number density = 17.102786 Si / 1000 Ang^3
#
#
#
# Elastic Constant Matrix: (Units=GPa)
#
#
# Indices 1 2 3 4 5 6 
#
# 1 121.7061 27.6305 52.3593 0.0000 0.0000 0.0000
# 2 27.6305 49.6064 17.6123 0.0000 0.0000 0.0000
# 3 52.3593 17.6123 91.4525 0.0000 0.0000 0.0000
# 4 0.0000 0.0000 0.0000 26.5696 0.0000 0.0000
# 5 0.0000 0.0000 0.0000 0.0000 25.5306 0.0000
# 6 0.0000 0.0000 0.0000 0.0000 0.0000 21.9721
#
#
#
# Elastic Compliance Matrix: (Units=1/GPa)
#
#
# Indices 1 2 3 4 5 6 
#
# 1 0.011756 -0.004463 -0.005871 0.000000 0.000000 0.000000
# 2 -0.004463 0.023333 -0.001938 0.000000 0.000000 0.000000
# 3 -0.005871 -0.001938 0.014669 0.000000 0.000000 0.000000
# 4 0.000000 0.000000 0.000000 0.037637 0.000000 0.000000
# 5 0.000000 0.000000 0.000000 0.000000 0.039169 0.000000
# 6 0.000000 0.000000 0.000000 0.000000 0.000000 0.045512
#
#
# Mechanical properties :
#
#
# Convention : Reuss Voigt Hill
#
# Bulk Modulus (GPa) = 39.66227 50.88548 45.27388
# Shear Modulus (GPa) = 24.38734 25.82531 25.10632
#
# Velocity S-wave (km/s) = 3.78024 3.89010 3.83556
# Velocity P-wave (km/s) = 6.50342 7.07068 6.79297
#
# Compressibility (1/GPa) = 0.02521288
#
# Stress axis : x y z
#
# Youngs Moduli (GPa) = 85.06653 42.85795 68.17050
#
# Poissons Ratio (x) = 0.19129 0.40022
# Poissons Ratio (y) = 0.37968 0.13212
# Poissons Ratio (z) = 0.49941 0.08306
#
# Static dielectric constant tensor:
#      x y z
#    x 3.187390 0.000000 0.000000 
#    y 0.000000 3.328800 0.000000 
#    z 0.000000 0.000000 3.164000 
# 
# 
# High freq. dielectric constant tensor:
#      x y z
#    x 1.650100 0.000000 0.000000 
#    y 0.000000 1.676680 0.000000 
#    z 0.000000 0.000000 1.646940 
# 
# From -- ./inp_files/29533.got.cif
#   From: 2010.03.12/outbox.cif.g09.slc.cpg/sg62_15_cif.got.tgz:29533.got - 2010.04.10 19:12:36.
