data_PCOD8250813
_publ_section_title
;
Structure prediction by ZEFSAII (Michael W. Deem and Ramdas Pophale) SiO2 
 PCOD8250813
Probable space group: P N M A
;
_chemical_formula_sum "Si O2"
_cell_formula_units_Z 56
_cell_length_a 21.949672
_cell_length_b 9.862270
_cell_length_c 17.613284
_cell_angle_alpha 90.000000
_cell_angle_beta 90.000000
_cell_angle_gamma 90.000000
_cell_volume 3812.810849
_symmetry_space_group_name_H-M "P N M A"
_symmetry_group_IT_number 62
_symmetry_cell_setting 'orthorhombic'
loop_
_space_group_symop_operation_xyz
x,y,z
1/2-x,-y,1/2+z
1/2+x,1/2-y,1/2-z
-x,1/2+y,-z
-x,-y,-z
1/2+x,y,1/2-z
1/2-x,1/2+y,1/2+z
x,1/2-y,z
loop_
_atom_site_type_symbol
_atom_site_label
_atom_site_fract_x
_atom_site_fract_y
_atom_site_fract_z
Si Si1 0.778195 0.910868 0.093300
Si Si2 0.441305 0.408829 0.990148
Si Si3 0.180742 0.401594 0.748882
Si Si4 0.351801 0.089577 0.862261
Si Si5 0.346472 0.096357 0.122104
Si Si6 0.208720 0.406009 0.073250
Si Si7 0.179202 0.901523 0.200371
O O1 0.770675 0.750000 0.092677
O O2 0.822781 0.952206 0.163162
O O3 0.710877 0.975489 0.105234
O O4 0.805972 0.956960 0.012405
O O5 0.458891 0.250000 0.986933
O O6 0.396222 0.439374 0.059428
O O7 0.500000 0.500000 0.000000
O O8 0.409049 0.458662 0.912248
O O9 0.153664 0.250000 0.740389
O O10 0.142344 0.501174 0.695162
O O11 0.251060 0.401843 0.725850
O O12 0.345773 0.250000 0.869527
O O13 0.360673 0.050125 0.773340
O O14 0.353217 0.250000 0.150559
O O15 0.280425 0.072268 0.085923
O O16 0.190110 0.250000 0.085829
O O17 0.168551 0.495884 0.130763
O O18 0.160081 0.750000 0.174631
#
# Coordination Sequence:
#
# PCOD8250813 Si02
#       7
#     8   8   8   8   8   8   8
#     4   8  12  21  38  57  75 102 134 155 178 226
#     4  10  19  30  43  58  75 102 139 172 197 226
#     4   8  14  23  37  55  74  97 128 160 186 218
#     4   8  13  25  41  52  70 104 137 158 185 230
#     4   9  16  26  39  53  74 103 131 158 193 232
#     4   9  14  22  38  57  77 102 130 155 183 227
#     4   8  14  23  36  54  74  98 128 158 187 223
#
# _framework density 14.687327
#
# number of rings (size 3 to 8) (size 9 to 14) (size 15 to 20)
#    0.000    3.429    1.429    1.714    0.000    0.571 
#    0.000    1.429    0.000    1.714    0.000    0.000 
#    0.000    1.143    0.000    2.571    0.000    4.571 
#
# Total GULP energy -693879.970746 kJ/mol
# GULP energy per Si atom -12390.713763 kJ/mol
# Density = 1.465390 g / cm^3
# Si number density = 14.687327 Si / 1000 Ang^3
#
#
#
# Elastic Constant Matrix: (Units=GPa)
#
#
# Indices 1 2 3 4 5 6 
#
# 1 33.4208 23.6053 30.6185 0.0000 0.0000 0.0000
# 2 23.6053 59.8543 62.0809 0.0000 0.0000 0.0000
# 3 30.6185 62.0809 142.3312 0.0000 0.0000 0.0000
# 4 0.0000 0.0000 0.0000 26.0248 0.0000 0.0000
# 5 0.0000 0.0000 0.0000 0.0000 13.9504 0.0000
# 6 0.0000 0.0000 0.0000 0.0000 0.0000 15.6499
#
#
#
# Elastic Compliance Matrix: (Units=1/GPa)
#
#
# Indices 1 2 3 4 5 6 
#
# 1 0.042322 -0.013236 -0.003331 0.000000 0.000000 0.000000
# 2 -0.013236 0.034649 -0.012266 0.000000 0.000000 0.000000
# 3 -0.003331 -0.012266 0.013092 0.000000 0.000000 0.000000
# 4 0.000000 0.000000 0.000000 0.038425 0.000000 0.000000
# 5 0.000000 0.000000 0.000000 0.000000 0.071682 0.000000
# 6 0.000000 0.000000 0.000000 0.000000 0.000000 0.063898
#
#
# Mechanical properties :
#
#
# Convention : Reuss Voigt Hill
#
# Bulk Modulus (GPa) = 30.86597 52.02396 41.44497
# Shear Modulus (GPa) = 15.03609 19.07847 17.05728
#
# Velocity S-wave (km/s) = 3.20307 3.60804 3.41157
# Velocity P-wave (km/s) = 5.89411 7.27015 6.61799
#
# Compressibility (1/GPa) = 0.03239813
#
# Stress axis : x y z
#
# Youngs Moduli (GPa) = 23.62848 28.86087 76.37989
#
# Poissons Ratio (x) = 0.38199 0.25445
# Poissons Ratio (y) = 0.31274 0.93685
# Poissons Ratio (z) = 0.07871 0.35400
#
# Static dielectric constant tensor:
#      x y z
#    x 2.420560 0.000000 0.000000 
#    y 0.000000 2.741440 0.000000 
#    z 0.000000 0.000000 3.326480 
# 
# 
# High freq. dielectric constant tensor:
#      x y z
#    x 1.498020 0.000000 0.000000 
#    y 0.000000 1.538850 0.000000 
#    z 0.000000 0.000000 1.576910 
# 
# From -- ./inp_files/24587.got.cif
#   From: 2010.03.12/outbox.cif.g09.slc.cpg/sg62_13_cif.got.tgz:24587.got - 2010.04.10 19:12:36.
