data_PCOD8250305
_publ_section_title
;
Structure prediction by ZEFSAII (Michael W. Deem and Ramdas Pophale) SiO2 
 PCOD8250305
Probable space group: P N M A
;
_chemical_formula_sum "Si O2"
_cell_formula_units_Z 64
_cell_length_a 19.076777
_cell_length_b 9.134699
_cell_length_c 19.288284
_cell_angle_alpha 90.000000
_cell_angle_beta 90.000000
_cell_angle_gamma 90.000000
_cell_volume 3361.188247
_symmetry_space_group_name_H-M "P N M A"
_symmetry_group_IT_number 62
_symmetry_cell_setting 'orthorhombic'
loop_
_space_group_symop_operation_xyz
x,y,z
1/2-x,-y,1/2+z
1/2+x,1/2-y,1/2-z
-x,1/2+y,-z
-x,-y,-z
1/2+x,y,1/2-z
1/2-x,1/2+y,1/2+z
x,1/2-y,z
loop_
_atom_site_type_symbol
_atom_site_label
_atom_site_fract_x
_atom_site_fract_y
_atom_site_fract_z
Si Si1 0.049061 0.580839 0.857285
Si Si2 0.023446 0.583157 0.602657
Si Si3 0.874228 0.919677 0.026515
Si Si4 0.744177 0.578297 0.346492
Si Si5 0.264810 0.922353 0.994311
Si Si6 0.400894 0.082960 0.956787
Si Si7 0.607000 0.083315 0.367168
Si Si8 0.370260 0.078802 0.218735
O O1 0.055945 0.750000 0.880016
O O2 0.066428 0.478360 0.922058
O O3 0.101533 0.543229 0.794947
O O4 0.968854 0.549612 0.833519
O O5 0.000033 0.750000 0.616365
O O6 0.067014 0.569615 0.532657
O O7 0.071765 0.522588 0.664290
O O8 0.954318 0.483300 0.599523
O O9 0.859684 0.750000 0.041067
O O10 0.803578 0.009665 0.040972
O O11 0.900702 0.947458 0.948887
O O12 0.744059 0.750000 0.333926
O O13 0.767714 0.536341 0.424366
O O14 0.665770 0.519174 0.332488
O O15 0.797593 0.505838 0.292374
O O16 0.264135 0.750000 0.982775
O O17 0.330287 0.989923 0.954177
O O18 0.384652 0.250000 0.936947
O O19 0.630318 0.250000 0.353650
O O20 0.356235 0.250000 0.207170
#
# Coordination Sequence:
#
# PCOD8250305 Si02
#       8
#     8   8   8   8   8   8   8   8
#     4  10  21  37  57  81 108 142 181 219 266 325
#     4   9  18  31  48  72 103 140 180 222 266 317
#     4  10  20  34  55  81 109 139 174 224 280 323
#     4  10  20  33  54  82 107 137 178 223 268 315
#     4  10  19  32  52  78 108 139 177 223 269 322
#     4  10  18  29  49  76 106 138 178 225 271 315
#     4   9  19  36  58  82 108 139 179 224 270 322
#     4  10  20  36  56  77 107 146 184 219 262 322
#
# _framework density 19.040886
#
# number of rings (size 3 to 8) (size 9 to 14) (size 15 to 20)
#    0.000    2.250    1.250    1.875    0.000    3.500 
#    0.000    1.250    0.000    6.000    0.000    0.000 
#    0.000    0.000    0.000    0.000    0.000    0.000 
#
# Total GULP energy -793809.233071 kJ/mol
# GULP energy per Si atom -12403.269267 kJ/mol
# Density = 1.899755 g / cm^3
# Si number density = 19.040886 Si / 1000 Ang^3
#
#
#
# Elastic Constant Matrix: (Units=GPa)
#
#
# Indices 1 2 3 4 5 6 
#
# 1 128.0066 61.3089 31.7885 0.0000 0.0000 0.0000
# 2 61.3089 93.2321 27.3321 0.0000 0.0000 0.0000
# 3 31.7885 27.3321 42.4121 0.0000 0.0000 0.0000
# 4 0.0000 0.0000 0.0000 21.9832 0.0000 0.0000
# 5 0.0000 0.0000 0.0000 0.0000 27.7542 0.0000
# 6 0.0000 0.0000 0.0000 0.0000 0.0000 37.8391
#
#
#
# Elastic Compliance Matrix: (Units=1/GPa)
#
#
# Indices 1 2 3 4 5 6 
#
# 1 0.012174 -0.006572 -0.004889 0.000000 0.000000 0.000000
# 2 -0.006572 0.016772 -0.005883 0.000000 0.000000 0.000000
# 3 -0.004889 -0.005883 0.031034 0.000000 0.000000 0.000000
# 4 0.000000 0.000000 0.000000 0.045489 0.000000 0.000000
# 5 0.000000 0.000000 0.000000 0.000000 0.036031 0.000000
# 6 0.000000 0.000000 0.000000 0.000000 0.000000 0.026428
#
#
# Mechanical properties :
#
#
# Convention : Reuss Voigt Hill
#
# Bulk Modulus (GPa) = 39.53860 56.05664 47.79762
# Shear Modulus (GPa) = 23.69141 27.06340 25.37740
#
# Velocity S-wave (km/s) = 3.53120 3.77414 3.65469
# Velocity P-wave (km/s) = 6.11850 6.96393 6.55486
#
# Compressibility (1/GPa) = 0.02529174
#
# Stress axis : x y z
#
# Youngs Moduli (GPa) = 82.14204 59.62171 32.22286
#
# Poissons Ratio (x) = 0.39185 0.15754
# Poissons Ratio (y) = 0.53986 0.18956
# Poissons Ratio (z) = 0.40161 0.35075
#
# Static dielectric constant tensor:
#      x y z
#    x 3.540600 0.000000 0.000000 
#    y 0.000000 3.480220 0.000000 
#    z 0.000000 0.000000 3.177640 
# 
# 
# High freq. dielectric constant tensor:
#      x y z
#    x 1.749370 0.000000 0.000000 
#    y 0.000000 1.742130 0.000000 
#    z 0.000000 0.000000 1.706570 
# 
# From -- ./inp_files/27652.got.cif
#   From: 2010.03.12/outbox.cif.g09.slc.cpg/sg62_14_cif.got.tgz:27652.got - 2010.04.10 19:12:36.
