data_PCOD8250259
_publ_section_title
;
Structure prediction by ZEFSAII (Michael W. Deem and Ramdas Pophale) SiO2 
 PCOD8250259
Probable space group: P N M A
;
_chemical_formula_sum "Si O2"
_cell_formula_units_Z 56
_cell_length_a 18.486526
_cell_length_b 8.571252
_cell_length_c 21.099533
_cell_angle_alpha 90.000000
_cell_angle_beta 90.000000
_cell_angle_gamma 90.000000
_cell_volume 3343.277402
_symmetry_space_group_name_H-M "P N M A"
_symmetry_group_IT_number 62
_symmetry_cell_setting 'orthorhombic'
loop_
_space_group_symop_operation_xyz
x,y,z
1/2-x,-y,1/2+z
1/2+x,1/2-y,1/2-z
-x,1/2+y,-z
-x,-y,-z
1/2+x,y,1/2-z
1/2-x,1/2+y,1/2+z
x,1/2-y,z
loop_
_atom_site_type_symbol
_atom_site_label
_atom_site_fract_x
_atom_site_fract_y
_atom_site_fract_z
Si Si1 0.079067 0.065644 0.750655
Si Si2 0.582591 0.565701 0.243259
Si Si3 0.419865 0.064473 0.504941
Si Si4 0.647697 0.929822 0.624881
Si Si5 0.349488 0.932350 0.630125
Si Si6 0.214785 0.069919 0.304938
Si Si7 0.282367 0.930313 0.184245
O O1 0.080250 0.250000 0.754053
O O2 0.134734 0.010485 0.694880
O O3 0.999217 0.003871 0.733997
O O4 0.102177 0.009475 0.819886
O O5 0.586943 0.750000 0.234875
O O6 0.609395 0.519980 0.313270
O O7 0.630870 0.482035 0.187904
O O8 0.420727 0.250000 0.511324
O O9 0.375789 0.005283 0.443296
O O10 0.500000 0.000000 0.500000
O O11 0.380279 0.990777 0.564366
O O12 0.627128 0.750000 0.629194
O O13 0.734860 0.954941 0.633135
O O14 0.362765 0.750000 0.637337
O O15 0.262998 0.970946 0.632454
O O16 0.218989 0.250000 0.282253
O O17 0.244229 0.953375 0.251735
O O18 0.279699 0.750000 0.164164
#
# Coordination Sequence:
#
# PCOD8250259 Si02
#       7
#     8   8   8   8   8   8   8
#     4   9  18  29  45  68  93 117 146 181 222 265
#     4  10  18  29  45  68  94 120 147 182 224 268
#     4  11  22  35  48  66  91 122 155 188 221 260
#     4   9  19  32  46  63  88 119 152 184 219 260
#     4  11  21  32  45  65  91 122 155 187 220 262
#     4   9  16  28  44  64  87 114 146 182 220 264
#     4   9  16  29  46  64  86 116 148 182 221 263
#
# _framework density 16.750031
#
# number of rings (size 3 to 8) (size 9 to 14) (size 15 to 20)
#    0.000    2.286    0.000    5.571    0.000    5.714 
#    0.000    0.000    0.000    0.000    0.000    1.000 
#    0.000    0.000    0.000    0.000    0.000    0.000 
#
# Total GULP energy -693917.526668 kJ/mol
# GULP energy per Si atom -12391.384405 kJ/mol
# Density = 1.671191 g / cm^3
# Si number density = 16.750031 Si / 1000 Ang^3
#
#
#
# Elastic Constant Matrix: (Units=GPa)
#
#
# Indices 1 2 3 4 5 6 
#
# 1 160.3519 27.9946 61.4496 0.0000 0.0000 0.0000
# 2 27.9946 37.5783 14.7753 0.0000 0.0000 0.0000
# 3 61.4496 14.7753 70.4680 0.0000 0.0000 0.0000
# 4 0.0000 0.0000 0.0000 20.1679 0.0000 0.0000
# 5 0.0000 0.0000 0.0000 0.0000 28.4556 0.0000
# 6 0.0000 0.0000 0.0000 0.0000 0.0000 24.1419
#
#
#
# Elastic Compliance Matrix: (Units=1/GPa)
#
#
# Indices 1 2 3 4 5 6 
#
# 1 0.009986 -0.004376 -0.007790 0.000000 0.000000 0.000000
# 2 -0.004376 0.030920 -0.002667 0.000000 0.000000 0.000000
# 3 -0.007790 -0.002667 0.021543 0.000000 0.000000 0.000000
# 4 0.000000 0.000000 0.000000 0.049584 0.000000 0.000000
# 5 0.000000 0.000000 0.000000 0.000000 0.035142 0.000000
# 6 0.000000 0.000000 0.000000 0.000000 0.000000 0.041422
#
#
# Mechanical properties :
#
#
# Convention : Reuss Voigt Hill
#
# Bulk Modulus (GPa) = 30.50443 52.98189 41.74316
# Shear Modulus (GPa) = 21.81595 25.49833 23.65714
#
# Velocity S-wave (km/s) = 3.61285 3.90588 3.76222
# Velocity P-wave (km/s) = 5.97116 7.21393 6.62176
#
# Compressibility (1/GPa) = 0.03278213
#
# Stress axis : x y z
#
# Youngs Moduli (GPa) = 100.14492 32.34183 46.41842
#
# Poissons Ratio (x) = 0.14153 0.36160
# Poissons Ratio (y) = 0.43823 0.12380
# Poissons Ratio (z) = 0.78014 0.08626
#
# Static dielectric constant tensor:
#      x y z
#    x 3.906660 0.000000 0.000000 
#    y 0.000000 3.183040 0.000000 
#    z 0.000000 0.000000 3.031670 
# 
# 
# High freq. dielectric constant tensor:
#      x y z
#    x 1.658080 0.000000 0.000000 
#    y 0.000000 1.655460 0.000000 
#    z 0.000000 0.000000 1.598220 
# 
# From -- ./inp_files/24620.got.cif
#   From: 2010.03.12/outbox.cif.g09.slc.cpg/sg62_13_cif.got.tgz:24620.got - 2010.04.10 19:12:36.
