data_PCOD8250964
_publ_section_title
;
Structure prediction by ZEFSAII (Michael W. Deem and Ramdas Pophale) SiO2 
 PCOD8250964
Probable space group: P N M A
;
_chemical_formula_sum "Si O2"
_cell_formula_units_Z 56
_cell_length_a 5.196175
_cell_length_b 28.811707
_cell_length_c 21.438760
_cell_angle_alpha 90.000000
_cell_angle_beta 90.000000
_cell_angle_gamma 90.000000
_cell_volume 3209.611158
_symmetry_space_group_name_H-M "P N M A"
_symmetry_group_IT_number 62
_symmetry_cell_setting 'orthorhombic'
loop_
_space_group_symop_operation_xyz
x,y,z
1/2-x,-y,1/2+z
1/2+x,1/2-y,1/2-z
-x,1/2+y,-z
-x,-y,-z
1/2+x,y,1/2-z
1/2-x,1/2+y,1/2+z
x,1/2-y,z
loop_
_atom_site_type_symbol
_atom_site_label
_atom_site_fract_x
_atom_site_fract_y
_atom_site_fract_z
Si Si1 0.728965 0.892459 0.779562
Si Si2 0.231835 0.505215 0.774739
Si Si3 0.797116 0.650490 0.512147
Si Si4 0.298527 0.250000 0.090217
Si Si5 0.762573 0.445713 0.962599
Si Si6 0.201432 0.750000 0.986743
Si Si7 0.202961 0.348937 0.093919
Si Si8 0.262192 0.494389 0.917952
O O1 0.468860 0.867968 0.755212
O O2 0.711705 0.946572 0.763160
O O3 0.757423 0.888037 0.853918
O O4 0.478159 0.477196 0.747944
O O5 0.237772 0.514181 0.848438
O O6 0.761197 0.609998 0.461357
O O7 0.763915 0.701113 0.477943
O O8 0.581171 0.645557 0.565787
O O9 0.082283 0.645022 0.540532
O O10 0.599904 0.250000 0.071921
O O11 0.236273 0.297893 0.126596
O O12 0.100079 0.250000 0.031117
O O13 0.532734 0.468084 0.923295
O O14 0.032952 0.458618 0.931648
O O15 0.751244 0.462531 0.034566
#
# Coordination Sequence:
#
# PCOD8250964 Si02
#       8
#     8   8   8   4   8   4   8   8
#     4  10  21  32  43  68  84 117 162 205 252 267
#     4  10  21  33  51  68  92 129 163 207 245 274
#     4  10  19  31  53  73  94 131 157 201 249 287
#     4   8  16  30  44  65  90 128 144 203 262 272
#     4  10  21  33  52  71  97 135 154 202 257 282
#     4   8  16  30  46  73  96 116 164 193 240 304
#     4  10  19  31  49  67  96 117 168 206 238 300
#     4  10  21  36  46  72 103 123 170 202 240 306
#
# _framework density 17.447596000000001
#
# number of rings (size 3 to 8) (size 9 to 14) (size 15 to 20)
#    0.000    2.286    0.000    2.571    8.000    0.000 
#    0.000    0.714    0.000    0.000    0.000    0.000 
#    0.000    0.000    0.000   12.857    0.000    0.000 
#
# Total GULP energy -693864.180826 kJ/mol
# GULP energy per Si atom -12390.431800 kJ/mol
# Density = 1.740788 g / cm^3
# Si number density = 17.447596 Si / 1000 Ang^3
#
#
#
# Elastic Constant Matrix: (Units=GPa)
#
#
# Indices 1 2 3 4 5 6 
#
# 1 109.5222 -4.0127 8.1386 0.0000 0.0000 0.0000
# 2 -4.0127 84.6311 14.6166 0.0000 0.0000 0.0000
# 3 8.1386 14.6166 43.4354 0.0000 0.0000 0.0000
# 4 0.0000 0.0000 0.0000 19.2339 0.0000 0.0000
# 5 0.0000 0.0000 0.0000 0.0000 19.0244 0.0000
# 6 0.0000 0.0000 0.0000 0.0000 0.0000 13.8253
#
#
#
# Elastic Compliance Matrix: (Units=1/GPa)
#
#
# Indices 1 2 3 4 5 6 
#
# 1 0.009309 0.000788 -0.002010 0.000000 0.000000 0.000000
# 2 0.000788 0.012612 -0.004392 0.000000 0.000000 0.000000
# 3 -0.002010 -0.004392 0.024877 0.000000 0.000000 0.000000
# 4 0.000000 0.000000 0.000000 0.051992 0.000000 0.000000
# 5 0.000000 0.000000 0.000000 0.000000 0.052564 0.000000
# 6 0.000000 0.000000 0.000000 0.000000 0.000000 0.072331
#
#
# Mechanical properties :
#
#
# Convention : Reuss Voigt Hill
#
# Bulk Modulus (GPa) = 28.11201 30.56376 29.33788
# Shear Modulus (GPa) = 20.26196 25.00646 22.63421
#
# Velocity S-wave (km/s) = 3.41149 3.78991 3.60567
# Velocity P-wave (km/s) = 5.62716 6.05861 5.84686
#
# Compressibility (1/GPa) = 0.03557199
#
# Stress axis : x y z
#
# Youngs Moduli (GPa) = 107.42547 79.29037 40.19755
#
# Poissons Ratio (x) = -0.06251 0.08078
# Poissons Ratio (y) = -0.08470 0.17654
# Poissons Ratio (z) = 0.21587 0.34823
#
# Static dielectric constant tensor:
#      x y z
#    x 5.635270 0.000000 0.000000 
#    y 0.000000 3.305020 0.000000 
#    z 0.000000 0.000000 2.757040 
# 
# 
# High freq. dielectric constant tensor:
#      x y z
#    x 1.716410 0.000000 0.000000 
#    y 0.000000 1.652450 0.000000 
#    z 0.000000 0.000000 1.610980 
# 
# From -- ./inp_files/25455.got.cif
#   From: 2010.03.12/outbox.cif.g09.slc.cpg/sg62_13_cif.got.tgz:25455.got - 2010.04.10 19:12:36.
