data_PCOD8250004
_publ_section_title
;
Structure prediction by ZEFSAII (Michael W. Deem and Ramdas Pophale) SiO2 
 PCOD8250004
Probable space group: P N M A
;
_chemical_formula_sum "Si O2"
_cell_formula_units_Z 64
_cell_length_a 17.092177
_cell_length_b 9.113318
_cell_length_c 22.046640
_cell_angle_alpha 90.000000
_cell_angle_beta 90.000000
_cell_angle_gamma 90.000000
_cell_volume 3434.126722
_symmetry_space_group_name_H-M "P N M A"
_symmetry_group_IT_number 62
_symmetry_cell_setting 'orthorhombic'
loop_
_space_group_symop_operation_xyz
x,y,z
1/2-x,-y,1/2+z
1/2+x,1/2-y,1/2-z
-x,1/2+y,-z
-x,-y,-z
1/2+x,y,1/2-z
1/2-x,1/2+y,1/2+z
x,1/2-y,z
loop_
_atom_site_type_symbol
_atom_site_label
_atom_site_fract_x
_atom_site_fract_y
_atom_site_fract_z
Si Si1 0.458354 0.424260 0.631672
Si Si2 0.397457 0.583505 0.940172
Si Si3 0.829090 0.915573 0.429951
Si Si4 0.288361 0.419315 0.854168
Si Si5 0.523657 0.424806 0.868568
Si Si6 0.627839 0.079903 0.593543
Si Si7 0.914877 0.077217 0.738365
Si Si8 0.663781 0.574518 0.468112
O O1 0.455966 0.250000 0.634912
O O2 0.546731 0.479911 0.621084
O O3 0.425879 0.492887 0.694918
O O4 0.404732 0.479514 0.576497
O O5 0.408242 0.750000 0.917957
O O6 0.320874 0.516956 0.908464
O O7 0.473882 0.491443 0.923601
O O8 0.383783 0.575209 0.011392
O O9 0.807607 0.750000 0.412855
O O10 0.885316 0.978842 0.375898
O O11 0.745105 0.992710 0.440569
O O12 0.310320 0.250000 0.867228
O O13 0.194464 0.441479 0.854361
O O14 0.330333 0.466753 0.790701
O O15 0.519790 0.250000 0.875024
O O16 0.485855 0.477841 0.805053
O O17 0.620466 0.250000 0.575100
O O18 0.648884 0.990018 0.533970
O O19 0.920807 0.250000 0.745197
O O20 0.667738 0.750000 0.474579
#
# Coordination Sequence:
#
# PCOD8250004 Si02
#       8
#     8   8   8   8   8   8   8   8
#     4   9  18  32  50  73 100 126 160 206 246 285
#     4  10  17  27  45  69  98 125 161 200 239 287
#     4   9  17  28  43  68  97 126 159 194 236 289
#     4   9  17  30  49  71  98 129 160 196 241 290
#     4   9  17  30  47  67  96 129 162 196 238 290
#     4  10  19  32  51  76  99 124 163 204 243 287
#     4   8  15  30  48  68  95 126 158 195 240 285
#     4  10  19  33  51  72 100 129 160 201 247 292
#
# _framework density 18.636469000000002
#
# number of rings (size 3 to 8) (size 9 to 14) (size 15 to 20)
#    0.000    2.750    1.250    1.875    0.000    0.000 
#    2.250    1.250    0.000    6.000    0.000    0.000 
#    0.000    0.000    0.000    0.000    0.000    0.000 
#
# Total GULP energy -792962.421452 kJ/mol
# GULP energy per Si atom -12390.037835 kJ/mol
# Density = 1.859405 g / cm^3
# Si number density = 18.636469 Si / 1000 Ang^3
#
#
#
# Elastic Constant Matrix: (Units=GPa)
#
#
# Indices 1 2 3 4 5 6 
#
# 1 158.7062 16.1511 71.9227 0.0000 0.0000 0.0000
# 2 16.1511 26.0434 13.9236 0.0000 0.0000 0.0000
# 3 71.9227 13.9236 96.7298 0.0000 0.0000 0.0000
# 4 0.0000 0.0000 0.0000 15.5788 0.0000 0.0000
# 5 0.0000 0.0000 0.0000 0.0000 23.6540 0.0000
# 6 0.0000 0.0000 0.0000 0.0000 0.0000 15.9140
#
#
#
# Elastic Compliance Matrix: (Units=1/GPa)
#
#
# Indices 1 2 3 4 5 6 
#
# 1 0.009631 -0.002323 -0.006827 0.000000 0.000000 0.000000
# 2 -0.002323 0.042159 -0.004341 0.000000 0.000000 0.000000
# 3 -0.006827 -0.004341 0.016039 0.000000 0.000000 0.000000
# 4 0.000000 0.000000 0.000000 0.064190 0.000000 0.000000
# 5 0.000000 0.000000 0.000000 0.000000 0.042276 0.000000
# 6 0.000000 0.000000 0.000000 0.000000 0.000000 0.062838
#
#
# Mechanical properties :
#
#
# Convention : Reuss Voigt Hill
#
# Bulk Modulus (GPa) = 24.48158 53.94158 39.21158
# Shear Modulus (GPa) = 18.00306 22.99483 20.49895
#
# Velocity S-wave (km/s) = 3.11145 3.51645 3.32013
# Velocity P-wave (km/s) = 5.10618 6.74493 5.98194
#
# Compressibility (1/GPa) = 0.04084704
#
# Stress axis : x y z
#
# Youngs Moduli (GPa) = 103.83011 23.71972 62.34825
#
# Poissons Ratio (x) = 0.05510 0.42564
# Poissons Ratio (y) = 0.24121 0.27067
# Poissons Ratio (z) = 0.70882 0.10297
#
# Static dielectric constant tensor:
#      x y z
#    x 3.796800 0.000000 0.000000 
#    y 0.000000 3.053390 0.000000 
#    z 0.000000 0.000000 3.463970 
# 
# 
# High freq. dielectric constant tensor:
#      x y z
#    x 1.738120 0.000000 0.000000 
#    y 0.000000 1.674580 0.000000 
#    z 0.000000 0.000000 1.708370 
# 
# From -- ./inp_files/30064.got.cif
#   From: 2010.03.12/outbox.cif.g09.slc.cpg/sg62_16_cif.got.tgz:30064.got - 2010.04.10 19:12:36.
