data_PCOD8250422
_publ_section_title
;
Structure prediction by ZEFSAII (Michael W. Deem and Ramdas Pophale) SiO2 
 PCOD8250422
Probable space group: P N M A
;
_chemical_formula_sum "Si O2"
_cell_formula_units_Z 64
_cell_length_a 9.065943
_cell_length_b 14.268230
_cell_length_c 27.843860
_cell_angle_alpha 90.000000
_cell_angle_beta 90.000000
_cell_angle_gamma 90.000000
_cell_volume 3601.741394
_symmetry_space_group_name_H-M "P N M A"
_symmetry_group_IT_number 62
_symmetry_cell_setting 'orthorhombic'
loop_
_space_group_symop_operation_xyz
x,y,z
1/2-x,-y,1/2+z
1/2+x,1/2-y,1/2-z
-x,1/2+y,-z
-x,-y,-z
1/2+x,y,1/2-z
1/2-x,1/2+y,1/2+z
x,1/2-y,z
loop_
_atom_site_type_symbol
_atom_site_label
_atom_site_fract_x
_atom_site_fract_y
_atom_site_fract_z
Si Si1 0.091227 0.917503 0.473879
Si Si2 0.085613 0.642411 0.717889
Si Si3 0.170424 0.065613 0.406926
Si Si4 0.321046 0.855157 0.076324
Si Si5 0.244289 0.142831 0.310070
Si Si6 0.167932 0.357864 0.047494
Si Si7 0.640562 0.643029 0.512193
Si Si8 0.845264 0.044331 0.375548
O O1 0.202481 0.865654 0.508774
O O2 0.976206 0.844089 0.451750
O O3 0.186411 0.962051 0.429776
O O4 0.000000 0.000000 0.500000
O O5 0.133112 0.750000 0.707207
O O6 0.132758 0.613025 0.771574
O O7 0.165729 0.573589 0.680007
O O8 0.911387 0.629749 0.716113
O O9 0.257586 0.075648 0.356552
O O10 0.238294 0.137075 0.445563
O O11 0.996868 0.086868 0.397825
O O12 0.279956 0.750000 0.095232
O O13 0.336625 0.930663 0.119474
O O14 0.203431 0.899272 0.037915
O O15 0.264645 0.250000 0.327436
O O16 0.141806 0.250000 0.060694
O O17 0.208718 0.410598 0.096412
O O18 0.015778 0.403265 0.027159
O O19 0.612030 0.750000 0.500003
#
# Coordination Sequence:
#
# PCOD8250422 Si02
#       8
#     8   8   8   8   8   8   8   8
#     4  11  18  33  48  71  95 132 170 205 242 288
#     4   9  18  32  49  70  97 124 154 198 246 298
#     4  10  18  31  48  68  94 129 166 202 238 293
#     4  10  19  33  50  69  96 129 166 207 246 292
#     4   9  18  31  48  69  95 126 157 195 245 298
#     4  11  21  31  46  70 102 133 165 203 244 291
#     4  10  20  30  43  69 101 133 162 195 242 290
#     4  10  19  33  50  72  93 125 170 204 245 291
#
# _framework density 17.769183000000002
#
# number of rings (size 3 to 8) (size 9 to 14) (size 15 to 20)
#    0.000    2.000    3.750    1.125    0.000    5.500 
#    0.000    2.500    0.000    0.000    0.000    8.750 
#    0.000    0.000    0.000    0.000    0.000    0.000 
#
# Total GULP energy -793206.954307 kJ/mol
# GULP energy per Si atom -12393.858661 kJ/mol
# Density = 1.772874 g / cm^3
# Si number density = 17.769183 Si / 1000 Ang^3
#
#
#
# Elastic Constant Matrix: (Units=GPa)
#
#
# Indices 1 2 3 4 5 6 
#
# 1 37.0607 8.9023 -2.5386 0.0000 0.0000 0.0000
# 2 8.9023 52.4396 20.0273 0.0000 0.0000 0.0000
# 3 -2.5386 20.0273 62.7754 0.0000 0.0000 0.0000
# 4 0.0000 0.0000 0.0000 27.0717 0.0000 0.0000
# 5 0.0000 0.0000 0.0000 0.0000 25.6605 0.0000
# 6 0.0000 0.0000 0.0000 0.0000 0.0000 19.1294
#
#
#
# Elastic Compliance Matrix: (Units=1/GPa)
#
#
# Indices 1 2 3 4 5 6 
#
# 1 0.028645 -0.006041 0.003086 0.000000 0.000000 0.000000
# 2 -0.006041 0.022990 -0.007579 0.000000 0.000000 0.000000
# 3 0.003086 -0.007579 0.018472 0.000000 0.000000 0.000000
# 4 0.000000 0.000000 0.000000 0.036939 0.000000 0.000000
# 5 0.000000 0.000000 0.000000 0.000000 0.038970 0.000000
# 6 0.000000 0.000000 0.000000 0.000000 0.000000 0.052276
#
#
# Mechanical properties :
#
#
# Convention : Reuss Voigt Hill
#
# Bulk Modulus (GPa) = 20.39204 22.78418 21.58811
# Shear Modulus (GPa) = 21.21276 22.76463 21.98870
#
# Velocity S-wave (km/s) = 3.45888 3.58317 3.52157
# Velocity P-wave (km/s) = 5.23954 5.47439 5.35825
#
# Compressibility (1/GPa) = 0.04903874
#
# Stress axis : x y z
#
# Youngs Moduli (GPa) = 34.90968 43.49800 54.13472
#
# Poissons Ratio (x) = 0.26279 -0.16705
# Poissons Ratio (y) = 0.21090 0.41027
# Poissons Ratio (z) = -0.10772 0.32966
#
# Static dielectric constant tensor:
#      x y z
#    x 3.435170 0.000000 0.000000 
#    y 0.000000 3.116640 0.000000 
#    z 0.000000 0.000000 3.261470 
# 
# 
# High freq. dielectric constant tensor:
#      x y z
#    x 1.687330 0.000000 0.000000 
#    y 0.000000 1.663670 0.000000 
#    z 0.000000 0.000000 1.666410 
# 
# From -- ./inp_files/32309.got.cif
#   From: 2010.03.12/outbox.cif.g09.slc.cpg/sg62_17_cif.got.tgz:32309.got - 2010.04.10 19:12:36.
