data_PCOD8250403
_publ_section_title
;
Structure prediction by ZEFSAII (Michael W. Deem and Ramdas Pophale) SiO2 
 PCOD8250403
Probable space group: P N M A
;
_chemical_formula_sum "Si O2"
_cell_formula_units_Z 64
_cell_length_a 14.534704
_cell_length_b 9.171019
_cell_length_c 23.678035
_cell_angle_alpha 90.000000
_cell_angle_beta 90.000000
_cell_angle_gamma 90.000000
_cell_volume 3156.235811
_symmetry_space_group_name_H-M "P N M A"
_symmetry_group_IT_number 62
_symmetry_cell_setting 'orthorhombic'
loop_
_space_group_symop_operation_xyz
x,y,z
1/2-x,-y,1/2+z
1/2+x,1/2-y,1/2-z
-x,1/2+y,-z
-x,-y,-z
1/2+x,y,1/2-z
1/2-x,1/2+y,1/2+z
x,1/2-y,z
loop_
_atom_site_type_symbol
_atom_site_label
_atom_site_fract_x
_atom_site_fract_y
_atom_site_fract_z
Si Si1 0.581783 0.584619 0.629765
Si Si2 0.251926 0.914224 0.403593
Si Si3 0.648478 0.917825 0.751488
Si Si4 0.552474 0.418818 0.949792
Si Si5 0.565088 0.417089 0.456822
Si Si6 0.986839 0.582010 0.322797
Si Si7 0.730068 0.585089 0.967956
Si Si8 0.163396 0.420804 0.304484
O O1 0.619118 0.750000 0.621011
O O2 0.643697 0.472987 0.593608
O O3 0.587707 0.546144 0.695837
O O4 0.477953 0.570759 0.606247
O O5 0.249958 0.750000 0.378506
O O6 0.209260 0.914562 0.465521
O O7 0.193134 0.022816 0.365698
O O8 0.638301 0.750000 0.768926
O O9 0.755828 0.956380 0.740441
O O10 0.610493 0.015825 0.802382
O O11 0.559578 0.250000 0.966501
O O12 0.500182 0.438612 0.890139
O O13 0.654378 0.482616 0.939532
O O14 0.500000 0.500000 0.000000
O O15 0.500000 0.500000 0.500000
O O16 0.571110 0.250000 0.477511
O O17 0.668578 0.480530 0.454718
O O18 0.989402 0.750000 0.305931
O O19 0.068598 0.500958 0.288725
O O20 0.721323 0.750000 0.943996
O O21 0.144261 0.250000 0.307962
#
# Coordination Sequence:
#
# PCOD8250403 Si02
#       8
#     8   8   8   8   8   8   8   8
#     4   9  18  33  54  80 114 154 200 245 285 339
#     4  10  18  30  52  83 117 149 192 241 284 339
#     4   9  20  39  61  87 116 150 197 245 288 344
#     4  11  25  43  63  88 118 153 196 245 299 362
#     4  10  19  33  53  82 120 160 199 243 293 351
#     4  11  24  42  63  90 122 154 193 245 302 358
#     4  10  21  35  53  83 120 158 196 236 293 351
#     4  10  21  38  62  89 114 149 196 240 289 347
#
# _framework density 20.27732
#
# number of rings (size 3 to 8) (size 9 to 14) (size 15 to 20)
#    0.000    2.000    1.250    3.000    0.000    9.000 
#    2.250    0.000    0.000    0.000    0.000    0.000 
#    0.000    0.000    0.000    0.000    0.000    0.000 
#
# Total GULP energy -793570.684920 kJ/mol
# GULP energy per Si atom -12399.541952 kJ/mol
# Density = 2.023117 g / cm^3
# Si number density = 20.277320 Si / 1000 Ang^3
#
#
#
# Elastic Constant Matrix: (Units=GPa)
#
#
# Indices 1 2 3 4 5 6 
#
# 1 124.2343 61.0931 23.3844 0.0000 0.0000 0.0000
# 2 61.0931 115.5324 37.9048 0.0000 0.0000 0.0000
# 3 23.3844 37.9048 51.8350 0.0000 0.0000 0.0000
# 4 0.0000 0.0000 0.0000 27.6884 0.0000 0.0000
# 5 0.0000 0.0000 0.0000 0.0000 28.8565 0.0000
# 6 0.0000 0.0000 0.0000 0.0000 0.0000 35.3013
#
#
#
# Elastic Compliance Matrix: (Units=1/GPa)
#
#
# Indices 1 2 3 4 5 6 
#
# 1 0.010912 -0.005466 -0.000925 0.000000 0.000000 0.000000
# 2 -0.005466 0.014126 -0.007864 0.000000 0.000000 0.000000
# 3 -0.000925 -0.007864 0.025460 0.000000 0.000000 0.000000
# 4 0.000000 0.000000 0.000000 0.036116 0.000000 0.000000
# 5 0.000000 0.000000 0.000000 0.000000 0.034654 0.000000
# 6 0.000000 0.000000 0.000000 0.000000 0.000000 0.028328
#
#
# Mechanical properties :
#
#
# Convention : Reuss Voigt Hill
#
# Bulk Modulus (GPa) = 45.48192 59.59626 52.53909
# Shear Modulus (GPa) = 26.96352 29.65053 28.30702
#
# Velocity S-wave (km/s) = 3.65051 3.82809 3.74035
# Velocity P-wave (km/s) = 6.34405 6.99953 6.67983
#
# Compressibility (1/GPa) = 0.02198676
#
# Stress axis : x y z
#
# Youngs Moduli (GPa) = 91.64530 70.79007 39.27750
#
# Poissons Ratio (x) = 0.38697 0.03634
# Poissons Ratio (y) = 0.50098 0.30887
# Poissons Ratio (z) = 0.08479 0.55668
#
# Static dielectric constant tensor:
#      x y z
#    x 3.837610 0.000000 0.000000 
#    y 0.000000 3.730420 0.000000 
#    z 0.000000 0.000000 3.431050 
# 
# 
# High freq. dielectric constant tensor:
#      x y z
#    x 1.797380 0.000000 0.000000 
#    y 0.000000 1.792300 0.000000 
#    z 0.000000 0.000000 1.770040 
# 
# From -- ./inp_files/29865.got.cif
#   From: 2010.03.12/outbox.cif.g09.slc.cpg/sg62_15_cif.got.tgz:29865.got - 2010.04.10 19:12:36.
