data_PCOD8250146
_publ_section_title
;
Structure prediction by ZEFSAII (Michael W. Deem and Ramdas Pophale) SiO2 
 PCOD8250146
Probable space group: P N M A
;
_chemical_formula_sum "Si O2"
_cell_formula_units_Z 64
_cell_length_a 25.863665
_cell_length_b 9.155731
_cell_length_c 18.332708
_cell_angle_alpha 90.000000
_cell_angle_beta 90.000000
_cell_angle_gamma 90.000000
_cell_volume 4341.199177
_symmetry_space_group_name_H-M "P N M A"
_symmetry_group_IT_number 62
_symmetry_cell_setting 'orthorhombic'
loop_
_space_group_symop_operation_xyz
x,y,z
1/2-x,-y,1/2+z
1/2+x,1/2-y,1/2-z
-x,1/2+y,-z
-x,-y,-z
1/2+x,y,1/2-z
1/2-x,1/2+y,1/2+z
x,1/2-y,z
loop_
_atom_site_type_symbol
_atom_site_label
_atom_site_fract_x
_atom_site_fract_y
_atom_site_fract_z
Si Si1 0.194502 0.911617 0.786448
Si Si2 0.951177 0.082217 0.581744
Si Si3 0.196370 0.086235 0.206576
Si Si4 0.945857 0.420631 0.414914
Si Si5 0.645899 0.420233 0.835518
Si Si6 0.653413 0.579454 0.164255
Si Si7 0.248080 0.580256 0.085374
Si Si8 0.242519 0.421042 0.419316
O O1 0.169527 0.750000 0.782037
O O2 0.249593 0.911312 0.747663
O O3 0.206505 0.956129 0.870351
O O4 0.156530 0.025934 0.747357
O O5 0.969312 0.250000 0.585525
O O6 0.934375 0.042892 0.499335
O O7 0.903795 0.050508 0.634918
O O8 0.998108 0.981031 0.607786
O O9 0.175117 0.250000 0.194391
O O10 0.156376 0.995885 0.256396
O O11 0.204123 0.009054 0.128464
O O12 0.944075 0.250000 0.398451
O O13 0.903360 0.497652 0.365938
O O14 0.633960 0.250000 0.833342
O O15 0.694672 0.458818 0.886302
O O16 0.665848 0.750000 0.172544
O O17 0.693384 0.512752 0.106574
O O18 0.236497 0.750000 0.097470
O O19 0.244007 0.533621 0.001408
O O20 0.227919 0.250000 0.413204
#
# Coordination Sequence:
#
# PCOD8250146 Si02
#       8
#     8   8   8   8   8   8   8   8
#     4   8  15  27  40  55  78 107 137 168 201 238
#     4   9  19  32  43  59  82 107 137 172 207 241
#     4   9  17  28  41  58  81 108 138 172 206 241
#     4  10  19  30  44  60  80 107 138 172 207 242
#     4  10  18  27  41  59  81 109 139 171 204 241
#     4  10  18  28  43  60  81 110 141 172 206 245
#     4   9  17  28  42  61  84 111 141 170 205 246
#     4   9  17  28  42  61  85 111 139 172 206 243
#
# _framework density 14.742471
#
# number of rings (size 3 to 8) (size 9 to 14) (size 15 to 20)
#    0.000    2.750    0.000    3.000    0.000    5.500 
#    0.000    0.000    0.000    0.000    0.000    0.000 
#    0.000    1.000    0.000    3.000    0.000    4.000 
#
# Total GULP energy -793536.953587 kJ/mol
# GULP energy per Si atom -12399.014900 kJ/mol
# Density = 1.470892 g / cm^3
# Si number density = 14.742471 Si / 1000 Ang^3
#
#
#
# Elastic Constant Matrix: (Units=GPa)
#
#
# Indices 1 2 3 4 5 6 
#
# 1 67.0822 51.7691 49.6194 0.0000 0.0000 0.0000
# 2 51.7691 92.5851 54.5381 0.0000 0.0000 0.0000
# 3 49.6194 54.5381 111.1913 0.0000 0.0000 0.0000
# 4 0.0000 0.0000 0.0000 23.7864 0.0000 0.0000
# 5 0.0000 0.0000 0.0000 0.0000 21.9724 0.0000
# 6 0.0000 0.0000 0.0000 0.0000 0.0000 23.8758
#
#
#
# Elastic Compliance Matrix: (Units=1/GPa)
#
#
# Indices 1 2 3 4 5 6 
#
# 1 0.029842 -0.012434 -0.007218 0.000000 0.000000 0.000000
# 2 -0.012434 0.020371 -0.004443 0.000000 0.000000 0.000000
# 3 -0.007218 -0.004443 0.014394 0.000000 0.000000 0.000000
# 4 0.000000 0.000000 0.000000 0.042041 0.000000 0.000000
# 5 0.000000 0.000000 0.000000 0.000000 0.045512 0.000000
# 6 0.000000 0.000000 0.000000 0.000000 0.000000 0.041883
#
#
# Mechanical properties :
#
#
# Convention : Reuss Voigt Hill
#
# Bulk Modulus (GPa) = 60.91627 64.74576 62.83101
# Shear Modulus (GPa) = 20.18533 21.58907 20.88720
#
# Velocity S-wave (km/s) = 3.70428 3.83092 3.76813
# Velocity P-wave (km/s) = 7.72694 7.97377 7.85133
#
# Compressibility (1/GPa) = 0.01641598
#
# Stress axis : x y z
#
# Youngs Moduli (GPa) = 33.50965 49.09058 69.47451
#
# Poissons Ratio (x) = 0.61041 0.50149
# Poissons Ratio (y) = 0.41667 0.30865
# Poissons Ratio (z) = 0.24188 0.21809
#
# Static dielectric constant tensor:
#      x y z
#    x 2.588650 0.000000 0.000000 
#    y 0.000000 3.012740 0.000000 
#    z 0.000000 0.000000 3.002970 
# 
# 
# High freq. dielectric constant tensor:
#      x y z
#    x 1.526120 0.000000 0.000000 
#    y 0.000000 1.577500 0.000000 
#    z 0.000000 0.000000 1.555670 
# 
# From -- ./inp_files/24998.got.cif
#   From: 2010.03.12/outbox.cif.g09.slc.cpg/sg62_13_cif.got.tgz:24998.got - 2010.04.10 19:12:36.
