data_PCOD8250406
_publ_section_title
;
Structure prediction by ZEFSAII (Michael W. Deem and Ramdas Pophale) SiO2 
 PCOD8250406
Probable space group: P N M A
;
_chemical_formula_sum "Si O2"
_cell_formula_units_Z 56
_cell_length_a 18.220267
_cell_length_b 8.976346
_cell_length_c 18.812645
_cell_angle_alpha 90.000000
_cell_angle_beta 90.000000
_cell_angle_gamma 90.000000
_cell_volume 3076.834819
_symmetry_space_group_name_H-M "P N M A"
_symmetry_group_IT_number 62
_symmetry_cell_setting 'orthorhombic'
loop_
_space_group_symop_operation_xyz
x,y,z
1/2-x,-y,1/2+z
1/2+x,1/2-y,1/2-z
-x,1/2+y,-z
-x,-y,-z
1/2+x,y,1/2-z
1/2-x,1/2+y,1/2+z
x,1/2-y,z
loop_
_atom_site_type_symbol
_atom_site_label
_atom_site_fract_x
_atom_site_fract_y
_atom_site_fract_z
Si Si1 0.330327 0.924989 0.951836
Si Si2 0.305323 0.573695 0.382375
Si Si3 0.491834 0.918942 0.282021
Si Si4 0.346945 0.075431 0.245110
Si Si5 0.950284 0.081093 0.637493
Si Si6 0.381100 0.923355 0.107312
Si Si7 0.965194 0.919200 0.065912
O O1 0.316000 0.750000 0.946645
O O2 0.256456 0.012290 0.934468
O O3 0.394509 0.966699 0.897222
O O4 0.354374 0.975134 0.030229
O O5 0.298456 0.750000 0.375380
O O6 0.294861 0.502658 0.303856
O O7 0.383500 0.523703 0.415306
O O8 0.457911 0.750000 0.275122
O O9 0.556491 0.935825 0.223854
O O10 0.517148 0.941834 0.363891
O O11 0.430713 0.040565 0.264753
O O12 0.331366 0.250000 0.245940
O O13 0.333015 0.011851 0.165841
O O14 0.930560 0.250000 0.614523
O O15 0.032579 0.039706 0.613540
O O16 0.367100 0.750000 0.120075
O O17 0.960997 0.750000 0.042346
O O18 0.000000 0.000000 0.000000
#
# Coordination Sequence:
#
# PCOD8250406 Si02
#       7
#     8   8   8   8   8   8   8
#     4  11  22  34  51  78 109 139 175 219 261 305
#     4  10  21  38  55  72 102 142 176 209 262 324
#     4   8  16  32  51  73 102 135 168 201 249 311
#     4  10  18  30  53  79  98 123 167 217 256 298
#     4   9  17  32  53  74 102 142 179 211 256 313
#     4   9  19  35  53  75 106 142 176 211 257 312
#     4   9  18  33  55  79 101 129 168 214 260 309
#
# _framework density 18.200521999999999
#
# number of rings (size 3 to 8) (size 9 to 14) (size 15 to 20)
#    0.000    2.571    0.000    4.286    0.000    6.286 
#    0.000    1.429    0.000    5.143    0.000    0.000 
#    0.000    0.000    0.000    0.000    0.000    0.000 
#
# Total GULP energy -694105.820115 kJ/mol
# GULP energy per Si atom -12394.746788 kJ/mol
# Density = 1.815910 g / cm^3
# Si number density = 18.200522 Si / 1000 Ang^3
#
#
#
# Elastic Constant Matrix: (Units=GPa)
#
#
# Indices 1 2 3 4 5 6 
#
# 1 64.1308 36.0727 61.1895 0.0000 0.0000 0.0000
# 2 36.0727 80.7159 56.4076 0.0000 0.0000 0.0000
# 3 61.1895 56.4076 168.8033 0.0000 0.0000 0.0000
# 4 0.0000 0.0000 0.0000 34.7733 0.0000 0.0000
# 5 0.0000 0.0000 0.0000 0.0000 17.8491 0.0000
# 6 0.0000 0.0000 0.0000 0.0000 0.0000 28.1877
#
#
#
# Elastic Compliance Matrix: (Units=1/GPa)
#
#
# Indices 1 2 3 4 5 6 
#
# 1 0.026313 -0.006646 -0.007317 0.000000 0.000000 0.000000
# 2 -0.006646 0.017842 -0.003553 0.000000 0.000000 0.000000
# 3 -0.007317 -0.003553 0.009764 0.000000 0.000000 0.000000
# 4 0.000000 0.000000 0.000000 0.028758 0.000000 0.000000
# 5 0.000000 0.000000 0.000000 0.000000 0.056025 0.000000
# 6 0.000000 0.000000 0.000000 0.000000 0.000000 0.035476
#
#
# Mechanical properties :
#
#
# Convention : Reuss Voigt Hill
#
# Bulk Modulus (GPa) = 52.94812 68.99885 60.97349
# Shear Modulus (GPa) = 23.20106 26.82736 25.01421
#
# Velocity S-wave (km/s) = 3.57423 3.84342 3.71127
# Velocity P-wave (km/s) = 6.79619 7.59530 7.20683
#
# Compressibility (1/GPa) = 0.01888641
#
# Stress axis : x y z
#
# Youngs Moduli (GPa) = 38.00371 56.04652 102.41812
#
# Poissons Ratio (x) = 0.37248 0.74944
# Poissons Ratio (y) = 0.25257 0.36391
# Poissons Ratio (z) = 0.27809 0.19914
#
# Static dielectric constant tensor:
#      x y z
#    x 3.041100 0.000000 0.000000 
#    y 0.000000 3.273860 0.000000 
#    z 0.000000 0.000000 3.735970 
# 
# 
# High freq. dielectric constant tensor:
#      x y z
#    x 1.662740 0.000000 0.000000 
#    y 0.000000 1.704780 0.000000 
#    z 0.000000 0.000000 1.723210 
# 
# From -- ./inp_files/24562.got.cif
#   From: 2010.03.12/outbox.cif.g09.slc.cpg/sg62_13_cif.got.tgz:24562.got - 2010.04.10 19:12:36.
