data_PCOD8250034
_publ_section_title
;
Structure prediction by ZEFSAII (Michael W. Deem and Ramdas Pophale) SiO2 
 PCOD8250034
Probable space group: P N M A
;
_chemical_formula_sum "Si O2"
_cell_formula_units_Z 48
_cell_length_a 11.215333
_cell_length_b 7.844634
_cell_length_c 28.982961
_cell_angle_alpha 90.000000
_cell_angle_beta 90.000000
_cell_angle_gamma 90.000000
_cell_volume 2549.926200
_symmetry_space_group_name_H-M "P N M A"
_symmetry_group_IT_number 62
_symmetry_cell_setting 'orthorhombic'
loop_
_space_group_symop_operation_xyz
x,y,z
1/2-x,-y,1/2+z
1/2+x,1/2-y,1/2-z
-x,1/2+y,-z
-x,-y,-z
1/2+x,y,1/2-z
1/2-x,1/2+y,1/2+z
x,1/2-y,z
loop_
_atom_site_type_symbol
_atom_site_label
_atom_site_fract_x
_atom_site_fract_y
_atom_site_fract_z
Si Si1 0.613160 0.939045 0.159142
Si Si2 0.332654 0.951743 0.000418
Si Si3 0.910526 0.050135 0.039302
Si Si4 0.862511 0.750000 0.725055
Si Si5 0.015975 0.554749 0.575264
Si Si6 0.121213 0.441673 0.861568
Si Si7 0.084451 0.750000 0.794202
O O1 0.607627 0.750000 0.181543
O O2 0.736843 0.967668 0.131767
O O3 0.601819 0.078782 0.198569
O O4 0.504132 0.954536 0.122929
O O5 0.331980 0.750000 0.003847
O O6 0.353659 0.026335 0.052459
O O7 0.210981 0.025346 0.980813
O O8 0.429748 0.020345 0.964156
O O9 0.903858 0.250000 0.047833
O O10 0.940863 0.965757 0.088639
O O11 0.000000 0.000000 0.000000
O O12 0.715287 0.750000 0.733737
O O13 0.958500 0.750000 0.766686
O O14 0.989035 0.750000 0.586667
O O15 0.092142 0.250000 0.843536
O O16 0.075372 0.579658 0.824898
#
# Coordination Sequence:
#
# PCOD8250034 Si02
#       7
#     8   8   8   4   8   8   4
#     4  10  19  33  59  87 116 148 190 239 290 353
#     4   9  19  30  46  72 111 149 186 234 279 324
#     4  11  21  35  53  78 115 154 200 243 277 335
#     4  10  22  40  64  92 116 152 198 250 304 363
#     4  10  17  29  50  77 110 145 183 231 281 334
#     4  10  20  36  61  86 112 153 194 236 289 351
#     4  10  22  42  66  90 120 150 198 250 304 361
#
# _framework density 18.824074
#
# number of rings (size 3 to 8) (size 9 to 14) (size 15 to 20)
#    0.000    2.000    3.333    1.000    0.000    2.667 
#    0.000    1.667    0.000    2.000    0.000    0.000 
#    0.000    0.000    0.000    0.000    0.000    0.000 
#
# Total GULP energy -594678.890229 kJ/mol
# GULP energy per Si atom -12389.143546 kJ/mol
# Density = 1.878123 g / cm^3
# Si number density = 18.824074 Si / 1000 Ang^3
#
#
#
# Elastic Constant Matrix: (Units=GPa)
#
#
# Indices 1 2 3 4 5 6 
#
# 1 66.0047 24.7720 47.8340 0.0000 0.0000 0.0000
# 2 24.7720 113.3831 48.4848 0.0000 0.0000 0.0000
# 3 47.8340 48.4848 98.0763 0.0000 0.0000 0.0000
# 4 0.0000 0.0000 0.0000 27.7069 0.0000 0.0000
# 5 0.0000 0.0000 0.0000 0.0000 36.1355 0.0000
# 6 0.0000 0.0000 0.0000 0.0000 0.0000 19.3441
#
#
#
# Elastic Compliance Matrix: (Units=1/GPa)
#
#
# Indices 1 2 3 4 5 6 
#
# 1 0.023441 -0.000295 -0.011287 0.000000 0.000000 0.000000
# 2 -0.000295 0.011188 -0.005387 0.000000 0.000000 0.000000
# 3 -0.011287 -0.005387 0.018364 0.000000 0.000000 0.000000
# 4 0.000000 0.000000 0.000000 0.036092 0.000000 0.000000
# 5 0.000000 0.000000 0.000000 0.000000 0.027674 0.000000
# 6 0.000000 0.000000 0.000000 0.000000 0.000000 0.051695
#
#
# Mechanical properties :
#
#
# Convention : Reuss Voigt Hill
#
# Bulk Modulus (GPa) = 52.47899 57.73842 55.10870
# Shear Modulus (GPa) = 23.95299 27.06218 25.50758
#
# Velocity S-wave (km/s) = 3.57103 3.79573 3.68510
# Velocity P-wave (km/s) = 6.70390 7.06748 6.88809
#
# Compressibility (1/GPa) = 0.01905525
#
# Stress axis : x y z
#
# Youngs Moduli (GPa) = 42.66083 89.38464 54.45435
#
# Poissons Ratio (x) = 0.02636 0.61461
# Poissons Ratio (y) = 0.01258 0.29334
# Poissons Ratio (z) = 0.48150 0.48150
#
# Static dielectric constant tensor:
#      x y z
#    x 3.600520 0.000000 0.000000 
#    y 0.000000 3.614710 0.000000 
#    z 0.000000 0.000000 3.240630 
# 
# 
# High freq. dielectric constant tensor:
#      x y z
#    x 1.704020 0.000000 0.000000 
#    y 0.000000 1.747040 0.000000 
#    z 0.000000 0.000000 1.706800 
# 
# From -- ./inp_files/31020.got.cif
#   From: 2010.03.12/outbox.cif.g09.slc.cpg/sg62_16_cif.got.tgz:31020.got - 2010.04.10 19:12:36.
