data_PCOD8250702
_publ_section_title
;
Structure prediction by ZEFSAII (Michael W. Deem and Ramdas Pophale) SiO2 
 PCOD8250702
Probable space group: P N M A
;
_chemical_formula_sum "Si O2"
_cell_formula_units_Z 56
_cell_length_a 20.994179
_cell_length_b 9.256418
_cell_length_c 15.311277
_cell_angle_alpha 90.000000
_cell_angle_beta 90.000000
_cell_angle_gamma 90.000000
_cell_volume 2975.454184
_symmetry_space_group_name_H-M "P N M A"
_symmetry_group_IT_number 62
_symmetry_cell_setting 'orthorhombic'
loop_
_space_group_symop_operation_xyz
x,y,z
1/2-x,-y,1/2+z
1/2+x,1/2-y,1/2-z
-x,1/2+y,-z
-x,-y,-z
1/2+x,y,1/2-z
1/2-x,1/2+y,1/2+z
x,1/2-y,z
loop_
_atom_site_type_symbol
_atom_site_label
_atom_site_fract_x
_atom_site_fract_y
_atom_site_fract_z
Si Si1 0.045442 0.586364 0.562016
Si Si2 0.099315 0.413846 0.036002
Si Si3 0.811169 0.084572 0.499867
Si Si4 0.489756 0.593369 0.392993
Si Si5 0.162378 0.921176 0.305763
Si Si6 0.287498 0.421910 0.618322
Si Si7 0.482817 0.089921 0.801440
O O1 0.023036 0.750000 0.566469
O O2 0.116369 0.572010 0.528041
O O3 0.000000 0.500000 0.500000
O O4 0.034241 0.515009 0.655311
O O5 0.118956 0.250000 0.061729
O O6 0.153666 0.525893 0.060308
O O7 0.034472 0.458616 0.084572
O O8 0.081490 0.427924 0.933167
O O9 0.786706 0.250000 0.494338
O O10 0.805699 0.029010 0.601562
O O11 0.773882 0.989327 0.428840
O O12 0.516301 0.750000 0.427970
O O13 0.484277 0.604359 0.290851
O O14 0.159634 0.750000 0.303226
O O15 0.202554 0.974147 0.219951
O O16 0.089062 0.976781 0.298924
O O17 0.282458 0.250000 0.614238
O O18 0.479700 0.250000 0.846142
#
# Coordination Sequence:
#
# PCOD8250702 Si02
#       7
#     8   8   8   8   8   8   8
#     4  11  22  37  60  88 117 147 184 237 297 351
#     4  10  19  32  54  84 116 151 188 237 292 338
#     4  10  22  42  61  81 115 153 189 240 297 346
#     4   9  18  33  54  81 115 153 194 234 280 340
#     4   9  18  37  63  83 108 150 192 229 283 345
#     4  11  22  39  62  86 113 153 202 244 284 349
#     4  10  18  35  60  84 113 149 189 234 282 340
#
# _framework density 18.820656
#
# number of rings (size 3 to 8) (size 9 to 14) (size 15 to 20)
#    0.000    2.000    2.857    1.286    0.000    2.286 
#    2.571    1.429    0.000    0.000    0.000    0.000 
#    0.000    0.000    0.000    0.000    0.000    0.000 
#
# Total GULP energy -693744.593706 kJ/mol
# GULP energy per Si atom -12388.296316 kJ/mol
# Density = 1.877782 g / cm^3
# Si number density = 18.820656 Si / 1000 Ang^3
#
#
#
# Elastic Constant Matrix: (Units=GPa)
#
#
# Indices 1 2 3 4 5 6 
#
# 1 57.4733 43.9700 46.1365 0.0000 0.0000 0.0000
# 2 43.9700 92.4120 52.8921 0.0000 0.0000 0.0000
# 3 46.1365 52.8921 122.1396 0.0000 0.0000 0.0000
# 4 0.0000 0.0000 0.0000 28.1212 0.0000 0.0000
# 5 0.0000 0.0000 0.0000 0.0000 32.8148 0.0000
# 6 0.0000 0.0000 0.0000 0.0000 0.0000 33.2225
#
#
#
# Elastic Compliance Matrix: (Units=1/GPa)
#
#
# Indices 1 2 3 4 5 6 
#
# 1 0.031481 -0.010866 -0.007186 0.000000 0.000000 0.000000
# 2 -0.010866 0.018137 -0.003750 0.000000 0.000000 0.000000
# 3 -0.007186 -0.003750 0.012526 0.000000 0.000000 0.000000
# 4 0.000000 0.000000 0.000000 0.035560 0.000000 0.000000
# 5 0.000000 0.000000 0.000000 0.000000 0.030474 0.000000
# 6 0.000000 0.000000 0.000000 0.000000 0.000000 0.030100
#
#
# Mechanical properties :
#
#
# Convention : Reuss Voigt Hill
#
# Bulk Modulus (GPa) = 53.93636 62.00246 57.96941
# Shear Modulus (GPa) = 24.03131 27.43346 25.73238
#
# Velocity S-wave (km/s) = 3.57719 3.82203 3.70163
# Velocity P-wave (km/s) = 6.76624 7.24517 7.00980
#
# Compressibility (1/GPa) = 0.01854037
#
# Stress axis : x y z
#
# Youngs Moduli (GPa) = 31.76540 55.13495 79.83601
#
# Poissons Ratio (x) = 0.59908 0.57371
# Poissons Ratio (y) = 0.34515 0.29938
# Poissons Ratio (z) = 0.22827 0.20675
#
# Static dielectric constant tensor:
#      x y z
#    x 3.156990 0.000000 0.000000 
#    y 0.000000 3.555610 0.000000 
#    z 0.000000 0.000000 3.724670 
# 
# 
# High freq. dielectric constant tensor:
#      x y z
#    x 1.709630 0.000000 0.000000 
#    y 0.000000 1.723600 0.000000 
#    z 0.000000 0.000000 1.741990 
# 
# From -- ./inp_files/20311.got.cif
#   From: 2010.03.12/outbox.cif.g09.slc.cpg/sg62_11_cif.got.tgz:20311.got - 2010.04.10 19:12:36.
