data_PCOD8250671
_publ_section_title
;
Structure prediction by ZEFSAII (Michael W. Deem and Ramdas Pophale) SiO2 
 PCOD8250671
Probable space group: P N M A
;
_chemical_formula_sum "Si O2"
_cell_formula_units_Z 64
_cell_length_a 15.183947
_cell_length_b 8.722152
_cell_length_c 24.757341
_cell_angle_alpha 90.000000
_cell_angle_beta 90.000000
_cell_angle_gamma 90.000000
_cell_volume 3278.780387
_symmetry_space_group_name_H-M "P N M A"
_symmetry_group_IT_number 62
_symmetry_cell_setting 'orthorhombic'
loop_
_space_group_symop_operation_xyz
x,y,z
1/2-x,-y,1/2+z
1/2+x,1/2-y,1/2-z
-x,1/2+y,-z
-x,-y,-z
1/2+x,y,1/2-z
1/2-x,1/2+y,1/2+z
x,1/2-y,z
loop_
_atom_site_type_symbol
_atom_site_label
_atom_site_fract_x
_atom_site_fract_y
_atom_site_fract_z
Si Si1 0.676166 0.569798 0.147761
Si Si2 0.318373 0.931604 0.439553
Si Si3 0.696164 0.573576 0.860150
Si Si4 0.497988 0.068481 0.605796
Si Si5 0.280485 0.428081 0.261882
Si Si6 0.819197 0.069991 0.945877
Si Si7 0.001795 0.428619 0.335192
Si Si8 0.463163 0.929226 0.275533
O O1 0.683181 0.750000 0.157220
O O2 0.742454 0.512704 0.101330
O O3 0.696514 0.480945 0.203673
O O4 0.576478 0.522114 0.132075
O O5 0.321190 0.750000 0.441423
O O6 0.412779 0.999853 0.420648
O O7 0.293219 0.993348 0.498054
O O8 0.708377 0.750000 0.877202
O O9 0.738182 0.542840 0.801314
O O10 0.743547 0.465575 0.902841
O O11 0.593129 0.528222 0.859582
O O12 0.501879 0.250000 0.601014
O O13 0.412967 0.002390 0.574613
O O14 0.489766 0.022605 0.668632
O O15 0.303771 0.250000 0.271338
O O16 0.360326 0.533250 0.282456
O O17 0.825673 0.250000 0.954024
O O18 0.020888 0.250000 0.340890
O O19 0.005835 0.472495 0.272097
O O20 0.474870 0.750000 0.262777
#
# Coordination Sequence:
#
# PCOD8250671 Si02
#       8
#     8   8   8   8   8   8   8   8
#     4  11  22  37  61  88 115 156 200 241 296 357
#     4  10  21  41  61  81 117 157 196 239 293 355
#     4   9  21  41  59  80 116 158 193 236 296 351
#     4   9  19  36  56  84 119 154 191 235 284 344
#     4  10  20  35  56  85 120 154 192 241 294 347
#     4  11  23  37  59  88 115 150 200 249 291 343
#     4  10  22  39  58  85 121 155 194 246 300 353
#     4  10  18  34  57  84 119 157 195 232 284 352
#
# _framework density 19.519452000000001
#
# number of rings (size 3 to 8) (size 9 to 14) (size 15 to 20)
#    0.000    2.000    1.250    3.000    1.750    4.000 
#    0.000    3.125    0.000    0.000    0.000    0.000 
#    0.000    0.000    0.000    0.000    0.000    0.000 
#
# Total GULP energy -793749.413537 kJ/mol
# GULP energy per Si atom -12402.334587 kJ/mol
# Density = 1.947503 g / cm^3
# Si number density = 19.519452 Si / 1000 Ang^3
#
#
#
# Elastic Constant Matrix: (Units=GPa)
#
#
# Indices 1 2 3 4 5 6 
#
# 1 115.8464 24.3374 64.6352 0.0000 0.0000 0.0000
# 2 24.3374 38.3340 27.6638 0.0000 0.0000 0.0000
# 3 64.6352 27.6638 105.0438 0.0000 0.0000 0.0000
# 4 0.0000 0.0000 0.0000 28.7667 0.0000 0.0000
# 5 0.0000 0.0000 0.0000 0.0000 25.8705 0.0000
# 6 0.0000 0.0000 0.0000 0.0000 0.0000 30.5355
#
#
#
# Elastic Compliance Matrix: (Units=1/GPa)
#
#
# Indices 1 2 3 4 5 6 
#
# 1 0.013450 -0.003169 -0.007441 0.000000 0.000000 0.000000
# 2 -0.003169 0.032954 -0.006729 0.000000 0.000000 0.000000
# 3 -0.007441 -0.006729 0.015871 0.000000 0.000000 0.000000
# 4 0.000000 0.000000 0.000000 0.034762 0.000000 0.000000
# 5 0.000000 0.000000 0.000000 0.000000 0.038654 0.000000
# 6 0.000000 0.000000 0.000000 0.000000 0.000000 0.032749
#
#
# Mechanical properties :
#
#
# Convention : Reuss Voigt Hill
#
# Bulk Modulus (GPa) = 36.23629 54.72188 45.47909
# Shear Modulus (GPa) = 23.54976 26.54038 25.04507
#
# Velocity S-wave (km/s) = 3.47721 3.69140 3.58590
# Velocity P-wave (km/s) = 5.89286 6.80176 6.36356
#
# Compressibility (1/GPa) = 0.02759664
#
# Stress axis : x y z
#
# Youngs Moduli (GPa) = 74.35165 30.34515 63.00954
#
# Poissons Ratio (x) = 0.09616 0.46887
# Poissons Ratio (y) = 0.23561 0.42398
# Poissons Ratio (z) = 0.55327 0.20419
#
# Static dielectric constant tensor:
#      x y z
#    x 3.676900 0.000000 0.000000 
#    y 0.000000 3.361700 0.000000 
#    z 0.000000 0.000000 3.465370 
# 
# 
# High freq. dielectric constant tensor:
#      x y z
#    x 1.763750 0.000000 0.000000 
#    y 0.000000 1.751340 0.000000 
#    z 0.000000 0.000000 1.751040 
# 
# From -- ./inp_files/29753.got.cif
#   From: 2010.03.12/outbox.cif.g09.slc.cpg/sg62_15_cif.got.tgz:29753.got - 2010.04.10 19:12:36.
