data_PCOD8250518
_publ_section_title
;
Structure prediction by ZEFSAII (Michael W. Deem and Ramdas Pophale) SiO2 
 PCOD8250518
Probable space group: P N M A
;
_chemical_formula_sum "Si O2"
_cell_formula_units_Z 64
_cell_length_a 11.919355
_cell_length_b 12.060873
_cell_length_c 27.080710
_cell_angle_alpha 90.000000
_cell_angle_beta 90.000000
_cell_angle_gamma 90.000000
_cell_volume 3893.064020
_symmetry_space_group_name_H-M "P N M A"
_symmetry_group_IT_number 62
_symmetry_cell_setting 'orthorhombic'
loop_
_space_group_symop_operation_xyz
x,y,z
1/2-x,-y,1/2+z
1/2+x,1/2-y,1/2-z
-x,1/2+y,-z
-x,-y,-z
1/2+x,y,1/2-z
1/2-x,1/2+y,1/2+z
x,1/2-y,z
loop_
_atom_site_type_symbol
_atom_site_label
_atom_site_fract_x
_atom_site_fract_y
_atom_site_fract_z
Si Si1 0.159794 0.524535 0.021550
Si Si2 0.750829 0.375665 0.560119
Si Si3 0.457416 0.121561 0.880217
Si Si4 0.610682 0.464362 0.643423
Si Si5 0.695591 0.879267 0.207473
Si Si6 0.027404 0.621540 0.934034
Si Si7 0.122341 0.618736 0.184229
Si Si8 0.702008 0.379894 0.894644
O O1 0.249776 0.595562 0.051519
O O2 0.078276 0.460934 0.059797
O O3 0.226292 0.433500 0.991034
O O4 0.098238 0.609248 0.984531
O O5 0.772649 0.250000 0.546524
O O6 0.862027 0.431305 0.584287
O O7 0.646886 0.381787 0.598870
O O8 0.465947 0.250000 0.893987
O O9 0.418492 0.106548 0.823754
O O10 0.578660 0.064620 0.888403
O O11 0.707210 0.459464 0.685489
O O12 0.595407 0.583630 0.615486
O O13 0.496734 0.432195 0.670412
O O14 0.736197 0.750000 0.206006
O O15 0.663719 0.919358 0.261963
O O16 0.992309 0.750000 0.928031
O O17 0.109643 0.750000 0.181465
O O18 0.215234 0.571478 0.146786
O O19 0.691296 0.250000 0.886153
#
# Coordination Sequence:
#
# PCOD8250518 Si02
#       8
#     8   8   8   8   8   8   8   8
#     4  10  19  31  47  72  94 123 162 199 246 287
#     4   9  17  30  49  69  94 128 160 191 232 285
#     4   8  16  30  44  64  96 128 155 188 229 280
#     4  10  18  32  49  71  98 125 159 195 239 290
#     4   9  18  30  48  73  99 128 159 191 235 291
#     4  10  20  33  49  70  97 126 161 205 246 289
#     4  10  19  28  45  71  99 127 154 193 238 283
#     4  10  19  30  43  66 101 130 155 191 238 286
#
# _framework density 16.439492999999999
#
# number of rings (size 3 to 8) (size 9 to 14) (size 15 to 20)
#    0.000    2.500    1.250    2.625    1.750    0.500 
#    0.000    0.000    0.000    0.750    0.000    3.500 
#    0.000    0.000    0.000    0.000    0.000    0.000 
#
# Total GULP energy -793151.610110 kJ/mol
# GULP energy per Si atom -12392.993908 kJ/mol
# Density = 1.640208 g / cm^3
# Si number density = 16.439493 Si / 1000 Ang^3
#
#
#
# Elastic Constant Matrix: (Units=GPa)
#
#
# Indices 1 2 3 4 5 6 
#
# 1 111.6266 16.6626 47.5990 0.0000 0.0000 0.0000
# 2 16.6626 34.1488 13.1370 0.0000 0.0000 0.0000
# 3 47.5990 13.1370 94.4128 0.0000 0.0000 0.0000
# 4 0.0000 0.0000 0.0000 17.5519 0.0000 0.0000
# 5 0.0000 0.0000 0.0000 0.0000 28.0218 0.0000
# 6 0.0000 0.0000 0.0000 0.0000 0.0000 15.9266
#
#
#
# Elastic Compliance Matrix: (Units=1/GPa)
#
#
# Indices 1 2 3 4 5 6 
#
# 1 0.011833 -0.003676 -0.005454 0.000000 0.000000 0.000000
# 2 -0.003676 0.032082 -0.002611 0.000000 0.000000 0.000000
# 3 -0.005454 -0.002611 0.013705 0.000000 0.000000 0.000000
# 4 0.000000 0.000000 0.000000 0.056974 0.000000 0.000000
# 5 0.000000 0.000000 0.000000 0.000000 0.035687 0.000000
# 6 0.000000 0.000000 0.000000 0.000000 0.000000 0.062788
#
#
# Mechanical properties :
#
#
# Convention : Reuss Voigt Hill
#
# Bulk Modulus (GPa) = 29.29292 43.88726 36.59009
# Shear Modulus (GPa) = 20.16714 23.15270 21.65992
#
# Velocity S-wave (km/s) = 3.50630 3.75688 3.63375
# Velocity P-wave (km/s) = 5.85231 6.75078 6.31754
#
# Compressibility (1/GPa) = 0.03413794
#
# Stress axis : x y z
#
# Youngs Moduli (GPa) = 84.51070 31.17061 72.96689
#
# Poissons Ratio (x) = 0.11457 0.39797
# Poissons Ratio (y) = 0.31062 0.19051
# Poissons Ratio (z) = 0.46094 0.08138
#
# Static dielectric constant tensor:
#      x y z
#    x 3.361880 0.000000 0.000000 
#    y 0.000000 2.686740 0.000000 
#    z 0.000000 0.000000 3.147610 
# 
# 
# High freq. dielectric constant tensor:
#      x y z
#    x 1.640830 0.000000 0.000000 
#    y 0.000000 1.578420 0.000000 
#    z 0.000000 0.000000 1.637460 
# 
# From -- ./inp_files/31208.got.cif
#   From: 2010.03.12/outbox.cif.g09.slc.cpg/sg62_16_cif.got.tgz:31208.got - 2010.04.10 19:12:36.
