data_PCOD8250020
_publ_section_title
;
Structure prediction by ZEFSAII (Michael W. Deem and Ramdas Pophale) SiO2 
 PCOD8250020
Probable space group: P N M A
;
_chemical_formula_sum "Si O2"
_cell_formula_units_Z 40
_cell_length_a 20.959075
_cell_length_b 8.737351
_cell_length_c 12.664293
_cell_angle_alpha 90.000000
_cell_angle_beta 90.000000
_cell_angle_gamma 90.000000
_cell_volume 2319.171387
_symmetry_space_group_name_H-M "P N M A"
_symmetry_group_IT_number 62
_symmetry_cell_setting 'orthorhombic'
loop_
_space_group_symop_operation_xyz
x,y,z
1/2-x,-y,1/2+z
1/2+x,1/2-y,1/2-z
-x,1/2+y,-z
-x,-y,-z
1/2+x,y,1/2-z
1/2-x,1/2+y,1/2+z
x,1/2-y,z
loop_
_atom_site_type_symbol
_atom_site_label
_atom_site_fract_x
_atom_site_fract_y
_atom_site_fract_z
Si Si1 0.194117 0.929438 0.604833
Si Si2 0.294106 0.428296 0.876470
Si Si3 0.173106 0.928500 0.151143
Si Si4 0.568542 0.570464 0.516826
Si Si5 0.656093 0.069144 0.687915
O O1 0.182751 0.750000 0.622059
O O2 0.174523 0.986431 0.486122
O O3 0.268964 0.966604 0.613800
O O4 0.151205 0.020880 0.688971
O O5 0.281988 0.250000 0.890024
O O6 0.339698 0.462817 0.775968
O O7 0.223319 0.498010 0.856013
O O8 0.191609 0.750000 0.135679
O O9 0.111001 0.974101 0.084944
O O10 0.500000 0.500000 0.500000
O O11 0.561961 0.750000 0.529199
O O12 0.598515 0.504913 0.623700
O O13 0.650587 0.250000 0.679451
#
# Coordination Sequence:
#
# PCOD8250020 Si02
#       5
#     8   8   8   8   8
#     4  10  17  28  49  76 103 130 160 201 252 303
#     4   8  15  28  48  72 101 130 156 199 253 298
#     4   9  18  32  48  71 101 133 167 204 250 304
#     4  11  22  35  53  74 101 136 175 213 253 302
#     4  10  19  33  49  71 103 135 169 207 252 299
#
# _framework density 17.247537999999999
#
# number of rings (size 3 to 8) (size 9 to 14) (size 15 to 20)
#    0.000    2.400    2.000    3.000    0.000    0.800 
#    0.000    1.000    0.000    1.200    0.000    0.000 
#    0.000    0.000    0.000    0.000    0.000    0.000 
#
# Total GULP energy -495771.645088 kJ/mol
# GULP energy per Si atom -12394.291127 kJ/mol
# Density = 1.720828 g / cm^3
# Si number density = 17.247538 Si / 1000 Ang^3
#
#
#
# Elastic Constant Matrix: (Units=GPa)
#
#
# Indices 1 2 3 4 5 6 
#
# 1 74.5899 27.0895 48.4227 0.0000 0.0000 0.0000
# 2 27.0895 56.9407 32.4982 0.0000 0.0000 0.0000
# 3 48.4227 32.4982 153.2450 0.0000 0.0000 0.0000
# 4 0.0000 0.0000 0.0000 23.2728 0.0000 0.0000
# 5 0.0000 0.0000 0.0000 0.0000 23.3090 0.0000
# 6 0.0000 0.0000 0.0000 0.0000 0.0000 23.2348
#
#
#
# Elastic Compliance Matrix: (Units=1/GPa)
#
#
# Indices 1 2 3 4 5 6 
#
# 1 0.018644 -0.006266 -0.004562 0.000000 0.000000 0.000000
# 2 -0.006266 0.022086 -0.002704 0.000000 0.000000 0.000000
# 3 -0.004562 -0.002704 0.008541 0.000000 0.000000 0.000000
# 4 0.000000 0.000000 0.000000 0.042969 0.000000 0.000000
# 5 0.000000 0.000000 0.000000 0.000000 0.042902 0.000000
# 6 0.000000 0.000000 0.000000 0.000000 0.000000 0.043039
#
#
# Mechanical properties :
#
#
# Convention : Reuss Voigt Hill
#
# Bulk Modulus (GPa) = 45.03178 55.64405 50.33792
# Shear Modulus (GPa) = 23.51312 25.74767 24.63040
#
# Velocity S-wave (km/s) = 3.69626 3.86791 3.78306
# Velocity P-wave (km/s) = 6.66200 7.23047 6.95205
#
# Compressibility (1/GPa) = 0.02220654
#
# Stress axis : x y z
#
# Youngs Moduli (GPa) = 53.63606 45.27683 117.08870
#
# Poissons Ratio (x) = 0.28370 0.53421
# Poissons Ratio (y) = 0.33608 0.31659
# Poissons Ratio (z) = 0.24471 0.12242
#
# Static dielectric constant tensor:
#      x y z
#    x 2.788350 0.000000 0.000000 
#    y 0.000000 3.126080 0.000000 
#    z 0.000000 0.000000 3.829610 
# 
# 
# High freq. dielectric constant tensor:
#      x y z
#    x 1.613050 0.000000 0.000000 
#    y 0.000000 1.661120 0.000000 
#    z 0.000000 0.000000 1.688590 
# 
# From -- ./inp_files/13867.got.cif
#   From: 2010.03.12/outbox.cif.g09.slc.cpg/sg62_7_cif.got.tgz:13867.got - 2010.04.10 19:12:36.
