data_PCOD8250155
_publ_section_title
;
Structure prediction by ZEFSAII (Michael W. Deem and Ramdas Pophale) SiO2 
 PCOD8250155
Probable space group: P N M A
;
_chemical_formula_sum "Si O2"
_cell_formula_units_Z 56
_cell_length_a 13.471697
_cell_length_b 8.969094
_cell_length_c 29.585086
_cell_angle_alpha 90.000000
_cell_angle_beta 90.000000
_cell_angle_gamma 90.000000
_cell_volume 3574.733893
_symmetry_space_group_name_H-M "P N M A"
_symmetry_group_IT_number 62
_symmetry_cell_setting 'orthorhombic'
loop_
_space_group_symop_operation_xyz
x,y,z
1/2-x,-y,1/2+z
1/2+x,1/2-y,1/2-z
-x,1/2+y,-z
-x,-y,-z
1/2+x,y,1/2-z
1/2-x,1/2+y,1/2+z
x,1/2-y,z
loop_
_atom_site_type_symbol
_atom_site_label
_atom_site_fract_x
_atom_site_fract_y
_atom_site_fract_z
Si Si1 0.603104 0.921155 0.999082
Si Si2 0.903189 0.921153 0.231843
Si Si3 0.280087 0.575575 0.180239
Si Si4 0.402690 0.076696 0.903385
Si Si5 0.605888 0.425583 0.269508
Si Si6 0.885330 0.425355 0.401540
Si Si7 0.298587 0.077595 0.813060
O O1 0.576985 0.750000 0.995030
O O2 0.658633 0.964830 0.952167
O O3 0.653362 0.955436 0.048110
O O4 0.500000 0.000000 0.000000
O O5 0.938292 0.750000 0.229061
O O6 0.862880 0.957973 0.281899
O O7 0.817126 0.955540 0.195384
O O8 0.993383 0.028711 0.219598
O O9 0.260170 0.750000 0.175766
O O10 0.176906 0.498730 0.193281
O O11 0.315410 0.511709 0.132757
O O12 0.434391 0.250000 0.899986
O O13 0.323771 0.035851 0.864629
O O14 0.501064 0.978646 0.897102
O O15 0.617253 0.250000 0.272438
O O16 0.632365 0.479715 0.219252
O O17 0.881067 0.250000 0.390930
O O18 0.321718 0.250000 0.801743
#
# Coordination Sequence:
#
# PCOD8250155 Si02
#       7
#     8   8   8   8   8   8   8
#     4   8  15  26  40  60  88 118 146 178 215 257
#     4   9  18  32  46  61  84 113 144 177 212 252
#     4  10  20  33  48  64  85 117 152 180 210 256
#     4   9  16  28  45  64  88 121 155 180 210 256
#     4  11  21  31  45  65  89 114 141 178 220 257
#     4  10  18  27  41  65  94 119 145 181 223 259
#     4   9  18  31  47  65  86 116 151 180 208 251
#
# _framework density 15.665502
#
# number of rings (size 3 to 8) (size 9 to 14) (size 15 to 20)
#    0.000    2.571    0.000    3.857    0.000    7.429 
#    0.000    0.000    0.000    0.000    0.000    1.000 
#    0.000    0.000    0.000    0.000    0.000    0.000 
#
# Total GULP energy -693969.110439 kJ/mol
# GULP energy per Si atom -12392.305544 kJ/mol
# Density = 1.562985 g / cm^3
# Si number density = 15.665502 Si / 1000 Ang^3
#
#
#
# Elastic Constant Matrix: (Units=GPa)
#
#
# Indices 1 2 3 4 5 6 
#
# 1 81.6915 42.5139 56.8138 0.0000 0.0000 0.0000
# 2 42.5139 76.7467 48.2890 0.0000 0.0000 0.0000
# 3 56.8138 48.2890 150.3984 0.0000 0.0000 0.0000
# 4 0.0000 0.0000 0.0000 21.8901 0.0000 0.0000
# 5 0.0000 0.0000 0.0000 0.0000 22.3757 0.0000
# 6 0.0000 0.0000 0.0000 0.0000 0.0000 17.9006
#
#
#
# Elastic Compliance Matrix: (Units=1/GPa)
#
#
# Indices 1 2 3 4 5 6 
#
# 1 0.019759 -0.007831 -0.004950 0.000000 0.000000 0.000000
# 2 -0.007831 0.019432 -0.003281 0.000000 0.000000 0.000000
# 3 -0.004950 -0.003281 0.009572 0.000000 0.000000 0.000000
# 4 0.000000 0.000000 0.000000 0.045683 0.000000 0.000000
# 5 0.000000 0.000000 0.000000 0.000000 0.044691 0.000000
# 6 0.000000 0.000000 0.000000 0.000000 0.000000 0.055864
#
#
# Mechanical properties :
#
#
# Convention : Reuss Voigt Hill
#
# Bulk Modulus (GPa) = 60.09641 67.11891 63.60766
# Shear Modulus (GPa) = 21.48947 23.18126 22.33536
#
# Velocity S-wave (km/s) = 3.70776 3.85094 3.78003
# Velocity P-wave (km/s) = 7.53495 7.91903 7.72938
#
# Compressibility (1/GPa) = 0.01663993
#
# Stress axis : x y z
#
# Youngs Moduli (GPa) = 50.60981 51.46064 104.46910
#
# Poissons Ratio (x) = 0.40300 0.51709
# Poissons Ratio (y) = 0.39633 0.34276
# Poissons Ratio (z) = 0.25050 0.16884
#
# Static dielectric constant tensor:
#      x y z
#    x 2.722370 0.000000 0.000000 
#    y 0.000000 3.032960 0.000000 
#    z 0.000000 0.000000 3.543780 
# 
# 
# High freq. dielectric constant tensor:
#      x y z
#    x 1.563810 0.000000 0.000000 
#    y 0.000000 1.608920 0.000000 
#    z 0.000000 0.000000 1.607810 
# 
# From -- ./inp_files/32637.got.cif
#   From: 2010.03.12/outbox.cif.g09.slc.cpg/sg62_17_cif.got.tgz:32637.got - 2010.04.10 19:12:36.
