data_PCOD8250061
_publ_section_title
;
Structure prediction by ZEFSAII (Michael W. Deem and Ramdas Pophale) SiO2 
 PCOD8250061
Probable space group: P N M A
;
_chemical_formula_sum "Si O2"
_cell_formula_units_Z 64
_cell_length_a 22.192333
_cell_length_b 8.521068
_cell_length_c 16.968552
_cell_angle_alpha 90.000000
_cell_angle_beta 90.000000
_cell_angle_gamma 90.000000
_cell_volume 3208.793544
_symmetry_space_group_name_H-M "P N M A"
_symmetry_group_IT_number 62
_symmetry_cell_setting 'orthorhombic'
loop_
_space_group_symop_operation_xyz
x,y,z
1/2-x,-y,1/2+z
1/2+x,1/2-y,1/2-z
-x,1/2+y,-z
-x,-y,-z
1/2+x,y,1/2-z
1/2-x,1/2+y,1/2+z
x,1/2-y,z
loop_
_atom_site_type_symbol
_atom_site_label
_atom_site_fract_x
_atom_site_fract_y
_atom_site_fract_z
Si Si1 0.099372 0.062615 0.225872
Si Si2 0.661977 0.427642 0.124901
Si Si3 0.873559 0.930902 0.306370
Si Si4 0.534572 0.933591 0.690029
Si Si5 0.695710 0.437140 0.957064
Si Si6 0.670085 0.935401 0.416384
Si Si7 0.876731 0.933880 0.067659
Si Si8 0.291155 0.073332 0.313074
O O1 0.106076 0.250000 0.221433
O O2 0.110168 0.004473 0.317055
O O3 0.033215 0.005043 0.201020
O O4 0.149581 0.984484 0.170571
O O5 0.645788 0.250000 0.103135
O O6 0.720263 0.438308 0.180139
O O7 0.673234 0.512617 0.040628
O O8 0.892639 0.750000 0.305782
O O9 0.855131 0.988027 0.393729
O O10 0.928292 0.030693 0.270090
O O11 0.814058 0.953200 0.253019
O O12 0.535884 0.750000 0.673513
O O13 0.562279 0.020292 0.613976
O O14 0.700625 0.250000 0.961897
O O15 0.762056 0.500294 0.932888
O O16 0.666917 0.750000 0.426244
O O17 0.622117 0.015932 0.476313
O O18 0.866880 0.750000 0.076539
O O19 0.820152 0.027664 0.103333
O O20 0.311771 0.250000 0.291396
#
# Coordination Sequence:
#
# PCOD8250061 Si02
#       8
#     8   8   8   8   8   8   8   8
#     4  10  22  38  57  80 106 145 189 230 268 317
#     4   9  17  33  56  79 108 142 179 219 272 329
#     4  10  19  32  54  80 107 140 182 224 265 318
#     4  10  21  38  56  76 108 147 190 228 269 317
#     4   9  18  33  55  84 113 142 174 216 274 332
#     4  11  21  36  58  84 116 145 174 219 277 334
#     4  11  21  34  55  82 111 143 181 222 266 319
#     4  10  17  30  54  79 108 141 174 215 271 327
#
# _framework density 19.945191000000001
#
# number of rings (size 3 to 8) (size 9 to 14) (size 15 to 20)
#    0.000    2.000    1.250    4.875    0.000    1.500 
#    0.000    3.125    0.000    0.000    0.000    0.000 
#    0.000    0.000    0.000    0.000    0.000    0.000 
#
# Total GULP energy -793305.227586 kJ/mol
# GULP energy per Si atom -12395.394181 kJ/mol
# Density = 1.989979 g / cm^3
# Si number density = 19.945191 Si / 1000 Ang^3
#
#
#
# Elastic Constant Matrix: (Units=GPa)
#
#
# Indices 1 2 3 4 5 6 
#
# 1 59.6163 13.4465 39.6103 0.0000 0.0000 0.0000
# 2 13.4465 37.8077 3.3212 0.0000 0.0000 0.0000
# 3 39.6103 3.3212 123.3434 0.0000 0.0000 0.0000
# 4 0.0000 0.0000 0.0000 24.6841 0.0000 0.0000
# 5 0.0000 0.0000 0.0000 0.0000 23.6252 0.0000
# 6 0.0000 0.0000 0.0000 0.0000 0.0000 17.8435
#
#
#
# Elastic Compliance Matrix: (Units=1/GPa)
#
#
# Indices 1 2 3 4 5 6 
#
# 1 0.023347 -0.007663 -0.007291 0.000000 0.000000 0.000000
# 2 -0.007663 0.029027 0.001679 0.000000 0.000000 0.000000
# 3 -0.007291 0.001679 0.010404 0.000000 0.000000 0.000000
# 4 0.000000 0.000000 0.000000 0.040512 0.000000 0.000000
# 5 0.000000 0.000000 0.000000 0.000000 0.042328 0.000000
# 6 0.000000 0.000000 0.000000 0.000000 0.000000 0.056043
#
#
# Mechanical properties :
#
#
# Convention : Reuss Voigt Hill
#
# Bulk Modulus (GPa) = 27.60277 37.05814 32.33046
# Shear Modulus (GPa) = 20.80854 24.18986 22.49920
#
# Velocity S-wave (km/s) = 3.23350 3.48633 3.36229
# Velocity P-wave (km/s) = 5.27352 5.90138 5.59626
#
# Compressibility (1/GPa) = 0.03622824
#
# Stress axis : x y z
#
# Youngs Moduli (GPa) = 42.83257 34.45010 96.11954
#
# Poissons Ratio (x) = 0.26399 0.70083
# Poissons Ratio (y) = 0.32822 -0.16141
# Poissons Ratio (z) = 0.31230 -0.05785
#
# Static dielectric constant tensor:
#      x y z
#    x 3.564160 0.000000 0.000000 
#    y 0.000000 3.352130 0.000000 
#    z 0.000000 0.000000 3.842910 
# 
# 
# High freq. dielectric constant tensor:
#      x y z
#    x 1.761440 0.000000 0.000000 
#    y 0.000000 1.755310 0.000000 
#    z 0.000000 0.000000 1.785960 
# 
# From -- ./inp_files/20988.got.cif
#   From: 2010.03.12/outbox.cif.g09.slc.cpg/sg62_11_cif.got.tgz:20988.got - 2010.04.10 19:12:36.
