data_PCOD8250961
_publ_section_title
;
Structure prediction by ZEFSAII (Michael W. Deem and Ramdas Pophale) SiO2 
 PCOD8250961
Probable space group: P N M A
;
_chemical_formula_sum "Si O2"
_cell_formula_units_Z 64
_cell_length_a 16.689872
_cell_length_b 9.723804
_cell_length_c 22.373278
_cell_angle_alpha 90.000000
_cell_angle_beta 90.000000
_cell_angle_gamma 90.000000
_cell_volume 3630.937900
_symmetry_space_group_name_H-M "P N M A"
_symmetry_group_IT_number 62
_symmetry_cell_setting 'orthorhombic'
loop_
_space_group_symop_operation_xyz
x,y,z
1/2-x,-y,1/2+z
1/2+x,1/2-y,1/2-z
-x,1/2+y,-z
-x,-y,-z
1/2+x,y,1/2-z
1/2-x,1/2+y,1/2+z
x,1/2-y,z
loop_
_atom_site_type_symbol
_atom_site_label
_atom_site_fract_x
_atom_site_fract_y
_atom_site_fract_z
Si Si1 0.701011 0.414034 0.536153
Si Si2 0.439062 0.593028 0.380821
Si Si3 0.825764 0.093413 0.632595
Si Si4 0.925141 0.587965 0.830254
Si Si5 0.046723 0.088080 0.307216
Si Si6 0.634961 0.909673 0.823733
Si Si7 0.226092 0.410613 0.095023
Si Si8 0.185827 0.399741 0.776684
O O1 0.702394 0.250000 0.538981
O O2 0.616100 0.461561 0.564314
O O3 0.777097 0.464462 0.575263
O O4 0.708844 0.478510 0.469713
O O5 0.468315 0.750000 0.391838
O O6 0.513850 0.492047 0.373405
O O7 0.387900 0.584082 0.321042
O O8 0.855997 0.250000 0.621994
O O9 0.769391 0.087267 0.689919
O O10 0.899907 0.993717 0.645362
O O11 0.941893 0.750000 0.836929
O O12 0.934847 0.543200 0.761067
O O13 0.837273 0.544198 0.854019
O O14 0.061422 0.250000 0.315533
O O15 0.956916 0.043930 0.325869
O O16 0.641060 0.750000 0.808935
O O17 0.683074 0.946579 0.884580
O O18 0.683237 0.981607 0.771308
O O19 0.216638 0.250000 0.084810
O O20 0.180433 0.250000 0.745427
#
# Coordination Sequence:
#
# PCOD8250961 Si02
#       8
#     8   8   8   8   8   8   8   8
#     4   8  16  33  52  71  96 128 171 207 235 288
#     4   9  17  30  50  73  98 130 160 197 244 288
#     4   9  18  32  52  73  93 125 168 206 242 288
#     4  10  19  31  48  75 105 129 160 200 245 297
#     4  10  20  32  47  74 106 128 157 203 250 296
#     4  10  19  32  51  72  97 131 165 200 245 294
#     4   9  18  32  51  71  95 132 169 202 243 291
#     4   9  17  30  48  71  97 126 160 197 245 297
#
# _framework density 17.626300000000001
#
# number of rings (size 3 to 8) (size 9 to 14) (size 15 to 20)
#    0.000    2.750    1.250    2.250    0.000    3.000 
#    0.000    3.125    0.000    2.250    0.000    0.000 
#    0.000    0.000    0.000    0.000    0.000    0.000 
#
# Total GULP energy -793269.602439 kJ/mol
# GULP energy per Si atom -12394.837538 kJ/mol
# Density = 1.758618 g / cm^3
# Si number density = 17.626300 Si / 1000 Ang^3
#
#
#
# Elastic Constant Matrix: (Units=GPa)
#
#
# Indices 1 2 3 4 5 6 
#
# 1 112.8818 33.3498 55.6472 0.0000 0.0000 0.0000
# 2 33.3498 33.6832 18.6179 0.0000 0.0000 0.0000
# 3 55.6472 18.6179 74.8171 0.0000 0.0000 0.0000
# 4 0.0000 0.0000 0.0000 14.4361 0.0000 0.0000
# 5 0.0000 0.0000 0.0000 0.0000 20.3906 0.0000
# 6 0.0000 0.0000 0.0000 0.0000 0.0000 26.9549
#
#
#
# Elastic Compliance Matrix: (Units=1/GPa)
#
#
# Indices 1 2 3 4 5 6 
#
# 1 0.017123 -0.011495 -0.009875 0.000000 0.000000 0.000000
# 2 -0.011495 0.042140 -0.001937 0.000000 0.000000 0.000000
# 3 -0.009875 -0.001937 0.021193 0.000000 0.000000 0.000000
# 4 0.000000 0.000000 0.000000 0.069271 0.000000 0.000000
# 5 0.000000 0.000000 0.000000 0.000000 0.049042 0.000000
# 6 0.000000 0.000000 0.000000 0.000000 0.000000 0.037099
#
#
# Mechanical properties :
#
#
# Convention : Reuss Voigt Hill
#
# Bulk Modulus (GPa) = 29.54895 48.51246 39.03070
# Shear Modulus (GPa) = 17.02052 19.94080 18.48066
#
# Velocity S-wave (km/s) = 3.11083 3.36714 3.24152
# Velocity P-wave (km/s) = 5.45010 6.53448 6.01677
#
# Compressibility (1/GPa) = 0.03384215
#
# Stress axis : x y z
#
# Youngs Moduli (GPa) = 58.40033 23.73025 47.18581
#
# Poissons Ratio (x) = 0.27279 0.46597
# Poissons Ratio (y) = 0.67133 0.09138
# Poissons Ratio (z) = 0.57672 0.04595
#
# Static dielectric constant tensor:
#      x y z
#    x 3.349430 0.000000 0.000000 
#    y 0.000000 3.046070 0.000000 
#    z 0.000000 0.000000 3.343700 
# 
# 
# High freq. dielectric constant tensor:
#      x y z
#    x 1.684320 0.000000 0.000000 
#    y 0.000000 1.654110 0.000000 
#    z 0.000000 0.000000 1.669250 
# 
# From -- ./inp_files/27671.got.cif
#   From: 2010.03.12/outbox.cif.g09.slc.cpg/sg62_14_cif.got.tgz:27671.got - 2010.04.10 19:12:36.
