data_PCOD8250826
_publ_section_title
;
Structure prediction by ZEFSAII (Michael W. Deem and Ramdas Pophale) SiO2 
 PCOD8250826
Probable space group: P N M A
;
_chemical_formula_sum "Si O2"
_cell_formula_units_Z 56
_cell_length_a 21.009644
_cell_length_b 8.891146
_cell_length_c 17.995742
_cell_angle_alpha 90.000000
_cell_angle_beta 90.000000
_cell_angle_gamma 90.000000
_cell_volume 3361.601226
_symmetry_space_group_name_H-M "P N M A"
_symmetry_group_IT_number 62
_symmetry_cell_setting 'orthorhombic'
loop_
_space_group_symop_operation_xyz
x,y,z
1/2-x,-y,1/2+z
1/2+x,1/2-y,1/2-z
-x,1/2+y,-z
-x,-y,-z
1/2+x,y,1/2-z
1/2-x,1/2+y,1/2+z
x,1/2-y,z
loop_
_atom_site_type_symbol
_atom_site_label
_atom_site_fract_x
_atom_site_fract_y
_atom_site_fract_z
Si Si1 0.246149 0.427334 0.082620
Si Si2 0.874315 0.073531 0.846233
Si Si3 0.814669 0.918406 0.289147
Si Si4 0.994288 0.926962 0.079827
Si Si5 0.254124 0.578044 0.927922
Si Si6 0.684846 0.916404 0.198859
Si Si7 0.123470 0.576347 0.840960
O O1 0.248405 0.250000 0.092614
O O2 0.176108 0.484424 0.103956
O O3 0.301672 0.499048 0.133032
O O4 0.260546 0.470789 0.998222
O O5 0.860030 0.250000 0.857863
O O6 0.868526 0.031015 0.758535
O O7 0.944412 0.027863 0.871812
O O8 0.840559 0.750000 0.304166
O O9 0.749899 0.911359 0.243989
O O10 0.866295 0.011022 0.241654
O O11 0.988860 0.750000 0.069430
O O12 0.932623 0.985581 0.121204
O O13 0.000000 0.000000 0.000000
O O14 0.264719 0.750000 0.951679
O O15 0.309400 0.532141 0.869327
O O16 0.185515 0.553927 0.891347
O O17 0.669155 0.750000 0.167520
O O18 0.104632 0.750000 0.834365
#
# Coordination Sequence:
#
# PCOD8250826 Si02
#       7
#     8   8   8   8   8   8   8
#     4  11  20  29  46  71  96 122 154 192 234 278
#     4   9  19  34  48  64  92 127 160 194 232 276
#     4   9  17  31  49  67  91 122 154 190 234 281
#     4  11  22  34  48  68  95 129 165 198 233 273
#     4  10  19  30  45  67  95 123 151 188 234 279
#     4   8  15  29  47  65  86 115 151 190 231 274
#     4  10  20  33  48  68  95 126 161 198 233 275
#
# _framework density 16.658729000000001
#
# number of rings (size 3 to 8) (size 9 to 14) (size 15 to 20)
#    0.000    2.286    0.000    4.714    0.000    9.714 
#    0.000    0.000    0.000    0.000    0.000    1.000 
#    0.000    0.000    0.000    0.000    0.000    0.000 
#
# Total GULP energy -694381.226827 kJ/mol
# GULP energy per Si atom -12399.664765 kJ/mol
# Density = 1.662081 g / cm^3
# Si number density = 16.658729 Si / 1000 Ang^3
#
#
#
# Elastic Constant Matrix: (Units=GPa)
#
#
# Indices 1 2 3 4 5 6 
#
# 1 64.5711 32.8256 43.0353 0.0000 0.0000 0.0000
# 2 32.8256 89.4964 49.7681 0.0000 0.0000 0.0000
# 3 43.0353 49.7681 96.4739 0.0000 0.0000 0.0000
# 4 0.0000 0.0000 0.0000 32.8110 0.0000 0.0000
# 5 0.0000 0.0000 0.0000 0.0000 24.4356 0.0000
# 6 0.0000 0.0000 0.0000 0.0000 0.0000 21.2842
#
#
#
# Elastic Compliance Matrix: (Units=1/GPa)
#
#
# Indices 1 2 3 4 5 6 
#
# 1 0.022933 -0.003818 -0.008261 0.000000 0.000000 0.000000
# 2 -0.003818 0.016304 -0.006708 0.000000 0.000000 0.000000
# 3 -0.008261 -0.006708 0.017511 0.000000 0.000000 0.000000
# 4 0.000000 0.000000 0.000000 0.030478 0.000000 0.000000
# 5 0.000000 0.000000 0.000000 0.000000 0.040924 0.000000
# 6 0.000000 0.000000 0.000000 0.000000 0.000000 0.046983
#
#
# Mechanical properties :
#
#
# Convention : Reuss Voigt Hill
#
# Bulk Modulus (GPa) = 52.14939 55.75547 53.95243
# Shear Modulus (GPa) = 22.82099 24.03367 23.42733
#
# Velocity S-wave (km/s) = 3.70525 3.80242 3.75415
# Velocity P-wave (km/s) = 7.04824 7.26772 7.15882
#
# Compressibility (1/GPa) = 0.01917568
#
# Stress axis : x y z
#
# Youngs Moduli (GPa) = 43.60502 61.33452 57.10791
#
# Poissons Ratio (x) = 0.23416 0.47174
# Poissons Ratio (y) = 0.16648 0.38306
# Poissons Ratio (z) = 0.36020 0.41141
#
# Static dielectric constant tensor:
#      x y z
#    x 2.971080 0.000000 0.000000 
#    y 0.000000 3.278380 0.000000 
#    z 0.000000 0.000000 3.163670 
# 
# 
# High freq. dielectric constant tensor:
#      x y z
#    x 1.601520 0.000000 0.000000 
#    y 0.000000 1.655890 0.000000 
#    z 0.000000 0.000000 1.643950 
# 
# From -- ./inp_files/20351.got.cif
#   From: 2010.03.12/outbox.cif.g09.slc.cpg/sg62_11_cif.got.tgz:20351.got - 2010.04.10 19:12:36.
