data_PCOD8250450
_publ_section_title
;
Structure prediction by ZEFSAII (Michael W. Deem and Ramdas Pophale) SiO2 
 PCOD8250450
Probable space group: P N M A
;
_chemical_formula_sum "Si O2"
_cell_formula_units_Z 64
_cell_length_a 18.280897
_cell_length_b 13.738588
_cell_length_c 15.352800
_cell_angle_alpha 90.000000
_cell_angle_beta 90.000000
_cell_angle_gamma 90.000000
_cell_volume 3855.912712
_symmetry_space_group_name_H-M "P N M A"
_symmetry_group_IT_number 62
_symmetry_cell_setting 'orthorhombic'
loop_
_space_group_symop_operation_xyz
x,y,z
1/2-x,-y,1/2+z
1/2+x,1/2-y,1/2-z
-x,1/2+y,-z
-x,-y,-z
1/2+x,y,1/2-z
1/2-x,1/2+y,1/2+z
x,1/2-y,z
loop_
_atom_site_type_symbol
_atom_site_label
_atom_site_fract_x
_atom_site_fract_y
_atom_site_fract_z
Si Si1 0.992655 0.516827 0.638844
Si Si2 0.415281 0.484439 0.308448
Si Si3 0.533539 0.360556 0.397020
Si Si4 0.124184 0.139746 0.271875
Si Si5 0.936549 0.137143 0.508845
Si Si6 0.225251 0.637577 0.534758
Si Si7 0.631736 0.136320 0.558787
Si Si8 0.786908 0.363409 0.271675
O O1 0.915781 0.567066 0.662105
O O2 0.977720 0.418043 0.586447
O O3 0.037340 0.487586 0.724319
O O4 0.039819 0.593756 0.583936
O O5 0.464282 0.428468 0.379286
O O6 0.385823 0.583315 0.350843
O O7 0.347790 0.416939 0.283899
O O8 0.505435 0.250000 0.392483
O O9 0.597476 0.377895 0.326662
O O10 0.566369 0.384226 0.491302
O O11 0.106155 0.250000 0.300754
O O12 0.210259 0.119722 0.277021
O O13 0.958910 0.250000 0.512806
O O14 0.849445 0.123552 0.519157
O O15 0.244903 0.750000 0.549961
O O16 0.292479 0.592325 0.480280
O O17 0.217503 0.590903 0.630980
O O18 0.639575 0.250000 0.580276
O O19 0.808247 0.250000 0.276432
#
# Coordination Sequence:
#
# PCOD8250450 Si02
#       8
#     8   8   8   8   8   8   8   8
#     4  10  21  33  50  77 101 129 170 204 259 303
#     4  11  21  31  50  79 104 130 167 215 251 294
#     4   9  17  32  51  73 101 132 167 206 251 298
#     4   9  17  30  50  74 103 130 160 206 255 299
#     4  10  20  35  53  71 100 133 167 210 252 302
#     4   9  17  32  52  72  93 125 167 204 245 290
#     4  10  20  34  51  72 103 142 174 202 240 299
#     4  10  18  31  51  75 100 127 161 209 259 294
#
# _framework density 16.597885999999999
#
# number of rings (size 3 to 8) (size 9 to 14) (size 15 to 20)
#    0.000    2.250    2.500    1.125    1.750    1.500 
#    0.000    0.000    0.000    0.000    0.000    1.750 
#    0.000    0.000    0.000    0.000    0.000    0.000 
#
# Total GULP energy -793651.379252 kJ/mol
# GULP energy per Si atom -12400.802801 kJ/mol
# Density = 1.656011 g / cm^3
# Si number density = 16.597886 Si / 1000 Ang^3
#
#
#
# Elastic Constant Matrix: (Units=GPa)
#
#
# Indices 1 2 3 4 5 6 
#
# 1 100.7941 46.7743 43.9844 0.0000 0.0000 0.0000
# 2 46.7743 80.3899 49.4734 0.0000 0.0000 0.0000
# 3 43.9844 49.4734 85.6983 0.0000 0.0000 0.0000
# 4 0.0000 0.0000 0.0000 22.1184 0.0000 0.0000
# 5 0.0000 0.0000 0.0000 0.0000 20.4868 0.0000
# 6 0.0000 0.0000 0.0000 0.0000 0.0000 22.6223
#
#
#
# Elastic Compliance Matrix: (Units=1/GPa)
#
#
# Indices 1 2 3 4 5 6 
#
# 1 0.014410 -0.005945 -0.003964 0.000000 0.000000 0.000000
# 2 -0.005945 0.021747 -0.009503 0.000000 0.000000 0.000000
# 3 -0.003964 -0.009503 0.019189 0.000000 0.000000 0.000000
# 4 0.000000 0.000000 0.000000 0.045211 0.000000 0.000000
# 5 0.000000 0.000000 0.000000 0.000000 0.048812 0.000000
# 6 0.000000 0.000000 0.000000 0.000000 0.000000 0.044204
#
#
# Mechanical properties :
#
#
# Convention : Reuss Voigt Hill
#
# Bulk Modulus (GPa) = 60.52440 60.81629 60.67035
# Shear Modulus (GPa) = 21.01686 21.48883 21.25285
#
# Velocity S-wave (km/s) = 3.56228 3.60206 3.58223
# Velocity P-wave (km/s) = 7.31191 7.34985 7.33091
#
# Compressibility (1/GPa) = 0.01652226
#
# Stress axis : x y z
#
# Youngs Moduli (GPa) = 69.39791 45.98394 52.11196
#
# Poissons Ratio (x) = 0.27336 0.20656
# Poissons Ratio (y) = 0.41255 0.49523
# Poissons Ratio (z) = 0.27508 0.43699
#
# Static dielectric constant tensor:
#      x y z
#    x 3.182820 0.000000 0.000000 
#    y 0.000000 2.872150 0.000000 
#    z 0.000000 0.000000 2.998740 
# 
# 
# High freq. dielectric constant tensor:
#      x y z
#    x 1.650920 0.000000 0.000000 
#    y 0.000000 1.615620 0.000000 
#    z 0.000000 0.000000 1.631170 
# 
# From -- ./inp_files/19890.got.cif
#   From: 2010.03.12/outbox.cif.g09.slc.cpg/sg62_10_cif.got.tgz:19890.got - 2010.04.10 19:12:36.
