data_PCOD8250205
_publ_section_title
;
Structure prediction by ZEFSAII (Michael W. Deem and Ramdas Pophale) SiO2 
 PCOD8250205
Probable space group: P N M A
;
_chemical_formula_sum "Si O2"
_cell_formula_units_Z 64
_cell_length_a 21.279956
_cell_length_b 20.543921
_cell_length_c 8.692792
_cell_angle_alpha 90.000000
_cell_angle_beta 90.000000
_cell_angle_gamma 90.000000
_cell_volume 3800.260346
_symmetry_space_group_name_H-M "P N M A"
_symmetry_group_IT_number 62
_symmetry_cell_setting 'orthorhombic'
loop_
_space_group_symop_operation_xyz
x,y,z
1/2-x,-y,1/2+z
1/2+x,1/2-y,1/2-z
-x,1/2+y,-z
-x,-y,-z
1/2+x,y,1/2-z
1/2-x,1/2+y,1/2+z
x,1/2-y,z
loop_
_atom_site_type_symbol
_atom_site_label
_atom_site_fract_x
_atom_site_fract_y
_atom_site_fract_z
Si Si1 0.562936 0.417769 0.048754
Si Si2 0.401616 0.070299 0.340127
Si Si3 0.651247 0.824306 0.067306
Si Si4 0.812285 0.530628 0.648922
Si Si5 0.209241 0.935667 0.614563
Si Si6 0.035451 0.823619 0.654685
Si Si7 0.119053 0.916706 0.174410
Si Si8 0.006960 0.471294 0.738806
O O1 0.637351 0.417012 0.085525
O O2 0.532408 0.349688 0.101114
O O3 0.529077 0.476665 0.134903
O O4 0.552007 0.426801 0.866840
O O5 0.356065 0.050257 0.200592
O O6 0.439245 0.135827 0.299389
O O7 0.362353 0.084974 0.494819
O O8 0.449546 0.009581 0.362122
O O9 0.675307 0.750000 0.074180
O O10 0.641922 0.851212 0.240521
O O11 0.703396 0.866776 0.975393
O O12 0.583776 0.830032 0.986524
O O13 0.763971 0.568599 0.758697
O O14 0.778087 0.494498 0.505631
O O15 0.848124 0.477347 0.747540
O O16 0.027571 0.750000 0.710458
O O17 0.043296 0.924571 0.178481
#
# Coordination Sequence:
#
# PCOD8250205 Si02
#       8
#     8   8   8   8   8   8   8   8
#     4   9  15  28  48  67  93 125 156 195 245 297
#     4  10  18  28  45  72 102 126 155 201 251 295
#     4   9  18  32  49  68  95 132 166 200 243 292
#     4  10  19  31  48  70  97 125 161 206 252 296
#     4  10  19  32  48  70  98 126 164 206 250 296
#     4   9  17  30  48  68  93 126 162 196 234 287
#     4  10  18  28  47  73  99 126 160 199 250 307
#     4   9  15  27  45  70  97 123 151 194 250 305
#
# _framework density 16.840952000000001
#
# number of rings (size 3 to 8) (size 9 to 14) (size 15 to 20)
#    0.000    2.500    2.500    1.125    0.000    0.500 
#    0.000    0.625    0.000    0.000    0.000    3.500 
#    0.000    0.000    0.000    0.000    0.000    0.000 
#
# Total GULP energy -793355.220319 kJ/mol
# GULP energy per Si atom -12396.175317 kJ/mol
# Density = 1.680262 g / cm^3
# Si number density = 16.840952 Si / 1000 Ang^3
#
#
#
# Elastic Constant Matrix: (Units=GPa)
#
#
# Indices 1 2 3 4 5 6 
#
# 1 68.5489 32.3374 18.6058 0.0000 0.0000 0.0000
# 2 32.3374 71.2593 27.8955 0.0000 0.0000 0.0000
# 3 18.6058 27.8955 84.7457 0.0000 0.0000 0.0000
# 4 0.0000 0.0000 0.0000 15.5776 0.0000 0.0000
# 5 0.0000 0.0000 0.0000 0.0000 28.2138 0.0000
# 6 0.0000 0.0000 0.0000 0.0000 0.0000 14.1012
#
#
#
# Elastic Compliance Matrix: (Units=1/GPa)
#
#
# Indices 1 2 3 4 5 6 
#
# 1 0.018728 -0.007908 -0.001509 0.000000 0.000000 0.000000
# 2 -0.007908 0.019448 -0.004666 0.000000 0.000000 0.000000
# 3 -0.001509 -0.004666 0.013667 0.000000 0.000000 0.000000
# 4 0.000000 0.000000 0.000000 0.064195 0.000000 0.000000
# 5 0.000000 0.000000 0.000000 0.000000 0.035444 0.000000
# 6 0.000000 0.000000 0.000000 0.000000 0.000000 0.070916
#
#
# Mechanical properties :
#
#
# Convention : Reuss Voigt Hill
#
# Bulk Modulus (GPa) = 42.23190 42.47014 42.35102
# Shear Modulus (GPa) = 19.34568 21.29287 20.31928
#
# Velocity S-wave (km/s) = 3.39297 3.55963 3.47730
# Velocity P-wave (km/s) = 6.36247 6.49367 6.42840
#
# Compressibility (1/GPa) = 0.02367878
#
# Stress axis : x y z
#
# Youngs Moduli (GPa) = 53.39524 51.41809 73.16920
#
# Poissons Ratio (x) = 0.40663 0.11038
# Poissons Ratio (y) = 0.42227 0.34137
# Poissons Ratio (z) = 0.08055 0.23989
#
# Static dielectric constant tensor:
#      x y z
#    x 3.104950 0.000000 0.000000 
#    y 0.000000 2.972390 0.000000 
#    z 0.000000 0.000000 3.157650 
# 
# 
# High freq. dielectric constant tensor:
#      x y z
#    x 1.632340 0.000000 0.000000 
#    y 0.000000 1.619030 0.000000 
#    z 0.000000 0.000000 1.649650 
# 
# From -- ./inp_files/8972.got.cif
#   From: 2010.03.12/outbox.cif.g09.slc.cpg/sg62_5_cif.got.tgz:8972.got - 2010.04.10 19:12:36.
