data_PCOD8250136
_publ_section_title
;
Structure prediction by ZEFSAII (Michael W. Deem and Ramdas Pophale) SiO2 
 PCOD8250136
Probable space group: P N M A
;
_chemical_formula_sum "Si O2"
_cell_formula_units_Z 64
_cell_length_a 25.967014
_cell_length_b 9.337054
_cell_length_c 18.309626
_cell_angle_alpha 90.000000
_cell_angle_beta 90.000000
_cell_angle_gamma 90.000000
_cell_volume 4439.267914
_symmetry_space_group_name_H-M "P N M A"
_symmetry_group_IT_number 62
_symmetry_cell_setting 'orthorhombic'
loop_
_space_group_symop_operation_xyz
x,y,z
1/2-x,-y,1/2+z
1/2+x,1/2-y,1/2-z
-x,1/2+y,-z
-x,-y,-z
1/2+x,y,1/2-z
1/2-x,1/2+y,1/2+z
x,1/2-y,z
loop_
_atom_site_type_symbol
_atom_site_label
_atom_site_fract_x
_atom_site_fract_y
_atom_site_fract_z
Si Si1 0.805469 0.592196 0.296354
Si Si2 0.154805 0.417217 0.162223
Si Si3 0.760750 0.418232 0.925858
Si Si4 0.558259 0.917620 0.574882
Si Si5 0.941949 0.586398 0.931775
Si Si6 0.250075 0.915947 0.906678
Si Si7 0.801425 0.411848 0.711302
Si Si8 0.146628 0.915720 0.821264
O O1 0.829917 0.750000 0.295619
O O2 0.790967 0.545610 0.379069
O O3 0.752282 0.589288 0.252864
O O4 0.846673 0.489492 0.257746
O O5 0.169185 0.250000 0.171715
O O6 0.191907 0.486544 0.101721
O O7 0.096260 0.437721 0.135692
O O8 0.158494 0.497571 0.239915
O O9 0.775161 0.250000 0.916803
O O10 0.749043 0.459213 0.008819
O O11 0.567447 0.750000 0.563248
O O12 0.499361 0.956092 0.594746
O O13 0.594620 0.973256 0.640443
O O14 0.575607 0.991325 0.499909
O O15 0.941064 0.750000 0.958658
O O16 0.263871 0.750000 0.895000
O O17 0.193732 0.950977 0.875182
O O18 0.293581 0.010415 0.866501
O O19 0.821954 0.250000 0.699262
O O20 0.142619 0.750000 0.803644
#
# Coordination Sequence:
#
# PCOD8250136 Si02
#       8
#     8   8   8   8   8   8   8   8
#     4   8  15  26  38  53  75 101 127 157 189 223
#     4  10  18  27  40  57  78 105 135 165 196 229
#     4   9  17  28  41  58  80 106 133 160 193 233
#     4   9  17  29  42  56  77 104 133 164 196 229
#     4   9  18  29  40  57  79 102 131 166 198 227
#     4   9  16  26  40  58  79 102 130 160 190 228
#     4   9  17  28  40  55  76 102 131 161 194 231
#     4   9  16  25  39  56  74 101 132 159 188 223
#
# _framework density 14.416791
#
# number of rings (size 3 to 8) (size 9 to 14) (size 15 to 20)
#    0.000    3.000    0.000    2.250    0.000    6.000 
#    0.000    2.500    0.000    0.000    0.000    0.000 
#    0.000    1.000    0.000    2.000    0.000    2.750 
#
# Total GULP energy -793391.310242 kJ/mol
# GULP energy per Si atom -12396.739223 kJ/mol
# Density = 1.438398 g / cm^3
# Si number density = 14.416791 Si / 1000 Ang^3
#
#
#
# Elastic Constant Matrix: (Units=GPa)
#
#
# Indices 1 2 3 4 5 6 
#
# 1 59.2675 36.2918 42.1793 0.0000 0.0000 0.0000
# 2 36.2918 67.7644 46.0413 0.0000 0.0000 0.0000
# 3 42.1793 46.0413 100.0635 0.0000 0.0000 0.0000
# 4 0.0000 0.0000 0.0000 25.4807 0.0000 0.0000
# 5 0.0000 0.0000 0.0000 0.0000 23.3828 0.0000
# 6 0.0000 0.0000 0.0000 0.0000 0.0000 16.4213
#
#
#
# Elastic Compliance Matrix: (Units=1/GPa)
#
#
# Indices 1 2 3 4 5 6 
#
# 1 0.028274 -0.010249 -0.007203 0.000000 0.000000 0.000000
# 2 -0.010249 0.025184 -0.007267 0.000000 0.000000 0.000000
# 3 -0.007203 -0.007267 0.016374 0.000000 0.000000 0.000000
# 4 0.000000 0.000000 0.000000 0.039245 0.000000 0.000000
# 5 0.000000 0.000000 0.000000 0.000000 0.042767 0.000000
# 6 0.000000 0.000000 0.000000 0.000000 0.000000 0.060896
#
#
# Mechanical properties :
#
#
# Convention : Reuss Voigt Hill
#
# Bulk Modulus (GPa) = 49.03439 52.90225 50.96832
# Shear Modulus (GPa) = 18.58905 19.89582 19.24243
#
# Velocity S-wave (km/s) = 3.59472 3.71893 3.65735
# Velocity P-wave (km/s) = 7.16346 7.43069 7.29830
#
# Compressibility (1/GPa) = 0.02039385
#
# Stress axis : x y z
#
# Youngs Moduli (GPa) = 35.36771 39.70848 61.07392
#
# Poissons Ratio (x) = 0.40697 0.43989
# Poissons Ratio (y) = 0.36248 0.44384
# Poissons Ratio (z) = 0.25474 0.28857
#
# Static dielectric constant tensor:
#      x y z
#    x 2.668710 0.000000 0.000000 
#    y 0.000000 2.939630 0.000000 
#    z 0.000000 0.000000 2.889430 
# 
# 
# High freq. dielectric constant tensor:
#      x y z
#    x 1.514780 0.000000 0.000000 
#    y 0.000000 1.558850 0.000000 
#    z 0.000000 0.000000 1.540050 
# 
# From -- ./inp_files/24985.got.cif
#   From: 2010.03.12/outbox.cif.g09.slc.cpg/sg62_13_cif.got.tgz:24985.got - 2010.04.10 19:12:36.
