data_PCOD8250884
_publ_section_title
;
Structure prediction by ZEFSAII (Michael W. Deem and Ramdas Pophale) SiO2 
 PCOD8250884
Probable space group: P N M A
;
_chemical_formula_sum "Si O2"
_cell_formula_units_Z 56
_cell_length_a 9.351543
_cell_length_b 14.568807
_cell_length_c 22.566844
_cell_angle_alpha 90.000000
_cell_angle_beta 90.000000
_cell_angle_gamma 90.000000
_cell_volume 3074.525447
_symmetry_space_group_name_H-M "P N M A"
_symmetry_group_IT_number 62
_symmetry_cell_setting 'orthorhombic'
loop_
_space_group_symop_operation_xyz
x,y,z
1/2-x,-y,1/2+z
1/2+x,1/2-y,1/2-z
-x,1/2+y,-z
-x,-y,-z
1/2+x,y,1/2-z
1/2-x,1/2+y,1/2+z
x,1/2-y,z
loop_
_atom_site_type_symbol
_atom_site_label
_atom_site_fract_x
_atom_site_fract_y
_atom_site_fract_z
Si Si1 0.658023 0.352758 0.876684
Si Si2 0.774244 0.519642 0.143529
Si Si3 0.470559 0.357211 0.647102
Si Si4 0.435705 0.146723 0.782442
Si Si5 0.484237 0.995425 0.930461
Si Si6 0.938770 0.354674 0.330210
Si Si7 0.248883 0.355412 0.279324
O O1 0.653034 0.250000 0.900657
O O2 0.820327 0.388090 0.880867
O O3 0.595046 0.359568 0.810090
O O4 0.553515 0.407427 0.918032
O O5 0.674966 0.577507 0.187990
O O6 0.683384 0.492766 0.085466
O O7 0.827784 0.426619 0.176243
O O8 0.905911 0.579824 0.119438
O O9 0.503317 0.250000 0.635946
O O10 0.460994 0.381595 0.715695
O O11 0.372839 0.250000 0.788268
O O12 0.562903 0.917142 0.889964
O O13 0.500000 0.000000 0.000000
O O14 0.934909 0.250000 0.352787
O O15 0.078568 0.371644 0.288614
O O16 0.800796 0.375991 0.288326
O O17 0.290503 0.250000 0.295592
#
# Coordination Sequence:
#
# PCOD8250884 Si02
#       7
#     8   8   8   8   8   8   8
#     4   9  19  33  50  74 104 140 173 209 255 305
#     4  10  20  30  53  77 105 142 174 215 269 313
#     4  10  19  30  48  78 111 137 166 207 260 319
#     4   9  17  29  46  75 112 141 166 195 246 318
#     4  10  22  38  53  75 103 141 188 219 253 319
#     4   9  19  35  55  79 105 134 170 223 278 319
#     4   9  19  33  50  76 106 132 171 219 272 325
#
# _framework density 18.214193000000002
#
# number of rings (size 3 to 8) (size 9 to 14) (size 15 to 20)
#    0.000    2.571    0.000    1.286    8.000    3.429 
#    0.000    0.714    0.000    0.000    0.000    8.000 
#    0.000    0.000    0.000    0.000    0.000    0.000 
#
# Total GULP energy -693864.098073 kJ/mol
# GULP energy per Si atom -12390.430323 kJ/mol
# Density = 1.817274 g / cm^3
# Si number density = 18.214193 Si / 1000 Ang^3
#
#
#
# Elastic Constant Matrix: (Units=GPa)
#
#
# Indices 1 2 3 4 5 6 
#
# 1 65.6390 35.1132 19.3967 0.0000 0.0000 0.0000
# 2 35.1132 80.7874 32.9411 0.0000 0.0000 0.0000
# 3 19.3967 32.9411 92.6728 0.0000 0.0000 0.0000
# 4 0.0000 0.0000 0.0000 13.1736 0.0000 0.0000
# 5 0.0000 0.0000 0.0000 0.0000 10.6262 0.0000
# 6 0.0000 0.0000 0.0000 0.0000 0.0000 26.9124
#
#
#
# Elastic Compliance Matrix: (Units=1/GPa)
#
#
# Indices 1 2 3 4 5 6 
#
# 1 0.019979 -0.008162 -0.001281 0.000000 0.000000 0.000000
# 2 -0.008162 0.017810 -0.004623 0.000000 0.000000 0.000000
# 3 -0.001281 -0.004623 0.012702 0.000000 0.000000 0.000000
# 4 0.000000 0.000000 0.000000 0.075909 0.000000 0.000000
# 5 0.000000 0.000000 0.000000 0.000000 0.094107 0.000000
# 6 0.000000 0.000000 0.000000 0.000000 0.000000 0.037158
#
#
# Mechanical properties :
#
#
# Convention : Reuss Voigt Hill
#
# Bulk Modulus (GPa) = 44.71892 46.00014 45.35953
# Shear Modulus (GPa) = 17.05035 20.25231 18.65133
#
# Velocity S-wave (km/s) = 3.06290 3.33813 3.20347
# Velocity P-wave (km/s) = 6.09208 6.33778 6.21614
#
# Compressibility (1/GPa) = 0.02236190
#
# Stress axis : x y z
#
# Youngs Moduli (GPa) = 50.05183 56.14718 78.72898
#
# Poissons Ratio (x) = 0.45825 0.10082
# Poissons Ratio (y) = 0.40850 0.36393
# Poissons Ratio (z) = 0.06410 0.25954
#
# Static dielectric constant tensor:
#      x y z
#    x 3.502200 0.000000 0.000000 
#    y 0.000000 3.874680 0.000000 
#    z 0.000000 0.000000 2.930990 
# 
# 
# High freq. dielectric constant tensor:
#      x y z
#    x 1.703480 0.000000 0.000000 
#    y 0.000000 1.721950 0.000000 
#    z 0.000000 0.000000 1.656400 
# 
# From -- ./inp_files/25985.got.cif
#   From: 2010.03.12/outbox.cif.g09.slc.cpg/sg62_13_cif.got.tgz:25985.got - 2010.04.10 19:12:36.
