data_PCOD8250769
_publ_section_title
;
Structure prediction by ZEFSAII (Michael W. Deem and Ramdas Pophale) SiO2 
 PCOD8250769
Probable space group: P N M A
;
_chemical_formula_sum "Si O2"
_cell_formula_units_Z 56
_cell_length_a 18.229342
_cell_length_b 9.013058
_cell_length_c 20.966075
_cell_angle_alpha 90.000000
_cell_angle_beta 90.000000
_cell_angle_gamma 90.000000
_cell_volume 3444.770502
_symmetry_space_group_name_H-M "P N M A"
_symmetry_group_IT_number 62
_symmetry_cell_setting 'orthorhombic'
loop_
_space_group_symop_operation_xyz
x,y,z
1/2-x,-y,1/2+z
1/2+x,1/2-y,1/2-z
-x,1/2+y,-z
-x,-y,-z
1/2+x,y,1/2-z
1/2-x,1/2+y,1/2+z
x,1/2-y,z
loop_
_atom_site_type_symbol
_atom_site_label
_atom_site_fract_x
_atom_site_fract_y
_atom_site_fract_z
Si Si1 0.215131 0.581825 0.802766
Si Si2 0.920007 0.077271 0.745047
Si Si3 0.777952 0.078678 0.812907
Si Si4 0.345944 0.078710 0.123634
Si Si5 0.352294 0.580407 0.875693
Si Si6 0.933259 0.083558 0.245660
Si Si7 0.578495 0.073800 0.994030
O O1 0.227958 0.750000 0.774614
O O2 0.242426 0.455273 0.755353
O O3 0.263625 0.562859 0.866980
O O4 0.127264 0.561048 0.811217
O O5 0.920170 0.250000 0.730721
O O6 0.864399 0.040426 0.803740
O O7 0.897798 0.001044 0.679035
O O8 0.000558 0.027839 0.766725
O O9 0.765603 0.250000 0.830621
O O10 0.737911 0.978033 0.866141
O O11 0.344273 0.250000 0.103438
O O12 0.392958 0.051928 0.187369
O O13 0.381811 0.981972 0.068837
O O14 0.376867 0.750000 0.869981
O O15 0.373388 0.520655 0.945318
O O16 0.964968 0.250000 0.244708
O O17 0.569849 0.250000 0.990691
O O18 0.500000 0.000000 0.000000
#
# Coordination Sequence:
#
# PCOD8250769 Si02
#       7
#     8   8   8   8   8   8   8
#     4   8  15  29  46  63  84 113 148 183 218 262
#     4  10  19  28  43  68  94 117 143 179 223 264
#     4   9  17  29  44  64  88 114 145 181 221 264
#     4  10  20  33  47  64  88 121 156 187 220 262
#     4   9  18  32  47  62  86 120 154 183 216 259
#     4   9  17  28  44  65  88 114 144 178 219 263
#     4  11  22  33  46  66  92 123 155 187 220 258
#
# _framework density 16.256526000000001
#
# number of rings (size 3 to 8) (size 9 to 14) (size 15 to 20)
#    0.000    2.571    0.000    3.429    0.000    9.143 
#    0.000    0.000    0.000    0.000    0.000    1.000 
#    0.000    0.000    0.000    0.000    0.000    0.000 
#
# Total GULP energy -693955.842563 kJ/mol
# GULP energy per Si atom -12392.068617 kJ/mol
# Density = 1.621953 g / cm^3
# Si number density = 16.256526 Si / 1000 Ang^3
#
#
#
# Elastic Constant Matrix: (Units=GPa)
#
#
# Indices 1 2 3 4 5 6 
#
# 1 121.6518 45.5757 48.8680 0.0000 0.0000 0.0000
# 2 45.5757 62.0301 29.4514 0.0000 0.0000 0.0000
# 3 48.8680 29.4514 61.9150 0.0000 0.0000 0.0000
# 4 0.0000 0.0000 0.0000 20.0274 0.0000 0.0000
# 5 0.0000 0.0000 0.0000 0.0000 25.3467 0.0000
# 6 0.0000 0.0000 0.0000 0.0000 0.0000 27.3274
#
#
#
# Elastic Compliance Matrix: (Units=1/GPa)
#
#
# Indices 1 2 3 4 5 6 
#
# 1 0.013756 -0.006397 -0.007814 0.000000 0.000000 0.000000
# 2 -0.006397 0.023799 -0.006272 0.000000 0.000000 0.000000
# 3 -0.007814 -0.006272 0.025302 0.000000 0.000000 0.000000
# 4 0.000000 0.000000 0.000000 0.049932 0.000000 0.000000
# 5 0.000000 0.000000 0.000000 0.000000 0.039453 0.000000
# 6 0.000000 0.000000 0.000000 0.000000 0.000000 0.036593
#
#
# Mechanical properties :
#
#
# Convention : Reuss Voigt Hill
#
# Bulk Modulus (GPa) = 45.68043 54.82076 50.25059
# Shear Modulus (GPa) = 21.08844 22.65376 21.87110
#
# Velocity S-wave (km/s) = 3.60561 3.73704 3.67191
# Velocity P-wave (km/s) = 6.74497 7.23990 6.99681
#
# Compressibility (1/GPa) = 0.02189121
#
# Stress axis : x y z
#
# Youngs Moduli (GPa) = 72.69755 42.01894 39.52234
#
# Poissons Ratio (x) = 0.26878 0.30884
# Poissons Ratio (y) = 0.46502 0.24788
# Poissons Ratio (z) = 0.56808 0.26353
#
# Static dielectric constant tensor:
#      x y z
#    x 3.351670 0.000000 0.000000 
#    y 0.000000 3.596140 0.000000 
#    z 0.000000 0.000000 2.898190 
# 
# 
# High freq. dielectric constant tensor:
#      x y z
#    x 1.631100 0.000000 0.000000 
#    y 0.000000 1.636540 0.000000 
#    z 0.000000 0.000000 1.579780 
# 
# From -- ./inp_files/27531.got.cif
#   From: 2010.03.12/outbox.cif.g09.slc.cpg/sg62_14_cif.got.tgz:27531.got - 2010.04.10 19:12:36.
