data_PCOD8250796
_publ_section_title
;
Structure prediction by ZEFSAII (Michael W. Deem and Ramdas Pophale) SiO2 
 PCOD8250796
Probable space group: P N M A
;
_chemical_formula_sum "Si O2"
_cell_formula_units_Z 56
_cell_length_a 19.109543
_cell_length_b 9.354112
_cell_length_c 17.238457
_cell_angle_alpha 90.000000
_cell_angle_beta 90.000000
_cell_angle_gamma 90.000000
_cell_volume 3081.422551
_symmetry_space_group_name_H-M "P N M A"
_symmetry_group_IT_number 62
_symmetry_cell_setting 'orthorhombic'
loop_
_space_group_symop_operation_xyz
x,y,z
1/2-x,-y,1/2+z
1/2+x,1/2-y,1/2-z
-x,1/2+y,-z
-x,-y,-z
1/2+x,y,1/2-z
1/2-x,1/2+y,1/2+z
x,1/2-y,z
loop_
_atom_site_type_symbol
_atom_site_label
_atom_site_fract_x
_atom_site_fract_y
_atom_site_fract_z
Si Si1 0.354096 0.587469 0.654312
Si Si2 0.790071 0.413836 0.062978
Si Si3 0.428240 0.420649 0.519963
Si Si4 0.826107 0.583821 0.672553
Si Si5 0.058933 0.907635 0.406057
Si Si6 0.715636 0.588869 0.935444
Si Si7 0.434907 0.092441 0.088538
O O1 0.384095 0.750000 0.648106
O O2 0.400952 0.480923 0.602589
O O3 0.348652 0.530909 0.742216
O O4 0.273859 0.585892 0.629840
O O5 0.785619 0.250000 0.038331
O O6 0.757235 0.438519 0.149688
O O7 0.871164 0.460705 0.047960
O O8 0.737482 0.495318 0.007566
O O9 0.500000 0.500000 0.500000
O O10 0.440413 0.250000 0.526184
O O11 0.844662 0.750000 0.663695
O O12 0.871300 0.494719 0.612005
O O13 0.062697 0.750000 0.368523
O O14 0.050601 0.896753 0.497517
O O15 0.990795 0.987909 0.370826
O O16 0.702160 0.750000 0.966472
O O17 0.643466 0.531675 0.897579
O O18 0.443325 0.250000 0.126325
#
# Coordination Sequence:
#
# PCOD8250796 Si02
#       7
#     8   8   8   8   8   8   8
#     4   9  19  34  54  77 102 133 169 213 265 315
#     4   9  18  31  51  76 101 131 169 213 260 308
#     4  10  20  36  57  81 107 138 179 225 267 314
#     4  10  19  33  51  74 103 134 168 210 262 318
#     4  10  19  29  45  70 100 134 168 204 246 297
#     4   9  16  30  50  72  97 126 167 210 249 299
#     4   9  17  29  45  69  98 129 166 207 248 294
#
# _framework density 18.173425000000002
#
# number of rings (size 3 to 8) (size 9 to 14) (size 15 to 20)
#    0.000    2.571    1.429    0.857    0.000    2.286 
#    0.000    1.429    0.000    5.143    0.000    0.000 
#    0.000    0.000    0.000    0.000    0.000    0.000 
#
# Total GULP energy -693793.122284 kJ/mol
# GULP energy per Si atom -12389.162898 kJ/mol
# Density = 1.813206 g / cm^3
# Si number density = 18.173425 Si / 1000 Ang^3
#
#
#
# Elastic Constant Matrix: (Units=GPa)
#
#
# Indices 1 2 3 4 5 6 
#
# 1 138.7757 57.4413 33.5906 0.0000 0.0000 0.0000
# 2 57.4413 78.8248 30.1637 0.0000 0.0000 0.0000
# 3 33.5906 30.1637 55.7927 0.0000 0.0000 0.0000
# 4 0.0000 0.0000 0.0000 16.4879 0.0000 0.0000
# 5 0.0000 0.0000 0.0000 0.0000 14.8149 0.0000
# 6 0.0000 0.0000 0.0000 0.0000 0.0000 25.6800
#
#
#
# Elastic Compliance Matrix: (Units=1/GPa)
#
#
# Indices 1 2 3 4 5 6 
#
# 1 0.010653 -0.006693 -0.002795 0.000000 0.000000 0.000000
# 2 -0.006693 0.020201 -0.006892 0.000000 0.000000 0.000000
# 3 -0.002795 -0.006892 0.023332 0.000000 0.000000 0.000000
# 4 0.000000 0.000000 0.000000 0.060650 0.000000 0.000000
# 5 0.000000 0.000000 0.000000 0.000000 0.067500 0.000000
# 6 0.000000 0.000000 0.000000 0.000000 0.000000 0.038941
#
#
# Mechanical properties :
#
#
# Convention : Reuss Voigt Hill
#
# Bulk Modulus (GPa) = 46.67216 57.30937 51.99077
# Shear Modulus (GPa) = 19.14392 21.54307 20.34350
#
# Velocity S-wave (km/s) = 3.24914 3.44672 3.34939
# Velocity P-wave (km/s) = 6.30977 6.88789 6.60516
#
# Compressibility (1/GPa) = 0.02142605
#
# Stress axis : x y z
#
# Youngs Moduli (GPa) = 93.87106 49.50186 42.85933
#
# Poissons Ratio (x) = 0.33134 0.11979
# Poissons Ratio (y) = 0.62832 0.29537
# Poissons Ratio (z) = 0.26236 0.34115
#
# Static dielectric constant tensor:
#      x y z
#    x 3.574200 0.000000 0.000000 
#    y 0.000000 3.564750 0.000000 
#    z 0.000000 0.000000 3.114890 
# 
# 
# High freq. dielectric constant tensor:
#      x y z
#    x 1.712710 0.000000 0.000000 
#    y 0.000000 1.706860 0.000000 
#    z 0.000000 0.000000 1.662380 
# 
# From -- ./inp_files/24557.got.cif
#   From: 2010.03.12/outbox.cif.g09.slc.cpg/sg62_13_cif.got.tgz:24557.got - 2010.04.10 19:12:36.
