data_PCOD8250454
_publ_section_title
;
Structure prediction by ZEFSAII (Michael W. Deem and Ramdas Pophale) SiO2 
 PCOD8250454
Probable space group: P N M A
;
_chemical_formula_sum "Si O2"
_cell_formula_units_Z 64
_cell_length_a 20.084029
_cell_length_b 8.891247
_cell_length_c 18.959276
_cell_angle_alpha 90.000000
_cell_angle_beta 90.000000
_cell_angle_gamma 90.000000
_cell_volume 3385.597021
_symmetry_space_group_name_H-M "P N M A"
_symmetry_group_IT_number 62
_symmetry_cell_setting 'orthorhombic'
loop_
_space_group_symop_operation_xyz
x,y,z
1/2-x,-y,1/2+z
1/2+x,1/2-y,1/2-z
-x,1/2+y,-z
-x,-y,-z
1/2+x,y,1/2-z
1/2-x,1/2+y,1/2+z
x,1/2-y,z
loop_
_atom_site_type_symbol
_atom_site_label
_atom_site_fract_x
_atom_site_fract_y
_atom_site_fract_z
Si Si1 0.948803 0.571451 0.945998
Si Si2 0.907758 0.072562 0.308085
Si Si3 0.347802 0.071628 0.789287
Si Si4 0.028151 0.072533 0.213947
Si Si5 0.700240 0.072100 0.460605
Si Si6 0.316020 0.071485 0.944587
Si Si7 0.938247 0.428313 0.461912
Si Si8 0.258083 0.071766 0.189280
O O1 0.952632 0.750000 0.952644
O O2 0.967330 0.519114 0.866876
O O3 0.874966 0.508205 0.963913
O O4 0.000000 0.500000 0.000000
O O5 0.904262 0.250000 0.315337
O O6 0.936001 0.009517 0.381976
O O7 0.832956 0.014921 0.294958
O O8 0.955917 0.023634 0.244024
O O9 0.353352 0.250000 0.788774
O O10 0.332872 0.007406 0.867488
O O11 0.416618 0.005422 0.761606
O O12 0.287137 0.019035 0.742319
O O13 0.039806 0.250000 0.219736
O O14 0.695620 0.250000 0.462078
O O15 0.744137 0.012321 0.526782
O O16 0.737035 0.022896 0.389089
O O17 0.314288 0.250000 0.942052
O O18 0.371713 0.016331 0.999176
O O19 0.945076 0.250000 0.464866
O O20 0.000000 0.500000 0.500000
O O21 0.249007 0.250000 0.200539
#
# Coordination Sequence:
#
# PCOD8250454 Si02
#       8
#     8   8   8   8   8   8   8   8
#     4  10  21  36  57  81 106 141 182 225 272 325
#     4   9  18  32  57  84 105 137 184 229 267 316
#     4  11  22  34  52  82 113 144 179 226 279 325
#     4  10  20  37  57  81 112 147 187 226 269 331
#     4   9  16  33  58  77  99 142 190 220 258 326
#     4   9  18  32  52  77 106 139 181 219 258 323
#     4  10  18  31  51  76 106 141 177 214 258 314
#     4  10  18  35  60  80 102 143 190 228 269 327
#
# _framework density 18.903607999999998
#
# number of rings (size 3 to 8) (size 9 to 14) (size 15 to 20)
#    0.000    2.250    2.500    1.125    0.000    1.500 
#    0.000    1.875    0.000    3.000    0.000    0.000 
#    0.000    0.000    0.000    0.000    0.000    0.000 
#
# Total GULP energy -793455.468333 kJ/mol
# GULP energy per Si atom -12397.741693 kJ/mol
# Density = 1.886058 g / cm^3
# Si number density = 18.903608 Si / 1000 Ang^3
#
#
#
# Elastic Constant Matrix: (Units=GPa)
#
#
# Indices 1 2 3 4 5 6 
#
# 1 172.7300 24.4036 70.2373 0.0000 0.0000 0.0000
# 2 24.4036 20.7256 24.1412 0.0000 0.0000 0.0000
# 3 70.2373 24.1412 126.9483 0.0000 0.0000 0.0000
# 4 0.0000 0.0000 0.0000 19.4852 0.0000 0.0000
# 5 0.0000 0.0000 0.0000 0.0000 42.8005 0.0000
# 6 0.0000 0.0000 0.0000 0.0000 0.0000 24.6559
#
#
#
# Elastic Compliance Matrix: (Units=1/GPa)
#
#
# Indices 1 2 3 4 5 6 
#
# 1 0.007917 -0.005421 -0.003350 0.000000 0.000000 0.000000
# 2 -0.005421 0.065689 -0.009493 0.000000 0.000000 0.000000
# 3 -0.003350 -0.009493 0.011536 0.000000 0.000000 0.000000
# 4 0.000000 0.000000 0.000000 0.051321 0.000000 0.000000
# 5 0.000000 0.000000 0.000000 0.000000 0.023364 0.000000
# 6 0.000000 0.000000 0.000000 0.000000 0.000000 0.040558
#
#
# Mechanical properties :
#
#
# Convention : Reuss Voigt Hill
#
# Bulk Modulus (GPa) = 20.56924 61.99645 41.28285
# Shear Modulus (GPa) = 19.75369 30.82977 25.29173
#
# Velocity S-wave (km/s) = 3.23611 4.04281 3.66174
# Velocity P-wave (km/s) = 4.98677 7.39322 6.30586
#
# Compressibility (1/GPa) = 0.04861628
#
# Stress axis : x y z
#
# Youngs Moduli (GPa) = 126.30607 15.22317 86.68765
#
# Poissons Ratio (x) = 0.08252 0.29037
# Poissons Ratio (y) = 0.68466 0.82290
# Poissons Ratio (z) = 0.42308 0.14451
#
# Static dielectric constant tensor:
#      x y z
#    x 3.967010 0.000000 0.000000 
#    y 0.000000 3.047200 0.000000 
#    z 0.000000 0.000000 3.740010 
# 
# 
# High freq. dielectric constant tensor:
#      x y z
#    x 1.752110 0.000000 0.000000 
#    y 0.000000 1.688020 0.000000 
#    z 0.000000 0.000000 1.743540 
# 
# From -- ./inp_files/24720.got.cif
#   From: 2010.03.12/outbox.cif.g09.slc.cpg/sg62_13_cif.got.tgz:24720.got - 2010.04.10 19:12:36.
