data_PCOD8250615
_publ_section_title
;
Structure prediction by ZEFSAII (Michael W. Deem and Ramdas Pophale) SiO2 
 PCOD8250615
Probable space group: P N M A
;
_chemical_formula_sum "Si O2"
_cell_formula_units_Z 48
_cell_length_a 5.171831
_cell_length_b 29.598083
_cell_length_c 14.966026
_cell_angle_alpha 90.000000
_cell_angle_beta 90.000000
_cell_angle_gamma 90.000000
_cell_volume 2290.943634
_symmetry_space_group_name_H-M "P N M A"
_symmetry_group_IT_number 62
_symmetry_cell_setting 'orthorhombic'
loop_
_space_group_symop_operation_xyz
x,y,z
1/2-x,-y,1/2+z
1/2+x,1/2-y,1/2-z
-x,1/2+y,-z
-x,-y,-z
1/2+x,y,1/2-z
1/2-x,1/2+y,1/2+z
x,1/2-y,z
loop_
_atom_site_type_symbol
_atom_site_label
_atom_site_fract_x
_atom_site_fract_y
_atom_site_fract_z
Si Si1 0.531665 0.153672 0.078117
Si Si2 0.966437 0.918063 0.192810
Si Si3 0.432484 0.250000 0.076817
Si Si4 0.447487 0.021039 0.348886
Si Si5 0.968292 0.846398 0.039879
Si Si6 0.947424 0.060357 0.348551
Si Si7 0.066576 0.750000 0.034048
O O1 0.818769 0.148923 0.038256
O O2 0.319576 0.148732 0.999536
O O3 0.495342 0.202614 0.127907
O O4 0.489805 0.114208 0.150578
O O5 0.681157 0.910326 0.231444
O O6 0.018833 0.883631 0.113747
O O7 0.997371 0.968093 0.153763
O O8 0.630362 0.250000 0.992154
O O9 0.130000 0.250000 0.051242
O O10 0.180475 0.033860 0.398900
O O11 0.395264 0.042485 0.251102
O O12 0.683252 0.046032 0.399978
O O13 0.002757 0.796610 0.086427
#
# Coordination Sequence:
#
# PCOD8250615 Si02
#       7
#     8   8   4   8   8   8   4
#     4  10  19  35  54  83 107 131 171 217 263 305
#     4  12  21  38  57  73 101 145 182 208 256 316
#     4   8  16  30  54  73 105 142 160 196 264 326
#     4  10  19  35  53  71  99 147 180 204 249 315
#     4  10  21  35  55  81 105 136 170 219 261 306
#     4  10  18  33  56  75 101 137 181 206 252 310
#     4   8  16  34  52  73 107 134 166 204 262 314
#
# _framework density 20.952065000000001
#
# number of rings (size 3 to 8) (size 9 to 14) (size 15 to 20)
#    0.000    2.000    3.333    2.000    0.000    0.000 
#    0.000    5.833    0.000    4.000    0.000    0.000 
#    0.000    0.000    0.000    0.000    0.000    0.000 
#
# Total GULP energy -594665.408238 kJ/mol
# GULP energy per Si atom -12388.862672 kJ/mol
# Density = 2.090438 g / cm^3
# Si number density = 20.952065 Si / 1000 Ang^3
#
#
#
# Elastic Constant Matrix: (Units=GPa)
#
#
# Indices 1 2 3 4 5 6 
#
# 1 135.3746 0.5049 -3.5307 0.0000 0.0000 0.0000
# 2 0.5049 166.9450 28.9092 0.0000 0.0000 0.0000
# 3 -3.5307 28.9092 7.6744 0.0000 0.0000 0.0000
# 4 0.0000 0.0000 0.0000 39.1996 0.0000 0.0000
# 5 0.0000 0.0000 0.0000 0.0000 15.9092 0.0000
# 6 0.0000 0.0000 0.0000 0.0000 0.0000 31.4582
#
#
#
# Elastic Compliance Matrix: (Units=1/GPa)
#
#
# Indices 1 2 3 4 5 6 
#
# 1 0.007665 -0.001823 0.010393 0.000000 0.000000 0.000000
# 2 -0.001823 0.017662 -0.067371 0.000000 0.000000 0.000000
# 3 0.010393 -0.067371 0.388870 0.000000 0.000000 0.000000
# 4 0.000000 0.000000 0.000000 0.025510 0.000000 0.000000
# 5 0.000000 0.000000 0.000000 0.000000 0.062857 0.000000
# 6 0.000000 0.000000 0.000000 0.000000 0.000000 0.031788
#
#
# Mechanical properties :
#
#
# Convention : Reuss Voigt Hill
#
# Bulk Modulus (GPa) = 3.37159 40.19565 21.78362
# Shear Modulus (GPa) = 6.65940 36.25410 21.45675
#
# Velocity S-wave (km/s) = 1.78474 4.16424 3.20361
# Velocity P-wave (km/s) = 2.42069 6.50749 4.90954
#
# Compressibility (1/GPa) = 0.29659611
#
# Stress axis : x y z
#
# Youngs Moduli (GPa) = 130.46706 56.61933 2.57155
#
# Poissons Ratio (x) = 0.10321 -0.02673
# Poissons Ratio (y) = 0.23783 0.17325
# Poissons Ratio (z) = -1.35597 3.81448
#
# Static dielectric constant tensor:
#      x y z
#    x 4.742400 0.000000 0.000000 
#    y 0.000000 4.272670 0.000000 
#    z 0.000000 0.000000 2.949510 
# 
# 
# High freq. dielectric constant tensor:
#      x y z
#    x 1.863080 0.000000 0.000000 
#    y 0.000000 1.848460 0.000000 
#    z 0.000000 0.000000 1.727520 
# 
# From -- ./inp_files/16249.got.cif
#   From: 2010.03.12/outbox.cif.g09.slc.cpg/sg62_9_cif.got.tgz:16249.got - 2010.04.10 19:12:36.
