data_PCOD8250179
_publ_section_title
;
Structure prediction by ZEFSAII (Michael W. Deem and Ramdas Pophale) SiO2 
 PCOD8250179
Probable space group: P N M A
;
_chemical_formula_sum "Si O2"
_cell_formula_units_Z 56
_cell_length_a 13.723757
_cell_length_b 9.029066
_cell_length_c 29.065099
_cell_angle_alpha 90.000000
_cell_angle_beta 90.000000
_cell_angle_gamma 90.000000
_cell_volume 3601.535117
_symmetry_space_group_name_H-M "P N M A"
_symmetry_group_IT_number 62
_symmetry_cell_setting 'orthorhombic'
loop_
_space_group_symop_operation_xyz
x,y,z
1/2-x,-y,1/2+z
1/2+x,1/2-y,1/2-z
-x,1/2+y,-z
-x,-y,-z
1/2+x,y,1/2-z
1/2-x,1/2+y,1/2+z
x,1/2-y,z
loop_
_atom_site_type_symbol
_atom_site_label
_atom_site_fract_x
_atom_site_fract_y
_atom_site_fract_z
Si Si1 0.390763 0.579827 0.233826
Si Si2 0.617168 0.074843 0.407360
Si Si3 0.389383 0.077741 0.772418
Si Si4 0.705887 0.919077 0.322861
Si Si5 0.896561 0.423505 0.996330
Si Si6 0.285419 0.425507 0.315323
Si Si7 0.603555 0.922383 0.596915
O O1 0.388170 0.750000 0.251020
O O2 0.498943 0.534389 0.218066
O O3 0.319063 0.558749 0.190548
O O4 0.358616 0.476440 0.275547
O O5 0.621297 0.250000 0.413369
O O6 0.506842 0.013842 0.399927
O O7 0.683708 0.027257 0.364844
O O8 0.661021 0.000563 0.454147
O O9 0.368269 0.250000 0.780386
O O10 0.361554 0.034745 0.720225
O O11 0.322816 0.989194 0.808357
O O12 0.684965 0.750000 0.337485
O O13 0.908274 0.250000 0.986381
O O14 0.847355 0.450734 0.046614
O O15 0.000000 0.500000 0.000000
O O16 0.278497 0.250000 0.315004
O O17 0.327229 0.489844 0.363584
O O18 0.592952 0.750000 0.606696
#
# Coordination Sequence:
#
# PCOD8250179 Si02
#       7
#     8   8   8   8   8   8   8
#     4   9  18  32  46  61  86 117 148 180 212 251
#     4  10  18  28  42  62  88 115 143 175 212 254
#     4   9  18  32  46  62  87 117 148 181 215 254
#     4   9  17  28  43  63  84 111 145 175 210 253
#     4   9  16  28  43  60  85 114 143 174 211 254
#     4  10  18  28  44  66  89 113 144 177 213 256
#     4   8  16  28  41  60  87 115 139 168 208 254
#
# _framework density 15.548925000000001
#
# number of rings (size 3 to 8) (size 9 to 14) (size 15 to 20)
#    0.000    2.857    0.000    3.857    0.000    2.857 
#    0.000    7.857    0.000    0.000    0.000    1.000 
#    0.000    0.000    0.000    0.000    0.000    0.000 
#
# Total GULP energy -694104.316332 kJ/mol
# GULP energy per Si atom -12394.719934 kJ/mol
# Density = 1.551353 g / cm^3
# Si number density = 15.548925 Si / 1000 Ang^3
#
#
#
# Elastic Constant Matrix: (Units=GPa)
#
#
# Indices 1 2 3 4 5 6 
#
# 1 94.4584 29.3185 48.9288 0.0000 0.0000 0.0000
# 2 29.3185 64.0211 46.8586 0.0000 0.0000 0.0000
# 3 48.9288 46.8586 117.7160 0.0000 0.0000 0.0000
# 4 0.0000 0.0000 0.0000 25.9106 0.0000 0.0000
# 5 0.0000 0.0000 0.0000 0.0000 21.2691 0.0000
# 6 0.0000 0.0000 0.0000 0.0000 0.0000 20.1713
#
#
#
# Elastic Compliance Matrix: (Units=1/GPa)
#
#
# Indices 1 2 3 4 5 6 
#
# 1 0.013892 -0.003013 -0.004574 0.000000 0.000000 0.000000
# 2 -0.003013 0.022696 -0.007782 0.000000 0.000000 0.000000
# 3 -0.004574 -0.007782 0.013494 0.000000 0.000000 0.000000
# 4 0.000000 0.000000 0.000000 0.038594 0.000000 0.000000
# 5 0.000000 0.000000 0.000000 0.000000 0.047017 0.000000
# 6 0.000000 0.000000 0.000000 0.000000 0.000000 0.049575
#
#
# Mechanical properties :
#
#
# Convention : Reuss Voigt Hill
#
# Bulk Modulus (GPa) = 51.70168 58.48971 55.09569
# Shear Modulus (GPa) = 22.47656 23.54284 23.00970
#
# Velocity S-wave (km/s) = 3.80615 3.89538 3.85102
# Velocity P-wave (km/s) = 7.25526 7.61119 7.43536
#
# Compressibility (1/GPa) = 0.01934173
#
# Stress axis : x y z
#
# Youngs Moduli (GPa) = 71.98619 44.06160 74.10674
#
# Poissons Ratio (x) = 0.13278 0.33900
# Poissons Ratio (y) = 0.21693 0.57668
# Poissons Ratio (z) = 0.32930 0.34288
#
# Static dielectric constant tensor:
#      x y z
#    x 2.865040 0.000000 0.000000 
#    y 0.000000 2.934700 0.000000 
#    z 0.000000 0.000000 3.157840 
# 
# 
# High freq. dielectric constant tensor:
#      x y z
#    x 1.565640 0.000000 0.000000 
#    y 0.000000 1.595660 0.000000 
#    z 0.000000 0.000000 1.593800 
# 
# From -- ./inp_files/32645.got.cif
#   From: 2010.03.12/outbox.cif.g09.slc.cpg/sg62_17_cif.got.tgz:32645.got - 2010.04.10 19:12:36.
