data_PCOD8250825
_publ_section_title
;
Structure prediction by ZEFSAII (Michael W. Deem and Ramdas Pophale) SiO2 
 PCOD8250825
Probable space group: P N M A
;
_chemical_formula_sum "Si O2"
_cell_formula_units_Z 64
_cell_length_a 14.474928
_cell_length_b 9.285292
_cell_length_c 27.752851
_cell_angle_alpha 90.000000
_cell_angle_beta 90.000000
_cell_angle_gamma 90.000000
_cell_volume 3730.092331
_symmetry_space_group_name_H-M "P N M A"
_symmetry_group_IT_number 62
_symmetry_cell_setting 'orthorhombic'
loop_
_space_group_symop_operation_xyz
x,y,z
1/2-x,-y,1/2+z
1/2+x,1/2-y,1/2-z
-x,1/2+y,-z
-x,-y,-z
1/2+x,y,1/2-z
1/2-x,1/2+y,1/2+z
x,1/2-y,z
loop_
_atom_site_type_symbol
_atom_site_label
_atom_site_fract_x
_atom_site_fract_y
_atom_site_fract_z
Si Si1 0.197462 0.918385 0.851631
Si Si2 0.359921 0.910207 0.265055
Si Si3 0.240077 0.579909 0.131358
Si Si4 0.405373 0.082653 0.171729
Si Si5 0.606391 0.414119 0.185677
Si Si6 0.416536 0.082895 0.442672
Si Si7 0.598555 0.917933 0.448620
Si Si8 0.843808 0.093338 0.771003
O O1 0.184501 0.750000 0.840229
O O2 0.305207 0.965374 0.845753
O O3 0.165943 0.955381 0.905935
O O4 0.130284 0.007434 0.815989
O O5 0.405748 0.750000 0.267299
O O6 0.252742 0.891489 0.255476
O O7 0.403197 0.008155 0.223686
O O8 0.261315 0.750000 0.136216
O O9 0.337509 0.495576 0.133799
O O10 0.189501 0.539085 0.081711
O O11 0.173393 0.529819 0.175377
O O12 0.376857 0.250000 0.176119
O O13 0.512336 0.065854 0.154465
O O14 0.620848 0.250000 0.200500
O O15 0.593468 0.493528 0.237279
O O16 0.442059 0.250000 0.440836
O O17 0.382285 0.038106 0.496020
O O18 0.509146 0.998855 0.428133
O O19 0.578252 0.750000 0.442729
O O20 0.891832 0.250000 0.775079
#
# Coordination Sequence:
#
# PCOD8250825 Si02
#       8
#     8   8   8   8   8   8   8   8
#     4   9  17  31  49  69  94 123 156 191 228 275
#     4   9  17  29  44  64  90 120 153 188 226 265
#     4   9  18  32  48  67  92 123 157 191 231 278
#     4  10  19  30  45  67  94 125 159 192 227 267
#     4   9  18  30  44  64  92 124 154 186 223 264
#     4   9  18  32  51  73  94 119 152 191 238 288
#     4   9  18  33  51  71  95 120 150 192 240 287
#     4   8  15  27  42  61  85 114 149 185 219 260
#
# _framework density 17.157753
#
# number of rings (size 3 to 8) (size 9 to 14) (size 15 to 20)
#    0.000    3.000    0.000    1.500    0.000    6.000 
#    0.000    2.500    0.000    0.750    0.000    0.000 
#    0.000    0.000    0.000    0.000    0.000    0.125 
#
# Total GULP energy -793137.398528 kJ/mol
# GULP energy per Si atom -12392.771852 kJ/mol
# Density = 1.711870 g / cm^3
# Si number density = 17.157753 Si / 1000 Ang^3
#
#
#
# Elastic Constant Matrix: (Units=GPa)
#
#
# Indices 1 2 3 4 5 6 
#
# 1 85.2656 38.6718 45.1271 0.0000 0.0000 0.0000
# 2 38.6718 65.7318 35.5930 0.0000 0.0000 0.0000
# 3 45.1271 35.5930 88.3400 0.0000 0.0000 0.0000
# 4 0.0000 0.0000 0.0000 21.2632 0.0000 0.0000
# 5 0.0000 0.0000 0.0000 0.0000 22.1419 0.0000
# 6 0.0000 0.0000 0.0000 0.0000 0.0000 18.0500
#
#
#
# Elastic Compliance Matrix: (Units=1/GPa)
#
#
# Indices 1 2 3 4 5 6 
#
# 1 0.018503 -0.007377 -0.006480 0.000000 0.000000 0.000000
# 2 -0.007377 0.022400 -0.005257 0.000000 0.000000 0.000000
# 3 -0.006480 -0.005257 0.016748 0.000000 0.000000 0.000000
# 4 0.000000 0.000000 0.000000 0.047030 0.000000 0.000000
# 5 0.000000 0.000000 0.000000 0.000000 0.045163 0.000000
# 6 0.000000 0.000000 0.000000 0.000000 0.000000 0.055402
#
#
# Mechanical properties :
#
#
# Convention : Reuss Voigt Hill
#
# Bulk Modulus (GPa) = 51.48282 53.12458 52.30370
# Shear Modulus (GPa) = 20.00415 20.28738 20.14576
#
# Velocity S-wave (km/s) = 3.41823 3.44234 3.43030
# Velocity P-wave (km/s) = 6.75646 6.84319 6.79996
#
# Compressibility (1/GPa) = 0.01942395
#
# Stress axis : x y z
#
# Youngs Moduli (GPa) = 54.04390 44.64284 59.70885
#
# Poissons Ratio (x) = 0.32935 0.38690
# Poissons Ratio (y) = 0.39870 0.31386
# Poissons Ratio (z) = 0.35019 0.23467
#
# Static dielectric constant tensor:
#      x y z
#    x 3.175790 0.000000 0.000000 
#    y 0.000000 3.398090 0.000000 
#    z 0.000000 0.000000 3.162360 
# 
# 
# High freq. dielectric constant tensor:
#      x y z
#    x 1.652870 0.000000 0.000000 
#    y 0.000000 1.665020 0.000000 
#    z 0.000000 0.000000 1.637320 
# 
# From -- ./inp_files/32731.got.cif
#   From: 2010.03.12/outbox.cif.g09.slc.cpg/sg62_17_cif.got.tgz:32731.got - 2010.04.10 19:12:36.
