data_PCOD8250321
_publ_section_title
;
Structure prediction by ZEFSAII (Michael W. Deem and Ramdas Pophale) SiO2 
 PCOD8250321
Probable space group: P N M A
;
_chemical_formula_sum "Si O2"
_cell_formula_units_Z 64
_cell_length_a 24.357605
_cell_length_b 9.104906
_cell_length_c 15.326514
_cell_angle_alpha 90.000000
_cell_angle_beta 90.000000
_cell_angle_gamma 90.000000
_cell_volume 3399.017778
_symmetry_space_group_name_H-M "P N M A"
_symmetry_group_IT_number 62
_symmetry_cell_setting 'orthorhombic'
loop_
_space_group_symop_operation_xyz
x,y,z
1/2-x,-y,1/2+z
1/2+x,1/2-y,1/2-z
-x,1/2+y,-z
-x,-y,-z
1/2+x,y,1/2-z
1/2-x,1/2+y,1/2+z
x,1/2-y,z
loop_
_atom_site_type_symbol
_atom_site_label
_atom_site_fract_x
_atom_site_fract_y
_atom_site_fract_z
Si Si1 0.958484 0.579791 0.110766
Si Si2 0.961357 0.576624 0.302742
Si Si3 0.683501 0.420311 0.194937
Si Si4 0.685854 0.420738 0.389860
Si Si5 0.077964 0.924480 0.366777
Si Si6 0.768794 0.582346 0.513997
Si Si7 0.919181 0.419925 0.948735
Si Si8 0.391283 0.919064 0.036904
O O1 0.943815 0.750000 0.095518
O O2 0.943455 0.521989 0.207159
O O3 0.023195 0.552977 0.098528
O O4 0.921696 0.483643 0.046330
O O5 0.967317 0.750000 0.299675
O O6 0.914282 0.527165 0.370028
O O7 0.020902 0.513605 0.328551
O O8 0.668206 0.250000 0.179910
O O9 0.709582 0.446721 0.291204
O O10 0.627501 0.511363 0.190069
O O11 0.724765 0.467165 0.116057
O O12 0.678143 0.250000 0.408527
O O13 0.725190 0.482393 0.464707
O O14 0.626833 0.497137 0.393618
O O15 0.081770 0.750000 0.363936
O O16 0.080630 0.978113 0.465905
O O17 0.748405 0.750000 0.508796
O O18 0.826023 0.561528 0.463673
O O19 0.903513 0.250000 0.953889
O O20 0.407513 0.750000 0.018273
#
# Coordination Sequence:
#
# PCOD8250321 Si02
#       8
#     8   8   8   8   8   8   8   8
#     4   9  18  34  54  77 109 144 179 218 261 314
#     4   9  17  30  50  77 108 142 178 216 262 316
#     4   9  20  38  57  78 107 142 176 219 275 323
#     4  11  22  37  59  83 105 137 181 228 270 319
#     4  10  18  29  51  81 109 138 178 223 259 306
#     4   9  19  37  56  75 105 142 178 221 271 322
#     4  10  20  35  55  79 109 142 174 218 270 317
#     4   9  18  34  52  71 105 146 176 213 269 321
#
# _framework density 18.828968
#
# number of rings (size 3 to 8) (size 9 to 14) (size 15 to 20)
#    0.000    2.500    0.000    3.000    0.000    4.500 
#    2.250    2.500    0.000    0.000    0.000    0.000 
#    0.000    0.000    0.000    0.000    0.000    0.000 
#
# Total GULP energy -793491.321110 kJ/mol
# GULP energy per Si atom -12398.301892 kJ/mol
# Density = 1.878611 g / cm^3
# Si number density = 18.828968 Si / 1000 Ang^3
#
#
#
# Elastic Constant Matrix: (Units=GPa)
#
#
# Indices 1 2 3 4 5 6 
#
# 1 49.2464 30.2254 42.5739 0.0000 0.0000 0.0000
# 2 30.2254 74.3079 43.9838 0.0000 0.0000 0.0000
# 3 42.5739 43.9838 139.1345 0.0000 0.0000 0.0000
# 4 0.0000 0.0000 0.0000 28.2132 0.0000 0.0000
# 5 0.0000 0.0000 0.0000 0.0000 25.2037 0.0000
# 6 0.0000 0.0000 0.0000 0.0000 0.0000 28.0653
#
#
#
# Elastic Compliance Matrix: (Units=1/GPa)
#
#
# Indices 1 2 3 4 5 6 
#
# 1 0.031681 -0.008794 -0.006914 0.000000 0.000000 0.000000
# 2 -0.008794 0.018996 -0.003314 0.000000 0.000000 0.000000
# 3 -0.006914 -0.003314 0.010351 0.000000 0.000000 0.000000
# 4 0.000000 0.000000 0.000000 0.035444 0.000000 0.000000
# 5 0.000000 0.000000 0.000000 0.000000 0.039677 0.000000
# 6 0.000000 0.000000 0.000000 0.000000 0.000000 0.035631
#
#
# Mechanical properties :
#
#
# Convention : Reuss Voigt Hill
#
# Bulk Modulus (GPa) = 43.51022 55.13942 49.32482
# Shear Modulus (GPa) = 22.99006 26.02350 24.50678
#
# Velocity S-wave (km/s) = 3.49806 3.72169 3.61161
# Velocity P-wave (km/s) = 6.28280 6.91491 6.60642
#
# Compressibility (1/GPa) = 0.02298311
#
# Stress axis : x y z
#
# Youngs Moduli (GPa) = 31.56507 52.64186 96.61222
#
# Poissons Ratio (x) = 0.46292 0.66798
# Poissons Ratio (y) = 0.27758 0.32021
# Poissons Ratio (z) = 0.21824 0.17447
#
# Static dielectric constant tensor:
#      x y z
#    x 3.253830 0.000000 0.000000 
#    y 0.000000 3.336590 0.000000 
#    z 0.000000 0.000000 3.753470 
# 
# 
# High freq. dielectric constant tensor:
#      x y z
#    x 1.712070 0.000000 0.000000 
#    y 0.000000 1.720300 0.000000 
#    z 0.000000 0.000000 1.745090 
# 
# From -- ./inp_files/20968.got.cif
#   From: 2010.03.12/outbox.cif.g09.slc.cpg/sg62_11_cif.got.tgz:20968.got - 2010.04.10 19:12:36.
