data_PCOD8250253
_publ_section_title
;
Structure prediction by ZEFSAII (Michael W. Deem and Ramdas Pophale) SiO2 
 PCOD8250253
Probable space group: P N M A
;
_chemical_formula_sum "Si O2"
_cell_formula_units_Z 56
_cell_length_a 29.463502
_cell_length_b 8.637707
_cell_length_c 13.764391
_cell_angle_alpha 90.000000
_cell_angle_beta 90.000000
_cell_angle_gamma 90.000000
_cell_volume 3502.997558
_symmetry_space_group_name_H-M "P N M A"
_symmetry_group_IT_number 62
_symmetry_cell_setting 'orthorhombic'
loop_
_space_group_symop_operation_xyz
x,y,z
1/2-x,-y,1/2+z
1/2+x,1/2-y,1/2-z
-x,1/2+y,-z
-x,-y,-z
1/2+x,y,1/2-z
1/2-x,1/2+y,1/2+z
x,1/2-y,z
loop_
_atom_site_type_symbol
_atom_site_label
_atom_site_fract_x
_atom_site_fract_y
_atom_site_fract_z
Si Si1 0.178862 0.067114 0.714956
Si Si2 0.685850 0.569052 0.201583
Si Si3 0.599758 0.432248 0.108069
Si Si4 0.272402 0.067334 0.391425
Si Si5 0.903364 0.431793 0.394257
Si Si6 0.498187 0.929444 0.895852
Si Si7 0.767293 0.431275 0.893331
O O1 0.172692 0.250000 0.708064
O O2 0.219000 0.003596 0.645079
O O3 0.191202 0.021163 0.825015
O O4 0.132453 0.984686 0.685616
O O5 0.695128 0.750000 0.183219
O O6 0.635021 0.524986 0.173831
O O7 0.720762 0.471548 0.136868
O O8 0.693513 0.528018 0.315403
O O9 0.609312 0.250000 0.117359
O O10 0.549859 0.481538 0.152223
O O11 0.604488 0.478299 0.995080
O O12 0.280566 0.250000 0.382681
O O13 0.280047 0.002607 0.500974
O O14 0.898601 0.250000 0.415743
O O15 0.953322 0.470103 0.345971
O O16 0.493644 0.750000 0.912096
O O17 0.500000 0.000000 0.000000
O O18 0.760790 0.250000 0.904199
#
# Coordination Sequence:
#
# PCOD8250253 Si02
#       7
#     8   8   8   8   8   8   8
#     4  10  19  31  45  66  93 119 145 180 222 265
#     4  10  19  31  45  65  90 118 150 184 219 262
#     4  10  18  29  44  65  92 121 147 181 225 266
#     4  10  18  31  48  65  86 117 152 185 218 258
#     4  10  18  29  45  66  89 119 153 183 215 262
#     4   8  16  28  42  61  88 116 146 180 218 262
#     4   8  17  31  45  60  85 116 146 179 216 253
#
# _framework density 15.98631
#
# number of rings (size 3 to 8) (size 9 to 14) (size 15 to 20)
#    0.000    2.571    0.000    3.857    0.000    2.286 
#    0.000    7.857    0.000    0.000    0.000    1.000 
#    0.000    0.000    0.000    0.000    0.000    0.000 
#
# Total GULP energy -693851.079820 kJ/mol
# GULP energy per Si atom -12390.197854 kJ/mol
# Density = 1.594992 g / cm^3
# Si number density = 15.986310 Si / 1000 Ang^3
#
#
#
# Elastic Constant Matrix: (Units=GPa)
#
#
# Indices 1 2 3 4 5 6 
#
# 1 124.6597 15.0056 46.4169 0.0000 0.0000 0.0000
# 2 15.0056 24.3027 9.2297 0.0000 0.0000 0.0000
# 3 46.4169 9.2297 91.9313 0.0000 0.0000 0.0000
# 4 0.0000 0.0000 0.0000 20.8276 0.0000 0.0000
# 5 0.0000 0.0000 0.0000 0.0000 22.3964 0.0000
# 6 0.0000 0.0000 0.0000 0.0000 0.0000 22.2281
#
#
#
# Elastic Compliance Matrix: (Units=1/GPa)
#
#
# Indices 1 2 3 4 5 6 
#
# 1 0.010347 -0.004579 -0.004765 0.000000 0.000000 0.000000
# 2 -0.004579 0.044805 -0.002186 0.000000 0.000000 0.000000
# 3 -0.004765 -0.002186 0.013503 0.000000 0.000000 0.000000
# 4 0.000000 0.000000 0.000000 0.048013 0.000000 0.000000
# 5 0.000000 0.000000 0.000000 0.000000 0.044650 0.000000
# 6 0.000000 0.000000 0.000000 0.000000 0.000000 0.044988
#
#
# Mechanical properties :
#
#
# Convention : Reuss Voigt Hill
#
# Bulk Modulus (GPa) = 21.93217 42.46646 32.19932
# Shear Modulus (GPa) = 20.44443 24.43986 22.44214
#
# Velocity S-wave (km/s) = 3.58001 3.91423 3.75084
# Velocity P-wave (km/s) = 5.55318 6.85931 6.24051
#
# Compressibility (1/GPa) = 0.04559513
#
# Stress axis : x y z
#
# Youngs Moduli (GPa) = 96.64487 22.31874 74.05818
#
# Poissons Ratio (x) = 0.10220 0.35286
# Poissons Ratio (y) = 0.44256 0.16191
# Poissons Ratio (z) = 0.46048 0.04879
#
# Static dielectric constant tensor:
#      x y z
#    x 3.562190 0.000000 0.000000 
#    y 0.000000 2.946590 0.000000 
#    z 0.000000 0.000000 2.964430 
# 
# 
# High freq. dielectric constant tensor:
#      x y z
#    x 1.617680 0.000000 0.000000 
#    y 0.000000 1.619450 0.000000 
#    z 0.000000 0.000000 1.580450 
# 
# From -- ./inp_files/21181.got.cif
#   From: 2010.03.12/outbox.cif.g09.slc.cpg/sg62_11_cif.got.tgz:21181.got - 2010.04.10 19:12:36.
