data_PCOD8250875
_publ_section_title
;
Structure prediction by ZEFSAII (Michael W. Deem and Ramdas Pophale) SiO2 
 PCOD8250875
Probable space group: P N M A
;
_chemical_formula_sum "Si O2"
_cell_formula_units_Z 64
_cell_length_a 30.095754
_cell_length_b 8.681137
_cell_length_c 14.295888
_cell_angle_alpha 90.000000
_cell_angle_beta 90.000000
_cell_angle_gamma 90.000000
_cell_volume 3735.020376
_symmetry_space_group_name_H-M "P N M A"
_symmetry_group_IT_number 62
_symmetry_cell_setting 'orthorhombic'
loop_
_space_group_symop_operation_xyz
x,y,z
1/2-x,-y,1/2+z
1/2+x,1/2-y,1/2-z
-x,1/2+y,-z
-x,-y,-z
1/2+x,y,1/2-z
1/2-x,1/2+y,1/2+z
x,1/2-y,z
loop_
_atom_site_type_symbol
_atom_site_label
_atom_site_fract_x
_atom_site_fract_y
_atom_site_fract_z
Si Si1 0.449305 0.428526 0.393520
Si Si2 0.816882 0.427089 0.985591
Si Si3 0.638007 0.425616 0.318124
Si Si4 0.274214 0.071433 0.025961
Si Si5 0.798730 0.572465 0.656853
Si Si6 0.281535 0.929632 0.226624
Si Si7 0.635498 0.071598 0.650188
Si Si8 0.547900 0.071926 0.407205
O O1 0.439432 0.250000 0.378890
O O2 0.415353 0.523217 0.326042
O O3 0.441940 0.469913 0.502307
O O4 0.499832 0.471191 0.363815
O O5 0.802718 0.250000 0.994260
O O6 0.775311 0.535570 0.009796
O O7 0.854858 0.470328 0.058503
O O8 0.833768 0.458532 0.881452
O O9 0.648342 0.250000 0.349680
O O10 0.655005 0.451938 0.212638
O O11 0.585390 0.460048 0.328116
O O12 0.280566 0.250000 0.048553
O O13 0.305297 0.022157 0.939155
O O14 0.284379 0.974569 0.118381
O O15 0.790868 0.750000 0.631594
O O16 0.756805 0.520716 0.719396
O O17 0.270634 0.750000 0.236008
O O18 0.330089 0.970406 0.267945
O O19 0.638068 0.250000 0.624361
O O20 0.547986 0.250000 0.439262
#
# Coordination Sequence:
#
# PCOD8250875 Si02
#       8
#     8   8   8   8   8   8   8   8
#     4  10  19  30  48  75 103 135 172 210 253 306
#     4  12  22  31  50  75 103 136 177 217 252 299
#     4  10  20  34  52  74 103 139 174 209 256 306
#     4  12  24  38  53  72 104 140 175 216 262 304
#     4  11  22  35  54  77 103 136 176 215 256 305
#     4  11  23  37  54  75 102 136 177 218 259 305
#     4  11  22  35  51  72 103 140 174 212 261 308
#     4   9  18  32  49  71 104 138 169 208 256 308
#
# _framework density 17.135113
#
# number of rings (size 3 to 8) (size 9 to 14) (size 15 to 20)
#    0.000    1.250    3.750    3.750    0.000    2.500 
#    0.000    0.000    0.000    0.000    0.000    0.875 
#    0.000    0.000    0.000    0.000    0.000    0.000 
#
# Total GULP energy -793606.601588 kJ/mol
# GULP energy per Si atom -12400.103150 kJ/mol
# Density = 1.709611 g / cm^3
# Si number density = 17.135113 Si / 1000 Ang^3
#
#
#
# Elastic Constant Matrix: (Units=GPa)
#
#
# Indices 1 2 3 4 5 6 
#
# 1 100.1170 24.6419 22.5903 0.0000 0.0000 0.0000
# 2 24.6419 64.6582 12.6550 0.0000 0.0000 0.0000
# 3 22.5903 12.6550 59.3994 0.0000 0.0000 0.0000
# 4 0.0000 0.0000 0.0000 22.3036 0.0000 0.0000
# 5 0.0000 0.0000 0.0000 0.0000 24.4412 0.0000
# 6 0.0000 0.0000 0.0000 0.0000 0.0000 25.0244
#
#
#
# Elastic Compliance Matrix: (Units=1/GPa)
#
#
# Indices 1 2 3 4 5 6 
#
# 1 0.011740 -0.003757 -0.003664 0.000000 0.000000 0.000000
# 2 -0.003757 0.017341 -0.002266 0.000000 0.000000 0.000000
# 3 -0.003664 -0.002266 0.018711 0.000000 0.000000 0.000000
# 4 0.000000 0.000000 0.000000 0.044836 0.000000 0.000000
# 5 0.000000 0.000000 0.000000 0.000000 0.040915 0.000000
# 6 0.000000 0.000000 0.000000 0.000000 0.000000 0.039961
#
#
# Mechanical properties :
#
#
# Convention : Reuss Voigt Hill
#
# Bulk Modulus (GPa) = 35.18845 38.21657 36.70251
# Shear Modulus (GPa) = 24.70954 25.30631 25.00793
#
# Velocity S-wave (km/s) = 3.80154 3.84717 3.82443
# Velocity P-wave (km/s) = 6.31264 6.48736 6.40060
#
# Compressibility (1/GPa) = 0.02841842
#
# Stress axis : x y z
#
# Youngs Moduli (GPa) = 85.17995 57.66606 53.44309
#
# Poissons Ratio (x) = 0.21665 0.19584
# Poissons Ratio (y) = 0.32002 0.12109
# Poissons Ratio (z) = 0.31213 0.13065
#
# Static dielectric constant tensor:
#      x y z
#    x 3.409820 0.000000 0.000000 
#    y 0.000000 3.275620 0.000000 
#    z 0.000000 0.000000 3.008820 
# 
# 
# High freq. dielectric constant tensor:
#      x y z
#    x 1.656990 0.000000 0.000000 
#    y 0.000000 1.673880 0.000000 
#    z 0.000000 0.000000 1.626700 
# 
# From -- ./inp_files/21269.got.cif
#   From: 2010.03.12/outbox.cif.g09.slc.cpg/sg62_11_cif.got.tgz:21269.got - 2010.04.10 19:12:36.
