data_PCOD8250319
_publ_section_title
;
Structure prediction by ZEFSAII (Michael W. Deem and Ramdas Pophale) SiO2 
 PCOD8250319
Probable space group: P N M A
;
_chemical_formula_sum "Si O2"
_cell_formula_units_Z 64
_cell_length_a 23.947550
_cell_length_b 13.508530
_cell_length_c 10.874697
_cell_angle_alpha 90.000000
_cell_angle_beta 90.000000
_cell_angle_gamma 90.000000
_cell_volume 3517.923130
_symmetry_space_group_name_H-M "P N M A"
_symmetry_group_IT_number 62
_symmetry_cell_setting 'orthorhombic'
loop_
_space_group_symop_operation_xyz
x,y,z
1/2-x,-y,1/2+z
1/2+x,1/2-y,1/2-z
-x,1/2+y,-z
-x,-y,-z
1/2+x,y,1/2-z
1/2-x,1/2+y,1/2+z
x,1/2-y,z
loop_
_atom_site_type_symbol
_atom_site_label
_atom_site_fract_x
_atom_site_fract_y
_atom_site_fract_z
Si Si1 0.951746 0.133562 0.219975
Si Si2 0.365483 0.012698 0.434503
Si Si3 0.792943 0.048259 0.855111
Si Si4 0.899003 0.367557 0.730878
Si Si5 0.042884 0.485249 0.108146
Si Si6 0.611427 0.866239 0.955920
Si Si7 0.705969 0.139862 0.691833
Si Si8 0.735756 0.862101 0.933350
O O1 0.951418 0.250000 0.206847
O O2 0.933083 0.096908 0.355135
O O3 0.906929 0.093075 0.122054
O O4 0.015196 0.096511 0.197463
O O5 0.345068 0.936008 0.330998
O O6 0.313848 0.068985 0.503736
O O7 0.398465 0.952974 0.544415
O O8 0.841499 0.076327 0.760525
O O9 0.738974 0.112597 0.816977
O O10 0.775668 0.931690 0.850126
O O11 0.894080 0.250000 0.754807
O O12 0.948254 0.412949 0.814941
O O13 0.912022 0.394843 0.589689
O O14 0.000000 0.500000 0.000000
O O15 0.619193 0.750000 0.949314
O O16 0.673258 0.907766 0.926458
O O17 0.681126 0.250000 0.708097
O O18 0.747485 0.135159 0.576326
O O19 0.740214 0.750000 0.881690
#
# Coordination Sequence:
#
# PCOD8250319 Si02
#       8
#     8   8   8   8   8   8   8   8
#     4  10  20  35  54  75 103 137 178 225 272 324
#     4   9  20  34  49  77 109 137 176 219 270 323
#     4  10  18  29  51  79 104 137 180 216 258 312
#     4  10  19  34  55  80 106 136 179 228 268 315
#     4   9  20  35  51  77 105 133 175 220 277 326
#     4   9  17  31  53  77 101 138 180 216 263 317
#     4  10  18  30  49  75 105 138 174 212 256 318
#     4   9  17  30  48  74 108 140 174 213 256 313
#
# _framework density 18.192551999999999
#
# number of rings (size 3 to 8) (size 9 to 14) (size 15 to 20)
#    0.000    2.500    1.250    1.125    0.000    6.000 
#    0.000    3.750    0.000    1.500    0.000    1.750 
#    0.000    0.000    0.000    0.000    0.000    0.000 
#
# Total GULP energy -792922.535678 kJ/mol
# GULP energy per Si atom -12389.414620 kJ/mol
# Density = 1.815115 g / cm^3
# Si number density = 18.192552 Si / 1000 Ang^3
#
#
#
# Elastic Constant Matrix: (Units=GPa)
#
#
# Indices 1 2 3 4 5 6 
#
# 1 79.5970 45.1760 45.1938 0.0000 0.0000 0.0000
# 2 45.1760 92.0168 47.1029 0.0000 0.0000 0.0000
# 3 45.1938 47.1029 89.7285 0.0000 0.0000 0.0000
# 4 0.0000 0.0000 0.0000 25.3180 0.0000 0.0000
# 5 0.0000 0.0000 0.0000 0.0000 33.3848 0.0000
# 6 0.0000 0.0000 0.0000 0.0000 0.0000 30.3718
#
#
#
# Elastic Compliance Matrix: (Units=1/GPa)
#
#
# Indices 1 2 3 4 5 6 
#
# 1 0.020002 -0.006376 -0.006727 0.000000 0.000000 0.000000
# 2 -0.006376 0.016894 -0.005657 0.000000 0.000000 0.000000
# 3 -0.006727 -0.005657 0.017502 0.000000 0.000000 0.000000
# 4 0.000000 0.000000 0.000000 0.039498 0.000000 0.000000
# 5 0.000000 0.000000 0.000000 0.000000 0.029954 0.000000
# 6 0.000000 0.000000 0.000000 0.000000 0.000000 0.032925
#
#
# Mechanical properties :
#
#
# Convention : Reuss Voigt Hill
#
# Bulk Modulus (GPa) = 59.25017 59.58752 59.41885
# Shear Modulus (GPa) = 25.00987 26.07287 25.54137
#
# Velocity S-wave (km/s) = 3.71176 3.78982 3.75099
# Velocity P-wave (km/s) = 7.14203 7.20938 7.17579
#
# Compressibility (1/GPa) = 0.01687759
#
# Stress axis : x y z
#
# Youngs Moduli (GPa) = 49.99553 59.19347 57.13474
#
# Poissons Ratio (x) = 0.37744 0.38435
# Poissons Ratio (y) = 0.31879 0.32320
# Poissons Ratio (z) = 0.33632 0.33484
#
# Static dielectric constant tensor:
#      x y z
#    x 3.670800 0.000000 0.000000 
#    y 0.000000 3.296590 0.000000 
#    z 0.000000 0.000000 3.549220 
# 
# 
# High freq. dielectric constant tensor:
#      x y z
#    x 1.698570 0.000000 0.000000 
#    y 0.000000 1.682560 0.000000 
#    z 0.000000 0.000000 1.702820 
# 
# From -- ./inp_files/15564.got.cif
#   From: 2010.03.12/outbox.cif.g09.slc.cpg/sg62_8_cif.got.tgz:15564.got - 2010.04.10 19:12:36.
