data_PCOD8250252
_publ_section_title
;
Structure prediction by ZEFSAII (Michael W. Deem and Ramdas Pophale) SiO2 
 PCOD8250252
Probable space group: P N M A
;
_chemical_formula_sum "Si O2"
_cell_formula_units_Z 56
_cell_length_a 9.996656
_cell_length_b 28.344451
_cell_length_c 13.090817
_cell_angle_alpha 90.000000
_cell_angle_beta 90.000000
_cell_angle_gamma 90.000000
_cell_volume 3709.279412
_symmetry_space_group_name_H-M "P N M A"
_symmetry_group_IT_number 62
_symmetry_cell_setting 'orthorhombic'
loop_
_space_group_symop_operation_xyz
x,y,z
1/2-x,-y,1/2+z
1/2+x,1/2-y,1/2-z
-x,1/2+y,-z
-x,-y,-z
1/2+x,y,1/2-z
1/2-x,1/2+y,1/2+z
x,1/2-y,z
loop_
_atom_site_type_symbol
_atom_site_label
_atom_site_fract_x
_atom_site_fract_y
_atom_site_fract_z
Si Si1 0.203433 0.250000 0.353216
Si Si2 0.634406 0.446142 0.057680
Si Si3 0.287178 0.852611 0.857930
Si Si4 0.122279 0.496704 0.864062
Si Si5 0.625183 0.991816 0.865557
Si Si6 0.476689 0.647994 0.660677
Si Si7 0.498651 0.250000 0.321314
Si Si8 0.118930 0.058289 0.058758
O O1 0.202001 0.199506 0.412576
O O2 0.342212 0.250000 0.289394
O O3 0.073663 0.250000 0.284796
O O4 0.665239 0.390280 0.057492
O O5 0.750347 0.471196 0.119359
O O6 0.500636 0.457973 0.118645
O O7 0.627059 0.463751 0.941611
O O8 0.134582 0.863011 0.820316
O O9 0.389406 0.857313 0.763189
O O10 0.121096 0.483350 0.745002
O O11 0.992005 0.525655 0.891554
O O12 0.130335 0.450307 0.936413
O O13 0.747554 0.956404 0.882303
O O14 0.463618 0.701940 0.617707
O O15 0.416031 0.613102 0.575554
#
# Coordination Sequence:
#
# PCOD8250252 Si02
#       8
#     4   8   8   8   8   8   4   8
#     4   8  16  28  42  62  85 114 142 178 213 260
#     4  10  20  30  44  65  85 118 150 174 212 264
#     4  10  18  29  45  64  90 116 147 177 218 256
#     4  10  18  32  44  63  86 115 143 183 211 249
#     4  10  20  32  44  61  90 117 147 179 213 250
#     4  10  18  29  44  65  88 118 144 180 214 261
#     4   8  16  28  42  60  87 112 144 174 217 256
#     4  10  20  28  46  65  85 113 151 171 213 260
#
# _framework density 15.097272
#
# number of rings (size 3 to 8) (size 9 to 14) (size 15 to 20)
#    0.000    2.286    1.429    2.571    2.000    0.000 
#    0.000    0.000    0.000    0.000    0.000    1.000 
#    0.000    0.000    0.000    0.000    0.000    0.000 
#
# Total GULP energy -693753.754623 kJ/mol
# GULP energy per Si atom -12388.459904 kJ/mol
# Density = 1.506291 g / cm^3
# Si number density = 15.097272 Si / 1000 Ang^3
#
#
#
# Elastic Constant Matrix: (Units=GPa)
#
#
# Indices 1 2 3 4 5 6 
#
# 1 102.3489 38.1909 22.8979 0.0000 0.0000 0.0000
# 2 38.1909 130.3242 43.4612 0.0000 0.0000 0.0000
# 3 22.8979 43.4612 86.6701 0.0000 0.0000 0.0000
# 4 0.0000 0.0000 0.0000 18.9107 0.0000 0.0000
# 5 0.0000 0.0000 0.0000 0.0000 15.1798 0.0000
# 6 0.0000 0.0000 0.0000 0.0000 0.0000 20.9365
#
#
#
# Elastic Compliance Matrix: (Units=1/GPa)
#
#
# Indices 1 2 3 4 5 6 
#
# 1 0.011145 -0.002743 -0.001569 0.000000 0.000000 0.000000
# 2 -0.002743 0.009889 -0.004234 0.000000 0.000000 0.000000
# 3 -0.001569 -0.004234 0.014076 0.000000 0.000000 0.000000
# 4 0.000000 0.000000 0.000000 0.052880 0.000000 0.000000
# 5 0.000000 0.000000 0.000000 0.000000 0.065877 0.000000
# 6 0.000000 0.000000 0.000000 0.000000 0.000000 0.047764
#
#
# Mechanical properties :
#
#
# Convention : Reuss Voigt Hill
#
# Bulk Modulus (GPa) = 55.50120 58.71591 57.10855
# Shear Modulus (GPa) = 22.24908 25.32494 23.78701
#
# Velocity S-wave (km/s) = 3.84306 4.10011 3.97367
# Velocity P-wave (km/s) = 7.51894 7.83522 7.67871
#
# Compressibility (1/GPa) = 0.01801763
#
# Stress axis : x y z
#
# Youngs Moduli (GPa) = 89.72653 101.12268 71.04370
#
# Poissons Ratio (x) = 0.27735 0.11148
# Poissons Ratio (y) = 0.24609 0.30082
# Poissons Ratio (z) = 0.14079 0.42818
#
# Static dielectric constant tensor:
#      x y z
#    x 3.200000 0.000000 0.000000 
#    y 0.000000 3.225820 0.000000 
#    z 0.000000 0.000000 2.694450 
# 
# 
# High freq. dielectric constant tensor:
#      x y z
#    x 1.607480 0.000000 0.000000 
#    y 0.000000 1.576660 0.000000 
#    z 0.000000 0.000000 1.531440 
# 
# From -- ./inp_files/11531.got.cif
#   From: 2010.03.12/outbox.cif.g09.slc.cpg/sg62_6_cif.got.tgz:11531.got - 2010.04.10 19:12:36.
