data_PCOD8250460
_publ_section_title
;
Structure prediction by ZEFSAII (Michael W. Deem and Ramdas Pophale) SiO2 
 PCOD8250460
Probable space group: P N M A
;
_chemical_formula_sum "Si O2"
_cell_formula_units_Z 64
_cell_length_a 19.118395
_cell_length_b 8.909804
_cell_length_c 23.108126
_cell_angle_alpha 90.000000
_cell_angle_beta 90.000000
_cell_angle_gamma 90.000000
_cell_volume 3936.264809
_symmetry_space_group_name_H-M "P N M A"
_symmetry_group_IT_number 62
_symmetry_cell_setting 'orthorhombic'
loop_
_space_group_symop_operation_xyz
x,y,z
1/2-x,-y,1/2+z
1/2+x,1/2-y,1/2-z
-x,1/2+y,-z
-x,-y,-z
1/2+x,y,1/2-z
1/2-x,1/2+y,1/2+z
x,1/2-y,z
loop_
_atom_site_type_symbol
_atom_site_label
_atom_site_fract_x
_atom_site_fract_y
_atom_site_fract_z
Si Si1 0.362918 0.426636 0.063982
Si Si2 0.646520 0.422587 0.721518
Si Si3 0.356229 0.428142 0.932894
Si Si4 0.732514 0.426740 0.160664
Si Si5 0.720718 0.077728 0.840009
Si Si6 0.001394 0.922345 0.259617
Si Si7 0.345056 0.422548 0.736029
Si Si8 0.506855 0.072983 0.119704
O O1 0.361925 0.250000 0.066857
O O2 0.299788 0.483470 0.103966
O O3 0.437871 0.485039 0.086446
O O4 0.350889 0.483923 0.998953
O O5 0.664097 0.250000 0.707788
O O6 0.688372 0.523439 0.675612
O O7 0.670218 0.463337 0.786560
O O8 0.563693 0.456799 0.716934
O O9 0.353941 0.250000 0.927607
O O10 0.290291 0.497861 0.899434
O O11 0.428290 0.484765 0.906219
O O12 0.729480 0.250000 0.153571
O O13 0.678477 0.475745 0.210420
O O14 0.712907 0.250000 0.857392
O O15 0.800569 0.037448 0.821414
O O16 0.996592 0.750000 0.281939
O O17 0.072908 0.948559 0.223625
O O18 0.998642 0.034595 0.313133
O O19 0.329242 0.250000 0.753552
O O20 0.518869 0.250000 0.112424
#
# Coordination Sequence:
#
# PCOD8250460 Si02
#       8
#     8   8   8   8   8   8   8   8
#     4  10  22  35  48  68  96 131 168 206 245 284
#     4   9  18  32  50  72  96 129 164 194 239 296
#     4  11  22  36  50  65  93 134 172 204 241 291
#     4  11  21  32  48  72  96 125 161 206 251 284
#     4   9  17  30  48  71  96 125 163 199 237 285
#     4  10  18  31  52  73  98 134 166 193 235 290
#     4   9  18  32  50  72  98 128 161 197 238 292
#     4  11  21  32  46  71 101 128 166 207 241 281
#
# _framework density 16.259069
#
# number of rings (size 3 to 8) (size 9 to 14) (size 15 to 20)
#    0.000    2.000    2.500    3.000    0.000    4.000 
#    0.000    0.000    0.000    0.000    0.000    0.875 
#    0.000    0.000    0.000    0.000    0.000    0.000 
#
# Total GULP energy -793612.097942 kJ/mol
# GULP energy per Si atom -12400.189030 kJ/mol
# Density = 1.622206 g / cm^3
# Si number density = 16.259069 Si / 1000 Ang^3
#
#
#
# Elastic Constant Matrix: (Units=GPa)
#
#
# Indices 1 2 3 4 5 6 
#
# 1 119.5136 25.7029 40.2713 0.0000 0.0000 0.0000
# 2 25.7029 53.6836 23.4746 0.0000 0.0000 0.0000
# 3 40.2713 23.4746 65.6559 0.0000 0.0000 0.0000
# 4 0.0000 0.0000 0.0000 23.4977 0.0000 0.0000
# 5 0.0000 0.0000 0.0000 0.0000 18.9044 0.0000
# 6 0.0000 0.0000 0.0000 0.0000 0.0000 22.8865
#
#
#
# Elastic Compliance Matrix: (Units=1/GPa)
#
#
# Indices 1 2 3 4 5 6 
#
# 1 0.010871 -0.002713 -0.005698 0.000000 0.000000 0.000000
# 2 -0.002713 0.022757 -0.006472 0.000000 0.000000 0.000000
# 3 -0.005698 -0.006472 0.021040 0.000000 0.000000 0.000000
# 4 0.000000 0.000000 0.000000 0.042557 0.000000 0.000000
# 5 0.000000 0.000000 0.000000 0.000000 0.052898 0.000000
# 6 0.000000 0.000000 0.000000 0.000000 0.000000 0.043694
#
#
# Mechanical properties :
#
#
# Convention : Reuss Voigt Hill
#
# Bulk Modulus (GPa) = 40.15900 46.41673 43.28786
# Shear Modulus (GPa) = 21.56261 23.01801 22.29031
#
# Velocity S-wave (km/s) = 3.64564 3.76666 3.70665
# Velocity P-wave (km/s) = 6.51721 6.89400 6.70825
#
# Compressibility (1/GPa) = 0.02490102
#
# Stress axis : x y z
#
# Youngs Moduli (GPa) = 91.99095 43.94272 47.52914
#
# Poissons Ratio (x) = 0.11923 0.27080
# Poissons Ratio (y) = 0.24960 0.30762
# Poissons Ratio (z) = 0.52413 0.28441
#
# Static dielectric constant tensor:
#      x y z
#    x 3.275210 0.000000 0.000000 
#    y 0.000000 3.030800 0.000000 
#    z 0.000000 0.000000 2.977550 
# 
# 
# High freq. dielectric constant tensor:
#      x y z
#    x 1.627450 0.000000 0.000000 
#    y 0.000000 1.627350 0.000000 
#    z 0.000000 0.000000 1.592630 
# 
# From -- ./inp_files/27943.got.cif
#   From: 2010.03.12/outbox.cif.g09.slc.cpg/sg62_14_cif.got.tgz:27943.got - 2010.04.10 19:12:36.
