data_PCOD8250014
_publ_section_title
;
Structure prediction by ZEFSAII (Michael W. Deem and Ramdas Pophale) SiO2 
 PCOD8250014
Probable space group: P N M A
;
_chemical_formula_sum "Si O2"
_cell_formula_units_Z 64
_cell_length_a 20.914227
_cell_length_b 9.316026
_cell_length_c 19.837831
_cell_angle_alpha 90.000000
_cell_angle_beta 90.000000
_cell_angle_gamma 90.000000
_cell_volume 3865.153050
_symmetry_space_group_name_H-M "P N M A"
_symmetry_group_IT_number 62
_symmetry_cell_setting 'orthorhombic'
loop_
_space_group_symop_operation_xyz
x,y,z
1/2-x,-y,1/2+z
1/2+x,1/2-y,1/2-z
-x,1/2+y,-z
-x,-y,-z
1/2+x,y,1/2-z
1/2-x,1/2+y,1/2+z
x,1/2-y,z
loop_
_atom_site_type_symbol
_atom_site_label
_atom_site_fract_x
_atom_site_fract_y
_atom_site_fract_z
Si Si1 0.267621 0.920590 0.432742
Si Si2 0.625504 0.579553 0.067976
Si Si3 0.771824 0.584468 0.918790
Si Si4 0.929080 0.080173 0.705050
Si Si5 0.429106 0.919961 0.204733
Si Si6 0.189662 0.579350 0.208708
Si Si7 0.120769 0.584714 0.580444
Si Si8 0.187242 0.420513 0.792465
O O1 0.263352 0.750000 0.431386
O O2 0.196668 0.983853 0.421984
O O3 0.294527 0.966445 0.506208
O O4 0.310800 0.976291 0.370072
O O5 0.630147 0.750000 0.070050
O O6 0.581877 0.520017 0.128962
O O7 0.598672 0.534845 0.994522
O O8 0.789672 0.750000 0.906276
O O9 0.809239 0.487639 0.865501
O O10 0.696291 0.560718 0.911629
O O11 0.922428 0.250000 0.702754
O O12 0.874915 0.021261 0.755595
O O13 0.999913 0.034689 0.729571
O O14 0.423145 0.750000 0.197055
O O15 0.377433 0.980702 0.258188
O O16 0.417218 0.985772 0.131726
O O17 0.190000 0.750000 0.201806
O O18 0.250732 0.524709 0.251545
O O19 0.103128 0.750000 0.594088
O O20 0.186807 0.250000 0.791189
#
# Coordination Sequence:
#
# PCOD8250014 Si02
#       8
#     8   8   8   8   8   8   8   8
#     4   8  13  24  43  65  85 110 147 184 213 251
#     4   8  13  24  41  61  85 115 150 178 205 254
#     4   9  17  28  45  68  89 109 142 187 224 255
#     4   9  17  28  43  65  91 118 148 182 218 255
#     4  10  19  29  43  67  93 114 144 187 223 252
#     4  10  17  28  48  68  87 115 147 180 221 263
#     4   9  17  28  43  63  88 118 147 175 213 263
#     4   9  15  25  44  67  86 109 147 186 214 248
#
# _framework density 16.558205999999998
#
# number of rings (size 3 to 8) (size 9 to 14) (size 15 to 20)
#    0.000    3.000    2.500    1.500    0.000    0.500 
#    0.000    0.625    0.000    3.000    0.000    0.000 
#    0.000    0.000    0.000    0.000    0.000    0.000 
#
# Total GULP energy -793060.201418 kJ/mol
# GULP energy per Si atom -12391.565647 kJ/mol
# Density = 1.652052 g / cm^3
# Si number density = 16.558206 Si / 1000 Ang^3
#
#
#
# Elastic Constant Matrix: (Units=GPa)
#
#
# Indices 1 2 3 4 5 6 
#
# 1 113.3068 19.4334 74.1010 0.0000 0.0000 0.0000
# 2 19.4334 16.7663 22.8330 0.0000 0.0000 0.0000
# 3 74.1010 22.8330 144.2804 0.0000 0.0000 0.0000
# 4 0.0000 0.0000 0.0000 22.7595 0.0000 0.0000
# 5 0.0000 0.0000 0.0000 0.0000 23.1617 0.0000
# 6 0.0000 0.0000 0.0000 0.0000 0.0000 9.5931
#
#
#
# Elastic Compliance Matrix: (Units=1/GPa)
#
#
# Indices 1 2 3 4 5 6 
#
# 1 0.014137 -0.008283 -0.005950 0.000000 0.000000 0.000000
# 2 -0.008283 0.080882 -0.008546 0.000000 0.000000 0.000000
# 3 -0.005950 -0.008546 0.011339 0.000000 0.000000 0.000000
# 4 0.000000 0.000000 0.000000 0.043938 0.000000 0.000000
# 5 0.000000 0.000000 0.000000 0.000000 0.043175 0.000000
# 6 0.000000 0.000000 0.000000 0.000000 0.000000 0.104241
#
#
# Mechanical properties :
#
#
# Convention : Reuss Voigt Hill
#
# Bulk Modulus (GPa) = 16.44716 56.34314 36.39515
# Shear Modulus (GPa) = 13.75373 21.63529 17.69451
#
# Velocity S-wave (km/s) = 2.88519 3.61864 3.27253
# Velocity P-wave (km/s) = 4.58842 7.18057 6.02554
#
# Compressibility (1/GPa) = 0.06080076
#
# Stress axis : x y z
#
# Youngs Moduli (GPa) = 70.73388 12.36364 88.18975
#
# Poissons Ratio (x) = 0.10241 0.52473
# Poissons Ratio (y) = 0.58592 0.75364
# Poissons Ratio (z) = 0.42087 0.10566
#
# Static dielectric constant tensor:
#      x y z
#    x 3.154350 0.000000 0.000000 
#    y 0.000000 2.612310 0.000000 
#    z 0.000000 0.000000 3.443720 
# 
# 
# High freq. dielectric constant tensor:
#      x y z
#    x 1.617190 0.000000 0.000000 
#    y 0.000000 1.583510 0.000000 
#    z 0.000000 0.000000 1.647990 
# 
# From -- ./inp_files/24486.got.cif
#   From: 2010.03.12/outbox.cif.g09.slc.cpg/sg62_13_cif.got.tgz:24486.got - 2010.04.10 19:12:36.
