data_PCOD8250604
_publ_section_title
;
Structure prediction by ZEFSAII (Michael W. Deem and Ramdas Pophale) SiO2 
 PCOD8250604
Probable space group: P N M A
;
_chemical_formula_sum "Si O2"
_cell_formula_units_Z 64
_cell_length_a 9.838079
_cell_length_b 28.680823
_cell_length_c 12.165201
_cell_angle_alpha 90.000000
_cell_angle_beta 90.000000
_cell_angle_gamma 90.000000
_cell_volume 3432.584238
_symmetry_space_group_name_H-M "P N M A"
_symmetry_group_IT_number 62
_symmetry_cell_setting 'orthorhombic'
loop_
_space_group_symop_operation_xyz
x,y,z
1/2-x,-y,1/2+z
1/2+x,1/2-y,1/2-z
-x,1/2+y,-z
-x,-y,-z
1/2+x,y,1/2-z
1/2-x,1/2+y,1/2+z
x,1/2-y,z
loop_
_atom_site_type_symbol
_atom_site_label
_atom_site_fract_x
_atom_site_fract_y
_atom_site_fract_z
Si Si1 0.942402 0.379068 0.977284
Si Si2 0.738382 0.622935 0.033498
Si Si3 0.561247 0.803542 0.645040
Si Si4 0.640093 0.028292 0.797788
Si Si5 0.053657 0.534376 0.874562
Si Si6 0.753714 0.195859 0.349887
Si Si7 0.120722 0.910274 0.259684
Si Si8 0.280145 0.975143 0.535967
O O1 0.868919 0.386851 0.861006
O O2 0.100726 0.378052 0.949327
O O3 0.897336 0.330799 0.034003
O O4 0.899166 0.418068 0.067187
O O5 0.659157 0.629263 0.149541
O O6 0.695684 0.664684 0.952293
O O7 0.695755 0.571879 0.987922
O O8 0.585089 0.750000 0.616403
O O9 0.656877 0.819161 0.745387
O O10 0.404495 0.813916 0.677385
O O11 0.522844 0.066735 0.789267
O O12 0.769017 0.048871 0.733312
O O13 0.603676 0.976630 0.748895
O O14 0.677817 0.016223 0.924849
O O15 0.889850 0.533459 0.866479
O O16 0.120082 0.489864 0.936838
O O17 0.777727 0.250000 0.380303
#
# Coordination Sequence:
#
# PCOD8250604 Si02
#       8
#     8   8   8   8   8   8   8   8
#     4  10  20  36  58  78 108 150 183 219 277 334
#     4  10  21  37  56  80 110 147 184 224 272 328
#     4   9  19  38  62  85 109 139 176 224 280 332
#     4  12  21  34  53  74 107 149 185 227 267 312
#     4  10  18  33  51  71 105 149 184 217 265 319
#     4   9  19  39  63  85 110 139 176 225 280 328
#     4  12  21  37  54  78 111 146 188 224 266 320
#     4  10  19  33  51  73 106 146 185 218 266 317
#
# _framework density 18.644845
#
# number of rings (size 3 to 8) (size 9 to 14) (size 15 to 20)
#    0.000    1.750    5.000    0.750    1.750    0.500 
#    2.250    0.625    0.000    0.000    0.000    0.000 
#    0.000    0.000    0.000    0.000    0.000    0.000 
#
# Total GULP energy -793072.735395 kJ/mol
# GULP energy per Si atom -12391.761491 kJ/mol
# Density = 1.860241 g / cm^3
# Si number density = 18.644845 Si / 1000 Ang^3
#
#
#
# Elastic Constant Matrix: (Units=GPa)
#
#
# Indices 1 2 3 4 5 6 
#
# 1 54.1122 26.9304 39.0332 0.0000 0.0000 0.0000
# 2 26.9304 84.5061 54.8444 0.0000 0.0000 0.0000
# 3 39.0332 54.8444 105.7772 0.0000 0.0000 0.0000
# 4 0.0000 0.0000 0.0000 33.4127 0.0000 0.0000
# 5 0.0000 0.0000 0.0000 0.0000 31.2613 0.0000
# 6 0.0000 0.0000 0.0000 0.0000 0.0000 20.9739
#
#
#
# Elastic Compliance Matrix: (Units=1/GPa)
#
#
# Indices 1 2 3 4 5 6 
#
# 1 0.025701 -0.003067 -0.007893 0.000000 0.000000 0.000000
# 2 -0.003067 0.018201 -0.008305 0.000000 0.000000 0.000000
# 3 -0.007893 -0.008305 0.016673 0.000000 0.000000 0.000000
# 4 0.000000 0.000000 0.000000 0.029929 0.000000 0.000000
# 5 0.000000 0.000000 0.000000 0.000000 0.031988 0.000000
# 6 0.000000 0.000000 0.000000 0.000000 0.000000 0.047678
#
#
# Mechanical properties :
#
#
# Convention : Reuss Voigt Hill
#
# Bulk Modulus (GPa) = 45.36718 54.00129 49.68423
# Shear Modulus (GPa) = 23.14290 25.36876 24.25583
#
# Velocity S-wave (km/s) = 3.52696 3.69268 3.61077
# Velocity P-wave (km/s) = 6.40086 6.87074 6.63996
#
# Compressibility (1/GPa) = 0.02204237
#
# Stress axis : x y z
#
# Youngs Moduli (GPa) = 38.90967 54.94207 59.97819
#
# Poissons Ratio (x) = 0.16853 0.47343
# Poissons Ratio (y) = 0.11935 0.49813
# Poissons Ratio (z) = 0.30713 0.45630
#
# Static dielectric constant tensor:
#      x y z
#    x 3.425220 0.000000 0.000000 
#    y 0.000000 3.346300 0.000000 
#    z 0.000000 0.000000 3.483740 
# 
# 
# High freq. dielectric constant tensor:
#      x y z
#    x 1.715190 0.000000 0.000000 
#    y 0.000000 1.703450 0.000000 
#    z 0.000000 0.000000 1.719330 
# 
# From -- ./inp_files/11548.got.cif
#   From: 2010.03.12/outbox.cif.g09.slc.cpg/sg62_6_cif.got.tgz:11548.got - 2010.04.10 19:12:36.
