data_PCOD8250753
_publ_section_title
;
Structure prediction by ZEFSAII (Michael W. Deem and Ramdas Pophale) SiO2 
 PCOD8250753
Probable space group: P N M A
;
_chemical_formula_sum "Si O2"
_cell_formula_units_Z 64
_cell_length_a 18.281771
_cell_length_b 9.132787
_cell_length_c 26.447192
_cell_angle_alpha 90.000000
_cell_angle_beta 90.000000
_cell_angle_gamma 90.000000
_cell_volume 4415.716284
_symmetry_space_group_name_H-M "P N M A"
_symmetry_group_IT_number 62
_symmetry_cell_setting 'orthorhombic'
loop_
_space_group_symop_operation_xyz
x,y,z
1/2-x,-y,1/2+z
1/2+x,1/2-y,1/2-z
-x,1/2+y,-z
-x,-y,-z
1/2+x,y,1/2-z
1/2-x,1/2+y,1/2+z
x,1/2-y,z
loop_
_atom_site_type_symbol
_atom_site_label
_atom_site_fract_x
_atom_site_fract_y
_atom_site_fract_z
Si Si1 0.082405 0.920665 0.260192
Si Si2 0.659396 0.416560 0.149303
Si Si3 0.837287 0.079280 0.354826
Si Si4 0.708829 0.915747 0.710739
Si Si5 0.779637 0.419403 0.798721
Si Si6 0.572721 0.419442 0.054341
Si Si7 0.424127 0.921285 0.060419
Si Si8 0.564889 0.584646 0.756690
O O1 0.077998 0.750000 0.270936
O O2 0.134391 0.953209 0.211453
O O3 0.112171 0.991387 0.311381
O O4 0.002028 0.977565 0.247236
O O5 0.635884 0.250000 0.159159
O O6 0.747559 0.435767 0.157630
O O7 0.639716 0.459955 0.091777
O O8 0.830678 0.250000 0.365877
O O9 0.891775 0.045529 0.308236
O O10 0.755852 0.016593 0.343263
O O11 0.865139 0.000144 0.404867
O O12 0.724146 0.750000 0.732387
O O13 0.620850 0.934988 0.708824
O O14 0.739784 0.040644 0.746744
O O15 0.766304 0.250000 0.811481
O O16 0.549090 0.250000 0.058619
O O17 0.504364 0.516398 0.071624
O O18 0.598056 0.455520 0.997532
O O19 0.424223 0.750000 0.072546
O O20 0.535001 0.750000 0.759514
#
# Coordination Sequence:
#
# PCOD8250753 Si02
#       8
#     8   8   8   8   8   8   8   8
#     4  10  19  27  38  59  83 105 131 161 194 233
#     4   9  16  28  44  57  75 105 137 166 195 229
#     4  10  19  30  43  58  77 105 139 168 197 235
#     4   8  15  27  41  57  76 101 132 163 194 229
#     4   9  17  28  40  56  78 102 129 162 196 231
#     4   9  18  30  42  58  80 107 138 169 200 234
#     4  10  19  29  41  58  81 107 135 169 204 234
#     4   9  17  27  39  56  78 103 131 160 190 229
#
# _framework density 14.493684
#
# number of rings (size 3 to 8) (size 9 to 14) (size 15 to 20)
#    0.000    2.750    0.000    3.000    0.000    8.000 
#    0.000    0.000    0.000    0.000    0.000    0.000 
#    0.000    1.000    0.000    2.000    0.000    2.625 
#
# Total GULP energy -793069.623871 kJ/mol
# GULP energy per Si atom -12391.712873 kJ/mol
# Density = 1.446070 g / cm^3
# Si number density = 14.493684 Si / 1000 Ang^3
#
#
#
# Elastic Constant Matrix: (Units=GPa)
#
#
# Indices 1 2 3 4 5 6 
#
# 1 94.1544 45.7242 52.7479 0.0000 0.0000 0.0000
# 2 45.7242 68.1434 38.5245 0.0000 0.0000 0.0000
# 3 52.7479 38.5245 78.2498 0.0000 0.0000 0.0000
# 4 0.0000 0.0000 0.0000 18.7348 0.0000 0.0000
# 5 0.0000 0.0000 0.0000 0.0000 26.9309 0.0000
# 6 0.0000 0.0000 0.0000 0.0000 0.0000 21.8576
#
#
#
# Elastic Compliance Matrix: (Units=1/GPa)
#
#
# Indices 1 2 3 4 5 6 
#
# 1 0.019739 -0.007929 -0.009402 0.000000 0.000000 0.000000
# 2 -0.007929 0.023520 -0.006234 0.000000 0.000000 0.000000
# 3 -0.009402 -0.006234 0.022187 0.000000 0.000000 0.000000
# 4 0.000000 0.000000 0.000000 0.053376 0.000000 0.000000
# 5 0.000000 0.000000 0.000000 0.000000 0.037132 0.000000
# 6 0.000000 0.000000 0.000000 0.000000 0.000000 0.045751
#
#
# Mechanical properties :
#
#
# Convention : Reuss Voigt Hill
#
# Bulk Modulus (GPa) = 54.60263 57.17120 55.88691
# Shear Modulus (GPa) = 19.61233 20.40806 20.01020
#
# Velocity S-wave (km/s) = 3.68253 3.75649 3.71969
# Velocity P-wave (km/s) = 7.47238 7.63847 7.55588
#
# Compressibility (1/GPa) = 0.01831414
#
# Stress axis : x y z
#
# Youngs Moduli (GPa) = 50.66145 42.51673 45.07166
#
# Poissons Ratio (x) = 0.33713 0.42377
# Poissons Ratio (y) = 0.40171 0.28100
# Poissons Ratio (z) = 0.47632 0.26507
#
# Static dielectric constant tensor:
#      x y z
#    x 2.952310 0.000000 0.000000 
#    y 0.000000 2.929840 0.000000 
#    z 0.000000 0.000000 2.728360 
# 
# 
# High freq. dielectric constant tensor:
#      x y z
#    x 1.541910 0.000000 0.000000 
#    y 0.000000 1.567410 0.000000 
#    z 0.000000 0.000000 1.519370 
# 
# From -- ./inp_files/31333.got.cif
#   From: 2010.03.12/outbox.cif.g09.slc.cpg/sg62_16_cif.got.tgz:31333.got - 2010.04.10 19:12:36.
