data_PCOD8250433
_publ_section_title
;
Structure prediction by ZEFSAII (Michael W. Deem and Ramdas Pophale) SiO2 
 PCOD8250433
Probable space group: P N M A
;
_chemical_formula_sum "Si O2"
_cell_formula_units_Z 64
_cell_length_a 23.263477
_cell_length_b 8.832370
_cell_length_c 19.080012
_cell_angle_alpha 90.000000
_cell_angle_beta 90.000000
_cell_angle_gamma 90.000000
_cell_volume 3920.401287
_symmetry_space_group_name_H-M "P N M A"
_symmetry_group_IT_number 62
_symmetry_cell_setting 'orthorhombic'
loop_
_space_group_symop_operation_xyz
x,y,z
1/2-x,-y,1/2+z
1/2+x,1/2-y,1/2-z
-x,1/2+y,-z
-x,-y,-z
1/2+x,y,1/2-z
1/2-x,1/2+y,1/2+z
x,1/2-y,z
loop_
_atom_site_type_symbol
_atom_site_label
_atom_site_fract_x
_atom_site_fract_y
_atom_site_fract_z
Si Si1 0.233936 0.428332 0.345321
Si Si2 0.762466 0.074993 0.004520
Si Si3 0.164631 0.429632 0.217293
Si Si4 0.934141 0.073630 0.865672
Si Si5 0.342554 0.428886 0.258187
Si Si6 0.227554 0.074792 0.645685
Si Si7 0.615368 0.428713 0.501730
Si Si8 0.066470 0.073963 0.850054
O O1 0.235735 0.250000 0.342208
O O2 0.228980 0.484169 0.425752
O O3 0.180217 0.481634 0.297196
O O4 0.293680 0.487684 0.312189
O O5 0.781183 0.250000 0.013706
O O6 0.720216 0.055764 0.938249
O O7 0.819089 0.977130 0.993121
O O8 0.159718 0.250000 0.209799
O O9 0.104736 0.503752 0.195722
O O10 0.214981 0.485650 0.166442
O O11 0.920588 0.250000 0.871897
O O12 0.999246 0.040665 0.844091
O O13 0.922766 0.000325 0.940753
O O14 0.342967 0.250000 0.248706
O O15 0.328539 0.503806 0.182760
O O16 0.403780 0.484111 0.286543
O O17 0.234215 0.250000 0.666703
O O18 0.610349 0.250000 0.494803
O O19 0.590259 0.486432 0.575657
O O20 0.080707 0.250000 0.841561
#
# Coordination Sequence:
#
# PCOD8250433 Si02
#       8
#     8   8   8   8   8   8   8   8
#     4   8  16  30  48  70  95 123 156 197 243 290
#     4  10  18  31  50  72  97 130 162 192 241 298
#     4  10  19  32  49  71  97 126 165 208 245 286
#     4  11  22  35  49  67  97 136 170 203 244 294
#     4  10  19  32  51  71  96 129 163 203 245 288
#     4  10  19  30  49  72  99 129 159 197 243 296
#     4  11  21  32  47  70  98 129 167 209 239 279
#     4  10  22  36  49  69  97 130 171 209 245 288
#
# _framework density 16.324859
#
# number of rings (size 3 to 8) (size 9 to 14) (size 15 to 20)
#    0.000    2.000    2.500    3.000    0.000    2.000 
#    0.000    0.625    0.000    0.000    0.000    0.875 
#    0.000    0.000    0.000    0.000    0.000    0.000 
#
# Total GULP energy -793516.600788 kJ/mol
# GULP energy per Si atom -12398.696887 kJ/mol
# Density = 1.628770 g / cm^3
# Si number density = 16.324859 Si / 1000 Ang^3
#
#
#
# Elastic Constant Matrix: (Units=GPa)
#
#
# Indices 1 2 3 4 5 6 
#
# 1 71.7314 32.8994 43.4864 0.0000 0.0000 0.0000
# 2 32.8994 65.4923 33.1411 0.0000 0.0000 0.0000
# 3 43.4864 33.1411 104.3202 0.0000 0.0000 0.0000
# 4 0.0000 0.0000 0.0000 20.2048 0.0000 0.0000
# 5 0.0000 0.0000 0.0000 0.0000 26.3661 0.0000
# 6 0.0000 0.0000 0.0000 0.0000 0.0000 24.6631
#
#
#
# Elastic Compliance Matrix: (Units=1/GPa)
#
#
# Indices 1 2 3 4 5 6 
#
# 1 0.021287 -0.007391 -0.006525 0.000000 0.000000 0.000000
# 2 -0.007391 0.020760 -0.003514 0.000000 0.000000 0.000000
# 3 -0.006525 -0.003514 0.013422 0.000000 0.000000 0.000000
# 4 0.000000 0.000000 0.000000 0.049493 0.000000 0.000000
# 5 0.000000 0.000000 0.000000 0.000000 0.037927 0.000000
# 6 0.000000 0.000000 0.000000 0.000000 0.000000 0.040546
#
#
# Mechanical properties :
#
#
# Convention : Reuss Voigt Hill
#
# Bulk Modulus (GPa) = 48.52519 51.17750 49.85134
# Shear Modulus (GPa) = 22.20572 23.04794 22.62683
#
# Velocity S-wave (km/s) = 3.69214 3.76151 3.72699
# Velocity P-wave (km/s) = 6.92569 7.09103 7.00885
#
# Compressibility (1/GPa) = 0.02060785
#
# Stress axis : x y z
#
# Youngs Moduli (GPa) = 46.97749 48.16927 74.50215
#
# Poissons Ratio (x) = 0.35603 0.48616
# Poissons Ratio (y) = 0.34722 0.26181
# Poissons Ratio (z) = 0.30655 0.16927
#
# Static dielectric constant tensor:
#      x y z
#    x 2.912320 0.000000 0.000000 
#    y 0.000000 3.095060 0.000000 
#    z 0.000000 0.000000 3.442610 
# 
# 
# High freq. dielectric constant tensor:
#      x y z
#    x 1.597730 0.000000 0.000000 
#    y 0.000000 1.633010 0.000000 
#    z 0.000000 0.000000 1.627780 
# 
# From -- ./inp_files/24757.got.cif
#   From: 2010.03.12/outbox.cif.g09.slc.cpg/sg62_13_cif.got.tgz:24757.got - 2010.04.10 19:12:36.
