data_PCOD8250975
_publ_section_title
;
Structure prediction by ZEFSAII (Michael W. Deem and Ramdas Pophale) SiO2 
 PCOD8250975
Probable space group: P N M A
;
_chemical_formula_sum "Si O2"
_cell_formula_units_Z 64
_cell_length_a 18.837943
_cell_length_b 8.995730
_cell_length_c 20.905067
_cell_angle_alpha 90.000000
_cell_angle_beta 90.000000
_cell_angle_gamma 90.000000
_cell_volume 3542.594583
_symmetry_space_group_name_H-M "P N M A"
_symmetry_group_IT_number 62
_symmetry_cell_setting 'orthorhombic'
loop_
_space_group_symop_operation_xyz
x,y,z
1/2-x,-y,1/2+z
1/2+x,1/2-y,1/2-z
-x,1/2+y,-z
-x,-y,-z
1/2+x,y,1/2-z
1/2-x,1/2+y,1/2+z
x,1/2-y,z
loop_
_atom_site_type_symbol
_atom_site_label
_atom_site_fract_x
_atom_site_fract_y
_atom_site_fract_z
Si Si1 0.328864 0.079685 0.995556
Si Si2 0.922106 0.426502 0.248125
Si Si3 0.326955 0.420824 0.642942
Si Si4 0.671079 0.578719 0.634556
Si Si5 0.314137 0.418216 0.503003
Si Si6 0.918340 0.573183 0.751221
Si Si7 0.823779 0.424005 0.363689
Si Si8 0.667967 0.074281 0.129339
O O1 0.338692 0.250000 0.976936
O O2 0.364202 0.985360 0.938078
O O3 0.359818 0.045600 0.066602
O O4 0.246226 0.041563 0.001650
O O5 0.926433 0.250000 0.243632
O O6 0.881083 0.496447 0.186463
O O7 0.881305 0.476349 0.311942
O O8 0.001739 0.490576 0.249752
O O9 0.326564 0.250000 0.665080
O O10 0.356564 0.435956 0.569597
O O11 0.379686 0.513968 0.686155
O O12 0.247172 0.481916 0.647715
O O13 0.676130 0.750000 0.653873
O O14 0.639717 0.557480 0.562096
O O15 0.751360 0.514122 0.638443
O O16 0.281175 0.250000 0.499737
O O17 0.916392 0.750000 0.753640
O O18 0.878901 0.513455 0.687815
O O19 0.804234 0.250000 0.356267
O O20 0.665444 0.250000 0.126249
#
# Coordination Sequence:
#
# PCOD8250975 Si02
#       8
#     8   8   8   8   8   8   8   8
#     4   9  16  26  45  72  97 119 149 196 243 279
#     4   9  17  30  49  71  94 123 162 203 237 275
#     4  10  19  31  49  72  98 127 158 196 241 288
#     4   8  13  25  47  69  87 114 154 194 227 268
#     4   8  15  28  46  69  96 124 154 189 235 288
#     4  10  20  33  49  69  94 127 165 201 237 281
#     4   9  17  31  51  74  98 123 157 200 241 284
#     4   9  17  30  48  68  92 123 157 193 236 289
#
# _framework density 18.065854999999999
#
# number of rings (size 3 to 8) (size 9 to 14) (size 15 to 20)
#    0.000    3.000    0.000    2.250    0.000    3.500 
#    0.000    1.875    0.000    3.000    0.000    0.000 
#    0.000    0.000    0.000    0.000    0.000    0.000 
#
# Total GULP energy -792956.949848 kJ/mol
# GULP energy per Si atom -12389.952341 kJ/mol
# Density = 1.802474 g / cm^3
# Si number density = 18.065855 Si / 1000 Ang^3
#
#
#
# Elastic Constant Matrix: (Units=GPa)
#
#
# Indices 1 2 3 4 5 6 
#
# 1 89.9229 15.7015 72.6393 0.0000 0.0000 0.0000
# 2 15.7015 21.9836 26.3186 0.0000 0.0000 0.0000
# 3 72.6393 26.3186 180.8483 0.0000 0.0000 0.0000
# 4 0.0000 0.0000 0.0000 26.4019 0.0000 0.0000
# 5 0.0000 0.0000 0.0000 0.0000 6.3196 0.0000
# 6 0.0000 0.0000 0.0000 0.0000 0.0000 10.7882
#
#
#
# Elastic Compliance Matrix: (Units=1/GPa)
#
#
# Indices 1 2 3 4 5 6 
#
# 1 0.016864 -0.004766 -0.006080 0.000000 0.000000 0.000000
# 2 -0.004766 0.056433 -0.006298 0.000000 0.000000 0.000000
# 3 -0.006080 -0.006298 0.008888 0.000000 0.000000 0.000000
# 4 0.000000 0.000000 0.000000 0.037876 0.000000 0.000000
# 5 0.000000 0.000000 0.000000 0.000000 0.158237 0.000000
# 6 0.000000 0.000000 0.000000 0.000000 0.000000 0.092694
#
#
# Mechanical properties :
#
#
# Convention : Reuss Voigt Hill
#
# Bulk Modulus (GPa) = 20.87837 58.00818 39.44328
# Shear Modulus (GPa) = 11.86952 20.57497 16.22225
#
# Velocity S-wave (km/s) = 2.56601 3.37840 2.99983
# Velocity P-wave (km/s) = 4.51233 6.88456 5.82058
#
# Compressibility (1/GPa) = 0.04789645
#
# Stress axis : x y z
#
# Youngs Moduli (GPa) = 59.29674 17.72020 112.50877
#
# Poissons Ratio (x) = 0.08446 0.68407
# Poissons Ratio (y) = 0.28261 0.70861
# Poissons Ratio (z) = 0.36053 0.11161
#
# Static dielectric constant tensor:
#      x y z
#    x 3.142770 0.000000 0.000000 
#    y 0.000000 3.068590 0.000000 
#    z 0.000000 0.000000 3.872100 
# 
# 
# High freq. dielectric constant tensor:
#      x y z
#    x 1.653160 0.000000 0.000000 
#    y 0.000000 1.670510 0.000000 
#    z 0.000000 0.000000 1.728370 
# 
# From -- ./inp_files/27912.got.cif
#   From: 2010.03.12/outbox.cif.g09.slc.cpg/sg62_14_cif.got.tgz:27912.got - 2010.04.10 19:12:36.
