data_PCOD8250487
_publ_section_title
;
Structure prediction by ZEFSAII (Michael W. Deem and Ramdas Pophale) SiO2 
 PCOD8250487
Probable space group: P N M A
;
_chemical_formula_sum "Si O2"
_cell_formula_units_Z 56
_cell_length_a 19.489983
_cell_length_b 9.254241
_cell_length_c 17.451748
_cell_angle_alpha 90.000000
_cell_angle_beta 90.000000
_cell_angle_gamma 90.000000
_cell_volume 3147.684524
_symmetry_space_group_name_H-M "P N M A"
_symmetry_group_IT_number 62
_symmetry_cell_setting 'orthorhombic'
loop_
_space_group_symop_operation_xyz
x,y,z
1/2-x,-y,1/2+z
1/2+x,1/2-y,1/2-z
-x,1/2+y,-z
-x,-y,-z
1/2+x,y,1/2-z
1/2-x,1/2+y,1/2+z
x,1/2-y,z
loop_
_atom_site_type_symbol
_atom_site_label
_atom_site_fract_x
_atom_site_fract_y
_atom_site_fract_z
Si Si1 0.190186 0.580553 0.071515
Si Si2 0.566194 0.582692 0.528495
Si Si3 0.111137 0.580384 0.220988
Si Si4 0.524492 0.585497 0.693336
Si Si5 0.898459 0.581787 0.627575
Si Si6 0.839668 0.578550 0.466522
Si Si7 0.442895 0.414682 0.139400
O O1 0.194362 0.750000 0.057236
O O2 0.170141 0.545207 0.159034
O O3 0.264701 0.513646 0.053147
O O4 0.133634 0.516847 0.012450
O O5 0.500000 0.500000 0.500000
O O6 0.557027 0.750000 0.505837
O O7 0.573688 0.562500 0.620201
O O8 0.102718 0.750000 0.234511
O O9 0.132098 0.505662 0.300619
O O10 0.039992 0.520614 0.187401
O O11 0.495871 0.750000 0.696552
O O12 0.568162 0.555217 0.770049
O O13 0.885797 0.750000 0.643618
O O14 0.859418 0.528037 0.551878
O O15 0.978861 0.548824 0.617310
O O16 0.842081 0.750000 0.459905
O O17 0.893763 0.519752 0.406083
O O18 0.425100 0.250000 0.118000
#
# Coordination Sequence:
#
# PCOD8250487 Si02
#       7
#     8   8   8   8   8   8   8
#     4   9  19  34  51  74 105 138 170 208 255 306
#     4  10  18  32  54  76 102 135 171 211 252 298
#     4  10  18  31  53  77 102 132 168 209 256 304
#     4   9  18  32  52  78 106 131 165 212 257 302
#     4   9  19  35  55  78 102 131 173 216 254 305
#     4  10  20  36  54  74 102 139 177 209 254 313
#     4   9  18  33  51  77 107 130 166 219 262 297
#
# _framework density 17.790856000000002
#
# number of rings (size 3 to 8) (size 9 to 14) (size 15 to 20)
#    0.000    2.571    1.429    1.714    0.000    2.857 
#    2.571    2.143    0.000    0.000    0.000    0.000 
#    0.000    0.000    0.000    0.000    0.000    0.000 
#
# Total GULP energy -694346.680913 kJ/mol
# GULP energy per Si atom -12399.047873 kJ/mol
# Density = 1.775036 g / cm^3
# Si number density = 17.790856 Si / 1000 Ang^3
#
#
#
# Elastic Constant Matrix: (Units=GPa)
#
#
# Indices 1 2 3 4 5 6 
#
# 1 107.7153 36.9285 83.7836 0.0000 0.0000 0.0000
# 2 36.9285 46.9453 50.6601 0.0000 0.0000 0.0000
# 3 83.7836 50.6601 154.8886 0.0000 0.0000 0.0000
# 4 0.0000 0.0000 0.0000 26.5412 0.0000 0.0000
# 5 0.0000 0.0000 0.0000 0.0000 23.9666 0.0000
# 6 0.0000 0.0000 0.0000 0.0000 0.0000 19.0092
#
#
#
# Elastic Compliance Matrix: (Units=1/GPa)
#
#
# Indices 1 2 3 4 5 6 
#
# 1 0.016833 -0.005278 -0.007379 0.000000 0.000000 0.000000
# 2 -0.005278 0.034576 -0.008454 0.000000 0.000000 0.000000
# 3 -0.007379 -0.008454 0.013213 0.000000 0.000000 0.000000
# 4 0.000000 0.000000 0.000000 0.037677 0.000000 0.000000
# 5 0.000000 0.000000 0.000000 0.000000 0.041725 0.000000
# 6 0.000000 0.000000 0.000000 0.000000 0.000000 0.052606
#
#
# Mechanical properties :
#
#
# Convention : Reuss Voigt Hill
#
# Bulk Modulus (GPa) = 44.64350 72.47706 58.56028
# Shear Modulus (GPa) = 20.29889 23.11520 21.70705
#
# Velocity S-wave (km/s) = 3.38149 3.60845 3.49682
# Velocity P-wave (km/s) = 6.35563 7.62811 7.02076
#
# Compressibility (1/GPa) = 0.02239968
#
# Stress axis : x y z
#
# Youngs Moduli (GPa) = 59.40754 28.92155 75.68438
#
# Poissons Ratio (x) = 0.15266 0.55847
# Poissons Ratio (y) = 0.31357 0.63982
# Poissons Ratio (z) = 0.43837 0.24450
#
# Static dielectric constant tensor:
#      x y z
#    x 3.287970 0.000000 0.000000 
#    y 0.000000 3.142230 0.000000 
#    z 0.000000 0.000000 3.604660 
# 
# 
# High freq. dielectric constant tensor:
#      x y z
#    x 1.666920 0.000000 0.000000 
#    y 0.000000 1.672120 0.000000 
#    z 0.000000 0.000000 1.705930 
# 
# From -- ./inp_files/24572.got.cif
#   From: 2010.03.12/outbox.cif.g09.slc.cpg/sg62_13_cif.got.tgz:24572.got - 2010.04.10 19:12:36.
