data_PCOD8250170
_publ_section_title
;
Structure prediction by ZEFSAII (Michael W. Deem and Ramdas Pophale) SiO2 
 PCOD8250170
Probable space group: P N M A
;
_chemical_formula_sum "Si O2"
_cell_formula_units_Z 64
_cell_length_a 26.303444
_cell_length_b 8.913816
_cell_length_c 18.544615
_cell_angle_alpha 90.000000
_cell_angle_beta 90.000000
_cell_angle_gamma 90.000000
_cell_volume 4348.045724
_symmetry_space_group_name_H-M "P N M A"
_symmetry_group_IT_number 62
_symmetry_cell_setting 'orthorhombic'
loop_
_space_group_symop_operation_xyz
x,y,z
1/2-x,-y,1/2+z
1/2+x,1/2-y,1/2-z
-x,1/2+y,-z
-x,-y,-z
1/2+x,y,1/2-z
1/2-x,1/2+y,1/2+z
x,1/2-y,z
loop_
_atom_site_type_symbol
_atom_site_label
_atom_site_fract_x
_atom_site_fract_y
_atom_site_fract_z
Si Si1 0.755992 0.427323 0.421807
Si Si2 0.642474 0.927456 0.168797
Si Si3 0.441467 0.924906 0.921702
Si Si4 0.739616 0.575615 0.080195
Si Si5 0.442203 0.076002 0.069730
Si Si6 0.302124 0.925690 0.711373
Si Si7 0.706739 0.075236 0.718026
Si Si8 0.148242 0.925857 0.670354
O O1 0.759057 0.250000 0.428120
O O2 0.751142 0.500415 0.501842
O O3 0.706264 0.469500 0.373294
O O4 0.808317 0.483219 0.385037
O O5 0.639955 0.750000 0.170611
O O6 0.688587 0.988192 0.118341
O O7 0.589556 0.991440 0.140354
O O8 0.651601 0.985358 0.250886
O O9 0.430084 0.750000 0.916817
O O10 0.500462 0.963168 0.907592
O O11 0.424776 0.982153 0.000317
O O12 0.729785 0.750000 0.068255
O O13 0.789284 0.550372 0.131312
O O14 0.436249 0.250000 0.048725
O O15 0.406353 0.033381 0.136774
O O16 0.312153 0.750000 0.720982
O O17 0.249580 0.970127 0.748476
O O18 0.716334 0.250000 0.736301
O O19 0.654051 0.016800 0.753635
O O20 0.153028 0.750000 0.686498
#
# Coordination Sequence:
#
# PCOD8250170 Si02
#       8
#     8   8   8   8   8   8   8   8
#     4   8  13  22  38  57  75  99 131 162 190 226
#     4  10  18  28  42  57  79 111 139 163 197 241
#     4  10  19  29  42  61  82 103 134 174 206 236
#     4   8  14  24  38  56  77 103 133 160 191 235
#     4   9  18  31  44  58  79 108 138 168 204 241
#     4   9  16  26  40  57  77 102 134 169 199 232
#     4   9  16  25  38  57  80 104 131 165 201 237
#     4   9  16  27  42  56  75 107 140 164 192 235
#
# _framework density 14.719256
#
# number of rings (size 3 to 8) (size 9 to 14) (size 15 to 20)
#    0.000    3.000    0.000    3.750    0.000    3.000 
#    0.000    0.000    0.000   14.250    0.000    0.000 
#    0.000    1.000    0.000    2.000    0.000    2.750 
#
# Total GULP energy -792996.536413 kJ/mol
# GULP energy per Si atom -12390.570881 kJ/mol
# Density = 1.468575 g / cm^3
# Si number density = 14.719256 Si / 1000 Ang^3
#
#
#
# Elastic Constant Matrix: (Units=GPa)
#
#
# Indices 1 2 3 4 5 6 
#
# 1 66.8539 26.0042 46.8021 0.0000 0.0000 0.0000
# 2 26.0042 42.5833 27.8200 0.0000 0.0000 0.0000
# 3 46.8021 27.8200 98.9018 0.0000 0.0000 0.0000
# 4 0.0000 0.0000 0.0000 20.2709 0.0000 0.0000
# 5 0.0000 0.0000 0.0000 0.0000 26.7519 0.0000
# 6 0.0000 0.0000 0.0000 0.0000 0.0000 18.9132
#
#
#
# Elastic Compliance Matrix: (Units=1/GPa)
#
#
# Indices 1 2 3 4 5 6 
#
# 1 0.025023 -0.009243 -0.009241 0.000000 0.000000 0.000000
# 2 -0.009243 0.032185 -0.004679 0.000000 0.000000 0.000000
# 3 -0.009241 -0.004679 0.015800 0.000000 0.000000 0.000000
# 4 0.000000 0.000000 0.000000 0.049332 0.000000 0.000000
# 5 0.000000 0.000000 0.000000 0.000000 0.037381 0.000000
# 6 0.000000 0.000000 0.000000 0.000000 0.000000 0.052873
#
#
# Mechanical properties :
#
#
# Convention : Reuss Voigt Hill
#
# Bulk Modulus (GPa) = 37.48021 45.51018 41.49520
# Shear Modulus (GPa) = 18.66965 20.36803 19.51884
#
# Velocity S-wave (km/s) = 3.56530 3.72394 3.64548
# Velocity P-wave (km/s) = 6.51668 7.03393 6.78024
#
# Compressibility (1/GPa) = 0.02668074
#
# Stress axis : x y z
#
# Youngs Moduli (GPa) = 39.96363 31.07053 63.28966
#
# Poissons Ratio (x) = 0.28719 0.58487
# Poissons Ratio (y) = 0.36939 0.29615
# Poissons Ratio (z) = 0.36931 0.14539
#
# Static dielectric constant tensor:
#      x y z
#    x 2.760770 0.000000 0.000000 
#    y 0.000000 2.783470 0.000000 
#    z 0.000000 0.000000 3.245580 
# 
# 
# High freq. dielectric constant tensor:
#      x y z
#    x 1.527740 0.000000 0.000000 
#    y 0.000000 1.556360 0.000000 
#    z 0.000000 0.000000 1.555450 
# 
# From -- ./inp_files/28033.got.cif
#   From: 2010.03.12/outbox.cif.g09.slc.cpg/sg62_15_cif.got.tgz:28033.got - 2010.04.10 19:12:36.
