data_PCOD8250204
_publ_section_title
;
Structure prediction by ZEFSAII (Michael W. Deem and Ramdas Pophale) SiO2 
 PCOD8250204
Probable space group: P N M A
;
_chemical_formula_sum "Si O2"
_cell_formula_units_Z 48
_cell_length_a 17.477235
_cell_length_b 13.693824
_cell_length_c 12.040142
_cell_angle_alpha 90.000000
_cell_angle_beta 90.000000
_cell_angle_gamma 90.000000
_cell_volume 2881.569353
_symmetry_space_group_name_H-M "P N M A"
_symmetry_group_IT_number 62
_symmetry_cell_setting 'orthorhombic'
loop_
_space_group_symop_operation_xyz
x,y,z
1/2-x,-y,1/2+z
1/2+x,1/2-y,1/2-z
-x,1/2+y,-z
-x,-y,-z
1/2+x,y,1/2-z
1/2-x,1/2+y,1/2+z
x,1/2-y,z
loop_
_atom_site_type_symbol
_atom_site_label
_atom_site_fract_x
_atom_site_fract_y
_atom_site_fract_z
Si Si1 0.249306 0.859954 0.985433
Si Si2 0.340464 0.138739 0.008066
Si Si3 0.756699 0.960706 0.161339
Si Si4 0.635561 0.042493 0.849589
Si Si5 0.978301 0.140476 0.663254
Si Si6 0.147783 0.639776 0.180424
O O1 0.261423 0.750000 0.943330
O O2 0.248769 0.927430 0.877578
O O3 0.318673 0.885870 0.068412
O O4 0.167356 0.870848 0.049899
O O5 0.334960 0.250000 0.049263
O O6 0.261633 0.110391 0.942975
O O7 0.411583 0.121196 0.925920
O O8 0.350846 0.069965 0.115006
O O9 0.838393 0.941950 0.221050
O O10 0.694606 0.944176 0.257141
O O11 0.545789 0.064507 0.856495
O O12 0.011001 0.250000 0.651100
O O13 0.941537 0.125726 0.787102
O O14 0.172561 0.750000 0.220439
#
# Coordination Sequence:
#
# PCOD8250204 Si02
#       6
#     8   8   8   8   8   8
#     4   9  17  29  44  63  88 114 142 177 213 252
#     4   9  18  31  45  63  90 119 141 169 215 262
#     4   9  17  28  44  65  86 112 145 177 210 249
#     4  10  18  28  45  69  88 108 144 184 212 245
#     4   9  16  27  45  66  85 109 142 178 215 252
#     4   8  15  29  46  62  85 116 143 171 213 260
#
# _framework density 16.657589999999999
#
# number of rings (size 3 to 8) (size 9 to 14) (size 15 to 20)
#    0.000    3.000    0.000    2.500    0.000    2.667 
#    0.000    0.833    0.000    0.000    0.000    0.000 
#    0.000    0.000    0.000    0.000    0.000    0.000 
#
# Total GULP energy -594752.581332 kJ/mol
# GULP energy per Si atom -12390.678778 kJ/mol
# Density = 1.661968 g / cm^3
# Si number density = 16.657590 Si / 1000 Ang^3
#
#
#
# Elastic Constant Matrix: (Units=GPa)
#
#
# Indices 1 2 3 4 5 6 
#
# 1 60.3053 24.6318 28.7757 0.0000 0.0000 0.0000
# 2 24.6318 98.2949 37.4669 0.0000 0.0000 0.0000
# 3 28.7757 37.4669 53.0215 0.0000 0.0000 0.0000
# 4 0.0000 0.0000 0.0000 20.5342 0.0000 0.0000
# 5 0.0000 0.0000 0.0000 0.0000 15.1609 0.0000
# 6 0.0000 0.0000 0.0000 0.0000 0.0000 16.7781
#
#
#
# Elastic Compliance Matrix: (Units=1/GPa)
#
#
# Indices 1 2 3 4 5 6 
#
# 1 0.022507 -0.001347 -0.011263 0.000000 0.000000 0.000000
# 2 -0.001347 0.014004 -0.009165 0.000000 0.000000 0.000000
# 3 -0.011263 -0.009165 0.031449 0.000000 0.000000 0.000000
# 4 0.000000 0.000000 0.000000 0.048699 0.000000 0.000000
# 5 0.000000 0.000000 0.000000 0.000000 0.065959 0.000000
# 6 0.000000 0.000000 0.000000 0.000000 0.000000 0.059601
#
#
# Mechanical properties :
#
#
# Convention : Reuss Voigt Hill
#
# Bulk Modulus (GPa) = 40.96600 43.70783 42.33692
# Shear Modulus (GPa) = 17.01215 18.54444 17.77830
#
# Velocity S-wave (km/s) = 3.19922 3.34019 3.27047
# Velocity P-wave (km/s) = 6.18814 6.41653 6.30337
#
# Compressibility (1/GPa) = 0.02441049
#
# Stress axis : x y z
#
# Youngs Moduli (GPa) = 44.43097 71.40614 31.79721
#
# Poissons Ratio (x) = 0.09617 0.35814
# Poissons Ratio (y) = 0.05984 0.29142
# Poissons Ratio (z) = 0.50043 0.65444
#
# Static dielectric constant tensor:
#      x y z
#    x 3.022250 0.000000 0.000000 
#    y 0.000000 3.135240 0.000000 
#    z 0.000000 0.000000 3.019820 
# 
# 
# High freq. dielectric constant tensor:
#      x y z
#    x 1.619080 0.000000 0.000000 
#    y 0.000000 1.643030 0.000000 
#    z 0.000000 0.000000 1.618710 
# 
# From -- ./inp_files/13257.got.cif
#   From: 2010.03.12/outbox.cif.g09.slc.cpg/sg62_7_cif.got.tgz:13257.got - 2010.04.10 19:12:36.
