data_PCOD8250228
_publ_section_title
;
Structure prediction by ZEFSAII (Michael W. Deem and Ramdas Pophale) SiO2 
 PCOD8250228
Probable space group: P N M A
;
_chemical_formula_sum "Si O2"
_cell_formula_units_Z 56
_cell_length_a 14.177376
_cell_length_b 9.329269
_cell_length_c 21.183436
_cell_angle_alpha 90.000000
_cell_angle_beta 90.000000
_cell_angle_gamma 90.000000
_cell_volume 2801.817724
_symmetry_space_group_name_H-M "P N M A"
_symmetry_group_IT_number 62
_symmetry_cell_setting 'orthorhombic'
loop_
_space_group_symop_operation_xyz
x,y,z
1/2-x,-y,1/2+z
1/2+x,1/2-y,1/2-z
-x,1/2+y,-z
-x,-y,-z
1/2+x,y,1/2-z
1/2-x,1/2+y,1/2+z
x,1/2-y,z
loop_
_atom_site_type_symbol
_atom_site_label
_atom_site_fract_x
_atom_site_fract_y
_atom_site_fract_z
Si Si1 0.961321 0.595735 0.553867
Si Si2 0.654221 0.910042 0.137190
Si Si3 0.872684 0.090921 0.349742
Si Si4 0.490085 0.919484 0.629899
Si Si5 0.794724 0.583173 0.935324
Si Si6 0.659982 0.414082 0.574991
Si Si7 0.998495 0.081352 0.739175
O O1 0.930312 0.750000 0.526835
O O2 0.871063 0.520776 0.582968
O O3 0.000000 0.500000 0.500000
O O4 0.039669 0.615653 0.605850
O O5 0.622390 0.750000 0.117005
O O6 0.768307 0.920337 0.135528
O O7 0.601060 0.947313 0.202513
O O8 0.844698 0.250000 0.322048
O O9 0.787542 0.016697 0.390222
O O10 0.908393 0.982333 0.295305
O O11 0.501724 0.750000 0.640964
O O12 0.395755 0.958313 0.592429
O O13 0.575327 0.977932 0.587815
O O14 0.486211 0.000686 0.695687
O O15 0.774066 0.750000 0.931886
O O16 0.790682 0.535931 0.008947
O O17 0.622850 0.250000 0.567355
O O18 0.015585 0.250000 0.749969
#
# Coordination Sequence:
#
# PCOD8250228 Si02
#       7
#     8   8   8   8   8   8   8
#     4  10  18  28  48  77 111 147 182 221 272 330
#     4   9  19  35  56  80 108 141 181 228 280 336
#     4   9  18  35  57  81 109 144 182 224 274 331
#     4  11  23  38  56  80 110 148 191 233 272 321
#     4   9  19  36  59  84 112 146 184 226 278 331
#     4  10  20  38  61  84 112 147 184 228 281 333
#     4  10  21  38  57  82 113 145 182 226 277 332
#
# _framework density 19.987024000000002
#
# number of rings (size 3 to 8) (size 9 to 14) (size 15 to 20)
#    0.000    2.286    0.000    2.571    0.000    5.143 
#    0.000    5.714    0.000    0.000    0.000    0.000 
#    0.000    0.000    0.000    0.000    0.000    0.000 
#
# Total GULP energy -693882.260412 kJ/mol
# GULP energy per Si atom -12390.754650 kJ/mol
# Density = 1.994153 g / cm^3
# Si number density = 19.987024 Si / 1000 Ang^3
#
#
#
# Elastic Constant Matrix: (Units=GPa)
#
#
# Indices 1 2 3 4 5 6 
#
# 1 100.4769 25.0362 36.0664 0.0000 0.0000 0.0000
# 2 25.0362 96.2336 37.0358 0.0000 0.0000 0.0000
# 3 36.0664 37.0358 97.3042 0.0000 0.0000 0.0000
# 4 0.0000 0.0000 0.0000 24.5897 0.0000 0.0000
# 5 0.0000 0.0000 0.0000 0.0000 49.1769 0.0000
# 6 0.0000 0.0000 0.0000 0.0000 0.0000 25.9643
#
#
#
# Elastic Compliance Matrix: (Units=1/GPa)
#
#
# Indices 1 2 3 4 5 6 
#
# 1 0.011689 -0.001609 -0.003720 0.000000 0.000000 0.000000
# 2 -0.001609 0.012396 -0.004122 0.000000 0.000000 0.000000
# 3 -0.003720 -0.004122 0.013225 0.000000 0.000000 0.000000
# 4 0.000000 0.000000 0.000000 0.040667 0.000000 0.000000
# 5 0.000000 0.000000 0.000000 0.000000 0.020335 0.000000
# 6 0.000000 0.000000 0.000000 0.000000 0.000000 0.038514
#
#
# Mechanical properties :
#
#
# Convention : Reuss Voigt Hill
#
# Bulk Modulus (GPa) = 54.32511 54.47684 54.40098
# Shear Modulus (GPa) = 30.89004 33.00461 31.94733
#
# Velocity S-wave (km/s) = 3.93556 4.06803 4.00234
# Velocity P-wave (km/s) = 6.92031 7.02712 6.97392
#
# Compressibility (1/GPa) = 0.01840769
#
# Stress axis : x y z
#
# Youngs Moduli (GPa) = 85.55172 80.66891 75.61603
#
# Poissons Ratio (x) = 0.12982 0.28129
# Poissons Ratio (y) = 0.13768 0.31167
# Poissons Ratio (z) = 0.31825 0.33250
#
# Static dielectric constant tensor:
#      x y z
#    x 3.695000 0.000000 0.000000 
#    y 0.000000 3.935030 0.000000 
#    z 0.000000 0.000000 3.058800 
# 
# 
# High freq. dielectric constant tensor:
#      x y z
#    x 1.778310 0.000000 0.000000 
#    y 0.000000 1.773660 0.000000 
#    z 0.000000 0.000000 1.773100 
# 
# From -- ./inp_files/27259.got.cif
#   From: 2010.03.12/outbox.cif.g09.slc.cpg/sg62_14_cif.got.tgz:27259.got - 2010.04.10 19:12:36.
