data_PCOD8250530
_publ_section_title
;
Structure prediction by ZEFSAII (Michael W. Deem and Ramdas Pophale) SiO2 
 PCOD8250530
Probable space group: P N M A
;
_chemical_formula_sum "Si O2"
_cell_formula_units_Z 64
_cell_length_a 23.299827
_cell_length_b 8.874017
_cell_length_c 18.958434
_cell_angle_alpha 90.000000
_cell_angle_beta 90.000000
_cell_angle_gamma 90.000000
_cell_volume 3919.903844
_symmetry_space_group_name_H-M "P N M A"
_symmetry_group_IT_number 62
_symmetry_cell_setting 'orthorhombic'
loop_
_space_group_symop_operation_xyz
x,y,z
1/2-x,-y,1/2+z
1/2+x,1/2-y,1/2-z
-x,1/2+y,-z
-x,-y,-z
1/2+x,y,1/2-z
1/2-x,1/2+y,1/2+z
x,1/2-y,z
loop_
_atom_site_type_symbol
_atom_site_label
_atom_site_fract_x
_atom_site_fract_y
_atom_site_fract_z
Si Si1 0.258761 0.922450 0.339425
Si Si2 0.561532 0.072313 0.146808
Si Si3 0.779234 0.424751 0.869504
Si Si4 0.240145 0.924186 0.497402
Si Si5 0.838726 0.572976 0.744567
Si Si6 0.116849 0.070965 0.496482
Si Si7 0.336271 0.921799 0.215441
Si Si8 0.432898 0.072869 0.134124
O O1 0.239442 0.750000 0.323278
O O2 0.270831 0.947774 0.421901
O O3 0.317135 0.956020 0.295936
O O4 0.208566 0.032661 0.314243
O O5 0.565578 0.250000 0.139691
O O6 0.599679 0.020495 0.213637
O O7 0.496206 0.020064 0.158484
O O8 0.587137 0.005187 0.074035
O O9 0.790392 0.250000 0.882868
O O10 0.783337 0.512193 0.943580
O O11 0.828508 0.486337 0.817684
O O12 0.717174 0.456211 0.835635
O O13 0.226866 0.750000 0.512190
O O14 0.181522 0.015112 0.500726
O O15 0.836073 0.750000 0.759239
O O16 0.117580 0.250000 0.499059
O O17 0.080968 0.011997 0.562296
O O18 0.356565 0.750000 0.205955
O O19 0.388765 0.029970 0.196044
O O20 0.430130 0.250000 0.120267
#
# Coordination Sequence:
#
# PCOD8250530 Si02
#       8
#     8   8   8   8   8   8   8   8
#     4   9  19  33  49  70  98 124 157 202 247 290
#     4   9  20  34  48  68  97 131 167 207 244 278
#     4  10  20  33  49  70 100 128 156 200 247 290
#     4  11  20  31  50  75  97 127 164 198 240 295
#     4  10  18  32  51  70  94 127 165 200 242 291
#     4  11  20  33  47  66  98 134 166 200 241 282
#     4   9  18  33  48  66  95 128 157 195 246 287
#     4  11  21  33  48  69  96 130 172 207 234 280
#
# _framework density 16.326930999999998
#
# number of rings (size 3 to 8) (size 9 to 14) (size 15 to 20)
#    0.000    2.000    2.500    3.000    0.000    2.500 
#    0.000    4.375    0.000    0.000    0.000    0.875 
#    0.000    0.000    0.000    0.000    0.000    0.000 
#
# Total GULP energy -793634.817914 kJ/mol
# GULP energy per Si atom -12400.544030 kJ/mol
# Density = 1.628977 g / cm^3
# Si number density = 16.326931 Si / 1000 Ang^3
#
#
#
# Elastic Constant Matrix: (Units=GPa)
#
#
# Indices 1 2 3 4 5 6 
#
# 1 72.5902 25.2519 41.7567 0.0000 0.0000 0.0000
# 2 25.2519 65.6573 31.5430 0.0000 0.0000 0.0000
# 3 41.7567 31.5430 101.1018 0.0000 0.0000 0.0000
# 4 0.0000 0.0000 0.0000 23.4131 0.0000 0.0000
# 5 0.0000 0.0000 0.0000 0.0000 24.4053 0.0000
# 6 0.0000 0.0000 0.0000 0.0000 0.0000 19.5445
#
#
#
# Elastic Compliance Matrix: (Units=1/GPa)
#
#
# Indices 1 2 3 4 5 6 
#
# 1 0.018987 -0.004158 -0.006545 0.000000 0.000000 0.000000
# 2 -0.004158 0.018827 -0.004156 0.000000 0.000000 0.000000
# 3 -0.006545 -0.004156 0.013891 0.000000 0.000000 0.000000
# 4 0.000000 0.000000 0.000000 0.042711 0.000000 0.000000
# 5 0.000000 0.000000 0.000000 0.000000 0.040975 0.000000
# 6 0.000000 0.000000 0.000000 0.000000 0.000000 0.051165
#
#
# Mechanical properties :
#
#
# Convention : Reuss Voigt Hill
#
# Bulk Modulus (GPa) = 45.48332 48.49474 46.98903
# Shear Modulus (GPa) = 22.36102 22.85909 22.61006
#
# Velocity S-wave (km/s) = 3.70480 3.74583 3.72537
# Velocity P-wave (km/s) = 6.79846 6.96241 6.88092
#
# Compressibility (1/GPa) = 0.02198608
#
# Stress axis : x y z
#
# Youngs Moduli (GPa) = 52.66687 53.11609 71.98992
#
# Poissons Ratio (x) = 0.22087 0.47115
# Poissons Ratio (y) = 0.21901 0.29921
# Poissons Ratio (z) = 0.34469 0.22077
#
# Static dielectric constant tensor:
#      x y z
#    x 3.026690 0.000000 0.000000 
#    y 0.000000 3.089300 0.000000 
#    z 0.000000 0.000000 3.299810 
# 
# 
# High freq. dielectric constant tensor:
#      x y z
#    x 1.598200 0.000000 0.000000 
#    y 0.000000 1.632970 0.000000 
#    z 0.000000 0.000000 1.627260 
# 
# From -- ./inp_files/24756.got.cif
#   From: 2010.03.12/outbox.cif.g09.slc.cpg/sg62_13_cif.got.tgz:24756.got - 2010.04.10 19:12:36.
