data_PCOD8250281
_publ_section_title
;
Structure prediction by ZEFSAII (Michael W. Deem and Ramdas Pophale) SiO2 
 PCOD8250281
Probable space group: P N M A
;
_chemical_formula_sum "Si O2"
_cell_formula_units_Z 48
_cell_length_a 9.781153
_cell_length_b 8.826109
_cell_length_c 31.498581
_cell_angle_alpha 90.000000
_cell_angle_beta 90.000000
_cell_angle_gamma 90.000000
_cell_volume 2719.257458
_symmetry_space_group_name_H-M "P N M A"
_symmetry_group_IT_number 62
_symmetry_cell_setting 'orthorhombic'
loop_
_space_group_symop_operation_xyz
x,y,z
1/2-x,-y,1/2+z
1/2+x,1/2-y,1/2-z
-x,1/2+y,-z
-x,-y,-z
1/2+x,y,1/2-z
1/2-x,1/2+y,1/2+z
x,1/2-y,z
loop_
_atom_site_type_symbol
_atom_site_label
_atom_site_fract_x
_atom_site_fract_y
_atom_site_fract_z
Si Si1 0.873523 0.923672 0.375244
Si Si2 0.098554 0.422878 0.532997
Si Si3 0.411915 0.429773 0.537138
Si Si4 0.915368 0.431002 0.789882
Si Si5 0.090027 0.427261 0.123745
Si Si6 0.893922 0.575007 0.283477
O O1 0.814016 0.750000 0.375530
O O2 0.959646 0.947972 0.418657
O O3 0.956993 0.949279 0.331285
O O4 0.751316 0.042611 0.375316
O O5 0.097189 0.250000 0.519887
O O6 0.254396 0.482794 0.530760
O O7 0.000000 0.500000 0.500000
O O8 0.500000 0.500000 0.500000
O O9 0.425592 0.250000 0.537290
O O10 0.471236 0.494274 0.581536
O O11 0.918848 0.250000 0.792942
O O12 0.974944 0.499717 0.833691
O O13 0.760428 0.489773 0.781750
O O14 0.007320 0.499658 0.751566
O O15 0.058023 0.250000 0.122454
O O16 0.887743 0.750000 0.271799
#
# Coordination Sequence:
#
# PCOD8250281 Si02
#       6
#     8   8   8   8   8   8
#     4   8  15  30  48  67  91 123 161 199 232 276
#     4   9  18  31  49  72 100 128 158 196 239 285
#     4  10  20  35  53  74  98 127 163 204 243 285
#     4   9  16  29  47  68  91 119 154 194 235 281
#     4  10  18  29  47  70  94 125 159 192 233 287
#     4   8  14  26  47  67  87 116 154 193 230 272
#
# _framework density 17.651879000000001
#
# number of rings (size 3 to 8) (size 9 to 14) (size 15 to 20)
#    0.000    3.000    0.000    4.000    0.000    3.333 
#    0.000    5.000    0.000    4.000    0.000    0.000 
#    0.000    0.000    0.000    0.000    0.000    0.000 
#
# Total GULP energy -594628.581017 kJ/mol
# GULP energy per Si atom -12388.095438 kJ/mol
# Density = 1.761170 g / cm^3
# Si number density = 17.651879 Si / 1000 Ang^3
#
#
#
# Elastic Constant Matrix: (Units=GPa)
#
#
# Indices 1 2 3 4 5 6 
#
# 1 59.1745 23.3118 73.1422 0.0000 0.0000 0.0000
# 2 23.3118 57.8816 47.1292 0.0000 0.0000 0.0000
# 3 73.1422 47.1292 208.2682 0.0000 0.0000 0.0000
# 4 0.0000 0.0000 0.0000 27.6468 0.0000 0.0000
# 5 0.0000 0.0000 0.0000 0.0000 34.8930 0.0000
# 6 0.0000 0.0000 0.0000 0.0000 0.0000 18.2089
#
#
#
# Elastic Compliance Matrix: (Units=1/GPa)
#
#
# Indices 1 2 3 4 5 6 
#
# 1 0.030751 -0.004403 -0.009803 0.000000 0.000000 0.000000
# 2 -0.004403 0.021809 -0.003389 0.000000 0.000000 0.000000
# 3 -0.009803 -0.003389 0.009011 0.000000 0.000000 0.000000
# 4 0.000000 0.000000 0.000000 0.036171 0.000000 0.000000
# 5 0.000000 0.000000 0.000000 0.000000 0.028659 0.000000
# 6 0.000000 0.000000 0.000000 0.000000 0.000000 0.054918
#
#
# Mechanical properties :
#
#
# Convention : Reuss Voigt Hill
#
# Bulk Modulus (GPa) = 37.90556 68.05453 52.98005
# Shear Modulus (GPa) = 22.19236 28.26581 25.22909
#
# Velocity S-wave (km/s) = 3.54958 4.00596 3.78465
# Velocity P-wave (km/s) = 6.19031 7.74818 7.01264
#
# Compressibility (1/GPa) = 0.02638135
#
# Stress axis : x y z
#
# Youngs Moduli (GPa) = 32.51953 45.85190 110.97326
#
# Poissons Ratio (x) = 0.20188 1.08788
# Poissons Ratio (y) = 0.14318 0.37609
# Poissons Ratio (z) = 0.31879 0.15539
#
# Static dielectric constant tensor:
#      x y z
#    x 3.562620 0.000000 0.000000 
#    y 0.000000 3.030960 0.000000 
#    z 0.000000 0.000000 3.879700 
# 
# 
# High freq. dielectric constant tensor:
#      x y z
#    x 1.629690 0.000000 0.000000 
#    y 0.000000 1.661350 0.000000 
#    z 0.000000 0.000000 1.711260 
# 
# From -- ./inp_files/30991.got.cif
#   From: 2010.03.12/outbox.cif.g09.slc.cpg/sg62_16_cif.got.tgz:30991.got - 2010.04.10 19:12:36.
