data_PCOD8250656
_publ_section_title
;
Structure prediction by ZEFSAII (Michael W. Deem and Ramdas Pophale) SiO2 
 PCOD8250656
Probable space group: P N M A
;
_chemical_formula_sum "Si O2"
_cell_formula_units_Z 56
_cell_length_a 9.109857
_cell_length_b 19.812241
_cell_length_c 14.931776
_cell_angle_alpha 90.000000
_cell_angle_beta 90.000000
_cell_angle_gamma 90.000000
_cell_volume 2694.986712
_symmetry_space_group_name_H-M "P N M A"
_symmetry_group_IT_number 62
_symmetry_cell_setting 'orthorhombic'
loop_
_space_group_symop_operation_xyz
x,y,z
1/2-x,-y,1/2+z
1/2+x,1/2-y,1/2-z
-x,1/2+y,-z
-x,-y,-z
1/2+x,y,1/2-z
1/2-x,1/2+y,1/2+z
x,1/2-y,z
loop_
_atom_site_type_symbol
_atom_site_label
_atom_site_fract_x
_atom_site_fract_y
_atom_site_fract_z
Si Si1 0.942214 0.073139 0.982310
Si Si2 0.273331 0.750000 0.127037
Si Si3 0.038489 0.608292 0.829696
Si Si4 0.865377 0.875579 0.489559
Si Si5 0.581017 0.894321 0.157175
Si Si6 0.936757 0.250000 0.723134
Si Si7 0.603929 0.450214 0.686792
Si Si8 0.841569 0.828543 0.685274
O O1 0.764358 0.069089 0.984994
O O2 0.010405 0.093139 0.886412
O O3 0.999376 0.120032 0.064634
O O4 0.000000 0.000000 0.000000
O O5 0.294132 0.686315 0.064082
O O6 0.386885 0.750000 0.211022
O O7 0.111743 0.750000 0.172331
O O8 0.077875 0.530052 0.814352
O O9 0.169318 0.659112 0.806839
O O10 0.905301 0.628606 0.767141
O O11 0.905516 0.855577 0.590980
O O12 0.015570 0.901490 0.443520
O O13 0.626521 0.816849 0.174942
O O14 0.446920 0.919078 0.219505
O O15 0.722705 0.940621 0.170999
O O16 0.878284 0.750000 0.695951
#
# Coordination Sequence:
#
# PCOD8250656 Si02
#       8
#     8   4   8   8   8   4   8   8
#     4   9  20  39  60  85 121 157 205 257 308 370
#     4  10  18  34  54  84 120 158 196 248 300 368
#     4  10  23  40  63  88 119 158 213 258 314 373
#     4  10  21  37  59  89 120 163 203 250 316 373
#     4  11  22  36  61  90 129 164 206 247 312 375
#     4  10  20  32  54  84 118 156 202 238 288 364
#     4  11  21  39  60  92 126 166 203 256 312 376
#     4  11  22  42  65  89 119 162 207 267 314 367
#
# _framework density 20.779322000000001
#
# number of rings (size 3 to 8) (size 9 to 14) (size 15 to 20)
#    0.000    1.714    0.714    4.714    0.000    2.286 
#    0.000   11.429    0.000    0.000    0.000    0.000 
#    0.000    0.000    0.000    0.000    0.000    0.000 
#
# Total GULP energy -694184.502235 kJ/mol
# GULP energy per Si atom -12396.151826 kJ/mol
# Density = 2.073203 g / cm^3
# Si number density = 20.779322 Si / 1000 Ang^3
#
#
#
# Elastic Constant Matrix: (Units=GPa)
#
#
# Indices 1 2 3 4 5 6 
#
# 1 73.6948 29.1628 28.4656 0.0000 0.0000 0.0000
# 2 29.1628 85.8782 11.9594 0.0000 0.0000 0.0000
# 3 28.4656 11.9594 93.9443 0.0000 0.0000 0.0000
# 4 0.0000 0.0000 0.0000 22.7957 0.0000 0.0000
# 5 0.0000 0.0000 0.0000 0.0000 43.0943 0.0000
# 6 0.0000 0.0000 0.0000 0.0000 0.0000 34.2944
#
#
#
# Elastic Compliance Matrix: (Units=1/GPa)
#
#
# Indices 1 2 3 4 5 6 
#
# 1 0.017441 -0.005280 -0.004612 0.000000 0.000000 0.000000
# 2 -0.005280 0.013453 -0.000113 0.000000 0.000000 0.000000
# 3 -0.004612 -0.000113 0.012057 0.000000 0.000000 0.000000
# 4 0.000000 0.000000 0.000000 0.043868 0.000000 0.000000
# 5 0.000000 0.000000 0.000000 0.000000 0.023205 0.000000
# 6 0.000000 0.000000 0.000000 0.000000 0.000000 0.029159
#
#
# Mechanical properties :
#
#
# Convention : Reuss Voigt Hill
#
# Bulk Modulus (GPa) = 43.59263 43.63256 43.61260
# Shear Modulus (GPa) = 29.96889 32.29884 31.13387
#
# Velocity S-wave (km/s) = 3.80181 3.94683 3.87500
# Velocity P-wave (km/s) = 6.34792 6.46635 6.40741
#
# Compressibility (1/GPa) = 0.02293966
#
# Stress axis : x y z
#
# Youngs Moduli (GPa) = 57.33749 74.33193 82.94253
#
# Poissons Ratio (x) = 0.39249 0.38256
# Poissons Ratio (y) = 0.30275 0.00935
# Poissons Ratio (z) = 0.26446 0.00838
#
# Static dielectric constant tensor:
#      x y z
#    x 3.733880 0.000000 0.000000 
#    y 0.000000 3.729080 0.000000 
#    z 0.000000 0.000000 4.748890 
# 
# 
# High freq. dielectric constant tensor:
#      x y z
#    x 1.801430 0.000000 0.000000 
#    y 0.000000 1.811480 0.000000 
#    z 0.000000 0.000000 1.824460 
# 
# From -- ./inp_files/17237.got.cif
#   From: 2010.03.12/outbox.cif.g09.slc.cpg/sg62_9_cif.got.tgz:17237.got - 2010.04.10 19:12:36.
