data_PCOD8250341
_publ_section_title
;
Structure prediction by ZEFSAII (Michael W. Deem and Ramdas Pophale) SiO2 
 PCOD8250341
Probable space group: P N M A
;
_chemical_formula_sum "Si O2"
_cell_formula_units_Z 64
_cell_length_a 29.986639
_cell_length_b 9.207060
_cell_length_c 14.309072
_cell_angle_alpha 90.000000
_cell_angle_beta 90.000000
_cell_angle_gamma 90.000000
_cell_volume 3950.574295
_symmetry_space_group_name_H-M "P N M A"
_symmetry_group_IT_number 62
_symmetry_cell_setting 'orthorhombic'
loop_
_space_group_symop_operation_xyz
x,y,z
1/2-x,-y,1/2+z
1/2+x,1/2-y,1/2-z
-x,1/2+y,-z
-x,-y,-z
1/2+x,y,1/2-z
1/2-x,1/2+y,1/2+z
x,1/2-y,z
loop_
_atom_site_type_symbol
_atom_site_label
_atom_site_fract_x
_atom_site_fract_y
_atom_site_fract_z
Si Si1 0.223230 0.087880 0.536084
Si Si2 0.453033 0.420157 0.603291
Si Si3 0.215069 0.577668 0.724720
Si Si4 0.368679 0.082400 0.709731
Si Si5 0.356059 0.917408 0.343414
Si Si6 0.948071 0.582708 0.085800
Si Si7 0.303149 0.920619 0.833728
Si Si8 0.673875 0.589076 0.485568
O O1 0.208688 0.250000 0.569179
O O2 0.196474 0.039235 0.443440
O O3 0.273631 0.091169 0.502411
O O4 0.215654 0.973208 0.617850
O O5 0.447376 0.250000 0.587090
O O6 0.419577 0.467702 0.686806
O O7 0.503889 0.463905 0.628949
O O8 0.437284 0.491799 0.506793
O O9 0.212244 0.750000 0.728180
O O10 0.169912 0.515347 0.769598
O O11 0.258672 0.519879 0.780593
O O12 0.366932 0.250000 0.739310
O O13 0.338231 0.050483 0.620011
O O14 0.348321 0.990283 0.793977
O O15 0.342861 0.750000 0.327989
O O16 0.409814 0.941047 0.335548
O O17 0.344655 0.963665 0.448582
O O18 0.949616 0.750000 0.054422
O O19 0.305357 0.750000 0.817881
O O20 0.655017 0.750000 0.512211
#
# Coordination Sequence:
#
# PCOD8250341 Si02
#       8
#     8   8   8   8   8   8   8   8
#     4  10  20  36  50  66  96 130 162 201 240 278
#     4   9  17  30  47  68  97 130 160 196 240 284
#     4  11  22  35  50  71  96 127 165 201 239 285
#     4  10  19  30  48  71  96 130 165 196 236 283
#     4  11  21  31  47  71  98 132 167 200 238 284
#     4   9  18  30  45  69  98 127 162 198 236 286
#     4  10  21  34  49  69  97 128 161 199 239 283
#     4  10  18  30  47  69  99 131 164 199 235 280
#
# _framework density 16.200175999999999
#
# number of rings (size 3 to 8) (size 9 to 14) (size 15 to 20)
#    0.000    2.000    3.750    0.750    0.000    3.000 
#    0.000    0.000    0.000    0.000    0.000    0.875 
#    0.000    0.000    0.000    0.000    0.000    0.000 
#
# Total GULP energy -793390.165417 kJ/mol
# GULP energy per Si atom -12396.721335 kJ/mol
# Density = 1.616330 g / cm^3
# Si number density = 16.200176 Si / 1000 Ang^3
#
#
#
# Elastic Constant Matrix: (Units=GPa)
#
#
# Indices 1 2 3 4 5 6 
#
# 1 86.8686 30.4244 31.7416 0.0000 0.0000 0.0000
# 2 30.4244 53.1956 31.4146 0.0000 0.0000 0.0000
# 3 31.7416 31.4146 56.2611 0.0000 0.0000 0.0000
# 4 0.0000 0.0000 0.0000 29.7421 0.0000 0.0000
# 5 0.0000 0.0000 0.0000 0.0000 24.6390 0.0000
# 6 0.0000 0.0000 0.0000 0.0000 0.0000 21.5403
#
#
#
# Elastic Compliance Matrix: (Units=1/GPa)
#
#
# Indices 1 2 3 4 5 6 
#
# 1 0.015519 -0.005528 -0.005669 0.000000 0.000000 0.000000
# 2 -0.005528 0.030016 -0.013641 0.000000 0.000000 0.000000
# 3 -0.005669 -0.013641 0.028589 0.000000 0.000000 0.000000
# 4 0.000000 0.000000 0.000000 0.033622 0.000000 0.000000
# 5 0.000000 0.000000 0.000000 0.000000 0.040586 0.000000
# 6 0.000000 0.000000 0.000000 0.000000 0.000000 0.046425
#
#
# Mechanical properties :
#
#
# Convention : Reuss Voigt Hill
#
# Bulk Modulus (GPa) = 40.90294 42.60961 41.75628
# Shear Modulus (GPa) = 19.79542 22.03394 20.91468
#
# Velocity S-wave (km/s) = 3.49940 3.69196 3.59697
# Velocity P-wave (km/s) = 6.45221 6.67332 6.56369
#
# Compressibility (1/GPa) = 0.02444812
#
# Stress axis : x y z
#
# Youngs Moduli (GPa) = 64.43630 33.31548 34.97797
#
# Poissons Ratio (x) = 0.18417 0.19829
# Poissons Ratio (y) = 0.35622 0.47714
# Poissons Ratio (z) = 0.36528 0.45446
#
# Static dielectric constant tensor:
#      x y z
#    x 3.272360 0.000000 0.000000 
#    y 0.000000 3.079150 0.000000 
#    z 0.000000 0.000000 2.832940 
# 
# 
# High freq. dielectric constant tensor:
#      x y z
#    x 1.620890 0.000000 0.000000 
#    y 0.000000 1.625560 0.000000 
#    z 0.000000 0.000000 1.591650 
# 
# From -- ./inp_files/21228.got.cif
#   From: 2010.03.12/outbox.cif.g09.slc.cpg/sg62_11_cif.got.tgz:21228.got - 2010.04.10 19:12:36.
