data_PCOD8250679
_publ_section_title
;
Structure prediction by ZEFSAII (Michael W. Deem and Ramdas Pophale) SiO2 
 PCOD8250679
Probable space group: P N M A
;
_chemical_formula_sum "Si O2"
_cell_formula_units_Z 64
_cell_length_a 15.427631
_cell_length_b 8.759602
_cell_length_c 23.941797
_cell_angle_alpha 90.000000
_cell_angle_beta 90.000000
_cell_angle_gamma 90.000000
_cell_volume 3235.492229
_symmetry_space_group_name_H-M "P N M A"
_symmetry_group_IT_number 62
_symmetry_cell_setting 'orthorhombic'
loop_
_space_group_symop_operation_xyz
x,y,z
1/2-x,-y,1/2+z
1/2+x,1/2-y,1/2-z
-x,1/2+y,-z
-x,-y,-z
1/2+x,y,1/2-z
1/2-x,1/2+y,1/2+z
x,1/2-y,z
loop_
_atom_site_type_symbol
_atom_site_label
_atom_site_fract_x
_atom_site_fract_y
_atom_site_fract_z
Si Si1 0.604247 0.074766 0.129038
Si Si2 0.653201 0.428117 0.745325
Si Si3 0.910608 0.428091 0.353201
Si Si4 0.247728 0.570489 0.444291
Si Si5 0.832694 0.926724 0.751283
Si Si6 0.087159 0.071552 0.134037
Si Si7 0.753566 0.068246 0.429435
Si Si8 0.603960 0.931026 0.628437
O O1 0.629543 0.250000 0.117628
O O2 0.503092 0.044252 0.117074
O O3 0.623136 0.031014 0.192987
O O4 0.660429 0.969925 0.088586
O O5 0.641750 0.250000 0.734004
O O6 0.590256 0.480462 0.795116
O O7 0.750839 0.466777 0.763166
O O8 0.633462 0.518762 0.689297
O O9 0.897478 0.250000 0.339243
O O10 0.836478 0.491149 0.394649
O O11 0.261233 0.750000 0.442486
O O12 0.238549 0.509065 0.507345
O O13 0.332394 0.494976 0.418159
O O14 0.803118 0.750000 0.753453
O O15 0.901078 0.962562 0.800213
O O16 0.087920 0.250000 0.122496
O O17 0.165437 0.999224 0.097680
O O18 0.993268 0.006046 0.116013
O O19 0.752858 0.250000 0.427365
O O20 0.607140 0.750000 0.626645
#
# Coordination Sequence:
#
# PCOD8250679 Si02
#       8
#     8   8   8   8   8   8   8   8
#     4  10  21  36  60  90 114 150 199 238 281 340
#     4  12  23  35  56  89 123 153 182 232 299 350
#     4  10  20  39  65  87 112 153 199 237 279 346
#     4  11  23  38  57  84 119 156 192 240 298 343
#     4  10  18  34  60  85 113 149 189 235 282 346
#     4   9  18  35  62  89 110 145 196 239 281 338
#     4   9  19  37  61  86 114 151 195 241 290 341
#     4  11  22  38  61  86 113 153 200 242 282 342
#
# _framework density 19.780608000000001
#
# number of rings (size 3 to 8) (size 9 to 14) (size 15 to 20)
#    0.000    1.750    2.500    2.625    0.000    3.500 
#    0.000    3.750    0.000    0.000    0.000    0.000 
#    0.000    0.000    0.000    0.000    0.000    0.000 
#
# Total GULP energy -793694.737189 kJ/mol
# GULP energy per Si atom -12401.480269 kJ/mol
# Density = 1.973559 g / cm^3
# Si number density = 19.780608 Si / 1000 Ang^3
#
#
#
# Elastic Constant Matrix: (Units=GPa)
#
#
# Indices 1 2 3 4 5 6 
#
# 1 120.2963 22.7412 35.4996 0.0000 0.0000 0.0000
# 2 22.7412 50.9892 25.1092 0.0000 0.0000 0.0000
# 3 35.4996 25.1092 119.8112 0.0000 0.0000 0.0000
# 4 0.0000 0.0000 0.0000 23.1269 0.0000 0.0000
# 5 0.0000 0.0000 0.0000 0.0000 12.1818 0.0000
# 6 0.0000 0.0000 0.0000 0.0000 0.0000 17.7157
#
#
#
# Elastic Compliance Matrix: (Units=1/GPa)
#
#
# Indices 1 2 3 4 5 6 
#
# 1 0.009555 -0.003197 -0.002161 0.000000 0.000000 0.000000
# 2 -0.003197 0.022939 -0.003860 0.000000 0.000000 0.000000
# 3 -0.002161 -0.003860 0.009796 0.000000 0.000000 0.000000
# 4 0.000000 0.000000 0.000000 0.043240 0.000000 0.000000
# 5 0.000000 0.000000 0.000000 0.000000 0.082089 0.000000
# 6 0.000000 0.000000 0.000000 0.000000 0.000000 0.056447
#
#
# Mechanical properties :
#
#
# Convention : Reuss Voigt Hill
#
# Bulk Modulus (GPa) = 41.92382 50.86630 46.39506
# Shear Modulus (GPa) = 19.96378 24.45465 22.20921
#
# Velocity S-wave (km/s) = 3.18033 3.51991 3.35442
# Velocity P-wave (km/s) = 5.89291 6.50314 6.20553
#
# Compressibility (1/GPa) = 0.02385279
#
# Stress axis : x y z
#
# Youngs Moduli (GPa) = 104.65763 43.59420 102.08540
#
# Poissons Ratio (x) = 0.13939 0.22061
# Poissons Ratio (y) = 0.33463 0.39405
# Poissons Ratio (z) = 0.22617 0.16827
#
# Static dielectric constant tensor:
#      x y z
#    x 3.904860 0.000000 0.000000 
#    y 0.000000 3.282290 0.000000 
#    z 0.000000 0.000000 3.667000 
# 
# 
# High freq. dielectric constant tensor:
#      x y z
#    x 1.786560 0.000000 0.000000 
#    y 0.000000 1.738180 0.000000 
#    z 0.000000 0.000000 1.770280 
# 
# From -- ./inp_files/29868.got.cif
#   From: 2010.03.12/outbox.cif.g09.slc.cpg/sg62_15_cif.got.tgz:29868.got - 2010.04.10 19:12:36.
