data_PCOD8250233
_publ_section_title
;
Structure prediction by ZEFSAII (Michael W. Deem and Ramdas Pophale) SiO2 
 PCOD8250233
Probable space group: P N M A
;
_chemical_formula_sum "Si O2"
_cell_formula_units_Z 64
_cell_length_a 11.736835
_cell_length_b 9.400985
_cell_length_c 33.105256
_cell_angle_alpha 90.000000
_cell_angle_beta 90.000000
_cell_angle_gamma 90.000000
_cell_volume 3652.761439
_symmetry_space_group_name_H-M "P N M A"
_symmetry_group_IT_number 62
_symmetry_cell_setting 'orthorhombic'
loop_
_space_group_symop_operation_xyz
x,y,z
1/2-x,-y,1/2+z
1/2+x,1/2-y,1/2-z
-x,1/2+y,-z
-x,-y,-z
1/2+x,y,1/2-z
1/2-x,1/2+y,1/2+z
x,1/2-y,z
loop_
_atom_site_type_symbol
_atom_site_label
_atom_site_fract_x
_atom_site_fract_y
_atom_site_fract_z
Si Si1 0.175763 0.412888 0.632903
Si Si2 0.023492 0.086436 0.334441
Si Si3 0.881534 0.414338 0.811766
Si Si4 0.810227 0.913527 0.736337
Si Si5 0.350801 0.085174 0.967234
Si Si6 0.891206 0.413231 0.175906
Si Si7 0.722234 0.414200 0.105599
Si Si8 0.384243 0.914190 0.044358
O O1 0.136113 0.250000 0.634712
O O2 0.304274 0.433090 0.648383
O O3 0.168517 0.466609 0.586754
O O4 0.091357 0.497428 0.662214
O O5 0.991682 0.250000 0.340670
O O6 0.076658 0.061687 0.290291
O O7 0.113363 0.037827 0.368297
O O8 0.901732 0.250000 0.801395
O O9 0.815098 0.485162 0.774690
O O10 0.001574 0.485852 0.820237
O O11 0.804181 0.750000 0.750540
O O12 0.698846 0.953158 0.710595
O O13 0.318546 0.250000 0.970761
O O14 0.480755 0.060914 0.954063
O O15 0.269896 0.012306 0.933922
O O16 0.326887 0.011012 0.010106
O O17 0.930061 0.250000 0.180924
O O18 0.835634 0.436950 0.131988
O O19 0.710209 0.250000 0.092548
O O20 0.355452 0.750000 0.035155
#
# Coordination Sequence:
#
# PCOD8250233 Si02
#       8
#     8   8   8   8   8   8   8   8
#     4  10  21  36  51  74 109 144 173 210 265 318
#     4   9  18  32  53  78 101 131 173 215 255 306
#     4  11  24  37  53  78 107 139 176 220 267 314
#     4   9  20  38  57  77 102 135 176 221 263 309
#     4  10  18  28  49  80 108 138 172 212 260 312
#     4   9  20  39  58  76 103 139 181 221 259 313
#     4   9  17  32  54  78 104 135 171 214 262 310
#     4   9  18  32  48  70 108 146 172 207 258 316
#
# _framework density 17.520990999999999
#
# number of rings (size 3 to 8) (size 9 to 14) (size 15 to 20)
#    0.000    2.500    1.250    2.250    1.750    3.500 
#    0.000    2.500    0.000    0.750    0.000    0.000 
#    0.000    0.000    0.000    0.000    0.000    0.000 
#
# Total GULP energy -793714.139877 kJ/mol
# GULP energy per Si atom -12401.783436 kJ/mol
# Density = 1.748111 g / cm^3
# Si number density = 17.520991 Si / 1000 Ang^3
#
#
#
# Elastic Constant Matrix: (Units=GPa)
#
#
# Indices 1 2 3 4 5 6 
#
# 1 80.6662 48.5415 39.5441 0.0000 0.0000 0.0000
# 2 48.5415 93.1717 60.3123 0.0000 0.0000 0.0000
# 3 39.5441 60.3123 111.6413 0.0000 0.0000 0.0000
# 4 0.0000 0.0000 0.0000 31.0980 0.0000 0.0000
# 5 0.0000 0.0000 0.0000 0.0000 19.9284 0.0000
# 6 0.0000 0.0000 0.0000 0.0000 0.0000 27.8340
#
#
#
# Elastic Compliance Matrix: (Units=1/GPa)
#
#
# Indices 1 2 3 4 5 6 
#
# 1 0.018359 -0.008236 -0.002054 0.000000 0.000000 0.000000
# 2 -0.008236 0.020199 -0.007995 0.000000 0.000000 0.000000
# 3 -0.002054 -0.007995 0.014004 0.000000 0.000000 0.000000
# 4 0.000000 0.000000 0.000000 0.032156 0.000000 0.000000
# 5 0.000000 0.000000 0.000000 0.000000 0.050180 0.000000
# 6 0.000000 0.000000 0.000000 0.000000 0.000000 0.035927
#
#
# Mechanical properties :
#
#
# Convention : Reuss Voigt Hill
#
# Bulk Modulus (GPa) = 62.52616 64.69723 63.61170
# Shear Modulus (GPa) = 23.50446 24.91084 24.20765
#
# Velocity S-wave (km/s) = 3.66663 3.77473 3.72107
# Velocity P-wave (km/s) = 7.32731 7.48357 7.40585
#
# Compressibility (1/GPa) = 0.01599331
#
# Stress axis : x y z
#
# Youngs Moduli (GPa) = 54.46790 49.50768 71.40835
#
# Poissons Ratio (x) = 0.40772 0.14667
# Poissons Ratio (y) = 0.44857 0.57091
# Poissons Ratio (z) = 0.11187 0.39582
#
# Static dielectric constant tensor:
#      x y z
#    x 2.983120 0.000000 0.000000 
#    y 0.000000 3.223420 0.000000 
#    z 0.000000 0.000000 3.298230 
# 
# 
# High freq. dielectric constant tensor:
#      x y z
#    x 1.650580 0.000000 0.000000 
#    y 0.000000 1.678690 0.000000 
#    z 0.000000 0.000000 1.680420 
# 
# From -- ./inp_files/32560.got.cif
#   From: 2010.03.12/outbox.cif.g09.slc.cpg/sg62_17_cif.got.tgz:32560.got - 2010.04.10 19:12:36.
