data_PCOD8250592
_publ_section_title
;
Structure prediction by ZEFSAII (Michael W. Deem and Ramdas Pophale) SiO2 
 PCOD8250592
Probable space group: P N M A
;
_chemical_formula_sum "Si O2"
_cell_formula_units_Z 64
_cell_length_a 10.780407
_cell_length_b 8.709871
_cell_length_c 33.071221
_cell_angle_alpha 90.000000
_cell_angle_beta 90.000000
_cell_angle_gamma 90.000000
_cell_volume 3105.253856
_symmetry_space_group_name_H-M "P N M A"
_symmetry_group_IT_number 62
_symmetry_cell_setting 'orthorhombic'
loop_
_space_group_symop_operation_xyz
x,y,z
1/2-x,-y,1/2+z
1/2+x,1/2-y,1/2-z
-x,1/2+y,-z
-x,-y,-z
1/2+x,y,1/2-z
1/2-x,1/2+y,1/2+z
x,1/2-y,z
loop_
_atom_site_type_symbol
_atom_site_label
_atom_site_fract_x
_atom_site_fract_y
_atom_site_fract_z
Si Si1 0.308850 0.070458 0.072592
Si Si2 0.420905 0.568147 0.717740
Si Si3 0.273417 0.928745 0.864018
Si Si4 0.924185 0.575814 0.083275
Si Si5 0.720524 0.071593 0.510450
Si Si6 0.798970 0.067688 0.224766
Si Si7 0.933538 0.429622 0.572035
Si Si8 0.154931 0.576823 0.135076
O O1 0.287418 0.250000 0.078790
O O2 0.449235 0.033105 0.061538
O O3 0.280127 0.990751 0.115854
O O4 0.227700 0.000712 0.034708
O O5 0.421382 0.750000 0.720587
O O6 0.304016 0.502046 0.743640
O O7 0.558212 0.507575 0.732377
O O8 0.399066 0.521457 0.671566
O O9 0.308835 0.750000 0.864551
O O10 0.248503 0.988038 0.818742
O O11 0.148164 0.955758 0.888980
O O12 0.385060 0.027276 0.883061
O O13 0.870607 0.750000 0.089783
O O14 0.906083 0.532460 0.035500
O O15 0.065843 0.567222 0.096029
O O16 0.736858 0.250000 0.502780
O O17 0.832272 0.016751 0.539360
O O18 0.802170 0.250000 0.227106
O O19 0.966275 0.250000 0.570270
O O20 0.174904 0.750000 0.150358
#
# Coordination Sequence:
#
# PCOD8250592 Si02
#       8
#     8   8   8   8   8   8   8   8
#     4  11  22  36  55  80 111 150 195 241 285 338
#     4  10  20  39  61  85 114 152 193 239 291 348
#     4  10  18  32  56  87 112 142 191 233 274 338
#     4   9  18  35  57  79 109 148 187 231 285 338
#     4   8  17  34  56  81 109 146 191 237 287 339
#     4   9  19  34  59  88 117 148 191 241 290 340
#     4  10  20  36  56  81 116 153 187 234 291 345
#     4  11  23  38  56  81 114 152 188 232 291 347
#
# _framework density 20.610233000000001
#
# number of rings (size 3 to 8) (size 9 to 14) (size 15 to 20)
#    0.000    2.250    1.250    2.625    0.000    2.000 
#    0.000   10.000    0.000    0.000    0.000    0.000 
#    0.000    0.000    0.000    0.000    0.000    0.000 
#
# Total GULP energy -793022.756267 kJ/mol
# GULP energy per Si atom -12390.980567 kJ/mol
# Density = 2.056332 g / cm^3
# Si number density = 20.610233 Si / 1000 Ang^3
#
#
#
# Elastic Constant Matrix: (Units=GPa)
#
#
# Indices 1 2 3 4 5 6 
#
# 1 62.4573 12.2926 46.8640 0.0000 0.0000 0.0000
# 2 12.2926 23.3222 18.6318 0.0000 0.0000 0.0000
# 3 46.8640 18.6318 105.2403 0.0000 0.0000 0.0000
# 4 0.0000 0.0000 0.0000 24.3608 0.0000 0.0000
# 5 0.0000 0.0000 0.0000 0.0000 29.0603 0.0000
# 6 0.0000 0.0000 0.0000 0.0000 0.0000 22.6932
#
#
#
# Elastic Compliance Matrix: (Units=1/GPa)
#
#
# Indices 1 2 3 4 5 6 
#
# 1 0.024515 -0.004892 -0.010051 0.000000 0.000000 0.000000
# 2 -0.004892 0.050917 -0.006836 0.000000 0.000000 0.000000
# 3 -0.010051 -0.006836 0.015188 0.000000 0.000000 0.000000
# 4 0.000000 0.000000 0.000000 0.041049 0.000000 0.000000
# 5 0.000000 0.000000 0.000000 0.000000 0.034411 0.000000
# 6 0.000000 0.000000 0.000000 0.000000 0.000000 0.044066
#
#
# Mechanical properties :
#
#
# Convention : Reuss Voigt Hill
#
# Bulk Modulus (GPa) = 21.24811 38.51074 29.87943
# Shear Modulus (GPa) = 18.56033 22.77163 20.66598
#
# Velocity S-wave (km/s) = 3.00415 3.32756 3.16999
# Velocity P-wave (km/s) = 4.72918 5.78700 5.28463
#
# Compressibility (1/GPa) = 0.04706301
#
# Stress axis : x y z
#
# Youngs Moduli (GPa) = 40.79116 19.63973 65.84191
#
# Poissons Ratio (x) = 0.09608 0.66175
# Poissons Ratio (y) = 0.19955 0.45009
# Poissons Ratio (z) = 0.40998 0.13426
#
# Static dielectric constant tensor:
#      x y z
#    x 3.836960 0.000000 0.000000 
#    y 0.000000 3.409950 0.000000 
#    z 0.000000 0.000000 3.840170 
# 
# 
# High freq. dielectric constant tensor:
#      x y z
#    x 1.804970 0.000000 0.000000 
#    y 0.000000 1.777790 0.000000 
#    z 0.000000 0.000000 1.807520 
# 
# From -- ./inp_files/32613.got.cif
#   From: 2010.03.12/outbox.cif.g09.slc.cpg/sg62_17_cif.got.tgz:32613.got - 2010.04.10 19:12:36.
