data_PCOD8250938
_publ_section_title
;
Structure prediction by ZEFSAII (Michael W. Deem and Ramdas Pophale) SiO2 
 PCOD8250938
Probable space group: P N M A
;
_chemical_formula_sum "Si O2"
_cell_formula_units_Z 64
_cell_length_a 9.458083
_cell_length_b 12.152310
_cell_length_c 33.063855
_cell_angle_alpha 90.000000
_cell_angle_beta 90.000000
_cell_angle_gamma 90.000000
_cell_volume 3800.278706
_symmetry_space_group_name_H-M "P N M A"
_symmetry_group_IT_number 62
_symmetry_cell_setting 'orthorhombic'
loop_
_space_group_symop_operation_xyz
x,y,z
1/2-x,-y,1/2+z
1/2+x,1/2-y,1/2-z
-x,1/2+y,-z
-x,-y,-z
1/2+x,y,1/2-z
1/2-x,1/2+y,1/2+z
x,1/2-y,z
loop_
_atom_site_type_symbol
_atom_site_label
_atom_site_fract_x
_atom_site_fract_y
_atom_site_fract_z
Si Si1 0.953050 0.621302 0.363050
Si Si2 0.858947 0.623552 0.968900
Si Si3 0.887084 0.510603 0.050832
Si Si4 0.044849 0.119236 0.790223
Si Si5 0.599165 0.492948 0.944406
Si Si6 0.354420 0.625630 0.976602
Si Si7 0.276552 0.619309 0.214593
Si Si8 0.281379 0.878683 0.368218
O O1 0.930302 0.750000 0.371148
O O2 0.884147 0.554366 0.399748
O O3 0.867084 0.581032 0.323986
O O4 0.118867 0.594995 0.357206
O O5 0.891637 0.750000 0.958230
O O6 0.701757 0.594784 0.954251
O O7 0.954918 0.536064 0.944317
O O8 0.876352 0.606809 0.017237
O O9 0.805877 0.402378 0.034713
O O10 0.829393 0.554835 0.092783
O O11 0.040558 0.250000 0.787540
O O12 0.141199 0.072285 0.753736
O O13 0.118560 0.081401 0.831732
O O14 0.884174 0.072476 0.787500
O O15 0.442948 0.540987 0.949463
O O16 0.620649 0.392752 0.975705
O O17 0.390878 0.750000 0.965418
O O18 0.270065 0.750000 0.216817
O O19 0.301799 0.750000 0.376888
#
# Coordination Sequence:
#
# PCOD8250938 Si02
#       8
#     8   8   8   8   8   8   8   8
#     4  10  19  31  47  70 102 133 163 202 242 286
#     4  10  21  35  50  68  97 132 165 209 253 288
#     4  10  20  34  50  71  95 128 171 204 244 298
#     4   9  17  29  46  69  97 131 163 193 237 290
#     4  10  20  32  48  73  96 128 169 205 245 291
#     4  10  19  33  50  68  95 129 168 209 245 285
#     4   9  17  29  46  69  98 131 162 193 236 290
#     4  10  19  31  48  70 100 133 164 202 243 287
#
# _framework density 16.840869999999999
#
# number of rings (size 3 to 8) (size 9 to 14) (size 15 to 20)
#    0.000    2.250    1.250    2.250    1.750    3.000 
#    0.000    1.250    0.000    0.000    0.000    0.000 
#    0.000    6.000    0.000    0.000    0.000    0.000 
#
# Total GULP energy -793496.995017 kJ/mol
# GULP energy per Si atom -12398.390547 kJ/mol
# Density = 1.680254 g / cm^3
# Si number density = 16.840870 Si / 1000 Ang^3
#
#
#
# Elastic Constant Matrix: (Units=GPa)
#
#
# Indices 1 2 3 4 5 6 
#
# 1 93.4845 20.3099 43.3836 0.0000 0.0000 0.0000
# 2 20.3099 49.1214 36.3642 0.0000 0.0000 0.0000
# 3 43.3836 36.3642 105.6074 0.0000 0.0000 0.0000
# 4 0.0000 0.0000 0.0000 17.0372 0.0000 0.0000
# 5 0.0000 0.0000 0.0000 0.0000 24.6992 0.0000
# 6 0.0000 0.0000 0.0000 0.0000 0.0000 3.1616
#
#
#
# Elastic Compliance Matrix: (Units=1/GPa)
#
#
# Indices 1 2 3 4 5 6 
#
# 1 0.013356 -0.001960 -0.004812 0.000000 0.000000 0.000000
# 2 -0.001960 0.027610 -0.008702 0.000000 0.000000 0.000000
# 3 -0.004812 -0.008702 0.014442 0.000000 0.000000 0.000000
# 4 0.000000 0.000000 0.000000 0.058695 0.000000 0.000000
# 5 0.000000 0.000000 0.000000 0.000000 0.040487 0.000000
# 6 0.000000 0.000000 0.000000 0.000000 0.000000 0.316293
#
#
# Mechanical properties :
#
#
# Convention : Reuss Voigt Hill
#
# Bulk Modulus (GPa) = 40.88204 49.81431 45.34817
# Shear Modulus (GPa) = 9.80423 18.85664 14.33044
#
# Velocity S-wave (km/s) = 2.41544 3.34981 2.92024
# Velocity P-wave (km/s) = 5.66633 6.67872 6.19325
#
# Compressibility (1/GPa) = 0.02446062
#
# Stress axis : x y z
#
# Youngs Moduli (GPa) = 74.87418 36.21865 69.24256
#
# Poissons Ratio (x) = 0.07099 0.33317
# Poissons Ratio (y) = 0.14676 0.60254
# Poissons Ratio (z) = 0.36026 0.31517
#
# Static dielectric constant tensor:
#      x y z
#    x 3.384910 0.000000 0.000000 
#    y 0.000000 2.644620 0.000000 
#    z 0.000000 0.000000 3.099630 
# 
# 
# High freq. dielectric constant tensor:
#      x y z
#    x 1.671860 0.000000 0.000000 
#    y 0.000000 1.598060 0.000000 
#    z 0.000000 0.000000 1.643710 
# 
# From -- ./inp_files/32265.got.cif
#   From: 2010.03.12/outbox.cif.g09.slc.cpg/sg62_17_cif.got.tgz:32265.got - 2010.04.10 19:12:36.
