data_PCOD8250425
_publ_section_title
;
Structure prediction by ZEFSAII (Michael W. Deem and Ramdas Pophale) SiO2 
 PCOD8250425
Probable space group: P N M A
;
_chemical_formula_sum "Si O2"
_cell_formula_units_Z 64
_cell_length_a 14.583159
_cell_length_b 8.840601
_cell_length_c 30.429953
_cell_angle_alpha 90.000000
_cell_angle_beta 90.000000
_cell_angle_gamma 90.000000
_cell_volume 3923.147914
_symmetry_space_group_name_H-M "P N M A"
_symmetry_group_IT_number 62
_symmetry_cell_setting 'orthorhombic'
loop_
_space_group_symop_operation_xyz
x,y,z
1/2-x,-y,1/2+z
1/2+x,1/2-y,1/2-z
-x,1/2+y,-z
-x,-y,-z
1/2+x,y,1/2-z
1/2-x,1/2+y,1/2+z
x,1/2-y,z
loop_
_atom_site_type_symbol
_atom_site_label
_atom_site_fract_x
_atom_site_fract_y
_atom_site_fract_z
Si Si1 0.602113 0.426123 0.050342
Si Si2 0.328472 0.073873 0.701217
Si Si3 0.680193 0.074487 0.864081
Si Si4 0.276075 0.929675 0.286699
Si Si5 0.342266 0.428168 0.867227
Si Si6 0.908918 0.924809 0.452392
Si Si7 0.519981 0.072167 0.731717
Si Si8 0.489459 0.073197 0.176505
O O1 0.607903 0.250000 0.059643
O O2 0.673779 0.506582 0.083615
O O3 0.497610 0.476795 0.059049
O O4 0.630976 0.467805 0.000351
O O5 0.318454 0.250000 0.709224
O O6 0.280896 0.029798 0.654694
O O7 0.275665 0.001553 0.743690
O O8 0.436537 0.032366 0.698251
O O9 0.657870 0.250000 0.853723
O O10 0.670688 0.043079 0.916296
O O11 0.613146 0.968335 0.836723
O O12 0.268742 0.750000 0.286978
O O13 0.229586 0.993731 0.331372
O O14 0.382535 0.981011 0.287663
O O15 0.335620 0.250000 0.869513
O O16 0.444086 0.478648 0.854668
O O17 0.939877 0.750000 0.451895
O O18 0.522472 0.250000 0.743721
O O19 0.493703 0.976091 0.773957
O O20 0.508179 0.250000 0.170750
#
# Coordination Sequence:
#
# PCOD8250425 Si02
#       8
#     8   8   8   8   8   8   8   8
#     4  10  19  30  44  68  95 118 152 191 231 276
#     4   9  16  27  48  72  89 115 154 191 222 264
#     4  10  18  31  49  68  90 123 158 183 222 274
#     4   9  17  28  47  71  89 116 157 194 225 267
#     4  11  20  32  47  65  90 126 162 189 227 272
#     4   9  18  30  46  66  93 125 151 184 228 279
#     4  10  18  33  50  65  91 123 156 194 229 264
#     4  12  22  29  42  68  96 124 155 190 226 267
#
# _framework density 16.31343
#
# number of rings (size 3 to 8) (size 9 to 14) (size 15 to 20)
#    0.000    2.000    3.750    1.875    0.000    0.500 
#    0.000    3.125    0.000    0.000    0.000    0.875 
#    0.000    0.000    0.000    0.000    0.000    0.000 
#
# Total GULP energy -793184.625282 kJ/mol
# GULP energy per Si atom -12393.509770 kJ/mol
# Density = 1.627630 g / cm^3
# Si number density = 16.313430 Si / 1000 Ang^3
#
#
#
# Elastic Constant Matrix: (Units=GPa)
#
#
# Indices 1 2 3 4 5 6 
#
# 1 83.8683 15.2499 38.8149 0.0000 0.0000 0.0000
# 2 15.2499 35.0040 31.2529 0.0000 0.0000 0.0000
# 3 38.8149 31.2529 109.2140 0.0000 0.0000 0.0000
# 4 0.0000 0.0000 0.0000 21.6350 0.0000 0.0000
# 5 0.0000 0.0000 0.0000 0.0000 26.9945 0.0000
# 6 0.0000 0.0000 0.0000 0.0000 0.0000 6.8666
#
#
#
# Elastic Compliance Matrix: (Units=1/GPa)
#
#
# Indices 1 2 3 4 5 6 
#
# 1 0.014406 -0.002290 -0.004465 0.000000 0.000000 0.000000
# 2 -0.002290 0.038736 -0.010271 0.000000 0.000000 0.000000
# 3 -0.004465 -0.010271 0.013682 0.000000 0.000000 0.000000
# 4 0.000000 0.000000 0.000000 0.046221 0.000000 0.000000
# 5 0.000000 0.000000 0.000000 0.000000 0.037045 0.000000
# 6 0.000000 0.000000 0.000000 0.000000 0.000000 0.145632
#
#
# Mechanical properties :
#
#
# Convention : Reuss Voigt Hill
#
# Bulk Modulus (GPa) = 30.51263 44.30241 37.40752
# Shear Modulus (GPa) = 14.67576 20.61712 17.64644
#
# Velocity S-wave (km/s) = 3.00261 3.55887 3.29251
# Velocity P-wave (km/s) = 5.54666 6.64104 6.11837
#
# Compressibility (1/GPa) = 0.03277331
#
# Stress axis : x y z
#
# Youngs Moduli (GPa) = 69.41489 25.81572 73.08749
#
# Poissons Ratio (x) = 0.05912 0.32631
# Poissons Ratio (y) = 0.15896 0.75068
# Poissons Ratio (z) = 0.30991 0.26515
#
# Static dielectric constant tensor:
#      x y z
#    x 3.074660 0.000000 0.000000 
#    y 0.000000 2.886990 0.000000 
#    z 0.000000 0.000000 3.378840 
# 
# 
# High freq. dielectric constant tensor:
#      x y z
#    x 1.597260 0.000000 0.000000 
#    y 0.000000 1.607070 0.000000 
#    z 0.000000 0.000000 1.626570 
# 
# From -- ./inp_files/32720.got.cif
#   From: 2010.03.12/outbox.cif.g09.slc.cpg/sg62_17_cif.got.tgz:32720.got - 2010.04.10 19:12:36.
