data_PCOD8250392
_publ_section_title
;
Structure prediction by ZEFSAII (Michael W. Deem and Ramdas Pophale) SiO2 
 PCOD8250392
Probable space group: P N M A
;
_chemical_formula_sum "Si O2"
_cell_formula_units_Z 64
_cell_length_a 19.679999
_cell_length_b 9.415652
_cell_length_c 19.029368
_cell_angle_alpha 90.000000
_cell_angle_beta 90.000000
_cell_angle_gamma 90.000000
_cell_volume 3526.142308
_symmetry_space_group_name_H-M "P N M A"
_symmetry_group_IT_number 62
_symmetry_cell_setting 'orthorhombic'
loop_
_space_group_symop_operation_xyz
x,y,z
1/2-x,-y,1/2+z
1/2+x,1/2-y,1/2-z
-x,1/2+y,-z
-x,-y,-z
1/2+x,y,1/2-z
1/2-x,1/2+y,1/2+z
x,1/2-y,z
loop_
_atom_site_type_symbol
_atom_site_label
_atom_site_fract_x
_atom_site_fract_y
_atom_site_fract_z
Si Si1 0.540179 0.910316 0.909117
Si Si2 0.289210 0.087455 0.891033
Si Si3 0.370248 0.412128 0.596061
Si Si4 0.974693 0.914978 0.125305
Si Si5 0.896857 0.584771 0.523227
Si Si6 0.348105 0.586194 0.464410
Si Si7 0.863439 0.414115 0.747387
Si Si8 0.997856 0.585673 0.742400
O O1 0.557858 0.750000 0.932463
O O2 0.463098 0.946958 0.930548
O O3 0.546145 0.928551 0.825494
O O4 0.593024 0.016101 0.946189
O O5 0.308136 0.250000 0.909355
O O6 0.210584 0.055718 0.907344
O O7 0.302729 0.058437 0.808066
O O8 0.333118 0.985085 0.939219
O O9 0.355330 0.250000 0.577229
O O10 0.450701 0.444304 0.594827
O O11 0.333267 0.504502 0.536863
O O12 0.339721 0.451215 0.673051
O O13 0.964647 0.750000 0.145071
O O14 0.919310 0.965153 0.068566
O O15 0.962983 0.008406 0.194656
O O16 0.881806 0.750000 0.513584
O O17 0.351432 0.750000 0.484885
O O18 0.888178 0.250000 0.746171
O O19 0.926184 0.512058 0.725604
O O20 0.984277 0.750000 0.761151
#
# Coordination Sequence:
#
# PCOD8250392 Si02
#       8
#     8   8   8   8   8   8   8   8
#     4   9  18  31  47  73 107 137 170 215 259 303
#     4  10  20  35  54  74 103 141 176 212 258 312
#     4   9  18  33  54  78 102 131 172 220 263 304
#     4   9  19  35  53  76 106 137 174 216 262 318
#     4  10  19  31  49  74 102 136 176 215 255 303
#     4  10  21  36  54  77 105 140 175 211 260 316
#     4   9  18  33  53  76 102 135 170 207 254 309
#     4  10  18  30  51  79 107 132 167 216 263 304
#
# _framework density 18.150147
#
# number of rings (size 3 to 8) (size 9 to 14) (size 15 to 20)
#    0.000    2.500    1.250    1.875    0.000    4.500 
#    0.000    1.250    0.000    1.500    0.000    0.000 
#    0.000    0.000    0.000    0.000    0.000    0.000 
#
# Total GULP energy -793582.637297 kJ/mol
# GULP energy per Si atom -12399.728708 kJ/mol
# Density = 1.810884 g / cm^3
# Si number density = 18.150147 Si / 1000 Ang^3
#
#
#
# Elastic Constant Matrix: (Units=GPa)
#
#
# Indices 1 2 3 4 5 6 
#
# 1 56.5945 30.9048 45.2881 0.0000 0.0000 0.0000
# 2 30.9048 80.5868 57.9092 0.0000 0.0000 0.0000
# 3 45.2881 57.9092 131.4452 0.0000 0.0000 0.0000
# 4 0.0000 0.0000 0.0000 34.8117 0.0000 0.0000
# 5 0.0000 0.0000 0.0000 0.0000 25.4626 0.0000
# 6 0.0000 0.0000 0.0000 0.0000 0.0000 21.6843
#
#
#
# Elastic Compliance Matrix: (Units=1/GPa)
#
#
# Indices 1 2 3 4 5 6 
#
# 1 0.025765 -0.005124 -0.006620 0.000000 0.000000 0.000000
# 2 -0.005124 0.019176 -0.006683 0.000000 0.000000 0.000000
# 3 -0.006620 -0.006683 0.012833 0.000000 0.000000 0.000000
# 4 0.000000 0.000000 0.000000 0.028726 0.000000 0.000000
# 5 0.000000 0.000000 0.000000 0.000000 0.039273 0.000000
# 6 0.000000 0.000000 0.000000 0.000000 0.000000 0.046116
#
#
# Mechanical properties :
#
#
# Convention : Reuss Voigt Hill
#
# Bulk Modulus (GPa) = 47.79910 59.64786 53.72348
# Shear Modulus (GPa) = 23.17865 25.35999 24.26932
#
# Velocity S-wave (km/s) = 3.57746 3.74201 3.66066
# Velocity P-wave (km/s) = 6.59218 7.18367 6.89427
#
# Compressibility (1/GPa) = 0.02092090
#
# Stress axis : x y z
#
# Youngs Moduli (GPa) = 38.81272 52.14788 77.92637
#
# Poissons Ratio (x) = 0.26720 0.51584
# Poissons Ratio (y) = 0.19887 0.52077
# Poissons Ratio (z) = 0.25693 0.34850
#
# Static dielectric constant tensor:
#      x y z
#    x 3.059830 0.000000 0.000000 
#    y 0.000000 3.363260 0.000000 
#    z 0.000000 0.000000 3.457010 
# 
# 
# High freq. dielectric constant tensor:
#      x y z
#    x 1.667630 0.000000 0.000000 
#    y 0.000000 1.706170 0.000000 
#    z 0.000000 0.000000 1.710060 
# 
# From -- ./inp_files/27903.got.cif
#   From: 2010.03.12/outbox.cif.g09.slc.cpg/sg62_14_cif.got.tgz:27903.got - 2010.04.10 19:12:36.
