data_PCOD8250479
_publ_section_title
;
Structure prediction by ZEFSAII (Michael W. Deem and Ramdas Pophale) SiO2 
 PCOD8250479
Probable space group: P N M A
;
_chemical_formula_sum "Si O2"
_cell_formula_units_Z 48
_cell_length_a 12.133274
_cell_length_b 13.597010
_cell_length_c 14.714424
_cell_angle_alpha 90.000000
_cell_angle_beta 90.000000
_cell_angle_gamma 90.000000
_cell_volume 2427.530462
_symmetry_space_group_name_H-M "P N M A"
_symmetry_group_IT_number 62
_symmetry_cell_setting 'orthorhombic'
loop_
_space_group_symop_operation_xyz
x,y,z
1/2-x,-y,1/2+z
1/2+x,1/2-y,1/2-z
-x,1/2+y,-z
-x,-y,-z
1/2+x,y,1/2-z
1/2-x,1/2+y,1/2+z
x,1/2-y,z
loop_
_atom_site_type_symbol
_atom_site_label
_atom_site_fract_x
_atom_site_fract_y
_atom_site_fract_z
Si Si1 0.376115 0.862199 0.135373
Si Si2 0.060425 0.485661 0.807960
Si Si3 0.138291 0.636420 0.179658
Si Si4 0.532661 0.363708 0.187689
Si Si5 0.434920 0.138772 0.998684
Si Si6 0.302284 0.026341 0.859347
O O1 0.388987 0.750000 0.168765
O O2 0.426890 0.929895 0.212563
O O3 0.246624 0.884409 0.118222
O O4 0.443665 0.882067 0.043301
O O5 0.170579 0.487120 0.867525
O O6 0.962009 0.428954 0.861051
O O7 0.023053 0.596123 0.780544
O O8 0.103269 0.750000 0.177476
O O9 0.166529 0.606954 0.283484
O O10 0.563595 0.250000 0.200406
O O11 0.645606 0.421538 0.166859
O O12 0.444837 0.379637 0.106094
O O13 0.397266 0.250000 0.978468
O O14 0.344964 0.065352 0.956477
#
# Coordination Sequence:
#
# PCOD8250479 Si02
#       6
#     8   8   8   8   8   8
#     4   9  16  26  45  72 100 127 155 198 251 305
#     4  10  19  30  47  72 102 131 168 202 250 304
#     4   9  16  27  44  71 102 128 157 195 251 312
#     4  10  21  34  50  72  98 134 174 213 251 290
#     4  10  18  31  52  79 102 125 163 210 263 305
#     4  10  19  30  48  73 102 129 164 211 252 296
#
# _framework density 19.773181000000001
#
# number of rings (size 3 to 8) (size 9 to 14) (size 15 to 20)
#    0.000    2.333    3.333    1.500    0.000    2.667 
#    0.000    0.000    0.000    1.000    0.000    0.000 
#    0.000    0.000    0.000    0.000    0.000    0.000 
#
# Total GULP energy -595123.046708 kJ/mol
# GULP energy per Si atom -12398.396806 kJ/mol
# Density = 1.972818 g / cm^3
# Si number density = 19.773181 Si / 1000 Ang^3
#
#
#
# Elastic Constant Matrix: (Units=GPa)
#
#
# Indices 1 2 3 4 5 6 
#
# 1 114.9206 40.3592 16.7285 0.0000 0.0000 0.0000
# 2 40.3592 102.5372 22.9047 0.0000 0.0000 0.0000
# 3 16.7285 22.9047 24.4044 0.0000 0.0000 0.0000
# 4 0.0000 0.0000 0.0000 17.0026 0.0000 0.0000
# 5 0.0000 0.0000 0.0000 0.0000 14.4934 0.0000
# 6 0.0000 0.0000 0.0000 0.0000 0.0000 21.1966
#
#
#
# Elastic Compliance Matrix: (Units=1/GPa)
#
#
# Indices 1 2 3 4 5 6 
#
# 1 0.010422 -0.003171 -0.004168 0.000000 0.000000 0.000000
# 2 -0.003171 0.013305 -0.010313 0.000000 0.000000 0.000000
# 3 -0.004168 -0.010313 0.053512 0.000000 0.000000 0.000000
# 4 0.000000 0.000000 0.000000 0.058814 0.000000 0.000000
# 5 0.000000 0.000000 0.000000 0.000000 0.068997 0.000000
# 6 0.000000 0.000000 0.000000 0.000000 0.000000 0.047177
#
#
# Mechanical properties :
#
#
# Convention : Reuss Voigt Hill
#
# Bulk Modulus (GPa) = 23.84648 44.64966 34.24807
# Shear Modulus (GPa) = 16.58319 21.32983 18.95651
#
# Velocity S-wave (km/s) = 2.89912 3.28796 3.09964
# Velocity P-wave (km/s) = 4.82626 6.08639 5.49258
#
# Compressibility (1/GPa) = 0.04193492
#
# Stress axis : x y z
#
# Youngs Moduli (GPa) = 95.95058 75.16245 18.68725
#
# Poissons Ratio (x) = 0.23836 0.07788
# Poissons Ratio (y) = 0.30428 0.19272
# Poissons Ratio (z) = 0.39989 0.77516
#
# Static dielectric constant tensor:
#      x y z
#    x 3.787250 0.000000 0.000000 
#    y 0.000000 3.711440 0.000000 
#    z 0.000000 0.000000 3.122160 
# 
# 
# High freq. dielectric constant tensor:
#      x y z
#    x 1.767830 0.000000 0.000000 
#    y 0.000000 1.780870 0.000000 
#    z 0.000000 0.000000 1.716550 
# 
# From -- ./inp_files/23087.got.cif
#   From: 2010.03.12/outbox.cif.g09.slc.cpg/sg62_12_cif.got.tgz:23087.got - 2010.04.10 19:12:36.
