data_PCOD8250647
_publ_section_title
;
Structure prediction by ZEFSAII (Michael W. Deem and Ramdas Pophale) SiO2 
 PCOD8250647
Probable space group: P N M A
;
_chemical_formula_sum "Si O2"
_cell_formula_units_Z 40
_cell_length_a 9.812282
_cell_length_b 11.040215
_cell_length_c 19.791671
_cell_angle_alpha 90.000000
_cell_angle_beta 90.000000
_cell_angle_gamma 90.000000
_cell_volume 2144.025840
_symmetry_space_group_name_H-M "P N M A"
_symmetry_group_IT_number 62
_symmetry_cell_setting 'orthorhombic'
loop_
_space_group_symop_operation_xyz
x,y,z
1/2-x,-y,1/2+z
1/2+x,1/2-y,1/2-z
-x,1/2+y,-z
-x,-y,-z
1/2+x,y,1/2-z
1/2-x,1/2+y,1/2+z
x,1/2-y,z
loop_
_atom_site_type_symbol
_atom_site_label
_atom_site_fract_x
_atom_site_fract_y
_atom_site_fract_z
Si Si1 0.366881 0.884368 0.943711
Si Si2 0.394914 0.538699 0.092286
Si Si3 0.878864 0.542923 0.078950
Si Si4 0.372132 0.888693 0.571656
Si Si5 0.774954 0.750000 0.175219
Si Si6 0.947689 0.750000 0.309751
O O1 0.380668 0.750000 0.915876
O O2 0.465579 0.965865 0.898682
O O3 0.213648 0.926589 0.934008
O O4 0.404315 0.886985 0.022779
O O5 0.274232 0.440766 0.092429
O O6 0.387163 0.632032 0.153531
O O7 0.811091 0.630310 0.133375
O O8 0.020247 0.483276 0.104666
O O9 0.895965 0.615801 0.009033
O O10 0.385616 0.750000 0.598525
O O11 0.878338 0.750000 0.237279
O O12 0.613685 0.750000 0.193996
#
# Coordination Sequence:
#
# PCOD8250647 Si02
#       6
#     8   8   8   8   4   4
#     4  10  18  33  60  90 120 154 190 258 313 360
#     4  10  21  34  59  90 122 154 200 245 307 366
#     4  10  21  36  59  89 126 162 199 246 307 360
#     4  10  20  35  60  94 129 155 190 253 314 368
#     4  12  26  44  64  84 126 166 211 254 289 361
#     4  12  26  44  62  88 122 166 211 252 293 365
#
# _framework density 18.656490999999999
#
# number of rings (size 3 to 8) (size 9 to 14) (size 15 to 20)
#    0.000    1.600    4.000    1.200    2.800    0.000 
#    0.000    0.000    0.000    7.200    0.000    0.000 
#    0.000    0.000    0.000    0.000    0.000    0.000 
#
# Total GULP energy -495911.293631 kJ/mol
# GULP energy per Si atom -12397.782341 kJ/mol
# Density = 1.861403 g / cm^3
# Si number density = 18.656491 Si / 1000 Ang^3
#
#
#
# Elastic Constant Matrix: (Units=GPa)
#
#
# Indices 1 2 3 4 5 6 
#
# 1 92.7778 25.7398 14.8747 0.0000 0.0000 0.0000
# 2 25.7398 115.7952 29.3471 0.0000 0.0000 0.0000
# 3 14.8747 29.3471 56.6458 0.0000 0.0000 0.0000
# 4 0.0000 0.0000 0.0000 15.4752 0.0000 0.0000
# 5 0.0000 0.0000 0.0000 0.0000 24.7182 0.0000
# 6 0.0000 0.0000 0.0000 0.0000 0.0000 10.3585
#
#
#
# Elastic Compliance Matrix: (Units=1/GPa)
#
#
# Indices 1 2 3 4 5 6 
#
# 1 0.011677 -0.002093 -0.001982 0.000000 0.000000 0.000000
# 2 -0.002093 0.010317 -0.004795 0.000000 0.000000 0.000000
# 3 -0.001982 -0.004795 0.020658 0.000000 0.000000 0.000000
# 4 0.000000 0.000000 0.000000 0.064619 0.000000 0.000000
# 5 0.000000 0.000000 0.000000 0.000000 0.040456 0.000000
# 6 0.000000 0.000000 0.000000 0.000000 0.000000 0.096539
#
#
# Mechanical properties :
#
#
# Convention : Reuss Voigt Hill
#
# Bulk Modulus (GPa) = 40.14246 45.01577 42.57912
# Shear Modulus (GPa) = 18.49727 23.12754 20.81240
#
# Velocity S-wave (km/s) = 3.15217 3.52469 3.34362
# Velocity P-wave (km/s) = 5.90013 6.38323 6.14643
#
# Compressibility (1/GPa) = 0.02491128
#
# Stress axis : x y z
#
# Youngs Moduli (GPa) = 85.63885 96.93177 48.40691
#
# Poissons Ratio (x) = 0.20292 0.09593
# Poissons Ratio (y) = 0.17928 0.23212
# Poissons Ratio (z) = 0.16971 0.46480
#
# Static dielectric constant tensor:
#      x y z
#    x 3.556000 0.000000 0.000000 
#    y 0.000000 3.419020 0.000000 
#    z 0.000000 0.000000 3.024440 
# 
# 
# High freq. dielectric constant tensor:
#      x y z
#    x 1.743510 0.000000 0.000000 
#    y 0.000000 1.737980 0.000000 
#    z 0.000000 0.000000 1.672580 
# 
# From -- ./inp_files/25792.got.cif
#   From: 2010.03.12/outbox.cif.g09.slc.cpg/sg62_13_cif.got.tgz:25792.got - 2010.04.10 19:12:36.
