data_PCOD8250939
_publ_section_title
;
Structure prediction by ZEFSAII (Michael W. Deem and Ramdas Pophale) SiO2 
 PCOD8250939
Probable space group: P N M A
;
_chemical_formula_sum "Si O2"
_cell_formula_units_Z 64
_cell_length_a 14.256907
_cell_length_b 8.980640
_cell_length_c 28.193899
_cell_angle_alpha 90.000000
_cell_angle_beta 90.000000
_cell_angle_gamma 90.000000
_cell_volume 3609.838261
_symmetry_space_group_name_H-M "P N M A"
_symmetry_group_IT_number 62
_symmetry_cell_setting 'orthorhombic'
loop_
_space_group_symop_operation_xyz
x,y,z
1/2-x,-y,1/2+z
1/2+x,1/2-y,1/2-z
-x,1/2+y,-z
-x,-y,-z
1/2+x,y,1/2-z
1/2-x,1/2+y,1/2+z
x,1/2-y,z
loop_
_atom_site_type_symbol
_atom_site_label
_atom_site_fract_x
_atom_site_fract_y
_atom_site_fract_z
Si Si1 0.775860 0.926820 0.632100
Si Si2 0.288755 0.920371 0.140484
Si Si3 0.600264 0.919762 0.315480
Si Si4 0.111021 0.577280 0.449646
Si Si5 0.605486 0.077307 0.221026
Si Si6 0.396348 0.577809 0.046968
Si Si7 0.609741 0.426272 0.678025
Si Si8 0.389528 0.423211 0.224636
O O1 0.768879 0.750000 0.630379
O O2 0.838136 0.985925 0.676106
O O3 0.822143 0.982627 0.583930
O O4 0.672361 0.996858 0.637430
O O5 0.318215 0.750000 0.151709
O O6 0.175412 0.938269 0.141973
O O7 0.325601 0.967004 0.088936
O O8 0.331392 0.029294 0.179169
O O9 0.588495 0.750000 0.299752
O O10 0.497891 0.978629 0.331500
O O11 0.640943 0.003463 0.269524
O O12 0.136486 0.750000 0.444687
O O13 0.130800 0.526170 0.503211
O O14 0.002701 0.546150 0.436131
O O15 0.625772 0.250000 0.226635
O O16 0.496960 0.041134 0.212624
O O17 0.385387 0.750000 0.031962
O O18 0.622420 0.250000 0.675313
O O19 0.643285 0.484551 0.729434
O O20 0.372637 0.250000 0.235508
#
# Coordination Sequence:
#
# PCOD8250939 Si02
#       8
#     8   8   8   8   8   8   8   8
#     4  11  21  33  51  74  99 130 167 205 246 291
#     4  10  19  32  51  74  98 128 165 201 242 291
#     4   9  19  33  49  69  96 130 165 202 241 282
#     4  10  20  34  53  77 103 130 159 195 243 297
#     4   9  19  32  46  68 100 133 163 197 238 286
#     4   9  19  35  54  76 103 131 159 196 243 295
#     4  10  20  34  49  68  97 132 168 205 243 283
#     4  10  19  31  47  71 102 133 164 199 240 286
#
# _framework density 17.729327000000001
#
# number of rings (size 3 to 8) (size 9 to 14) (size 15 to 20)
#    0.000    2.250    0.000    3.000    0.000    5.500 
#    0.000    0.000    0.000    0.750    0.000    0.000 
#    0.000    0.000    0.000    0.000    0.000    0.000 
#
# Total GULP energy -793732.102135 kJ/mol
# GULP energy per Si atom -12402.064096 kJ/mol
# Density = 1.768897 g / cm^3
# Si number density = 17.729327 Si / 1000 Ang^3
#
#
#
# Elastic Constant Matrix: (Units=GPa)
#
#
# Indices 1 2 3 4 5 6 
#
# 1 89.0293 38.4768 63.0547 0.0000 0.0000 0.0000
# 2 38.4768 64.3978 37.4295 0.0000 0.0000 0.0000
# 3 63.0547 37.4295 90.6209 0.0000 0.0000 0.0000
# 4 0.0000 0.0000 0.0000 29.4910 0.0000 0.0000
# 5 0.0000 0.0000 0.0000 0.0000 31.2497 0.0000
# 6 0.0000 0.0000 0.0000 0.0000 0.0000 23.3844
#
#
#
# Elastic Compliance Matrix: (Units=1/GPa)
#
#
# Indices 1 2 3 4 5 6 
#
# 1 0.023811 -0.006049 -0.014070 0.000000 0.000000 0.000000
# 2 -0.006049 0.021971 -0.004865 0.000000 0.000000 0.000000
# 3 -0.014070 -0.004865 0.022834 0.000000 0.000000 0.000000
# 4 0.000000 0.000000 0.000000 0.033909 0.000000 0.000000
# 5 0.000000 0.000000 0.000000 0.000000 0.032000 0.000000
# 6 0.000000 0.000000 0.000000 0.000000 0.000000 0.042764
#
#
# Mechanical properties :
#
#
# Convention : Reuss Voigt Hill
#
# Bulk Modulus (GPa) = 53.62603 57.99666 55.81135
# Shear Modulus (GPa) = 21.41569 23.83082 22.62325
#
# Velocity S-wave (km/s) = 3.47929 3.67024 3.57604
# Velocity P-wave (km/s) = 6.81567 7.12349 6.97128
#
# Compressibility (1/GPa) = 0.01864766
#
# Stress axis : x y z
#
# Youngs Moduli (GPa) = 41.99669 45.51485 43.79387
#
# Poissons Ratio (x) = 0.27534 0.61616
# Poissons Ratio (y) = 0.25406 0.21308
# Poissons Ratio (z) = 0.59087 0.22145
#
# Static dielectric constant tensor:
#      x y z
#    x 3.456090 0.000000 0.000000 
#    y 0.000000 3.283380 0.000000 
#    z 0.000000 0.000000 3.116330 
# 
# 
# High freq. dielectric constant tensor:
#      x y z
#    x 1.688650 0.000000 0.000000 
#    y 0.000000 1.691180 0.000000 
#    z 0.000000 0.000000 1.662020 
# 
# From -- ./inp_files/29784.got.cif
#   From: 2010.03.12/outbox.cif.g09.slc.cpg/sg62_15_cif.got.tgz:29784.got - 2010.04.10 19:12:36.
