data_PCOD8250375
_publ_section_title
;
Structure prediction by ZEFSAII (Michael W. Deem and Ramdas Pophale) SiO2 
 PCOD8250375
Probable space group: P N M A
;
_chemical_formula_sum "Si O2"
_cell_formula_units_Z 64
_cell_length_a 18.883335
_cell_length_b 9.105932
_cell_length_c 23.042802
_cell_angle_alpha 90.000000
_cell_angle_beta 90.000000
_cell_angle_gamma 90.000000
_cell_volume 3962.218202
_symmetry_space_group_name_H-M "P N M A"
_symmetry_group_IT_number 62
_symmetry_cell_setting 'orthorhombic'
loop_
_space_group_symop_operation_xyz
x,y,z
1/2-x,-y,1/2+z
1/2+x,1/2-y,1/2-z
-x,1/2+y,-z
-x,-y,-z
1/2+x,y,1/2-z
1/2-x,1/2+y,1/2+z
x,1/2-y,z
loop_
_atom_site_type_symbol
_atom_site_label
_atom_site_fract_x
_atom_site_fract_y
_atom_site_fract_z
Si Si1 0.488042 0.082787 0.754184
Si Si2 0.141841 0.078175 0.933472
Si Si3 0.992074 0.080119 0.882035
Si Si4 0.282447 0.080193 0.336510
Si Si5 0.642813 0.076684 0.433212
Si Si6 0.648045 0.079731 0.235497
Si Si7 0.355612 0.918476 0.233870
Si Si8 0.776531 0.421047 0.839211
O O1 0.464762 0.250000 0.765894
O O2 0.497154 0.052244 0.686169
O O3 0.563595 0.048521 0.784591
O O4 0.429946 0.975344 0.782712
O O5 0.151636 0.250000 0.924183
O O6 0.065140 0.027309 0.910919
O O7 0.203741 0.998725 0.897491
O O8 0.150363 0.031583 0.999988
O O9 0.976560 0.250000 0.896486
O O10 0.930965 0.981288 0.908741
O O11 0.299398 0.250000 0.343964
O O12 0.200984 0.052567 0.318160
O O13 0.334510 0.019891 0.287299
O O14 0.645607 0.250000 0.424335
O O15 0.708743 0.002837 0.399626
O O16 0.646563 0.250000 0.253405
O O17 0.670980 0.984983 0.290840
O O18 0.348085 0.750000 0.255108
O O19 0.305065 0.948600 0.178650
O O20 0.794439 0.250000 0.845963
#
# Coordination Sequence:
#
# PCOD8250375 Si02
#       8
#     8   8   8   8   8   8   8   8
#     4  10  18  30  50  73  95 125 161 194 232 281
#     4  10  21  36  50  66  93 131 167 200 236 276
#     4  10  19  32  48  67  95 129 167 199 226 272
#     4  10  20  32  48  71  95 123 158 199 240 279
#     4  11  22  33  48  69  96 129 164 201 238 275
#     4  10  20  32  47  70  99 124 154 195 240 286
#     4   9  18  33  51  69  94 125 159 197 237 284
#     4  10  19  32  50  69  92 127 162 196 238 279
#
# _framework density 16.152569
#
# number of rings (size 3 to 8) (size 9 to 14) (size 15 to 20)
#    0.000    2.000    2.500    1.875    0.000    4.000 
#    0.000    0.000    0.000    0.000    0.000    0.875 
#    0.000    0.000    0.000    0.000    0.000    0.000 
#
# Total GULP energy -793726.358238 kJ/mol
# GULP energy per Si atom -12401.974347 kJ/mol
# Density = 1.611580 g / cm^3
# Si number density = 16.152569 Si / 1000 Ang^3
#
#
#
# Elastic Constant Matrix: (Units=GPa)
#
#
# Indices 1 2 3 4 5 6 
#
# 1 109.1404 46.9210 46.7226 0.0000 0.0000 0.0000
# 2 46.9210 70.9035 38.3064 0.0000 0.0000 0.0000
# 3 46.7226 38.3064 71.2491 0.0000 0.0000 0.0000
# 4 0.0000 0.0000 0.0000 25.4636 0.0000 0.0000
# 5 0.0000 0.0000 0.0000 0.0000 20.8758 0.0000
# 6 0.0000 0.0000 0.0000 0.0000 0.0000 23.1693
#
#
#
# Elastic Compliance Matrix: (Units=1/GPa)
#
#
# Indices 1 2 3 4 5 6 
#
# 1 0.014481 -0.006275 -0.006122 0.000000 0.000000 0.000000
# 2 -0.006275 0.022597 -0.008034 0.000000 0.000000 0.000000
# 3 -0.006122 -0.008034 0.022369 0.000000 0.000000 0.000000
# 4 0.000000 0.000000 0.000000 0.039272 0.000000 0.000000
# 5 0.000000 0.000000 0.000000 0.000000 0.047902 0.000000
# 6 0.000000 0.000000 0.000000 0.000000 0.000000 0.043161
#
#
# Mechanical properties :
#
#
# Convention : Reuss Voigt Hill
#
# Bulk Modulus (GPa) = 53.80874 57.24365 55.52619
# Shear Modulus (GPa) = 21.11127 21.85796 21.48461
#
# Velocity S-wave (km/s) = 3.61916 3.68260 3.65102
# Velocity P-wave (km/s) = 7.13088 7.32109 7.22661
#
# Compressibility (1/GPa) = 0.01858434
#
# Stress axis : x y z
#
# Youngs Moduli (GPa) = 69.05405 44.25389 44.70390
#
# Poissons Ratio (x) = 0.27771 0.27370
# Poissons Ratio (y) = 0.43335 0.35914
# Poissons Ratio (z) = 0.42278 0.35553
#
# Static dielectric constant tensor:
#      x y z
#    x 3.205470 0.000000 0.000000 
#    y 0.000000 3.127650 0.000000 
#    z 0.000000 0.000000 2.966310 
# 
# 
# High freq. dielectric constant tensor:
#      x y z
#    x 1.619350 0.000000 0.000000 
#    y 0.000000 1.630670 0.000000 
#    z 0.000000 0.000000 1.590860 
# 
# From -- ./inp_files/30047.got.cif
#   From: 2010.03.12/outbox.cif.g09.slc.cpg/sg62_16_cif.got.tgz:30047.got - 2010.04.10 19:12:36.
