data_PCOD8250396
_publ_section_title
;
Structure prediction by ZEFSAII (Michael W. Deem and Ramdas Pophale) SiO2 
 PCOD8250396
Probable space group: P N M A
;
_chemical_formula_sum "Si O2"
_cell_formula_units_Z 64
_cell_length_a 18.506241
_cell_length_b 8.925859
_cell_length_c 21.534770
_cell_angle_alpha 90.000000
_cell_angle_beta 90.000000
_cell_angle_gamma 90.000000
_cell_volume 3557.201553
_symmetry_space_group_name_H-M "P N M A"
_symmetry_group_IT_number 62
_symmetry_cell_setting 'orthorhombic'
loop_
_space_group_symop_operation_xyz
x,y,z
1/2-x,-y,1/2+z
1/2+x,1/2-y,1/2-z
-x,1/2+y,-z
-x,-y,-z
1/2+x,y,1/2-z
1/2-x,1/2+y,1/2+z
x,1/2-y,z
loop_
_atom_site_type_symbol
_atom_site_label
_atom_site_fract_x
_atom_site_fract_y
_atom_site_fract_z
Si Si1 0.519000 0.924047 0.064232
Si Si2 0.322566 0.077633 0.416733
Si Si3 0.473887 0.078494 0.181127
Si Si4 0.429467 0.421237 0.638401
Si Si5 0.392132 0.418608 0.770099
Si Si6 0.569753 0.922557 0.688722
Si Si7 0.820317 0.080511 0.609784
Si Si8 0.076446 0.426492 0.014729
O O1 0.506053 0.750000 0.056517
O O2 0.601505 0.962850 0.082060
O O3 0.464453 0.981085 0.118595
O O4 0.500000 0.000000 0.000000
O O5 0.328995 0.250000 0.436941
O O6 0.355741 0.050538 0.348170
O O7 0.238905 0.031603 0.417056
O O8 0.363789 0.976690 0.466125
O O9 0.468494 0.250000 0.160376
O O10 0.417580 0.041179 0.237565
O O11 0.551410 0.046128 0.211564
O O12 0.434520 0.250000 0.615541
O O13 0.374269 0.437171 0.696980
O O14 0.509554 0.471280 0.658504
O O15 0.398359 0.522547 0.583174
O O16 0.424897 0.250000 0.781636
O O17 0.322662 0.436461 0.814817
O O18 0.543938 0.750000 0.681673
O O19 0.799533 0.250000 0.591105
O O20 0.067597 0.250000 0.012567
O O21 0.000000 0.500000 0.000000
#
# Coordination Sequence:
#
# PCOD8250396 Si02
#       8
#     8   8   8   8   8   8   8   8
#     4  10  20  35  57  83 109 138 177 225 276 329
#     4  11  22  35  53  77 107 144 184 225 268 324
#     4   9  16  28  49  77 104 131 165 211 263 310
#     4  10  18  30  52  78 103 136 177 222 265 309
#     4   8  16  31  51  75 102 131 168 212 259 311
#     4   9  18  31  48  73 105 137 172 217 264 308
#     4   9  19  36  55  78 108 139 174 220 271 326
#     4  12  23  35  51  76 109 146 188 229 271 320
#
# _framework density 17.991671
#
# number of rings (size 3 to 8) (size 9 to 14) (size 15 to 20)
#    0.000    2.250    1.250    3.375    0.000    4.000 
#    0.000    0.000    2.750    0.000    0.000    0.000 
#    0.000    0.000    0.000    0.000    0.000    0.000 
#
# Total GULP energy -793215.686651 kJ/mol
# GULP energy per Si atom -12393.995104 kJ/mol
# Density = 1.795072 g / cm^3
# Si number density = 17.991671 Si / 1000 Ang^3
#
#
#
# Elastic Constant Matrix: (Units=GPa)
#
#
# Indices 1 2 3 4 5 6 
#
# 1 54.1786 33.6235 37.6109 0.0000 0.0000 0.0000
# 2 33.6235 108.2722 61.9538 0.0000 0.0000 0.0000
# 3 37.6109 61.9538 146.7000 0.0000 0.0000 0.0000
# 4 0.0000 0.0000 0.0000 32.9138 0.0000 0.0000
# 5 0.0000 0.0000 0.0000 0.0000 20.7581 0.0000
# 6 0.0000 0.0000 0.0000 0.0000 0.0000 23.4058
#
#
#
# Elastic Compliance Matrix: (Units=1/GPa)
#
#
# Indices 1 2 3 4 5 6 
#
# 1 0.024568 -0.005308 -0.004057 0.000000 0.000000 0.000000
# 2 -0.005308 0.013326 -0.004267 0.000000 0.000000 0.000000
# 3 -0.004057 -0.004267 0.009659 0.000000 0.000000 0.000000
# 4 0.000000 0.000000 0.000000 0.030382 0.000000 0.000000
# 5 0.000000 0.000000 0.000000 0.000000 0.048174 0.000000
# 6 0.000000 0.000000 0.000000 0.000000 0.000000 0.042724
#
#
# Mechanical properties :
#
#
# Convention : Reuss Voigt Hill
#
# Bulk Modulus (GPa) = 49.28839 63.94748 56.61794
# Shear Modulus (GPa) = 24.64749 27.14639 25.89694
#
# Velocity S-wave (km/s) = 3.70528 3.88858 3.79804
# Velocity P-wave (km/s) = 6.76462 7.46869 7.12536
#
# Compressibility (1/GPa) = 0.02028875
#
# Stress axis : x y z
#
# Youngs Moduli (GPa) = 40.70317 75.04192 103.53292
#
# Poissons Ratio (x) = 0.39832 0.42004
# Poissons Ratio (y) = 0.21605 0.44176
# Poissons Ratio (z) = 0.16514 0.32019
#
# Static dielectric constant tensor:
#      x y z
#    x 2.983500 0.000000 0.000000 
#    y 0.000000 3.418670 0.000000 
#    z 0.000000 0.000000 3.778320 
# 
# 
# High freq. dielectric constant tensor:
#      x y z
#    x 1.639900 0.000000 0.000000 
#    y 0.000000 1.709270 0.000000 
#    z 0.000000 0.000000 1.712520 
# 
# From -- ./inp_files/27680.got.cif
#   From: 2010.03.12/outbox.cif.g09.slc.cpg/sg62_14_cif.got.tgz:27680.got - 2010.04.10 19:12:36.
