data_PCOD8250689
_publ_section_title
;
Structure prediction by ZEFSAII (Michael W. Deem and Ramdas Pophale) SiO2 
 PCOD8250689
Probable space group: P N M A
;
_chemical_formula_sum "Si O2"
_cell_formula_units_Z 48
_cell_length_a 15.807786
_cell_length_b 16.483520
_cell_length_c 9.875423
_cell_angle_alpha 90.000000
_cell_angle_beta 90.000000
_cell_angle_gamma 90.000000
_cell_volume 2573.218793
_symmetry_space_group_name_H-M "P N M A"
_symmetry_group_IT_number 62
_symmetry_cell_setting 'orthorhombic'
loop_
_space_group_symop_operation_xyz
x,y,z
1/2-x,-y,1/2+z
1/2+x,1/2-y,1/2-z
-x,1/2+y,-z
-x,-y,-z
1/2+x,y,1/2-z
1/2-x,1/2+y,1/2+z
x,1/2-y,z
loop_
_atom_site_type_symbol
_atom_site_label
_atom_site_fract_x
_atom_site_fract_y
_atom_site_fract_z
Si Si1 0.518417 0.340162 0.367125
Si Si2 0.894668 0.550084 0.259752
Si Si3 0.209228 0.992182 0.498874
Si Si4 0.822482 0.659440 0.063821
Si Si5 0.433861 0.504739 0.777642
Si Si6 0.380589 0.439908 0.489744
O O1 0.507930 0.250000 0.305812
O O2 0.599124 0.343940 0.463178
O O3 0.532058 0.403297 0.244417
O O4 0.432182 0.358494 0.453361
O O5 0.828326 0.500566 0.350633
O O6 0.854899 0.636789 0.216652
O O7 0.913761 0.507706 0.114652
O O8 0.987450 0.551929 0.329313
O O9 0.250189 0.902939 0.485730
O O10 0.136179 0.005490 0.391532
O O11 0.278518 0.063669 0.472993
O O12 0.783591 0.750000 0.069297
O O13 0.395755 0.468091 0.641803
#
# Coordination Sequence:
#
# PCOD8250689 Si02
#       6
#     8   8   8   8   8   8
#     4  10  19  35  58  81 104 145 192 238 280 326
#     4  10  19  36  58  81 111 150 191 225 276 348
#     4  11  22  33  58  87 117 146 187 236 292 335
#     4  10  20  36  58  82 112 149 191 237 283 333
#     4  11  19  37  57  83 112 151 191 231 280 348
#     4  10  18  35  56  78 106 143 196 229 263 338
#
# _framework density 18.653680000000001
#
# number of rings (size 3 to 8) (size 9 to 14) (size 15 to 20)
#    0.000    1.667    5.000    3.500    0.000    0.000 
#    0.000    9.167    0.000    0.000    0.000    0.000 
#    0.000    0.000    0.000    0.000    0.000    0.000 
#
# Total GULP energy -594722.062831 kJ/mol
# GULP energy per Si atom -12390.042976 kJ/mol
# Density = 1.861122 g / cm^3
# Si number density = 18.653680 Si / 1000 Ang^3
#
#
#
# Elastic Constant Matrix: (Units=GPa)
#
#
# Indices 1 2 3 4 5 6 
#
# 1 88.1455 28.0638 16.5549 0.0000 0.0000 0.0000
# 2 28.0638 96.9102 30.3394 0.0000 0.0000 0.0000
# 3 16.5549 30.3394 48.0167 0.0000 0.0000 0.0000
# 4 0.0000 0.0000 0.0000 15.7244 0.0000 0.0000
# 5 0.0000 0.0000 0.0000 0.0000 37.6025 0.0000
# 6 0.0000 0.0000 0.0000 0.0000 0.0000 21.2961
#
#
#
# Elastic Compliance Matrix: (Units=1/GPa)
#
#
# Indices 1 2 3 4 5 6 
#
# 1 0.012747 -0.002886 -0.002571 0.000000 0.000000 0.000000
# 2 -0.002886 0.013517 -0.007546 0.000000 0.000000 0.000000
# 3 -0.002571 -0.007546 0.026480 0.000000 0.000000 0.000000
# 4 0.000000 0.000000 0.000000 0.063596 0.000000 0.000000
# 5 0.000000 0.000000 0.000000 0.000000 0.026594 0.000000
# 6 0.000000 0.000000 0.000000 0.000000 0.000000 0.046957
#
#
# Mechanical properties :
#
#
# Convention : Reuss Voigt Hill
#
# Bulk Modulus (GPa) = 37.39993 42.55428 39.97711
# Shear Modulus (GPa) = 22.24114 25.46556 23.85335
#
# Velocity S-wave (km/s) = 3.45674 3.69884 3.57984
# Velocity P-wave (km/s) = 6.00210 6.41126 6.21005
#
# Compressibility (1/GPa) = 0.02673802
#
# Stress axis : x y z
#
# Youngs Moduli (GPa) = 78.45163 73.98130 37.76414
#
# Poissons Ratio (x) = 0.21354 0.09709
# Poissons Ratio (y) = 0.22644 0.28495
# Poissons Ratio (z) = 0.20170 0.55823
#
# Static dielectric constant tensor:
#      x y z
#    x 3.791370 0.000000 0.000000 
#    y 0.000000 3.651130 0.000000 
#    z 0.000000 0.000000 3.330710 
# 
# 
# High freq. dielectric constant tensor:
#      x y z
#    x 1.742830 0.000000 0.000000 
#    y 0.000000 1.691090 0.000000 
#    z 0.000000 0.000000 1.711550 
# 
# From -- ./inp_files/13457.got.cif
#   From: 2010.03.12/outbox.cif.g09.slc.cpg/sg62_7_cif.got.tgz:13457.got - 2010.04.10 19:12:36.
