data_PCOD8250447
_publ_section_title
;
Structure prediction by ZEFSAII (Michael W. Deem and Ramdas Pophale) SiO2 
 PCOD8250447
Probable space group: P N M A
;
_chemical_formula_sum "Si O2"
_cell_formula_units_Z 56
_cell_length_a 19.546214
_cell_length_b 9.277194
_cell_length_c 17.550773
_cell_angle_alpha 90.000000
_cell_angle_beta 90.000000
_cell_angle_gamma 90.000000
_cell_volume 3182.552209
_symmetry_space_group_name_H-M "P N M A"
_symmetry_group_IT_number 62
_symmetry_cell_setting 'orthorhombic'
loop_
_space_group_symop_operation_xyz
x,y,z
1/2-x,-y,1/2+z
1/2+x,1/2-y,1/2-z
-x,1/2+y,-z
-x,-y,-z
1/2+x,y,1/2-z
1/2-x,1/2+y,1/2+z
x,1/2-y,z
loop_
_atom_site_type_symbol
_atom_site_label
_atom_site_fract_x
_atom_site_fract_y
_atom_site_fract_z
Si Si1 0.311444 0.580951 0.920632
Si Si2 0.340036 0.079841 0.467558
Si Si3 0.405029 0.420178 0.622118
Si Si4 0.433726 0.581193 0.028091
Si Si5 0.879389 0.420820 0.710039
Si Si6 0.468632 0.581623 0.191754
Si Si7 0.440773 0.579437 0.356751
O O1 0.316951 0.750000 0.904925
O O2 0.238493 0.537877 0.954921
O O3 0.367089 0.529132 0.982805
O O4 0.322351 0.499259 0.840876
O O5 0.352149 0.250000 0.461874
O O6 0.362244 0.019321 0.550557
O O7 0.384255 0.004152 0.403398
O O8 0.403543 0.250000 0.622289
O O9 0.370973 0.471039 0.701794
O O10 0.483960 0.469276 0.615013
O O11 0.446900 0.750000 0.017125
O O12 0.500000 0.500000 0.000000
O O13 0.423151 0.543746 0.117828
O O14 0.869857 0.250000 0.700635
O O15 0.953876 0.477037 0.681703
O O16 0.478452 0.750000 0.204206
O O17 0.432496 0.525800 0.268834
O O18 0.429378 0.750000 0.366329
#
# Coordination Sequence:
#
# PCOD8250447 Si02
#       7
#     8   8   8   8   8   8   8
#     4  10  21  33  47  70 104 138 164 198 248 302
#     4  10  20  35  49  70 105 137 164 198 249 304
#     4   8  16  32  55  77  97 126 167 208 246 293
#     4  10  18  31  51  73  98 131 167 205 246 290
#     4   9  16  31  54  75  94 124 165 208 246 286
#     4   8  15  29  50  75 100 120 154 208 252 284
#     4   9  17  32  54  78  98 123 166 214 248 285
#
# _framework density 17.595942000000001
#
# number of rings (size 3 to 8) (size 9 to 14) (size 15 to 20)
#    0.000    2.857    1.429    2.143    0.000    0.571 
#    2.571    4.286    0.000    0.000    0.000    0.000 
#    0.000    0.000    0.000    0.000    0.000    0.000 
#
# Total GULP energy -694113.610935 kJ/mol
# GULP energy per Si atom -12394.885910 kJ/mol
# Density = 1.755589 g / cm^3
# Si number density = 17.595942 Si / 1000 Ang^3
#
#
#
# Elastic Constant Matrix: (Units=GPa)
#
#
# Indices 1 2 3 4 5 6 
#
# 1 125.9755 37.7361 88.5903 0.0000 0.0000 0.0000
# 2 37.7361 26.4090 39.0875 0.0000 0.0000 0.0000
# 3 88.5903 39.0875 155.0307 0.0000 0.0000 0.0000
# 4 0.0000 0.0000 0.0000 25.4111 0.0000 0.0000
# 5 0.0000 0.0000 0.0000 0.0000 19.5120 0.0000
# 6 0.0000 0.0000 0.0000 0.0000 0.0000 24.4236
#
#
#
# Elastic Compliance Matrix: (Units=1/GPa)
#
#
# Indices 1 2 3 4 5 6 
#
# 1 0.016387 -0.015244 -0.005520 0.000000 0.000000 0.000000
# 2 -0.015244 0.074590 -0.010095 0.000000 0.000000 0.000000
# 3 -0.005520 -0.010095 0.012150 0.000000 0.000000 0.000000
# 4 0.000000 0.000000 0.000000 0.039353 0.000000 0.000000
# 5 0.000000 0.000000 0.000000 0.000000 0.051250 0.000000
# 6 0.000000 0.000000 0.000000 0.000000 0.000000 0.040944
#
#
# Mechanical properties :
#
#
# Convention : Reuss Voigt Hill
#
# Bulk Modulus (GPa) = 24.15030 70.91589 47.53309
# Shear Modulus (GPa) = 16.11881 23.33610 19.72746
#
# Velocity S-wave (km/s) = 3.02992 3.64568 3.35197
# Velocity P-wave (km/s) = 5.09856 7.62307 6.48485
#
# Compressibility (1/GPa) = 0.04140735
#
# Stress axis : x y z
#
# Youngs Moduli (GPa) = 61.02528 13.40658 82.30348
#
# Poissons Ratio (x) = 0.20437 0.45435
# Poissons Ratio (y) = 0.93029 0.83086
# Poissons Ratio (z) = 0.33688 0.13534
#
# Static dielectric constant tensor:
#      x y z
#    x 3.206790 0.000000 0.000000 
#    y 0.000000 2.923090 0.000000 
#    z 0.000000 0.000000 3.855740 
# 
# 
# High freq. dielectric constant tensor:
#      x y z
#    x 1.664630 0.000000 0.000000 
#    y 0.000000 1.645110 0.000000 
#    z 0.000000 0.000000 1.699150 
# 
# From -- ./inp_files/24659.got.cif
#   From: 2010.03.12/outbox.cif.g09.slc.cpg/sg62_13_cif.got.tgz:24659.got - 2010.04.10 19:12:36.
