data_PCOD8250285
_publ_section_title
;
Structure prediction by ZEFSAII (Michael W. Deem and Ramdas Pophale) SiO2 
 PCOD8250285
Probable space group: P N M A
;
_chemical_formula_sum "Si O2"
_cell_formula_units_Z 64
_cell_length_a 23.199836
_cell_length_b 8.936592
_cell_length_c 19.128209
_cell_angle_alpha 90.000000
_cell_angle_beta 90.000000
_cell_angle_gamma 90.000000
_cell_volume 3965.803155
_symmetry_space_group_name_H-M "P N M A"
_symmetry_group_IT_number 62
_symmetry_cell_setting 'orthorhombic'
loop_
_space_group_symop_operation_xyz
x,y,z
1/2-x,-y,1/2+z
1/2+x,1/2-y,1/2-z
-x,1/2+y,-z
-x,-y,-z
1/2+x,y,1/2-z
1/2-x,1/2+y,1/2+z
x,1/2-y,z
loop_
_atom_site_type_symbol
_atom_site_label
_atom_site_fract_x
_atom_site_fract_y
_atom_site_fract_z
Si Si1 0.778343 0.924460 0.141690
Si Si2 0.118158 0.074199 0.507410
Si Si3 0.259677 0.075102 0.006556
Si Si4 0.443186 0.923848 0.865895
Si Si5 0.345341 0.072720 0.242826
Si Si6 0.937588 0.926753 0.348139
Si Si7 0.327973 0.924842 0.788462
Si Si8 0.735515 0.074353 0.343490
O O1 0.784389 0.750000 0.159108
O O2 0.782897 0.956253 0.058454
O O3 0.829938 0.013412 0.179633
O O4 0.715434 0.979624 0.164925
O O5 0.128010 0.250000 0.509462
O O6 0.076366 0.030059 0.443642
O O7 0.089552 0.015209 0.578936
O O8 0.179347 0.001073 0.494163
O O9 0.272425 0.250000 0.013625
O O10 0.229890 0.009930 0.077665
O O11 0.460618 0.750000 0.862908
O O12 0.392968 0.960532 0.810200
O O13 0.496359 0.025197 0.843677
O O14 0.351329 0.250000 0.245254
O O15 0.294677 0.015367 0.191322
O O16 0.404845 0.002008 0.216776
O O17 0.932925 0.750000 0.341398
O O18 0.313148 0.750000 0.800747
O O19 0.318392 0.969315 0.706483
O O20 0.740008 0.250000 0.348832
#
# Coordination Sequence:
#
# PCOD8250285 Si02
#       8
#     8   8   8   8   8   8   8   8
#     4  10  19  29  46  71  98 123 153 196 241 281
#     4  10  20  32  45  66  98 130 164 201 230 272
#     4  10  18  29  47  71  98 128 157 190 235 287
#     4  10  20  33  48  66  93 132 169 199 234 282
#     4  10  19  33  51  67  91 127 162 197 236 287
#     4  11  22  33  47  69  96 127 164 206 243 277
#     4   9  17  31  49  67  91 124 163 200 234 280
#     4   8  15  28  47  69  90 118 155 191 232 281
#
# _framework density 16.137968000000001
#
# number of rings (size 3 to 8) (size 9 to 14) (size 15 to 20)
#    0.000    2.250    2.500    2.250    0.000    2.000 
#    0.000    0.000    0.000    0.000    0.000    0.875 
#    0.000    0.000    0.000    0.000    0.000    0.000 
#
# Total GULP energy -793428.385075 kJ/mol
# GULP energy per Si atom -12397.318517 kJ/mol
# Density = 1.610124 g / cm^3
# Si number density = 16.137968 Si / 1000 Ang^3
#
#
#
# Elastic Constant Matrix: (Units=GPa)
#
#
# Indices 1 2 3 4 5 6 
#
# 1 65.7347 26.0088 38.6201 0.0000 0.0000 0.0000
# 2 26.0088 46.2185 26.6070 0.0000 0.0000 0.0000
# 3 38.6201 26.6070 96.7915 0.0000 0.0000 0.0000
# 4 0.0000 0.0000 0.0000 17.6143 0.0000 0.0000
# 5 0.0000 0.0000 0.0000 0.0000 24.4877 0.0000
# 6 0.0000 0.0000 0.0000 0.0000 0.0000 26.0296
#
#
#
# Elastic Compliance Matrix: (Units=1/GPa)
#
#
# Indices 1 2 3 4 5 6 
#
# 1 0.022606 -0.008944 -0.006561 0.000000 0.000000 0.000000
# 2 -0.008944 0.029243 -0.004470 0.000000 0.000000 0.000000
# 3 -0.006561 -0.004470 0.014178 0.000000 0.000000 0.000000
# 4 0.000000 0.000000 0.000000 0.056772 0.000000 0.000000
# 5 0.000000 0.000000 0.000000 0.000000 0.040837 0.000000
# 6 0.000000 0.000000 0.000000 0.000000 0.000000 0.038418
#
#
# Mechanical properties :
#
#
# Convention : Reuss Voigt Hill
#
# Bulk Modulus (GPa) = 38.34845 43.46850 40.90848
# Shear Modulus (GPa) = 19.94439 21.46023 20.70231
#
# Velocity S-wave (km/s) = 3.51930 3.65060 3.58555
# Velocity P-wave (km/s) = 6.35047 6.69053 6.52271
#
# Compressibility (1/GPa) = 0.02607667
#
# Stress axis : x y z
#
# Youngs Moduli (GPa) = 44.23511 34.19655 70.53090
#
# Poissons Ratio (x) = 0.30586 0.46278
# Poissons Ratio (y) = 0.39565 0.31526
# Poissons Ratio (z) = 0.29024 0.15285
#
# Static dielectric constant tensor:
#      x y z
#    x 2.849060 0.000000 0.000000 
#    y 0.000000 2.978180 0.000000 
#    z 0.000000 0.000000 3.509340 
# 
# 
# High freq. dielectric constant tensor:
#      x y z
#    x 1.590450 0.000000 0.000000 
#    y 0.000000 1.616720 0.000000 
#    z 0.000000 0.000000 1.622820 
# 
# From -- ./inp_files/24940.got.cif
#   From: 2010.03.12/outbox.cif.g09.slc.cpg/sg62_13_cif.got.tgz:24940.got - 2010.04.10 19:12:36.
