data_PCOD8250835
_publ_section_title
;
Structure prediction by ZEFSAII (Michael W. Deem and Ramdas Pophale) SiO2 
 PCOD8250835
Probable space group: P N M A
;
_chemical_formula_sum "Si O2"
_cell_formula_units_Z 64
_cell_length_a 22.757008
_cell_length_b 9.193684
_cell_length_c 18.113346
_cell_angle_alpha 90.000000
_cell_angle_beta 90.000000
_cell_angle_gamma 90.000000
_cell_volume 3789.687660
_symmetry_space_group_name_H-M "P N M A"
_symmetry_group_IT_number 62
_symmetry_cell_setting 'orthorhombic'
loop_
_space_group_symop_operation_xyz
x,y,z
1/2-x,-y,1/2+z
1/2+x,1/2-y,1/2-z
-x,1/2+y,-z
-x,-y,-z
1/2+x,y,1/2-z
1/2-x,1/2+y,1/2+z
x,1/2-y,z
loop_
_atom_site_type_symbol
_atom_site_label
_atom_site_fract_x
_atom_site_fract_y
_atom_site_fract_z
Si Si1 0.580729 0.586365 0.050111
Si Si2 0.686821 0.078617 0.986369
Si Si3 0.129808 0.417080 0.825894
Si Si4 0.626818 0.082654 0.836765
Si Si5 0.197722 0.083695 0.970641
Si Si6 0.076005 0.085071 0.027428
Si Si7 0.468551 0.416041 0.390711
Si Si8 0.520653 0.586954 0.892008
O O1 0.594044 0.750000 0.078064
O O2 0.540256 0.502949 0.109714
O O3 0.641360 0.499192 0.041321
O O4 0.546162 0.591667 0.973843
O O5 0.683202 0.250000 0.000107
O O6 0.672282 0.037811 0.901089
O O7 0.751329 0.022851 0.004137
O O8 0.117256 0.250000 0.841476
O O9 0.156523 0.443164 0.743841
O O10 0.173960 0.471349 0.890223
O O11 0.065492 0.492699 0.828562
O O12 0.608181 0.250000 0.847474
O O13 0.567621 0.988881 0.838980
O O14 0.220707 0.250000 0.965417
O O15 0.146666 0.070935 0.033265
O O16 0.061388 0.250000 0.999191
O O17 0.040085 0.060349 0.104818
O O18 0.055367 0.963489 0.970355
O O19 0.452403 0.250000 0.375586
O O20 0.508359 0.750000 0.863080
#
# Coordination Sequence:
#
# PCOD8250835 Si02
#       8
#     8   8   8   8   8   8   8   8
#     4   9  16  27  44  65  90 119 147 177 220 273
#     4  10  19  30  46  69  94 120 157 203 239 270
#     4   9  18  32  48  66  91 123 156 191 236 290
#     4   9  18  32  48  66  91 123 156 191 235 287
#     4   9  17  30  47  66  90 123 160 194 231 278
#     4   8  15  27  42  62  89 118 145 177 222 273
#     4   9  15  24  42  67  90 112 142 181 225 271
#     4   9  16  26  43  68  93 114 141 181 226 269
#
# _framework density 16.887934000000001
#
# number of rings (size 3 to 8) (size 9 to 14) (size 15 to 20)
#    0.000    3.000    0.000    2.250    0.000    6.500 
#    0.000    0.000    0.000    1.500    0.000    5.250 
#    0.000    0.000    0.000    0.000    0.000    0.000 
#
# Total GULP energy -792917.608330 kJ/mol
# GULP energy per Si atom -12389.337630 kJ/mol
# Density = 1.684950 g / cm^3
# Si number density = 16.887934 Si / 1000 Ang^3
#
#
#
# Elastic Constant Matrix: (Units=GPa)
#
#
# Indices 1 2 3 4 5 6 
#
# 1 112.8108 53.5076 40.9923 0.0000 0.0000 0.0000
# 2 53.5076 86.7528 28.3849 0.0000 0.0000 0.0000
# 3 40.9923 28.3849 63.4771 0.0000 0.0000 0.0000
# 4 0.0000 0.0000 0.0000 17.2188 0.0000 0.0000
# 5 0.0000 0.0000 0.0000 0.0000 16.7527 0.0000
# 6 0.0000 0.0000 0.0000 0.0000 0.0000 32.2064
#
#
#
# Elastic Compliance Matrix: (Units=1/GPa)
#
#
# Indices 1 2 3 4 5 6 
#
# 1 0.014362 -0.006821 -0.006224 0.000000 0.000000 0.000000
# 2 -0.006821 0.016743 -0.003082 0.000000 0.000000 0.000000
# 3 -0.006224 -0.003082 0.021151 0.000000 0.000000 0.000000
# 4 0.000000 0.000000 0.000000 0.058076 0.000000 0.000000
# 5 0.000000 0.000000 0.000000 0.000000 0.059692 0.000000
# 6 0.000000 0.000000 0.000000 0.000000 0.000000 0.031050
#
#
# Mechanical properties :
#
#
# Convention : Reuss Voigt Hill
#
# Bulk Modulus (GPa) = 49.99747 56.53448 53.26597
# Shear Modulus (GPa) = 20.83383 22.57931 21.70657
#
# Velocity S-wave (km/s) = 3.51615 3.66048 3.58904
# Velocity P-wave (km/s) = 6.79368 7.17038 6.98457
#
# Compressibility (1/GPa) = 0.02000101
#
# Stress axis : x y z
#
# Youngs Moduli (GPa) = 69.63024 59.72770 47.27890
#
# Poissons Ratio (x) = 0.40743 0.29427
# Poissons Ratio (y) = 0.47498 0.14569
# Poissons Ratio (z) = 0.43338 0.18406
#
# Static dielectric constant tensor:
#      x y z
#    x 3.157690 0.000000 0.000000 
#    y 0.000000 3.302970 0.000000 
#    z 0.000000 0.000000 2.977720 
# 
# 
# High freq. dielectric constant tensor:
#      x y z
#    x 1.636580 0.000000 0.000000 
#    y 0.000000 1.662690 0.000000 
#    z 0.000000 0.000000 1.608910 
# 
# From -- ./inp_files/28004.got.cif
#   From: 2010.03.12/outbox.cif.g09.slc.cpg/sg62_15_cif.got.tgz:28004.got - 2010.04.10 19:12:36.
