data_PCOD8250219
_publ_section_title
;
Structure prediction by ZEFSAII (Michael W. Deem and Ramdas Pophale) SiO2 
 PCOD8250219
Probable space group: P N M A
;
_chemical_formula_sum "Si O2"
_cell_formula_units_Z 64
_cell_length_a 24.629924
_cell_length_b 9.090061
_cell_length_c 15.277314
_cell_angle_alpha 90.000000
_cell_angle_beta 90.000000
_cell_angle_gamma 90.000000
_cell_volume 3420.399815
_symmetry_space_group_name_H-M "P N M A"
_symmetry_group_IT_number 62
_symmetry_cell_setting 'orthorhombic'
loop_
_space_group_symop_operation_xyz
x,y,z
1/2-x,-y,1/2+z
1/2+x,1/2-y,1/2-z
-x,1/2+y,-z
-x,-y,-z
1/2+x,y,1/2-z
1/2-x,1/2+y,1/2+z
x,1/2-y,z
loop_
_atom_site_type_symbol
_atom_site_label
_atom_site_fract_x
_atom_site_fract_y
_atom_site_fract_z
Si Si1 0.078164 0.420320 0.563511
Si Si2 0.535017 0.081038 0.306718
Si Si3 0.972642 0.583060 0.614408
Si Si4 0.186672 0.575344 0.618197
Si Si5 0.276851 0.924832 0.483293
Si Si6 0.570633 0.081070 0.644279
Si Si7 0.691219 0.421259 0.705679
Si Si8 0.890881 0.576227 0.957314
O O1 0.088501 0.250000 0.586580
O O2 0.022369 0.470312 0.608359
O O3 0.126957 0.515129 0.601072
O O4 0.072675 0.447946 0.459315
O O5 0.528379 0.250000 0.333093
O O6 0.556806 0.061422 0.207800
O O7 0.578363 0.006694 0.373114
O O8 0.475487 0.013081 0.310258
O O9 0.995061 0.750000 0.604044
O O10 0.185291 0.750000 0.624602
O O11 0.224425 0.521863 0.537289
O O12 0.210453 0.512807 0.709553
O O13 0.281514 0.750000 0.481854
O O14 0.276106 0.976711 0.381269
O O15 0.330250 0.989805 0.532278
O O16 0.554363 0.250000 0.653978
O O17 0.627372 0.049728 0.692088
O O18 0.574133 0.035827 0.542656
O O19 0.702716 0.250000 0.723048
O O20 0.885335 0.750000 0.946840
#
# Coordination Sequence:
#
# PCOD8250219 Si02
#       8
#     8   8   8   8   8   8   8   8
#     4  10  20  35  53  73 101 138 171 207 258 312
#     4  10  18  28  47  74 100 127 160 204 251 295
#     4   9  19  34  50  74 104 132 167 211 256 302
#     4  11  21  34  55  82 104 131 174 221 262 305
#     4   8  17  35  54  73 101 137 173 210 257 312
#     4   9  17  29  48  72  98 130 167 200 239 301
#     4   9  18  35  56  75  99 135 174 212 255 307
#     4   8  15  30  49  68  95 131 166 200 245 301
#
# _framework density 18.711262999999999
#
# number of rings (size 3 to 8) (size 9 to 14) (size 15 to 20)
#    0.000    2.750    0.000    3.375    0.000    3.500 
#    2.250    1.250    0.000    3.750    0.000    0.000 
#    0.000    0.000    0.000    0.000    0.000    0.000 
#
# Total GULP energy -793333.029872 kJ/mol
# GULP energy per Si atom -12395.828592 kJ/mol
# Density = 1.866868 g / cm^3
# Si number density = 18.711263 Si / 1000 Ang^3
#
#
#
# Elastic Constant Matrix: (Units=GPa)
#
#
# Indices 1 2 3 4 5 6 
#
# 1 46.8777 21.7379 43.6332 0.0000 0.0000 0.0000
# 2 21.7379 48.6998 38.6568 0.0000 0.0000 0.0000
# 3 43.6332 38.6568 142.6749 0.0000 0.0000 0.0000
# 4 0.0000 0.0000 0.0000 25.0199 0.0000 0.0000
# 5 0.0000 0.0000 0.0000 0.0000 23.2948 0.0000
# 6 0.0000 0.0000 0.0000 0.0000 0.0000 16.1618
#
#
#
# Elastic Compliance Matrix: (Units=1/GPa)
#
#
# Indices 1 2 3 4 5 6 
#
# 1 0.032298 -0.008378 -0.007608 0.000000 0.000000 0.000000
# 2 -0.008378 0.028333 -0.005115 0.000000 0.000000 0.000000
# 3 -0.007608 -0.005115 0.010721 0.000000 0.000000 0.000000
# 4 0.000000 0.000000 0.000000 0.039968 0.000000 0.000000
# 5 0.000000 0.000000 0.000000 0.000000 0.042928 0.000000
# 6 0.000000 0.000000 0.000000 0.000000 0.000000 0.061874
#
#
# Mechanical properties :
#
#
# Convention : Reuss Voigt Hill
#
# Bulk Modulus (GPa) = 34.30234 49.58980 41.94607
# Shear Modulus (GPa) = 18.65387 21.84362 20.24874
#
# Velocity S-wave (km/s) = 3.16085 3.42044 3.29320
# Velocity P-wave (km/s) = 5.62970 6.49302 6.07671
#
# Compressibility (1/GPa) = 0.02915253
#
# Stress axis : x y z
#
# Youngs Moduli (GPa) = 30.96157 35.29395 93.27273
#
# Poissons Ratio (x) = 0.29570 0.70957
# Poissons Ratio (y) = 0.25940 0.47705
# Poissons Ratio (z) = 0.23554 0.18051
#
# Static dielectric constant tensor:
#      x y z
#    x 3.341670 0.000000 0.000000 
#    y 0.000000 3.157270 0.000000 
#    z 0.000000 0.000000 3.861160 
# 
# 
# High freq. dielectric constant tensor:
#      x y z
#    x 1.703240 0.000000 0.000000 
#    y 0.000000 1.697760 0.000000 
#    z 0.000000 0.000000 1.746040 
# 
# From -- ./inp_files/20766.got.cif
#   From: 2010.03.12/outbox.cif.g09.slc.cpg/sg62_11_cif.got.tgz:20766.got - 2010.04.10 19:12:36.
