data_PCOD8250123
_publ_section_title
;
Structure prediction by ZEFSAII (Michael W. Deem and Ramdas Pophale) SiO2 
 PCOD8250123
Probable space group: P N M A
;
_chemical_formula_sum "Si O2"
_cell_formula_units_Z 64
_cell_length_a 18.618648
_cell_length_b 13.314808
_cell_length_c 17.256524
_cell_angle_alpha 90.000000
_cell_angle_beta 90.000000
_cell_angle_gamma 90.000000
_cell_volume 4277.956551
_symmetry_space_group_name_H-M "P N M A"
_symmetry_group_IT_number 62
_symmetry_cell_setting 'orthorhombic'
loop_
_space_group_symop_operation_xyz
x,y,z
1/2-x,-y,1/2+z
1/2+x,1/2-y,1/2-z
-x,1/2+y,-z
-x,-y,-z
1/2+x,y,1/2-z
1/2-x,1/2+y,1/2+z
x,1/2-y,z
loop_
_atom_site_type_symbol
_atom_site_label
_atom_site_fract_x
_atom_site_fract_y
_atom_site_fract_z
Si Si1 0.819489 0.995300 0.971203
Si Si2 0.146834 0.862708 0.273107
Si Si3 0.260490 0.637009 0.137328
Si Si4 0.520609 0.538674 0.303934
Si Si5 0.380171 0.863600 0.255526
Si Si6 0.564930 0.365928 0.400943
Si Si7 0.050336 0.865217 0.032097
Si Si8 0.266419 0.864180 0.390385
O O1 0.756214 0.056170 0.928764
O O2 0.882175 0.071067 0.999091
O O3 0.855825 0.911612 0.915402
O O4 0.780466 0.942182 0.041923
O O5 0.117475 0.750000 0.284763
O O6 0.196152 0.866581 0.197864
O O7 0.080424 0.937226 0.260745
O O8 0.192083 0.895387 0.348658
O O9 0.266041 0.750000 0.102848
O O10 0.335111 0.607690 0.178968
O O11 0.444334 0.557471 0.264107
O O12 0.527230 0.422144 0.328770
O O13 0.530529 0.608042 0.379807
O O14 0.410185 0.750000 0.248359
O O15 0.331101 0.871289 0.330625
O O16 0.571349 0.250000 0.379111
O O17 0.518791 0.385451 0.478641
O O18 0.073836 0.750000 0.028508
O O19 0.261597 0.750000 0.422387
#
# Coordination Sequence:
#
# PCOD8250123 Si02
#       8
#     8   8   8   8   8   8   8   8
#     4  11  17  27  45  62  87 124 152 176 219 270
#     4   9  16  28  45  66  88 111 146 188 226 261
#     4   9  17  29  44  67  92 115 146 185 226 263
#     4  11  17  27  47  66  86 118 148 180 223 270
#     4   9  17  28  45  69  94 113 139 186 231 265
#     4  10  20  28  39  64  95 121 146 175 212 268
#     4  10  18  26  41  68  95 115 143 178 221 271
#     4   9  18  29  42  64  93 118 144 184 223 260
#
# _framework density 14.960414
#
# number of rings (size 3 to 8) (size 9 to 14) (size 15 to 20)
#    0.000    2.250    2.500    6.375    0.000    2.000 
#    0.000    0.000    0.000    3.750    0.000    0.000 
#    0.000    0.000    0.000    0.000    0.000    0.000 
#
# Total GULP energy -793452.040222 kJ/mol
# GULP energy per Si atom -12397.688128 kJ/mol
# Density = 1.492636 g / cm^3
# Si number density = 14.960414 Si / 1000 Ang^3
#
#
#
# Elastic Constant Matrix: (Units=GPa)
#
#
# Indices 1 2 3 4 5 6 
#
# 1 81.9924 49.2690 39.8166 0.0000 0.0000 0.0000
# 2 49.2690 106.7187 45.8260 0.0000 0.0000 0.0000
# 3 39.8166 45.8260 53.6690 0.0000 0.0000 0.0000
# 4 0.0000 0.0000 0.0000 26.4976 0.0000 0.0000
# 5 0.0000 0.0000 0.0000 0.0000 22.8081 0.0000
# 6 0.0000 0.0000 0.0000 0.0000 0.0000 19.7922
#
#
#
# Elastic Compliance Matrix: (Units=1/GPa)
#
#
# Indices 1 2 3 4 5 6 
#
# 1 0.020407 -0.004611 -0.011203 0.000000 0.000000 0.000000
# 2 -0.004611 0.015837 -0.010102 0.000000 0.000000 0.000000
# 3 -0.011203 -0.010102 0.035570 0.000000 0.000000 0.000000
# 4 0.000000 0.000000 0.000000 0.037739 0.000000 0.000000
# 5 0.000000 0.000000 0.000000 0.000000 0.043844 0.000000
# 6 0.000000 0.000000 0.000000 0.000000 0.000000 0.050525
#
#
# Mechanical properties :
#
#
# Convention : Reuss Voigt Hill
#
# Bulk Modulus (GPa) = 50.04343 56.91148 53.47745
# Shear Modulus (GPa) = 19.05383 20.98412 20.01897
#
# Velocity S-wave (km/s) = 3.57265 3.74925 3.66201
# Velocity P-wave (km/s) = 7.10926 7.54099 7.32830
#
# Compressibility (1/GPa) = 0.01998264
#
# Stress axis : x y z
#
# Youngs Moduli (GPa) = 49.00248 63.14349 28.11379
#
# Poissons Ratio (x) = 0.29114 0.31496
# Poissons Ratio (y) = 0.22594 0.28400
# Poissons Ratio (z) = 0.54897 0.63787
#
# Static dielectric constant tensor:
#      x y z
#    x 2.919920 0.000000 0.000000 
#    y 0.000000 2.970100 0.000000 
#    z 0.000000 0.000000 2.701540 
# 
# 
# High freq. dielectric constant tensor:
#      x y z
#    x 1.564600 0.000000 0.000000 
#    y 0.000000 1.569630 0.000000 
#    z 0.000000 0.000000 1.538260 
# 
# From -- ./inp_files/19959.got.cif
#   From: 2010.03.12/outbox.cif.g09.slc.cpg/sg62_10_cif.got.tgz:19959.got - 2010.04.10 19:12:36.
