data_PCOD8250798
_publ_section_title
;
Structure prediction by ZEFSAII (Michael W. Deem and Ramdas Pophale) SiO2 
 PCOD8250798
Probable space group: P N M A
;
_chemical_formula_sum "Si O2"
_cell_formula_units_Z 64
_cell_length_a 19.118331
_cell_length_b 8.921732
_cell_length_c 23.461459
_cell_angle_alpha 90.000000
_cell_angle_beta 90.000000
_cell_angle_gamma 90.000000
_cell_volume 4001.788813
_symmetry_space_group_name_H-M "P N M A"
_symmetry_group_IT_number 62
_symmetry_cell_setting 'orthorhombic'
loop_
_space_group_symop_operation_xyz
x,y,z
1/2-x,-y,1/2+z
1/2+x,1/2-y,1/2-z
-x,1/2+y,-z
-x,-y,-z
1/2+x,y,1/2-z
1/2-x,1/2+y,1/2+z
x,1/2-y,z
loop_
_atom_site_type_symbol
_atom_site_label
_atom_site_fract_x
_atom_site_fract_y
_atom_site_fract_z
Si Si1 0.793086 0.078238 0.675860
Si Si2 0.494863 0.072108 0.121803
Si Si3 0.128929 0.426735 0.224063
Si Si4 0.839904 0.921834 0.241395
Si Si5 0.373774 0.425154 0.933981
Si Si6 0.761535 0.072962 0.340855
Si Si7 0.994942 0.574950 0.254901
Si Si8 0.354534 0.072499 0.060434
O O1 0.811287 0.250000 0.691781
O O2 0.710900 0.044618 0.687503
O O3 0.809849 0.046331 0.609800
O O4 0.841442 0.971720 0.714092
O O5 0.496118 0.250000 0.129002
O O6 0.425216 0.013748 0.090172
O O7 0.559293 0.020395 0.083429
O O8 0.499660 0.998467 0.183369
O O9 0.118304 0.250000 0.222116
O O10 0.183476 0.483947 0.175302
O O11 0.054312 0.505418 0.213787
O O12 0.833250 0.750000 0.260646
O O13 0.920075 0.959387 0.225362
O O14 0.818147 0.020381 0.295010
O O15 0.394432 0.250000 0.936096
O O16 0.348552 0.485401 0.995651
O O17 0.762002 0.250000 0.337945
O O18 0.786943 0.015729 0.403108
O O19 0.008829 0.750000 0.261974
O O20 0.355856 0.250000 0.060710
#
# Coordination Sequence:
#
# PCOD8250798 Si02
#       8
#     8   8   8   8   8   8   8   8
#     4   9  17  30  46  65  89 115 147 186 225 267
#     4  11  20  30  44  63  92 123 155 188 215 256
#     4  10  19  29  46  67  89 116 148 185 228 271
#     4   9  18  30  45  65  88 115 148 186 227 269
#     4  10  19  31  47  65  90 123 154 183 221 265
#     4   9  17  31  47  65  89 117 148 186 226 265
#     4  11  20  30  45  65  91 121 151 184 225 272
#     4   9  18  31  46  65  90 122 155 186 219 260
#
# _framework density 15.992848
#
# number of rings (size 3 to 8) (size 9 to 14) (size 15 to 20)
#    0.000    2.250    2.500    1.500    0.000    1.000 
#    0.000    1.250    0.000    0.000    0.000    0.875 
#    0.000    0.000    0.000    0.000    0.000    0.000 
#
# Total GULP energy -793323.533089 kJ/mol
# GULP energy per Si atom -12395.680205 kJ/mol
# Density = 1.595645 g / cm^3
# Si number density = 15.992848 Si / 1000 Ang^3
#
#
#
# Elastic Constant Matrix: (Units=GPa)
#
#
# Indices 1 2 3 4 5 6 
#
# 1 119.1755 26.8441 50.1158 0.0000 0.0000 0.0000
# 2 26.8441 39.1460 15.2780 0.0000 0.0000 0.0000
# 3 50.1158 15.2780 74.2388 0.0000 0.0000 0.0000
# 4 0.0000 0.0000 0.0000 13.2773 0.0000 0.0000
# 5 0.0000 0.0000 0.0000 0.0000 23.4405 0.0000
# 6 0.0000 0.0000 0.0000 0.0000 0.0000 21.1480
#
#
#
# Elastic Compliance Matrix: (Units=1/GPa)
#
#
# Indices 1 2 3 4 5 6 
#
# 1 0.012861 -0.005905 -0.007467 0.000000 0.000000 0.000000
# 2 -0.005905 0.030488 -0.002288 0.000000 0.000000 0.000000
# 3 -0.007467 -0.002288 0.018981 0.000000 0.000000 0.000000
# 4 0.000000 0.000000 0.000000 0.075316 0.000000 0.000000
# 5 0.000000 0.000000 0.000000 0.000000 0.042661 0.000000
# 6 0.000000 0.000000 0.000000 0.000000 0.000000 0.047286
#
#
# Mechanical properties :
#
#
# Convention : Reuss Voigt Hill
#
# Bulk Modulus (GPa) = 32.24703 46.33733 39.29218
# Shear Modulus (GPa) = 18.57009 20.92799 19.74904
#
# Velocity S-wave (km/s) = 3.41126 3.62136 3.51788
# Velocity P-wave (km/s) = 5.97685 6.82073 6.41269
#
# Compressibility (1/GPa) = 0.03101060
#
# Stress axis : x y z
#
# Youngs Moduli (GPa) = 77.75405 32.80003 52.68318
#
# Poissons Ratio (x) = 0.19369 0.39337
# Poissons Ratio (y) = 0.45916 0.12053
# Poissons Ratio (z) = 0.58057 0.07504
#
# Static dielectric constant tensor:
#      x y z
#    x 3.409290 0.000000 0.000000 
#    y 0.000000 2.995290 0.000000 
#    z 0.000000 0.000000 3.136920 
# 
# 
# High freq. dielectric constant tensor:
#      x y z
#    x 1.615860 0.000000 0.000000 
#    y 0.000000 1.610920 0.000000 
#    z 0.000000 0.000000 1.585470 
# 
# From -- ./inp_files/30086.got.cif
#   From: 2010.03.12/outbox.cif.g09.slc.cpg/sg62_16_cif.got.tgz:30086.got - 2010.04.10 19:12:36.
