data_PCOD8250033
_publ_section_title
;
Structure prediction by ZEFSAII (Michael W. Deem and Ramdas Pophale) SiO2 
 PCOD8250033
Probable space group: P N M A
;
_chemical_formula_sum "Si O2"
_cell_formula_units_Z 40
_cell_length_a 21.083828
_cell_length_b 8.748754
_cell_length_c 12.693004
_cell_angle_alpha 90.000000
_cell_angle_beta 90.000000
_cell_angle_gamma 90.000000
_cell_volume 2341.316289
_symmetry_space_group_name_H-M "P N M A"
_symmetry_group_IT_number 62
_symmetry_cell_setting 'orthorhombic'
loop_
_space_group_symop_operation_xyz
x,y,z
1/2-x,-y,1/2+z
1/2+x,1/2-y,1/2-z
-x,1/2+y,-z
-x,-y,-z
1/2+x,y,1/2-z
1/2-x,1/2+y,1/2+z
x,1/2-y,z
loop_
_atom_site_type_symbol
_atom_site_label
_atom_site_fract_x
_atom_site_fract_y
_atom_site_fract_z
Si Si1 0.162103 0.430696 0.167156
Si Si2 0.702061 0.071020 0.111717
Si Si3 0.702384 0.430762 0.881514
Si Si4 0.930923 0.430718 0.996078
Si Si5 0.161928 0.568991 0.821402
O O1 0.159182 0.250000 0.148870
O O2 0.155446 0.474267 0.291925
O O3 0.228958 0.492377 0.126440
O O4 0.104382 0.509732 0.107615
O O5 0.712765 0.250000 0.112450
O O6 0.772432 0.002441 0.131042
O O7 0.675154 0.021848 0.997350
O O8 0.710155 0.250000 0.869618
O O9 0.653373 0.494265 0.794405
O O10 0.934790 0.250000 0.989460
O O11 0.894342 0.483884 0.101625
O O12 0.000000 0.500000 0.000000
O O13 0.162558 0.750000 0.807484
#
# Coordination Sequence:
#
# PCOD8250033 Si02
#       5
#     8   8   8   8   8
#     4  10  19  32  49  73 103 136 170 203 253 306
#     4   8  15  29  48  71 103 133 157 201 257 297
#     4  10  17  29  50  76 104 133 165 207 253 302
#     4  11  22  37  54  73 102 136 173 215 255 300
#     4   9  18  33  48  69 103 135 164 205 257 303
#
# _framework density 17.084406000000001
#
# number of rings (size 3 to 8) (size 9 to 14) (size 15 to 20)
#    0.000    2.400    2.000    3.000    0.000    1.600 
#    0.000    3.000    0.000    1.200    0.000    0.000 
#    0.000    0.000    0.000    0.000    0.000    0.000 
#
# Total GULP energy -495725.487218 kJ/mol
# GULP energy per Si atom -12393.137180 kJ/mol
# Density = 1.704552 g / cm^3
# Si number density = 17.084406 Si / 1000 Ang^3
#
#
#
# Elastic Constant Matrix: (Units=GPa)
#
#
# Indices 1 2 3 4 5 6 
#
# 1 95.7996 36.5157 72.2966 0.0000 0.0000 0.0000
# 2 36.5157 52.8739 45.3812 0.0000 0.0000 0.0000
# 3 72.2966 45.3812 186.2331 0.0000 0.0000 0.0000
# 4 0.0000 0.0000 0.0000 29.3975 0.0000 0.0000
# 5 0.0000 0.0000 0.0000 0.0000 21.2082 0.0000
# 6 0.0000 0.0000 0.0000 0.0000 0.0000 22.5279
#
#
#
# Elastic Compliance Matrix: (Units=1/GPa)
#
#
# Indices 1 2 3 4 5 6 
#
# 1 0.016894 -0.007635 -0.004698 0.000000 0.000000 0.000000
# 2 -0.007635 0.027365 -0.003704 0.000000 0.000000 0.000000
# 3 -0.004698 -0.003704 0.008096 0.000000 0.000000 0.000000
# 4 0.000000 0.000000 0.000000 0.034017 0.000000 0.000000
# 5 0.000000 0.000000 0.000000 0.000000 0.047151 0.000000
# 6 0.000000 0.000000 0.000000 0.000000 0.000000 0.044389
#
#
# Mechanical properties :
#
#
# Convention : Reuss Voigt Hill
#
# Bulk Modulus (GPa) = 49.30817 71.47707 60.39262
# Shear Modulus (GPa) = 23.06828 26.67426 24.87127
#
# Velocity S-wave (km/s) = 3.67857 3.95564 3.81962
# Velocity P-wave (km/s) = 6.85322 7.92409 7.40803
#
# Compressibility (1/GPa) = 0.02028061
#
# Stress axis : x y z
#
# Youngs Moduli (GPa) = 59.19251 36.54254 123.51802
#
# Poissons Ratio (x) = 0.27901 0.58026
# Poissons Ratio (y) = 0.45195 0.45755
# Poissons Ratio (z) = 0.27807 0.13537
#
# Static dielectric constant tensor:
#      x y z
#    x 2.864220 0.000000 0.000000 
#    y 0.000000 3.153430 0.000000 
#    z 0.000000 0.000000 3.856980 
# 
# 
# High freq. dielectric constant tensor:
#      x y z
#    x 1.609740 0.000000 0.000000 
#    y 0.000000 1.655910 0.000000 
#    z 0.000000 0.000000 1.680690 
# 
# From -- ./inp_files/13866.got.cif
#   From: 2010.03.12/outbox.cif.g09.slc.cpg/sg62_7_cif.got.tgz:13866.got - 2010.04.10 19:12:36.
