data_PCOD8250435
_publ_section_title
;
Structure prediction by ZEFSAII (Michael W. Deem and Ramdas Pophale) SiO2 
 PCOD8250435
Probable space group: P N M A
;
_chemical_formula_sum "Si O2"
_cell_formula_units_Z 64
_cell_length_a 30.131156
_cell_length_b 8.753236
_cell_length_c 14.527734
_cell_angle_alpha 90.000000
_cell_angle_beta 90.000000
_cell_angle_gamma 90.000000
_cell_volume 3831.618939
_symmetry_space_group_name_H-M "P N M A"
_symmetry_group_IT_number 62
_symmetry_cell_setting 'orthorhombic'
loop_
_space_group_symop_operation_xyz
x,y,z
1/2-x,-y,1/2+z
1/2+x,1/2-y,1/2-z
-x,1/2+y,-z
-x,-y,-z
1/2+x,y,1/2-z
1/2-x,1/2+y,1/2+z
x,1/2-y,z
loop_
_atom_site_type_symbol
_atom_site_label
_atom_site_fract_x
_atom_site_fract_y
_atom_site_fract_z
Si Si1 0.635774 0.930177 0.818931
Si Si2 0.785924 0.067578 0.791875
Si Si3 0.325126 0.921394 0.006455
Si Si4 0.863030 0.427083 0.667363
Si Si5 0.948545 0.571736 0.397544
Si Si6 0.952270 0.428410 0.593554
Si Si7 0.777862 0.422393 0.997880
Si Si8 0.198603 0.429965 0.817968
O O1 0.638867 0.750000 0.827934
O O2 0.584640 0.981369 0.830549
O O3 0.655080 0.985472 0.721385
O O4 0.667358 0.009733 0.893379
O O5 0.784592 0.250000 0.794273
O O6 0.830848 0.998040 0.744242
O O7 0.742966 0.010071 0.734732
O O8 0.786343 0.006310 0.896499
O O9 0.344631 0.750000 0.003616
O O10 0.273952 0.920391 0.982122
O O11 0.350119 0.026313 0.934719
O O12 0.854204 0.250000 0.677397
O O13 0.915888 0.465223 0.674112
O O14 0.939090 0.750000 0.386395
O O15 0.940511 0.525983 0.503349
O O16 0.999007 0.529287 0.368339
O O17 0.950179 0.250000 0.565481
O O18 0.797013 0.250000 0.004894
O O19 0.800310 0.529224 0.074115
O O20 0.193090 0.250000 0.805871
#
# Coordination Sequence:
#
# PCOD8250435 Si02
#       8
#     8   8   8   8   8   8   8   8
#     4  12  23  34  49  71  98 135 175 209 249 301
#     4   9  18  32  50  71  99 131 166 201 242 291
#     4  11  20  30  47  72 102 134 168 208 246 287
#     4  10  18  31  50  73  99 135 172 203 242 295
#     4  10  19  31  47  70 101 133 164 207 255 299
#     4   9  18  30  47  73 102 131 167 205 248 303
#     4  10  20  35  49  69 101 134 167 205 242 287
#     4  11  21  35  52  74  99 131 169 207 249 293
#
# _framework density 16.703123000000001
#
# number of rings (size 3 to 8) (size 9 to 14) (size 15 to 20)
#    0.000    1.750    3.750    2.250    0.000    1.000 
#    0.000    0.625    0.000    0.000    0.000    0.875 
#    0.000    0.000    0.000    0.000    0.000    0.000 
#
# Total GULP energy -793351.881726 kJ/mol
# GULP energy per Si atom -12396.123152 kJ/mol
# Density = 1.666511 g / cm^3
# Si number density = 16.703123 Si / 1000 Ang^3
#
#
#
# Elastic Constant Matrix: (Units=GPa)
#
#
# Indices 1 2 3 4 5 6 
#
# 1 104.8716 41.5267 40.9384 0.0000 0.0000 0.0000
# 2 41.5267 -196.6903 -18.7998 0.0000 0.0000 0.0000
# 3 40.9384 -18.7998 70.9236 0.0000 0.0000 0.0000
# 4 0.0000 0.0000 0.0000 22.1714 0.0000 0.0000
# 5 0.0000 0.0000 0.0000 0.0000 17.5150 0.0000
# 6 0.0000 0.0000 0.0000 0.0000 0.0000 19.7762
#
#
#
# Elastic Compliance Matrix: (Units=1/GPa)
#
#
# Indices 1 2 3 4 5 6 
#
# 1 0.010544 0.002738 -0.005360 0.000000 0.000000 0.000000
# 2 0.002738 -0.004247 -0.002706 0.000000 0.000000 0.000000
# 3 -0.005360 -0.002706 0.016476 0.000000 0.000000 0.000000
# 4 0.000000 0.000000 0.000000 0.045103 0.000000 0.000000
# 5 0.000000 0.000000 0.000000 0.000000 0.057094 0.000000
# 6 0.000000 0.000000 0.000000 0.000000 0.000000 0.050566
#
#
# Mechanical properties :
#
#
# Convention : Reuss Voigt Hill
#
# Bulk Modulus (GPa) = 82.53499 11.82616 47.18058
# Shear Modulus (GPa) = 26.28389 6.25514 16.26952
#
# Velocity S-wave (km/s) = 3.97116 1.93727 3.12435
# Velocity P-wave (km/s) = 8.39922 3.47845 6.42832
#
# Compressibility (1/GPa) = 0.01211607
#
# Stress axis : x y z
#
# Youngs Moduli (GPa) = 94.84483 -235.44328 60.69356
#
# Poissons Ratio (x) = 0.64473 0.32532
# Poissons Ratio (y) = -0.25972 0.16427
# Poissons Ratio (z) = 0.50837 -0.63722
#
# Static dielectric constant tensor:
#      x y z
#    x 3.673700 0.000000 0.000000 
#    y 0.000000 3.077940 0.000000 
#    z 0.000000 0.000000 3.008470 
# 
# 
# High freq. dielectric constant tensor:
#      x y z
#    x 1.642340 0.000000 0.000000 
#    y 0.000000 1.639320 0.000000 
#    z 0.000000 0.000000 1.613240 
# 
# From -- ./inp_files/21215.got.cif
#   From: 2010.03.12/outbox.cif.g09.slc.cpg/sg62_11_cif.got.tgz:21215.got - 2010.04.10 19:12:36.
