data_PCOD8250326
_publ_section_title
;
Structure prediction by ZEFSAII (Michael W. Deem and Ramdas Pophale) SiO2 
 PCOD8250326
Probable space group: P N M A
;
_chemical_formula_sum "Si O2"
_cell_formula_units_Z 64
_cell_length_a 19.208600
_cell_length_b 8.927105
_cell_length_c 23.539749
_cell_angle_alpha 90.000000
_cell_angle_beta 90.000000
_cell_angle_gamma 90.000000
_cell_volume 4036.529991
_symmetry_space_group_name_H-M "P N M A"
_symmetry_group_IT_number 62
_symmetry_cell_setting 'orthorhombic'
loop_
_space_group_symop_operation_xyz
x,y,z
1/2-x,-y,1/2+z
1/2+x,1/2-y,1/2-z
-x,1/2+y,-z
-x,-y,-z
1/2+x,y,1/2-z
1/2-x,1/2+y,1/2+z
x,1/2-y,z
loop_
_atom_site_type_symbol
_atom_site_label
_atom_site_fract_x
_atom_site_fract_y
_atom_site_fract_z
Si Si1 0.140183 0.424384 0.779517
Si Si2 0.741707 0.426652 0.160977
Si Si3 0.718085 0.074693 0.832061
Si Si4 0.158337 0.575872 0.239653
Si Si5 0.367451 0.571145 0.063955
Si Si6 0.504881 0.923614 0.236497
Si Si7 0.354712 0.927268 0.937376
Si Si8 0.498445 0.927668 0.883903
O O1 0.155826 0.250000 0.786798
O O2 0.180700 0.507257 0.830545
O O3 0.170347 0.484920 0.719585
O O4 0.057720 0.459796 0.780541
O O5 0.746475 0.250000 0.164949
O O6 0.687485 0.481383 0.208238
O O7 0.711594 0.479866 0.099994
O O8 0.707390 0.250000 0.836844
O O9 0.798849 0.033710 0.818028
O O10 0.690900 0.007625 0.891798
O O11 0.170827 0.750000 0.254164
O O12 0.076903 0.540291 0.230802
O O13 0.373302 0.750000 0.065303
O O14 0.441866 0.504288 0.079322
O O15 0.345801 0.512525 0.001527
O O16 0.500891 0.750000 0.217431
O O17 0.496693 0.025164 0.181461
O O18 0.358841 0.750000 0.937413
O O19 0.425861 0.988111 0.909497
O O20 0.505841 0.750000 0.888115
#
# Coordination Sequence:
#
# PCOD8250326 Si02
#       8
#     8   8   8   8   8   8   8   8
#     4   9  17  30  45  65  86 111 149 186 218 267
#     4  10  18  30  44  64  90 118 146 183 227 265
#     4   8  14  26  44  64  84 105 143 186 216 253
#     4   9  17  29  46  67  87 112 146 186 225 268
#     4  10  18  32  48  61  85 125 158 183 218 261
#     4  10  18  30  48  66  88 120 151 180 224 273
#     4   9  19  31  44  62  89 122 156 186 216 261
#     4  11  20  30  41  63  95 119 150 191 217 255
#
# _framework density 15.855202
#
# number of rings (size 3 to 8) (size 9 to 14) (size 15 to 20)
#    0.000    2.500    2.500    1.875    0.000    0.500 
#    0.000    1.875    0.000    0.000    0.000    0.875 
#    0.000    0.000    0.000    0.000    0.000    0.000 
#
# Total GULP energy -793198.986637 kJ/mol
# GULP energy per Si atom -12393.734166 kJ/mol
# Density = 1.581911 g / cm^3
# Si number density = 15.855202 Si / 1000 Ang^3
#
#
#
# Elastic Constant Matrix: (Units=GPa)
#
#
# Indices 1 2 3 4 5 6 
#
# 1 113.9771 22.0771 49.4590 0.0000 0.0000 0.0000
# 2 22.0771 33.3241 20.4954 0.0000 0.0000 0.0000
# 3 49.4590 20.4954 82.5911 0.0000 0.0000 0.0000
# 4 0.0000 0.0000 0.0000 15.2039 0.0000 0.0000
# 5 0.0000 0.0000 0.0000 0.0000 25.6548 0.0000
# 6 0.0000 0.0000 0.0000 0.0000 0.0000 18.7538
#
#
#
# Elastic Compliance Matrix: (Units=1/GPa)
#
#
# Indices 1 2 3 4 5 6 
#
# 1 0.012352 -0.004289 -0.006333 0.000000 0.000000 0.000000
# 2 -0.004289 0.036902 -0.006589 0.000000 0.000000 0.000000
# 3 -0.006333 -0.006589 0.017535 0.000000 0.000000 0.000000
# 4 0.000000 0.000000 0.000000 0.065773 0.000000 0.000000
# 5 0.000000 0.000000 0.000000 0.000000 0.038979 0.000000
# 6 0.000000 0.000000 0.000000 0.000000 0.000000 0.053323
#
#
# Mechanical properties :
#
#
# Convention : Reuss Voigt Hill
#
# Bulk Modulus (GPa) = 30.89428 45.99505 38.44466
# Shear Modulus (GPa) = 18.51336 21.11321 19.81328
#
# Velocity S-wave (km/s) = 3.42080 3.65310 3.53886
# Velocity P-wave (km/s) = 5.92706 6.84587 6.40297
#
# Compressibility (1/GPa) = 0.03236846
#
# Stress axis : x y z
#
# Youngs Moduli (GPa) = 80.95533 27.09875 57.02729
#
# Poissons Ratio (x) = 0.11621 0.36115
# Poissons Ratio (y) = 0.34718 0.37577
# Poissons Ratio (z) = 0.51269 0.17856
#
# Static dielectric constant tensor:
#      x y z
#    x 3.284560 0.000000 0.000000 
#    y 0.000000 2.831030 0.000000 
#    z 0.000000 0.000000 3.154600 
# 
# 
# High freq. dielectric constant tensor:
#      x y z
#    x 1.609910 0.000000 0.000000 
#    y 0.000000 1.591070 0.000000 
#    z 0.000000 0.000000 1.582390 
# 
# From -- ./inp_files/27959.got.cif
#   From: 2010.03.12/outbox.cif.g09.slc.cpg/sg62_14_cif.got.tgz:27959.got - 2010.04.10 19:12:36.
