data_PCOD8250697
_publ_section_title
;
Structure prediction by ZEFSAII (Michael W. Deem and Ramdas Pophale) SiO2 
 PCOD8250697
Probable space group: P N M A
;
_chemical_formula_sum "Si O2"
_cell_formula_units_Z 64
_cell_length_a 29.390610
_cell_length_b 8.571813
_cell_length_c 12.826906
_cell_angle_alpha 90.000000
_cell_angle_beta 90.000000
_cell_angle_gamma 90.000000
_cell_volume 3231.492855
_symmetry_space_group_name_H-M "P N M A"
_symmetry_group_IT_number 62
_symmetry_cell_setting 'orthorhombic'
loop_
_space_group_symop_operation_xyz
x,y,z
1/2-x,-y,1/2+z
1/2+x,1/2-y,1/2-z
-x,1/2+y,-z
-x,-y,-z
1/2+x,y,1/2-z
1/2-x,1/2+y,1/2+z
x,1/2-y,z
loop_
_atom_site_type_symbol
_atom_site_label
_atom_site_fract_x
_atom_site_fract_y
_atom_site_fract_z
Si Si1 0.470199 0.069583 0.293108
Si Si2 0.108901 0.434417 0.389013
Si Si3 0.198453 0.930875 0.881480
Si Si4 0.933081 0.067681 0.816736
Si Si5 0.585897 0.929485 0.904646
Si Si6 0.292978 0.571872 0.951275
Si Si7 0.896265 0.064785 0.038829
Si Si8 0.175643 0.425258 0.674619
O O1 0.481821 0.250000 0.316937
O O2 0.457487 0.049042 0.170953
O O3 0.429972 0.008601 0.368960
O O4 0.513404 0.963364 0.316349
O O5 0.107215 0.250000 0.407866
O O6 0.091650 0.473703 0.274484
O O7 0.076259 0.515405 0.476339
O O8 0.160540 0.501467 0.403479
O O9 0.200901 0.750000 0.910405
O O10 0.246397 0.012413 0.913382
O O11 0.154376 0.004559 0.940024
O O12 0.192686 0.951363 0.758518
O O13 0.923687 0.250000 0.801647
O O14 0.913215 0.005794 0.926482
O O15 0.601862 0.750000 0.903604
O O16 0.624575 0.039786 0.859014
O O17 0.292343 0.750000 0.913466
O O18 0.291691 0.557576 0.075605
O O19 0.894414 0.250000 0.042760
O O20 0.177725 0.250000 0.720057
#
# Coordination Sequence:
#
# PCOD8250697 Si02
#       8
#     8   8   8   8   8   8   8   8
#     4  10  20  37  59  84 111 145 188 237 291 337
#     4  10  21  39  57  80 117 153 186 236 291 339
#     4  10  18  35  59  81 107 147 190 231 277 334
#     4  11  23  37  56  83 114 153 193 230 283 349
#     4  10  19  35  61  85 107 144 191 233 279 340
#     4   8  18  34  55  79 107 145 183 222 280 335
#     4   9  19  36  57  82 112 145 188 235 280 334
#     4  10  19  33  52  81 115 145 181 232 286 332
#
# _framework density 19.805088000000001
#
# number of rings (size 3 to 8) (size 9 to 14) (size 15 to 20)
#    0.000    2.250    1.250    2.625    0.000    2.500 
#    0.000    6.875    0.000    0.000    0.000    0.000 
#    0.000    0.000    0.000    0.000    0.000    0.000 
#
# Total GULP energy -793410.831157 kJ/mol
# GULP energy per Si atom -12397.044237 kJ/mol
# Density = 1.976001 g / cm^3
# Si number density = 19.805088 Si / 1000 Ang^3
#
#
#
# Elastic Constant Matrix: (Units=GPa)
#
#
# Indices 1 2 3 4 5 6 
#
# 1 93.1845 17.3297 53.1945 0.0000 0.0000 0.0000
# 2 17.3297 31.3588 18.3680 0.0000 0.0000 0.0000
# 3 53.1945 18.3680 127.3953 0.0000 0.0000 0.0000
# 4 0.0000 0.0000 0.0000 27.0412 0.0000 0.0000
# 5 0.0000 0.0000 0.0000 0.0000 24.0791 0.0000
# 6 0.0000 0.0000 0.0000 0.0000 0.0000 18.8975
#
#
#
# Elastic Compliance Matrix: (Units=1/GPa)
#
#
# Indices 1 2 3 4 5 6 
#
# 1 0.014766 -0.004968 -0.005449 0.000000 0.000000 0.000000
# 2 -0.004968 0.036502 -0.003188 0.000000 0.000000 0.000000
# 3 -0.005449 -0.003188 0.010585 0.000000 0.000000 0.000000
# 4 0.000000 0.000000 0.000000 0.036981 0.000000 0.000000
# 5 0.000000 0.000000 0.000000 0.000000 0.041530 0.000000
# 6 0.000000 0.000000 0.000000 0.000000 0.000000 0.052917
#
#
# Mechanical properties :
#
#
# Convention : Reuss Voigt Hill
#
# Bulk Modulus (GPa) = 28.86761 47.74700 38.30731
# Shear Modulus (GPa) = 21.54807 24.87332 23.21070
#
# Velocity S-wave (km/s) = 3.30207 3.54772 3.42710
# Velocity P-wave (km/s) = 5.39868 6.39864 5.91981
#
# Compressibility (1/GPa) = 0.03464090
#
# Stress axis : x y z
#
# Youngs Moduli (GPa) = 67.72259 27.39569 94.47624
#
# Poissons Ratio (x) = 0.13611 0.51483
# Poissons Ratio (y) = 0.33647 0.30123
# Poissons Ratio (z) = 0.36904 0.08735
#
# Static dielectric constant tensor:
#      x y z
#    x 3.765040 0.000000 0.000000 
#    y 0.000000 3.327750 0.000000 
#    z 0.000000 0.000000 3.788410 
# 
# 
# High freq. dielectric constant tensor:
#      x y z
#    x 1.770510 0.000000 0.000000 
#    y 0.000000 1.745600 0.000000 
#    z 0.000000 0.000000 1.777420 
# 
# From -- ./inp_files/15814.got.cif
#   From: 2010.03.12/outbox.cif.g09.slc.cpg/sg62_8_cif.got.tgz:15814.got - 2010.04.10 19:12:36.
