data_PCOD8250226
_publ_section_title
;
Structure prediction by ZEFSAII (Michael W. Deem and Ramdas Pophale) SiO2 
 PCOD8250226
Probable space group: P N M A
;
_chemical_formula_sum "Si O2"
_cell_formula_units_Z 64
_cell_length_a 14.129789
_cell_length_b 9.407252
_cell_length_c 29.680705
_cell_angle_alpha 90.000000
_cell_angle_beta 90.000000
_cell_angle_gamma 90.000000
_cell_volume 3945.233090
_symmetry_space_group_name_H-M "P N M A"
_symmetry_group_IT_number 62
_symmetry_cell_setting 'orthorhombic'
loop_
_space_group_symop_operation_xyz
x,y,z
1/2-x,-y,1/2+z
1/2+x,1/2-y,1/2-z
-x,1/2+y,-z
-x,-y,-z
1/2+x,y,1/2-z
1/2-x,1/2+y,1/2+z
x,1/2-y,z
loop_
_atom_site_type_symbol
_atom_site_label
_atom_site_fract_x
_atom_site_fract_y
_atom_site_fract_z
Si Si1 0.340615 0.412502 0.372229
Si Si2 0.530594 0.406585 0.322756
Si Si3 0.656454 0.084765 0.796327
Si Si4 0.609398 0.914425 0.457296
Si Si5 0.111767 0.085140 0.954707
Si Si6 0.735382 0.082292 0.217915
Si Si7 0.016661 0.410944 0.278288
Si Si8 0.314882 0.088061 0.636280
O O1 0.317410 0.250000 0.385573
O O2 0.449839 0.429721 0.359188
O O3 0.325624 0.513927 0.415174
O O4 0.275329 0.462150 0.330869
O O5 0.575586 0.250000 0.327221
O O6 0.484583 0.423845 0.273636
O O7 0.615323 0.514518 0.328730
O O8 0.646562 0.250000 0.782964
O O9 0.709409 0.067926 0.844475
O O10 0.713334 0.005099 0.757016
O O11 0.553249 0.016250 0.804984
O O12 0.628712 0.750000 0.469486
O O13 0.499373 0.938407 0.445566
O O14 0.672469 0.968343 0.414811
O O15 0.641649 0.011028 0.498781
O O16 0.138483 0.250000 0.957456
O O17 0.751061 0.250000 0.227319
O O18 0.625066 0.041175 0.216737
O O19 0.003314 0.250000 0.296151
O O20 0.347488 0.250000 0.635918
#
# Coordination Sequence:
#
# PCOD8250226 Si02
#       8
#     8   8   8   8   8   8   8   8
#     4  10  19  31  47  70  97 128 164 197 238 286
#     4  10  18  28  48  71  94 128 166 203 236 275
#     4  11  22  32  48  73 101 130 163 204 247 292
#     4   9  18  32  47  65  95 129 159 194 235 287
#     4  10  19  30  47  71  96 125 158 195 240 288
#     4  10  20  35  52  70  95 131 173 206 237 285
#     4  10  20  35  51  68  96 133 171 209 241 279
#     4  10  20  33  47  69  99 132 164 196 241 290
#
# _framework density 16.222110000000001
#
# number of rings (size 3 to 8) (size 9 to 14) (size 15 to 20)
#    0.000    2.000    3.750    0.750    0.000    3.000 
#    0.000    0.000    0.000    0.000    0.000    0.875 
#    0.000    0.000    0.000    0.000    0.000    0.000 
#
# Total GULP energy -793520.863515 kJ/mol
# GULP energy per Si atom -12398.763492 kJ/mol
# Density = 1.618519 g / cm^3
# Si number density = 16.222110 Si / 1000 Ang^3
#
#
#
# Elastic Constant Matrix: (Units=GPa)
#
#
# Indices 1 2 3 4 5 6 
#
# 1 53.8737 34.9179 31.8049 0.0000 0.0000 0.0000
# 2 34.9179 74.8714 48.3656 0.0000 0.0000 0.0000
# 3 31.8049 48.3656 93.6801 0.0000 0.0000 0.0000
# 4 0.0000 0.0000 0.0000 24.8771 0.0000 0.0000
# 5 0.0000 0.0000 0.0000 0.0000 22.4823 0.0000
# 6 0.0000 0.0000 0.0000 0.0000 0.0000 22.4559
#
#
#
# Elastic Compliance Matrix: (Units=1/GPa)
#
#
# Indices 1 2 3 4 5 6 
#
# 1 0.027610 -0.010235 -0.004090 0.000000 0.000000 0.000000
# 2 -0.010235 0.023833 -0.008830 0.000000 0.000000 0.000000
# 3 -0.004090 -0.008830 0.016622 0.000000 0.000000 0.000000
# 4 0.000000 0.000000 0.000000 0.040198 0.000000 0.000000
# 5 0.000000 0.000000 0.000000 0.000000 0.044480 0.000000
# 6 0.000000 0.000000 0.000000 0.000000 0.000000 0.044532
#
#
# Mechanical properties :
#
#
# Convention : Reuss Voigt Hill
#
# Bulk Modulus (GPa) = 45.96355 50.28910 48.12632
# Shear Modulus (GPa) = 19.93341 21.11883 20.52612
#
# Velocity S-wave (km/s) = 3.50920 3.61204 3.56099
# Velocity P-wave (km/s) = 6.69438 6.96157 6.82928
#
# Compressibility (1/GPa) = 0.02175637
#
# Stress axis : x y z
#
# Youngs Moduli (GPa) = 36.21910 41.95776 60.16113
#
# Poissons Ratio (x) = 0.42942 0.24604
# Poissons Ratio (y) = 0.37068 0.53124
# Poissons Ratio (z) = 0.14813 0.37050
#
# Static dielectric constant tensor:
#      x y z
#    x 2.899410 0.000000 0.000000 
#    y 0.000000 3.123270 0.000000 
#    z 0.000000 0.000000 3.066700 
# 
# 
# High freq. dielectric constant tensor:
#      x y z
#    x 1.594900 0.000000 0.000000 
#    y 0.000000 1.628630 0.000000 
#    z 0.000000 0.000000 1.614470 
# 
# From -- ./inp_files/32680.got.cif
#   From: 2010.03.12/outbox.cif.g09.slc.cpg/sg62_17_cif.got.tgz:32680.got - 2010.04.10 19:12:36.
