data_PCOD8250719
_publ_section_title
;
Structure prediction by ZEFSAII (Michael W. Deem and Ramdas Pophale) SiO2 
 PCOD8250719
Probable space group: P N M A
;
_chemical_formula_sum "Si O2"
_cell_formula_units_Z 64
_cell_length_a 9.465190
_cell_length_b 16.344933
_cell_length_c 21.763363
_cell_angle_alpha 90.000000
_cell_angle_beta 90.000000
_cell_angle_gamma 90.000000
_cell_volume 3366.964108
_symmetry_space_group_name_H-M "P N M A"
_symmetry_group_IT_number 62
_symmetry_cell_setting 'orthorhombic'
loop_
_space_group_symop_operation_xyz
x,y,z
1/2-x,-y,1/2+z
1/2+x,1/2-y,1/2-z
-x,1/2+y,-z
-x,-y,-z
1/2+x,y,1/2-z
1/2-x,1/2+y,1/2+z
x,1/2-y,z
loop_
_atom_site_type_symbol
_atom_site_label
_atom_site_fract_x
_atom_site_fract_y
_atom_site_fract_z
Si Si1 0.222556 0.005577 0.610409
Si Si2 0.939905 0.443501 0.672891
Si Si3 0.661140 0.009617 0.518732
Si Si4 0.288340 0.436890 0.356050
Si Si5 0.959021 0.157657 0.221441
Si Si6 0.702802 0.155227 0.607314
Si Si7 0.511741 0.565692 0.315074
Si Si8 0.242967 0.847309 0.674239
O O1 0.239423 0.016445 0.537504
O O2 0.224573 0.906147 0.615841
O O3 0.343654 0.050435 0.649045
O O4 0.080990 0.049307 0.633013
O O5 0.862028 0.532034 0.668771
O O6 0.844241 0.373206 0.642282
O O7 0.965046 0.416880 0.743098
O O8 0.686503 0.100977 0.545226
O O9 0.500000 0.000000 0.500000
O O10 0.699481 0.943578 0.571002
O O11 0.337521 0.347642 0.332728
O O12 0.410368 0.487950 0.320592
O O13 0.993419 0.250000 0.233912
O O14 0.887729 0.123775 0.283437
O O15 0.112111 0.120261 0.205952
O O16 0.713869 0.250000 0.588696
O O17 0.568255 0.141864 0.652277
O O18 0.244134 0.750000 0.657496
#
# Coordination Sequence:
#
# PCOD8250719 Si02
#       8
#     8   8   8   8   8   8   8   8
#     4  12  20  34  63  85 114 153 197 241 277 344
#     4  10  22  35  59  89 116 148 192 240 296 349
#     4  10  19  39  61  82 110 146 197 241 272 339
#     4  10  20  34  53  80 115 151 193 238 282 339
#     4  10  19  33  50  76 116 152 184 233 290 338
#     4  10  23  41  60  85 121 156 188 241 301 346
#     4  10  18  36  60  86 112 146 198 238 292 347
#     4  10  21  32  50  83 116 148 186 232 289 338
#
# _framework density 19.008220999999999
#
# number of rings (size 3 to 8) (size 9 to 14) (size 15 to 20)
#    0.000    2.000    3.750    3.000    1.750    3.000 
#    0.000    1.250    0.000    1.500    0.000    0.000 
#    0.000    0.000    0.000    0.000    0.000    0.000 
#
# Total GULP energy -792910.716502 kJ/mol
# GULP energy per Si atom -12389.229945 kJ/mol
# Density = 1.896496 g / cm^3
# Si number density = 19.008221 Si / 1000 Ang^3
#
#
#
# Elastic Constant Matrix: (Units=GPa)
#
#
# Indices 1 2 3 4 5 6 
#
# 1 108.3778 22.5756 30.1124 0.0000 0.0000 0.0000
# 2 22.5756 45.1900 24.2032 0.0000 0.0000 0.0000
# 3 30.1124 24.2032 108.0978 0.0000 0.0000 0.0000
# 4 0.0000 0.0000 0.0000 21.6209 0.0000 0.0000
# 5 0.0000 0.0000 0.0000 0.0000 29.0078 0.0000
# 6 0.0000 0.0000 0.0000 0.0000 0.0000 20.9745
#
#
#
# Elastic Compliance Matrix: (Units=1/GPa)
#
#
# Indices 1 2 3 4 5 6 
#
# 1 0.010674 -0.004249 -0.002022 0.000000 0.000000 0.000000
# 2 -0.004249 0.026836 -0.004825 0.000000 0.000000 0.000000
# 3 -0.002022 -0.004825 0.010894 0.000000 0.000000 0.000000
# 4 0.000000 0.000000 0.000000 0.046252 0.000000 0.000000
# 5 0.000000 0.000000 0.000000 0.000000 0.034474 0.000000
# 6 0.000000 0.000000 0.000000 0.000000 0.000000 0.047677
#
#
# Mechanical properties :
#
#
# Convention : Reuss Voigt Hill
#
# Bulk Modulus (GPa) = 38.15084 46.16090 42.15587
# Shear Modulus (GPa) = 24.06902 26.63892 25.35397
#
# Velocity S-wave (km/s) = 3.56229 3.74765 3.65614
# Velocity P-wave (km/s) = 6.08557 6.56231 6.32843
#
# Compressibility (1/GPa) = 0.02621174
#
# Stress axis : x y z
#
# Youngs Moduli (GPa) = 93.68595 37.26361 91.79022
#
# Poissons Ratio (x) = 0.15835 0.18560
# Poissons Ratio (y) = 0.39812 0.44287
# Poissons Ratio (z) = 0.18943 0.17979
#
# Static dielectric constant tensor:
#      x y z
#    x 3.838910 0.000000 0.000000 
#    y 0.000000 3.316610 0.000000 
#    z 0.000000 0.000000 3.642060 
# 
# 
# High freq. dielectric constant tensor:
#      x y z
#    x 1.754890 0.000000 0.000000 
#    y 0.000000 1.709970 0.000000 
#    z 0.000000 0.000000 1.734500 
# 
# From -- ./inp_files/26190.got.cif
#   From: 2010.03.12/outbox.cif.g09.slc.cpg/sg62_14_cif.got.tgz:26190.got - 2010.04.10 19:12:36.
