data_PCOD8250067
_publ_section_title
;
Structure prediction by ZEFSAII (Michael W. Deem and Ramdas Pophale) SiO2 
 PCOD8250067
Probable space group: P N M A
;
_chemical_formula_sum "Si O2"
_cell_formula_units_Z 56
_cell_length_a 17.363450
_cell_length_b 18.909587
_cell_length_c 9.593219
_cell_angle_alpha 90.000000
_cell_angle_beta 90.000000
_cell_angle_gamma 90.000000
_cell_volume 3149.795972
_symmetry_space_group_name_H-M "P N M A"
_symmetry_group_IT_number 62
_symmetry_cell_setting 'orthorhombic'
loop_
_space_group_symop_operation_xyz
x,y,z
1/2-x,-y,1/2+z
1/2+x,1/2-y,1/2-z
-x,1/2+y,-z
-x,-y,-z
1/2+x,y,1/2-z
1/2-x,1/2+y,1/2+z
x,1/2-y,z
loop_
_atom_site_type_symbol
_atom_site_label
_atom_site_fract_x
_atom_site_fract_y
_atom_site_fract_z
Si Si1 0.700138 0.403130 0.994933
Si Si2 0.023133 0.936737 0.313885
Si Si3 0.897617 0.464119 0.411733
Si Si4 0.733134 0.166198 0.568345
Si Si5 0.599154 0.329579 0.781130
Si Si6 0.746234 0.591432 0.788933
Si Si7 0.686884 0.936574 0.271390
O O1 0.659535 0.480911 0.993971
O O2 0.638304 0.350631 0.927221
O O3 0.779917 0.399538 0.909053
O O4 0.725402 0.372765 0.145591
O O5 0.053081 0.923560 0.471533
O O6 0.095749 0.951680 0.213536
O O7 0.981667 0.867600 0.256471
O O8 0.959033 0.998748 0.308940
O O9 0.846241 0.410487 0.318232
O O10 0.756545 0.250000 0.566418
O O11 0.655212 0.153644 0.653085
O O12 0.715598 0.136175 0.413904
O O13 0.798404 0.115968 0.638638
O O14 0.575050 0.250000 0.789293
O O15 0.769730 0.510589 0.764181
#
# Coordination Sequence:
#
# PCOD8250067 Si02
#       7
#     8   8   8   8   8   8   8
#     4   9  18  31  54  76 103 138 178 228 264 318
#     4  10  17  31  53  77 106 141 181 227 268 323
#     4   9  18  30  49  78 111 135 174 226 278 317
#     4  10  21  37  55  79 110 145 185 227 273 328
#     4   9  20  36  53  73 102 142 184 222 273 333
#     4  11  18  34  55  82 110 143 179 231 274 323
#     4  10  18  33  55  82 106 142 187 225 266 321
#
# _framework density 17.778929999999999
#
# number of rings (size 3 to 8) (size 9 to 14) (size 15 to 20)
#    0.000    2.286    2.857    1.714    0.000    1.143 
#    0.000    2.857    0.000    0.000    0.000    0.000 
#    0.000    0.000    0.000    0.000    0.000    0.000 
#
# Total GULP energy -693867.436353 kJ/mol
# GULP energy per Si atom -12390.489935 kJ/mol
# Density = 1.773846 g / cm^3
# Si number density = 17.778930 Si / 1000 Ang^3
#
#
#
# Elastic Constant Matrix: (Units=GPa)
#
#
# Indices 1 2 3 4 5 6 
#
# 1 86.1669 18.5759 18.1108 0.0000 0.0000 0.0000
# 2 18.5759 58.2032 19.5255 0.0000 0.0000 0.0000
# 3 18.1108 19.5255 95.2148 0.0000 0.0000 0.0000
# 4 0.0000 0.0000 0.0000 13.6889 0.0000 0.0000
# 5 0.0000 0.0000 0.0000 0.0000 26.7563 0.0000
# 6 0.0000 0.0000 0.0000 0.0000 0.0000 19.7717
#
#
#
# Elastic Compliance Matrix: (Units=1/GPa)
#
#
# Indices 1 2 3 4 5 6 
#
# 1 0.012715 -0.003487 -0.001704 0.000000 0.000000 0.000000
# 2 -0.003487 0.019407 -0.003316 0.000000 0.000000 0.000000
# 3 -0.001704 -0.003316 0.011507 0.000000 0.000000 0.000000
# 4 0.000000 0.000000 0.000000 0.073052 0.000000 0.000000
# 5 0.000000 0.000000 0.000000 0.000000 0.037374 0.000000
# 6 0.000000 0.000000 0.000000 0.000000 0.000000 0.050577
#
#
# Mechanical properties :
#
#
# Convention : Reuss Voigt Hill
#
# Bulk Modulus (GPa) = 37.57269 39.11214 38.34241
# Shear Modulus (GPa) = 21.69043 24.26826 22.97934
#
# Velocity S-wave (km/s) = 3.49665 3.69860 3.59904
# Velocity P-wave (km/s) = 6.12219 6.34716 6.23569
#
# Compressibility (1/GPa) = 0.02661508
#
# Stress axis : x y z
#
# Youngs Moduli (GPa) = 78.64673 51.52907 86.90593
#
# Poissons Ratio (x) = 0.17966 0.14805
# Poissons Ratio (y) = 0.27421 0.28822
# Poissons Ratio (z) = 0.13398 0.17089
#
# Static dielectric constant tensor:
#      x y z
#    x 3.432790 0.000000 0.000000 
#    y 0.000000 3.184090 0.000000 
#    z 0.000000 0.000000 3.343050 
# 
# 
# High freq. dielectric constant tensor:
#      x y z
#    x 1.689470 0.000000 0.000000 
#    y 0.000000 1.662980 0.000000 
#    z 0.000000 0.000000 1.674760 
# 
# From -- ./inp_files/8057.got.cif
#   From: 2010.03.12/outbox.cif.g09.slc.cpg/sg62_5_cif.got.tgz:8057.got - 2010.04.10 19:12:36.
