data_PCOD8250051
_publ_section_title
;
Structure prediction by ZEFSAII (Michael W. Deem and Ramdas Pophale) SiO2 
 PCOD8250051
Probable space group: P N M A
;
_chemical_formula_sum "Si O2"
_cell_formula_units_Z 64
_cell_length_a 23.335967
_cell_length_b 9.095631
_cell_length_c 19.005660
_cell_angle_alpha 90.000000
_cell_angle_beta 90.000000
_cell_angle_gamma 90.000000
_cell_volume 4034.052918
_symmetry_space_group_name_H-M "P N M A"
_symmetry_group_IT_number 62
_symmetry_cell_setting 'orthorhombic'
loop_
_space_group_symop_operation_xyz
x,y,z
1/2-x,-y,1/2+z
1/2+x,1/2-y,1/2-z
-x,1/2+y,-z
-x,-y,-z
1/2+x,y,1/2-z
1/2-x,1/2+y,1/2+z
x,1/2-y,z
loop_
_atom_site_type_symbol
_atom_site_label
_atom_site_fract_x
_atom_site_fract_y
_atom_site_fract_z
Si Si1 0.265593 0.077107 0.859101
Si Si2 0.168851 0.579592 0.771106
Si Si3 0.384632 0.075594 0.501279
Si Si4 0.441380 0.419650 0.358544
Si Si5 0.723150 0.422066 0.848789
Si Si6 0.745375 0.578026 0.503208
Si Si7 0.835270 0.078533 0.771489
Si Si8 0.941549 0.424560 0.854986
O O1 0.254424 0.250000 0.864807
O O2 0.321222 0.043786 0.810120
O O3 0.209451 0.003620 0.826076
O O4 0.278139 0.009133 0.935359
O O5 0.186479 0.750000 0.770439
O O6 0.103756 0.558863 0.795803
O O7 0.173868 0.510933 0.692808
O O8 0.381892 0.250000 0.500647
O O9 0.415694 0.015692 0.431336
O O10 0.319416 0.017041 0.504116
O O11 0.419739 0.019535 0.568871
O O12 0.457458 0.250000 0.368981
O O13 0.497602 0.507172 0.336576
O O14 0.715957 0.250000 0.831592
O O15 0.719434 0.452936 0.931795
O O16 0.784031 0.482757 0.820262
O O17 0.745042 0.750000 0.521644
O O18 0.837972 0.250000 0.786794
O O19 0.896478 0.014665 0.796305
O O20 0.947660 0.250000 0.853425
#
# Coordination Sequence:
#
# PCOD8250051 Si02
#       8
#     8   8   8   8   8   8   8   8
#     4  10  19  30  47  70  95 120 156 199 232 274
#     4  10  19  32  48  65  92 127 157 190 238 283
#     4   9  16  29  46  63  91 128 160 183 218 272
#     4  10  20  32  44  63  94 128 157 191 232 272
#     4   9  17  30  50  70  92 120 155 194 231 280
#     4  10  17  30  50  70  95 130 156 181 235 291
#     4   8  15  29  46  65  89 119 152 190 234 271
#     4  10  18  30  49  66  85 123 166 194 221 268
#
# _framework density 15.864939
#
# number of rings (size 3 to 8) (size 9 to 14) (size 15 to 20)
#    0.000    2.500    2.500    1.875    0.000    1.500 
#    0.000    3.750    0.000    0.000    0.000    0.875 
#    0.000    0.000    0.000    0.000    0.000    0.000 
#
# Total GULP energy -793417.427169 kJ/mol
# GULP energy per Si atom -12397.147300 kJ/mol
# Density = 1.582883 g / cm^3
# Si number density = 15.864939 Si / 1000 Ang^3
#
#
#
# Elastic Constant Matrix: (Units=GPa)
#
#
# Indices 1 2 3 4 5 6 
#
# 1 86.7400 36.4593 57.6830 0.0000 0.0000 0.0000
# 2 36.4593 56.3904 50.9780 0.0000 0.0000 0.0000
# 3 57.6830 50.9780 118.9050 0.0000 0.0000 0.0000
# 4 0.0000 0.0000 0.0000 26.9108 0.0000 0.0000
# 5 0.0000 0.0000 0.0000 0.0000 23.3327 0.0000
# 6 0.0000 0.0000 0.0000 0.0000 0.0000 22.1909
#
#
#
# Elastic Compliance Matrix: (Units=1/GPa)
#
#
# Indices 1 2 3 4 5 6 
#
# 1 0.018257 -0.006201 -0.006198 0.000000 0.000000 0.000000
# 2 -0.006201 0.031062 -0.010309 0.000000 0.000000 0.000000
# 3 -0.006198 -0.010309 0.015837 0.000000 0.000000 0.000000
# 4 0.000000 0.000000 0.000000 0.037160 0.000000 0.000000
# 5 0.000000 0.000000 0.000000 0.000000 0.042858 0.000000
# 6 0.000000 0.000000 0.000000 0.000000 0.000000 0.045064
#
#
# Mechanical properties :
#
#
# Convention : Reuss Voigt Hill
#
# Bulk Modulus (GPa) = 50.65952 61.36402 56.01177
# Shear Modulus (GPa) = 20.64116 22.28122 21.46119
#
# Velocity S-wave (km/s) = 3.61093 3.75164 3.68196
# Velocity P-wave (km/s) = 7.02753 7.58481 7.31148
#
# Compressibility (1/GPa) = 0.01973963
#
# Stress axis : x y z
#
# Youngs Moduli (GPa) = 54.77347 32.19334 63.14348
#
# Poissons Ratio (x) = 0.19962 0.39139
# Poissons Ratio (y) = 0.33963 0.65097
# Poissons Ratio (z) = 0.33951 0.33189
#
# Static dielectric constant tensor:
#      x y z
#    x 2.902930 0.000000 0.000000 
#    y 0.000000 2.832260 0.000000 
#    z 0.000000 0.000000 3.157400 
# 
# 
# High freq. dielectric constant tensor:
#      x y z
#    x 1.583290 0.000000 0.000000 
#    y 0.000000 1.591580 0.000000 
#    z 0.000000 0.000000 1.608060 
# 
# From -- ./inp_files/24982.got.cif
#   From: 2010.03.12/outbox.cif.g09.slc.cpg/sg62_13_cif.got.tgz:24982.got - 2010.04.10 19:12:36.
