data_PCOD8250694
_publ_section_title
;
Structure prediction by ZEFSAII (Michael W. Deem and Ramdas Pophale) SiO2 
 PCOD8250694
Probable space group: P N M A
;
_chemical_formula_sum "Si O2"
_cell_formula_units_Z 56
_cell_length_a 21.987768
_cell_length_b 8.651840
_cell_length_c 14.730417
_cell_angle_alpha 90.000000
_cell_angle_beta 90.000000
_cell_angle_gamma 90.000000
_cell_volume 2802.235733
_symmetry_space_group_name_H-M "P N M A"
_symmetry_group_IT_number 62
_symmetry_cell_setting 'orthorhombic'
loop_
_space_group_symop_operation_xyz
x,y,z
1/2-x,-y,1/2+z
1/2+x,1/2-y,1/2-z
-x,1/2+y,-z
-x,-y,-z
1/2+x,y,1/2-z
1/2-x,1/2+y,1/2+z
x,1/2-y,z
loop_
_atom_site_type_symbol
_atom_site_label
_atom_site_fract_x
_atom_site_fract_y
_atom_site_fract_z
Si Si1 0.898242 0.432608 0.112103
Si Si2 0.755833 0.567798 0.890605
Si Si3 0.956887 0.932710 0.576371
Si Si4 0.768856 0.432285 0.188240
Si Si5 0.825014 0.067599 0.555744
Si Si6 0.609325 0.433682 0.420551
Si Si7 0.012684 0.066569 0.224307
O O1 0.900585 0.250000 0.100266
O O2 0.831784 0.487912 0.143791
O O3 0.947156 0.487803 0.186937
O O4 0.915624 0.509633 0.017033
O O5 0.760563 0.750000 0.901032
O O6 0.728600 0.521058 0.793628
O O7 0.823298 0.497526 0.903331
O O8 0.711263 0.503391 0.968122
O O9 0.962349 0.750000 0.574953
O O10 0.977725 0.999391 0.674402
O O11 0.888408 0.980797 0.556869
O O12 0.000000 0.000000 0.500000
O O13 0.757802 0.250000 0.175745
O O14 0.713216 0.524863 0.144748
O O15 0.836309 0.250000 0.551219
O O16 0.609457 0.250000 0.419799
O O17 0.565516 0.498453 0.341568
O O18 0.016549 0.250000 0.226589
#
# Coordination Sequence:
#
# PCOD8250694 Si02
#       7
#     8   8   8   8   8   8   8
#     4  10  20  34  56  87 116 147 192 243 291 341
#     4   9  19  34  57  82 110 156 199 232 285 360
#     4  11  24  43  65  88 118 155 201 245 293 352
#     4  10  20  36  59  84 116 156 199 241 289 348
#     4  11  22  39  62  88 119 153 196 246 297 349
#     4  10  18  35  58  83 115 153 194 235 287 348
#     4   9  20  37  60  84 113 157 199 232 281 359
#
# _framework density 19.984041999999999
#
# number of rings (size 3 to 8) (size 9 to 14) (size 15 to 20)
#    0.000    2.000    1.429    2.143    2.000    2.286 
#    0.000    6.429    0.000    0.000    0.000    0.000 
#    0.000    0.000    0.000    0.000    0.000    0.000 
#
# Total GULP energy -694533.021019 kJ/mol
# GULP energy per Si atom -12402.375375 kJ/mol
# Density = 1.993856 g / cm^3
# Si number density = 19.984042 Si / 1000 Ang^3
#
#
#
# Elastic Constant Matrix: (Units=GPa)
#
#
# Indices 1 2 3 4 5 6 
#
# 1 150.8637 21.8703 70.7149 0.0000 0.0000 0.0000
# 2 21.8703 30.4561 22.4385 0.0000 0.0000 0.0000
# 3 70.7149 22.4385 156.3186 0.0000 0.0000 0.0000
# 4 0.0000 0.0000 0.0000 29.0528 0.0000 0.0000
# 5 0.0000 0.0000 0.0000 0.0000 36.6594 0.0000
# 6 0.0000 0.0000 0.0000 0.0000 0.0000 25.0796
#
#
#
# Elastic Compliance Matrix: (Units=1/GPa)
#
#
# Indices 1 2 3 4 5 6 
#
# 1 0.008785 -0.003780 -0.003431 0.000000 0.000000 0.000000
# 2 -0.003780 0.038344 -0.003794 0.000000 0.000000 0.000000
# 3 -0.003431 -0.003794 0.008494 0.000000 0.000000 0.000000
# 4 0.000000 0.000000 0.000000 0.034420 0.000000 0.000000
# 5 0.000000 0.000000 0.000000 0.000000 0.027278 0.000000
# 6 0.000000 0.000000 0.000000 0.000000 0.000000 0.039873
#
#
# Mechanical properties :
#
#
# Convention : Reuss Voigt Hill
#
# Bulk Modulus (GPa) = 29.75164 63.07621 46.41393
# Shear Modulus (GPa) = 26.25922 32.99934 29.62928
#
# Velocity S-wave (km/s) = 3.62886 4.06801 3.85469
# Velocity P-wave (km/s) = 5.69896 7.32781 6.56410
#
# Compressibility (1/GPa) = 0.03361159
#
# Stress axis : x y z
#
# Youngs Moduli (GPa) = 113.83085 26.07982 117.72875
#
# Poissons Ratio (x) = 0.09859 0.40398
# Poissons Ratio (y) = 0.43031 0.44665
# Poissons Ratio (z) = 0.39061 0.09894
#
# Static dielectric constant tensor:
#      x y z
#    x 3.638520 0.000000 0.000000 
#    y 0.000000 3.268590 0.000000 
#    z 0.000000 0.000000 3.894640 
# 
# 
# High freq. dielectric constant tensor:
#      x y z
#    x 1.793980 0.000000 0.000000 
#    y 0.000000 1.743450 0.000000 
#    z 0.000000 0.000000 1.795280 
# 
# From -- ./inp_files/20204.got.cif
#   From: 2010.03.12/outbox.cif.g09.slc.cpg/sg62_11_cif.got.tgz:20204.got - 2010.04.10 19:12:36.
