data_PCOD8250416
_publ_section_title
;
Structure prediction by ZEFSAII (Michael W. Deem and Ramdas Pophale) SiO2 
 PCOD8250416
Probable space group: P N M A
;
_chemical_formula_sum "Si O2"
_cell_formula_units_Z 52
_cell_length_a 14.531373
_cell_length_b 7.657133
_cell_length_c 22.792669
_cell_angle_alpha 90.000000
_cell_angle_beta 90.000000
_cell_angle_gamma 90.000000
_cell_volume 2536.109640
_symmetry_space_group_name_H-M "P N M A"
_symmetry_group_IT_number 62
_symmetry_cell_setting 'orthorhombic'
loop_
_space_group_symop_operation_xyz
x,y,z
1/2-x,-y,1/2+z
1/2+x,1/2-y,1/2-z
-x,1/2+y,-z
-x,-y,-z
1/2+x,y,1/2-z
1/2-x,1/2+y,1/2+z
x,1/2-y,z
loop_
_atom_site_type_symbol
_atom_site_label
_atom_site_fract_x
_atom_site_fract_y
_atom_site_fract_z
Si Si1 0.624895 0.250000 0.760849
Si Si2 0.435992 0.545220 0.945331
Si Si3 0.437664 0.450693 0.155651
Si Si4 0.457845 0.048755 0.437256
Si Si5 0.684193 0.750000 0.316004
Si Si6 0.761234 0.451876 0.019831
Si Si7 0.490876 0.750000 0.346880
Si Si8 0.743388 0.439225 0.392986
O O1 0.581085 0.424086 0.789228
O O2 0.737243 0.250000 0.765685
O O3 0.601760 0.250000 0.691960
O O4 0.431665 0.750000 0.939295
O O5 0.477195 0.476800 0.883304
O O6 0.332621 0.468897 0.952354
O O7 0.500000 0.500000 0.000000
O O8 0.451451 0.250000 0.177834
O O9 0.352784 0.464357 0.110761
O O10 0.482349 0.250000 0.422133
O O11 0.347196 0.022171 0.436863
O O12 0.500000 0.000000 0.500000
O O13 0.497615 0.922104 0.387396
O O14 0.575840 0.750000 0.299067
O O15 0.691714 0.579992 0.355261
O O16 0.745682 0.250000 0.003732
O O17 0.786308 0.551244 0.960352
O O18 0.714228 0.250000 0.368288
#
# Coordination Sequence:
#
# PCOD8250416 Si02
#       8
#     4   8   8   8   4   8   4   8
#     4  10  24  44  66  86 120 164 213 262 303 355
#     4  10  19  30  50  85 128 164 204 252 313 379
#     4   9  19  36  56  86 121 162 212 258 295 359
#     4  11  24  43  65  94 131 161 201 265 326 388
#     4  10  22  42  64  84 122 156 203 269 294 352
#     4  10  20  33  52  84 128 166 191 245 322 369
#     4  12  26  46  68  98 120 168 218 255 325 385
#     4  10  18  30  57  89 119 161 205 241 297 370
#
# _framework density 20.503845999999999
#
# number of rings (size 3 to 8) (size 9 to 14) (size 15 to 20)
#    0.000    1.846    3.077    0.923    2.154    2.462 
#    2.769    0.000    0.000    0.000    0.000    0.000 
#    0.000    0.000    0.000    0.000    0.000    0.000 
#
# Total GULP energy -644493.968682 kJ/mol
# GULP energy per Si atom -12394.114782 kJ/mol
# Density = 2.045718 g / cm^3
# Si number density = 20.503846 Si / 1000 Ang^3
#
#
#
# Elastic Constant Matrix: (Units=GPa)
#
#
# Indices 1 2 3 4 5 6 
#
# 1 120.2148 24.7313 29.2408 0.0000 0.0000 0.0000
# 2 24.7313 110.1941 31.2316 0.0000 0.0000 0.0000
# 3 29.2408 31.2316 77.6553 0.0000 0.0000 0.0000
# 4 0.0000 0.0000 0.0000 17.8037 0.0000 0.0000
# 5 0.0000 0.0000 0.0000 0.0000 26.0131 0.0000
# 6 0.0000 0.0000 0.0000 0.0000 0.0000 38.2211
#
#
#
# Elastic Compliance Matrix: (Units=1/GPa)
#
#
# Indices 1 2 3 4 5 6 
#
# 1 0.009304 -0.001236 -0.003006 0.000000 0.000000 0.000000
# 2 -0.001236 0.010407 -0.003720 0.000000 0.000000 0.000000
# 3 -0.003006 -0.003720 0.015505 0.000000 0.000000 0.000000
# 4 0.000000 0.000000 0.000000 0.056168 0.000000 0.000000
# 5 0.000000 0.000000 0.000000 0.000000 0.038442 0.000000
# 6 0.000000 0.000000 0.000000 0.000000 0.000000 0.026164
#
#
# Mechanical properties :
#
#
# Convention : Reuss Voigt Hill
#
# Bulk Modulus (GPa) = 51.83604 53.16351 52.49978
# Shear Modulus (GPa) = 28.03554 31.26494 29.65024
#
# Velocity S-wave (km/s) = 3.70176 3.90915 3.80686
# Velocity P-wave (km/s) = 6.60353 6.80882 6.70697
#
# Compressibility (1/GPa) = 0.01929160
#
# Stress axis : x y z
#
# Youngs Moduli (GPa) = 107.48103 96.09259 64.49327
#
# Poissons Ratio (x) = 0.11878 0.19388
# Poissons Ratio (y) = 0.13286 0.23991
# Poissons Ratio (z) = 0.32311 0.35746
#
# Static dielectric constant tensor:
#      x y z
#    x 4.136000 0.000000 0.000000 
#    y 0.000000 3.887990 0.000000 
#    z 0.000000 0.000000 3.231980 
# 
# 
# High freq. dielectric constant tensor:
#      x y z
#    x 1.813440 0.000000 0.000000 
#    y 0.000000 1.811920 0.000000 
#    z 0.000000 0.000000 1.752600 
# 
# From -- ./inp_files/27038.got.cif
#   From: 2010.03.12/outbox.cif.g09.slc.cpg/sg62_14_cif.got.tgz:27038.got - 2010.04.10 19:12:36.
