data_PCOD8250130
_publ_section_title
;
Structure prediction by ZEFSAII (Michael W. Deem and Ramdas Pophale) SiO2 
 PCOD8250130
Probable space group: P N M A
;
_chemical_formula_sum "Si O2"
_cell_formula_units_Z 64
_cell_length_a 21.516703
_cell_length_b 9.287621
_cell_length_c 21.873324
_cell_angle_alpha 90.000000
_cell_angle_beta 90.000000
_cell_angle_gamma 90.000000
_cell_volume 4371.142815
_symmetry_space_group_name_H-M "P N M A"
_symmetry_group_IT_number 62
_symmetry_cell_setting 'orthorhombic'
loop_
_space_group_symop_operation_xyz
x,y,z
1/2-x,-y,1/2+z
1/2+x,1/2-y,1/2-z
-x,1/2+y,-z
-x,-y,-z
1/2+x,y,1/2-z
1/2-x,1/2+y,1/2+z
x,1/2-y,z
loop_
_atom_site_type_symbol
_atom_site_label
_atom_site_fract_x
_atom_site_fract_y
_atom_site_fract_z
Si Si1 0.766706 0.407710 0.343849
Si Si2 0.260953 0.410469 0.837088
Si Si3 0.837472 0.921954 0.931025
Si Si4 0.161763 0.078838 0.930450
Si Si5 0.840560 0.588578 0.744209
Si Si6 0.155123 0.408713 0.735838
Si Si7 0.435993 0.578978 0.334560
Si Si8 0.078481 0.577794 0.164486
O O1 0.794037 0.250000 0.356464
O O2 0.730533 0.463978 0.404207
O O3 0.716693 0.402553 0.290047
O O4 0.825661 0.503906 0.324918
O O5 0.287606 0.250000 0.849436
O O6 0.225333 0.472125 0.896992
O O7 0.317646 0.516166 0.819230
O O8 0.212403 0.401533 0.782026
O O9 0.848937 0.750000 0.923923
O O10 0.890366 0.008249 0.895029
O O11 0.840026 0.978034 0.000410
O O12 0.160991 0.250000 0.930072
O O13 0.101381 0.019433 0.893883
O O14 0.865864 0.750000 0.731059
O O15 0.893918 0.488708 0.773367
O O16 0.137721 0.250000 0.712409
O O17 0.096451 0.479320 0.771937
O O18 0.429282 0.750000 0.333280
O O19 0.506801 0.530212 0.338168
O O20 0.087618 0.750000 0.164460
#
# Coordination Sequence:
#
# PCOD8250130 Si02
#       8
#     8   8   8   8   8   8   8   8
#     4   8  14  23  35  53  74  95 121 154 191 228
#     4   8  13  23  41  60  73  92 126 161 193 231
#     4   9  17  28  40  55  79 109 136 161 191 228
#     4   8  14  26  42  57  77 107 137 162 191 229
#     4   9  16  26  39  55  76  99 123 156 200 241
#     4   8  13  23  39  55  70  91 121 158 198 233
#     4   8  15  26  39  56  76 100 133 168 195 221
#     4  10  18  27  39  55  77 104 135 168 193 220
#
# _framework density 14.641481000000001
#
# number of rings (size 3 to 8) (size 9 to 14) (size 15 to 20)
#    0.000    3.500    0.000    3.000    0.000    3.500 
#    0.000    1.875    0.000    3.000    0.000    0.000 
#    0.000    1.000    0.000    2.000    0.000    3.000 
#
# Total GULP energy -792956.235899 kJ/mol
# GULP energy per Si atom -12389.941186 kJ/mol
# Density = 1.460816 g / cm^3
# Si number density = 14.641481 Si / 1000 Ang^3
#
#
#
# Elastic Constant Matrix: (Units=GPa)
#
#
# Indices 1 2 3 4 5 6 
#
# 1 75.6294 37.9867 74.7888 0.0000 0.0000 0.0000
# 2 37.9867 58.2891 38.2457 0.0000 0.0000 0.0000
# 3 74.7888 38.2457 78.1675 0.0000 0.0000 0.0000
# 4 0.0000 0.0000 0.0000 16.3834 0.0000 0.0000
# 5 0.0000 0.0000 0.0000 0.0000 15.3165 0.0000
# 6 0.0000 0.0000 0.0000 0.0000 0.0000 14.3204
#
#
#
# Elastic Compliance Matrix: (Units=1/GPa)
#
#
# Indices 1 2 3 4 5 6 
#
# 1 0.248503 -0.008754 -0.233478 0.000000 0.000000 0.000000
# 2 -0.008754 0.025576 -0.004138 0.000000 0.000000 0.000000
# 3 -0.233478 -0.004138 0.238204 0.000000 0.000000 0.000000
# 4 0.000000 0.000000 0.000000 0.061038 0.000000 0.000000
# 5 0.000000 0.000000 0.000000 0.000000 0.065289 0.000000
# 6 0.000000 0.000000 0.000000 0.000000 0.000000 0.069830
#
#
# Mechanical properties :
#
#
# Convention : Reuss Voigt Hill
#
# Bulk Modulus (GPa) = 51.17191 57.12540 54.14866
# Shear Modulus (GPa) = 4.14012 13.27504 8.70758
#
# Velocity S-wave (km/s) = 1.68339 3.01437 2.44133
# Velocity P-wave (km/s) = 6.22930 7.15654 6.70896
#
# Compressibility (1/GPa) = 0.01954197
#
# Stress axis : x y z
#
# Youngs Moduli (GPa) = 4.02410 39.09911 4.19808
#
# Poissons Ratio (x) = 0.34227 0.98016
# Poissons Ratio (y) = 0.03523 0.01737
# Poissons Ratio (z) = 0.93954 0.16180
#
# Static dielectric constant tensor:
#      x y z
#    x 2.785610 0.000000 0.000000 
#    y 0.000000 2.875200 0.000000 
#    z 0.000000 0.000000 2.923940 
# 
# 
# High freq. dielectric constant tensor:
#      x y z
#    x 1.532340 0.000000 0.000000 
#    y 0.000000 1.546280 0.000000 
#    z 0.000000 0.000000 1.536600 
# 
# From -- ./inp_files/30104.got.cif
#   From: 2010.03.12/outbox.cif.g09.slc.cpg/sg62_16_cif.got.tgz:30104.got - 2010.04.10 19:12:36.
