data_PCOD8250653
_publ_section_title
;
Structure prediction by ZEFSAII (Michael W. Deem and Ramdas Pophale) SiO2 
 PCOD8250653
Probable space group: P N M A
;
_chemical_formula_sum "Si O2"
_cell_formula_units_Z 64
_cell_length_a 8.034004
_cell_length_b 20.790365
_cell_length_c 21.874489
_cell_angle_alpha 90.000000
_cell_angle_beta 90.000000
_cell_angle_gamma 90.000000
_cell_volume 3653.693176
_symmetry_space_group_name_H-M "P N M A"
_symmetry_group_IT_number 62
_symmetry_cell_setting 'orthorhombic'
loop_
_space_group_symop_operation_xyz
x,y,z
1/2-x,-y,1/2+z
1/2+x,1/2-y,1/2-z
-x,1/2+y,-z
-x,-y,-z
1/2+x,y,1/2-z
1/2-x,1/2+y,1/2+z
x,1/2-y,z
loop_
_atom_site_type_symbol
_atom_site_label
_atom_site_fract_x
_atom_site_fract_y
_atom_site_fract_z
Si Si1 0.359188 0.357857 0.947811
Si Si2 0.073107 0.054974 0.085784
Si Si3 0.243363 0.544130 0.158535
Si Si4 0.219003 0.010425 0.961337
Si Si5 0.783549 0.885964 0.467966
Si Si6 0.460515 0.676541 0.526020
Si Si7 0.811982 0.321089 0.685953
Si Si8 0.460139 0.903258 0.257472
O O1 0.344459 0.435478 0.935514
O O2 0.544363 0.345961 0.975852
O O3 0.213423 0.329211 0.989695
O O4 0.353685 0.319671 0.885083
O O5 0.903319 0.013266 0.093851
O O6 0.214429 0.028406 0.131882
O O7 0.047940 0.132453 0.088401
O O8 0.115556 0.046423 0.014097
O O9 0.259133 0.593819 0.102689
O O10 0.401979 0.547640 0.203352
O O11 0.086217 0.560172 0.199768
O O12 0.310371 0.948372 0.989144
O O13 0.621899 0.844384 0.486154
O O14 0.484789 0.750000 0.546639
O O15 0.749623 0.250000 0.704871
O O16 0.684826 0.378599 0.698840
O O17 0.973590 0.338319 0.725716
#
# Coordination Sequence:
#
# PCOD8250653 Si02
#       8
#     8   8   8   8   8   8   8   8
#     4  11  19  31  50  74  95 130 165 202 242 287
#     4   8  15  30  52  70  97 127 155 202 252 301
#     4  10  18  34  50  72  94 122 166 209 254 283
#     4   8  15  28  49  73  98 120 158 199 246 296
#     4  10  19  33  50  74  98 133 161 199 248 295
#     4  10  21  34  49  74 104 132 162 196 241 304
#     4  11  21  33  44  62  91 129 168 198 236 280
#     4  10  21  33  48  65  91 125 166 215 244 275
#
# _framework density 17.516522999999999
#
# number of rings (size 3 to 8) (size 9 to 14) (size 15 to 20)
#    0.000    2.250    1.250    4.875    0.000    1.000 
#    0.000    0.625    0.000    0.000    0.000    0.875 
#    0.000    0.000    0.000    0.000    0.000    0.125 
#
# Total GULP energy -792909.246863 kJ/mol
# GULP energy per Si atom -12389.206982 kJ/mol
# Density = 1.747665 g / cm^3
# Si number density = 17.516523 Si / 1000 Ang^3
#
#
#
# Elastic Constant Matrix: (Units=GPa)
#
#
# Indices 1 2 3 4 5 6 
#
# 1 89.6262 24.0896 15.5082 0.0000 0.0000 0.0000
# 2 24.0896 99.7244 24.4044 0.0000 0.0000 0.0000
# 3 15.5082 24.4044 37.5501 0.0000 0.0000 0.0000
# 4 0.0000 0.0000 0.0000 11.2191 0.0000 0.0000
# 5 0.0000 0.0000 0.0000 0.0000 18.8439 0.0000
# 6 0.0000 0.0000 0.0000 0.0000 0.0000 18.0884
#
#
#
# Elastic Compliance Matrix: (Units=1/GPa)
#
#
# Indices 1 2 3 4 5 6 
#
# 1 0.012364 -0.002066 -0.003764 0.000000 0.000000 0.000000
# 2 -0.002066 0.012269 -0.007121 0.000000 0.000000 0.000000
# 3 -0.003764 -0.007121 0.032814 0.000000 0.000000 0.000000
# 4 0.000000 0.000000 0.000000 0.089134 0.000000 0.000000
# 5 0.000000 0.000000 0.000000 0.000000 0.053068 0.000000
# 6 0.000000 0.000000 0.000000 0.000000 0.000000 0.055284
#
#
# Mechanical properties :
#
#
# Convention : Reuss Voigt Hill
#
# Bulk Modulus (GPa) = 31.69971 39.43391 35.56681
# Shear Modulus (GPa) = 17.16163 20.49019 18.82591
#
# Velocity S-wave (km/s) = 3.13348 3.42389 3.28190
# Velocity P-wave (km/s) = 5.58819 6.17997 5.89151
#
# Compressibility (1/GPa) = 0.03154603
#
# Stress axis : x y z
#
# Youngs Moduli (GPa) = 80.88058 81.50486 30.47526
#
# Poissons Ratio (x) = 0.16835 0.11470
# Poissons Ratio (y) = 0.16706 0.21701
# Poissons Ratio (z) = 0.30442 0.58039
#
# Static dielectric constant tensor:
#      x y z
#    x 3.409110 0.000000 0.000000 
#    y 0.000000 3.305410 0.000000 
#    z 0.000000 0.000000 3.064130 
# 
# 
# High freq. dielectric constant tensor:
#      x y z
#    x 1.686680 0.000000 0.000000 
#    y 0.000000 1.660120 0.000000 
#    z 0.000000 0.000000 1.639330 
# 
# From -- ./inp_files/26291.got.cif
#   From: 2010.03.12/outbox.cif.g09.slc.cpg/sg62_14_cif.got.tgz:26291.got - 2010.04.10 19:12:36.
