data_PCOD8250946
_publ_section_title
;
Structure prediction by ZEFSAII (Michael W. Deem and Ramdas Pophale) SiO2 
 PCOD8250946
Probable space group: P N M A
;
_chemical_formula_sum "Si O2"
_cell_formula_units_Z 64
_cell_length_a 18.913657
_cell_length_b 9.056075
_cell_length_c 23.355200
_cell_angle_alpha 90.000000
_cell_angle_beta 90.000000
_cell_angle_gamma 90.000000
_cell_volume 4000.360313
_symmetry_space_group_name_H-M "P N M A"
_symmetry_group_IT_number 62
_symmetry_cell_setting 'orthorhombic'
loop_
_space_group_symop_operation_xyz
x,y,z
1/2-x,-y,1/2+z
1/2+x,1/2-y,1/2-z
-x,1/2+y,-z
-x,-y,-z
1/2+x,y,1/2-z
1/2-x,1/2+y,1/2+z
x,1/2-y,z
loop_
_atom_site_type_symbol
_atom_site_label
_atom_site_fract_x
_atom_site_fract_y
_atom_site_fract_z
Si Si1 0.254365 0.080409 0.337570
Si Si2 0.508041 0.074803 0.620043
Si Si3 0.344355 0.079608 0.228342
Si Si4 0.364234 0.424257 0.563922
Si Si5 0.499788 0.575356 0.742022
Si Si6 0.226505 0.922577 0.167243
Si Si7 0.640782 0.922180 0.564889
Si Si8 0.635389 0.922560 0.221576
O O1 0.230946 0.250000 0.330524
O O2 0.313998 0.038524 0.290915
O O3 0.287205 0.050539 0.400028
O O4 0.185662 0.977952 0.329903
O O5 0.510922 0.250000 0.628276
O O6 0.443272 0.024073 0.579660
O O7 0.496212 0.002018 0.681065
O O8 0.579183 0.019805 0.591105
O O9 0.333477 0.250000 0.215207
O O10 0.426521 0.035574 0.226987
O O11 0.302878 0.993823 0.178525
O O12 0.360519 0.250000 0.569406
O O13 0.307036 0.489426 0.608910
O O14 0.345242 0.475983 0.499908
O O15 0.491711 0.750000 0.733526
O O16 0.437947 0.511288 0.782006
O O17 0.239232 0.750000 0.162576
O O18 0.172573 0.960690 0.218332
O O19 0.618410 0.750000 0.567768
O O20 0.620473 0.750000 0.214260
#
# Coordination Sequence:
#
# PCOD8250946 Si02
#       8
#     8   8   8   8   8   8   8   8
#     4   9  17  31  47  67  92 123 160 193 230 277
#     4  11  20  31  45  67 100 131 164 200 232 272
#     4   9  18  31  46  67  92 119 156 195 231 277
#     4   9  18  32  48  67  95 128 162 198 232 276
#     4  11  20  32  49  70  96 128 161 194 236 286
#     4   9  17  31  47  67  93 123 155 191 237 282
#     4  10  19  33  50  67  93 130 167 198 230 273
#     4  10  19  31  48  70  95 122 154 195 242 284
#
# _framework density 15.998557999999999
#
# number of rings (size 3 to 8) (size 9 to 14) (size 15 to 20)
#    0.000    2.250    2.500    1.500    0.000    2.000 
#    0.000    1.250    0.000    0.000    0.000    0.875 
#    0.000    0.000    0.000    0.000    0.000    0.000 
#
# Total GULP energy -793604.251307 kJ/mol
# GULP energy per Si atom -12400.066427 kJ/mol
# Density = 1.596214 g / cm^3
# Si number density = 15.998558 Si / 1000 Ang^3
#
#
#
# Elastic Constant Matrix: (Units=GPa)
#
#
# Indices 1 2 3 4 5 6 
#
# 1 101.1630 39.6560 31.4193 0.0000 0.0000 0.0000
# 2 39.6560 50.4859 15.5837 0.0000 0.0000 0.0000
# 3 31.4193 15.5837 48.5222 0.0000 0.0000 0.0000
# 4 0.0000 0.0000 0.0000 15.5616 0.0000 0.0000
# 5 0.0000 0.0000 0.0000 0.0000 19.6943 0.0000
# 6 0.0000 0.0000 0.0000 0.0000 0.0000 28.4908
#
#
#
# Elastic Compliance Matrix: (Units=1/GPa)
#
#
# Indices 1 2 3 4 5 6 
#
# 1 0.016234 -0.010553 -0.007123 0.000000 0.000000 0.000000
# 2 -0.010553 0.028847 -0.002431 0.000000 0.000000 0.000000
# 3 -0.007123 -0.002431 0.026002 0.000000 0.000000 0.000000
# 4 0.000000 0.000000 0.000000 0.064261 0.000000 0.000000
# 5 0.000000 0.000000 0.000000 0.000000 0.050776 0.000000
# 6 0.000000 0.000000 0.000000 0.000000 0.000000 0.035099
#
#
# Mechanical properties :
#
#
# Convention : Reuss Voigt Hill
#
# Bulk Modulus (GPa) = 32.39474 41.49876 36.94675
# Shear Modulus (GPa) = 18.40106 20.31679 19.35893
#
# Velocity S-wave (km/s) = 3.39509 3.56745 3.48234
# Velocity P-wave (km/s) = 5.97172 6.55472 6.27000
#
# Compressibility (1/GPa) = 0.03086921
#
# Stress axis : x y z
#
# Youngs Moduli (GPa) = 61.59923 34.66530 38.45840
#
# Poissons Ratio (x) = 0.36582 0.27392
# Poissons Ratio (y) = 0.65006 0.09351
# Poissons Ratio (z) = 0.43875 0.08429
#
# Static dielectric constant tensor:
#      x y z
#    x 3.165960 0.000000 0.000000 
#    y 0.000000 2.980570 0.000000 
#    z 0.000000 0.000000 3.098110 
# 
# 
# High freq. dielectric constant tensor:
#      x y z
#    x 1.610940 0.000000 0.000000 
#    y 0.000000 1.611570 0.000000 
#    z 0.000000 0.000000 1.589390 
# 
# From -- ./inp_files/30058.got.cif
#   From: 2010.03.12/outbox.cif.g09.slc.cpg/sg62_16_cif.got.tgz:30058.got - 2010.04.10 19:12:36.
