data_PCOD8250905
_publ_section_title
;
Structure prediction by ZEFSAII (Michael W. Deem and Ramdas Pophale) SiO2 
 PCOD8250905
Probable space group: P N M A
;
_chemical_formula_sum "Si O2"
_cell_formula_units_Z 64
_cell_length_a 25.213642
_cell_length_b 9.082193
_cell_length_c 14.832490
_cell_angle_alpha 90.000000
_cell_angle_beta 90.000000
_cell_angle_gamma 90.000000
_cell_volume 3396.568463
_symmetry_space_group_name_H-M "P N M A"
_symmetry_group_IT_number 62
_symmetry_cell_setting 'orthorhombic'
loop_
_space_group_symop_operation_xyz
x,y,z
1/2-x,-y,1/2+z
1/2+x,1/2-y,1/2-z
-x,1/2+y,-z
-x,-y,-z
1/2+x,y,1/2-z
1/2-x,1/2+y,1/2+z
x,1/2-y,z
loop_
_atom_site_type_symbol
_atom_site_label
_atom_site_fract_x
_atom_site_fract_y
_atom_site_fract_z
Si Si1 0.981466 0.583960 0.120969
Si Si2 0.966560 0.582117 0.320825
Si Si3 0.675625 0.579296 0.207881
Si Si4 0.688243 0.921915 0.408822
Si Si5 0.074822 0.083593 0.351028
Si Si6 0.778335 0.076529 0.518459
Si Si7 0.920910 0.578567 0.943487
Si Si8 0.377930 0.917183 0.046137
O O1 0.003100 0.750000 0.105409
O O2 0.951712 0.569916 0.215904
O O3 0.031066 0.472420 0.121033
O O4 0.938132 0.544317 0.045917
O O5 0.977780 0.750000 0.350453
O O6 0.915820 0.521677 0.374991
O O7 0.018252 0.489869 0.341746
O O8 0.661447 0.750000 0.196525
O O9 0.704729 0.549099 0.303715
O O10 0.619657 0.495014 0.208781
O O11 0.712760 0.529215 0.123611
O O12 0.690013 0.750000 0.430905
O O13 0.725679 0.003273 0.479782
O O14 0.629539 0.980885 0.422669
O O15 0.071429 0.250000 0.316016
O O16 0.089106 0.074561 0.455141
O O17 0.772373 0.250000 0.509047
O O18 0.827192 0.022323 0.457735
O O19 0.908578 0.750000 0.926913
O O20 0.358732 0.750000 0.065428
#
# Coordination Sequence:
#
# PCOD8250905 Si02
#       8
#     8   8   8   8   8   8   8   8
#     4   9  19  35  53  76 108 144 179 216 263 319
#     4  10  19  32  51  75 105 145 183 212 256 326
#     4   9  20  38  58  79 105 142 181 217 266 328
#     4  11  22  38  60  83 107 141 182 222 269 327
#     4  10  19  30  50  80 110 138 175 226 270 308
#     4  10  21  39  59  80 107 139 179 228 273 316
#     4  10  20  35  55  79 108 140 177 224 270 314
#     4   9  19  35  52  73 106 144 179 217 268 322
#
# _framework density 18.842545999999999
#
# number of rings (size 3 to 8) (size 9 to 14) (size 15 to 20)
#    0.000    2.250    0.000    2.625    0.000    6.500 
#    2.250    0.000    0.000    0.000    0.000    0.000 
#    0.000    0.000    0.000    0.000    0.000    0.000 
#
# Total GULP energy -793649.261425 kJ/mol
# GULP energy per Si atom -12400.769710 kJ/mol
# Density = 1.879966 g / cm^3
# Si number density = 18.842546 Si / 1000 Ang^3
#
#
#
# Elastic Constant Matrix: (Units=GPa)
#
#
# Indices 1 2 3 4 5 6 
#
# 1 70.2738 35.1998 51.5762 0.0000 0.0000 0.0000
# 2 35.1998 78.3067 34.9943 0.0000 0.0000 0.0000
# 3 51.5762 34.9943 69.9607 0.0000 0.0000 0.0000
# 4 0.0000 0.0000 0.0000 22.9347 0.0000 0.0000
# 5 0.0000 0.0000 0.0000 0.0000 24.8568 0.0000
# 6 0.0000 0.0000 0.0000 0.0000 0.0000 37.6082
#
#
#
# Elastic Compliance Matrix: (Units=1/GPa)
#
#
# Indices 1 2 3 4 5 6 
#
# 1 0.032470 -0.005021 -0.021426 0.000000 0.000000 0.000000
# 2 -0.005021 0.017223 -0.004914 0.000000 0.000000 0.000000
# 3 -0.021426 -0.004914 0.032547 0.000000 0.000000 0.000000
# 4 0.000000 0.000000 0.000000 0.043602 0.000000 0.000000
# 5 0.000000 0.000000 0.000000 0.000000 0.040230 0.000000
# 6 0.000000 0.000000 0.000000 0.000000 0.000000 0.026590
#
#
# Mechanical properties :
#
#
# Convention : Reuss Voigt Hill
#
# Bulk Modulus (GPa) = 51.23085 51.34240 51.28663
# Shear Modulus (GPa) = 19.09193 23.53135 21.31164
#
# Velocity S-wave (km/s) = 3.18659 3.53773 3.36674
# Velocity P-wave (km/s) = 6.38648 6.63285 6.51083
#
# Compressibility (1/GPa) = 0.01951949
#
# Stress axis : x y z
#
# Youngs Moduli (GPa) = 30.79732 58.06203 30.72443
#
# Poissons Ratio (x) = 0.29151 0.65831
# Poissons Ratio (y) = 0.15462 0.15097
# Poissons Ratio (z) = 0.65987 0.28529
#
# Static dielectric constant tensor:
#      x y z
#    x 3.256740 0.000000 0.000000 
#    y 0.000000 3.576800 0.000000 
#    z 0.000000 0.000000 3.738860 
# 
# 
# High freq. dielectric constant tensor:
#      x y z
#    x 1.714330 0.000000 0.000000 
#    y 0.000000 1.736570 0.000000 
#    z 0.000000 0.000000 1.742350 
# 
# From -- ./inp_files/20971.got.cif
#   From: 2010.03.12/outbox.cif.g09.slc.cpg/sg62_11_cif.got.tgz:20971.got - 2010.04.10 19:12:36.
