data_PCOD8250442
_publ_section_title
;
Structure prediction by ZEFSAII (Michael W. Deem and Ramdas Pophale) SiO2 
 PCOD8250442
Probable space group: P N M A
;
_chemical_formula_sum "Si O2"
_cell_formula_units_Z 64
_cell_length_a 14.835114
_cell_length_b 8.966913
_cell_length_c 27.546428
_cell_angle_alpha 90.000000
_cell_angle_beta 90.000000
_cell_angle_gamma 90.000000
_cell_volume 3664.368449
_symmetry_space_group_name_H-M "P N M A"
_symmetry_group_IT_number 62
_symmetry_cell_setting 'orthorhombic'
loop_
_space_group_symop_operation_xyz
x,y,z
1/2-x,-y,1/2+z
1/2+x,1/2-y,1/2-z
-x,1/2+y,-z
-x,-y,-z
1/2+x,y,1/2-z
1/2-x,1/2+y,1/2+z
x,1/2-y,z
loop_
_atom_site_type_symbol
_atom_site_label
_atom_site_fract_x
_atom_site_fract_y
_atom_site_fract_z
Si Si1 0.217778 0.076735 0.869913
Si Si2 0.413048 0.574681 0.283875
Si Si3 0.216451 0.925921 0.140796
Si Si4 0.403198 0.925202 0.175037
Si Si5 0.600864 0.925730 0.177446
Si Si6 0.596604 0.574881 0.554556
Si Si7 0.586541 0.923994 0.444155
Si Si8 0.902549 0.926744 0.779784
O O1 0.204317 0.250000 0.881546
O O2 0.165885 0.031281 0.820820
O O3 0.323024 0.035826 0.862357
O O4 0.181447 0.984908 0.915474
O O5 0.434046 0.750000 0.284864
O O6 0.384838 0.519131 0.230124
O O7 0.503053 0.489386 0.299927
O O8 0.206043 0.750000 0.151619
O O9 0.322138 0.976474 0.139469
O O10 0.170761 0.968554 0.089669
O O11 0.173944 0.019285 0.183929
O O12 0.404042 0.750000 0.176081
O O13 0.502554 0.978626 0.157130
O O14 0.602277 0.750000 0.189519
O O15 0.621790 0.011121 0.226939
O O16 0.591084 0.750000 0.560779
O O17 0.503223 0.506723 0.574469
O O18 0.611507 0.526800 0.498679
O O19 0.564961 0.750000 0.441205
O O20 0.905994 0.750000 0.778056
#
# Coordination Sequence:
#
# PCOD8250442 Si02
#       8
#     8   8   8   8   8   8   8   8
#     4  10  19  31  51  73  92 122 162 197 230 276
#     4   9  17  30  46  66  93 123 155 187 223 270
#     4  10  18  31  51  70  90 121 161 197 230 274
#     4   8  15  29  50  70  87 115 156 198 229 258
#     4   9  18  34  51  67  91 124 161 195 227 268
#     4  10  20  33  49  71  99 125 151 191 241 286
#     4   9  19  34  51  71  95 125 158 191 232 285
#     4  11  21  30  43  69 101 128 154 187 232 278
#
# _framework density 17.465492000000001
#
# number of rings (size 3 to 8) (size 9 to 14) (size 15 to 20)
#    0.000    2.500    0.000    3.750    0.000    7.000 
#    0.000    5.000    0.000    0.750    0.000    0.000 
#    0.000    0.000    0.000    0.000    0.000    0.375 
#
# Total GULP energy -793412.396102 kJ/mol
# GULP energy per Si atom -12397.068689 kJ/mol
# Density = 1.742574 g / cm^3
# Si number density = 17.465492 Si / 1000 Ang^3
#
#
#
# Elastic Constant Matrix: (Units=GPa)
#
#
# Indices 1 2 3 4 5 6 
#
# 1 150.5482 37.2040 72.6709 0.0000 0.0000 0.0000
# 2 37.2040 48.8307 25.8213 0.0000 0.0000 0.0000
# 3 72.6709 25.8213 73.5784 0.0000 0.0000 0.0000
# 4 0.0000 0.0000 0.0000 21.2493 0.0000 0.0000
# 5 0.0000 0.0000 0.0000 0.0000 28.8007 0.0000
# 6 0.0000 0.0000 0.0000 0.0000 0.0000 11.8152
#
#
#
# Elastic Compliance Matrix: (Units=1/GPa)
#
#
# Indices 1 2 3 4 5 6 
#
# 1 0.013275 -0.003906 -0.011740 0.000000 0.000000 0.000000
# 2 -0.003906 0.026294 -0.005370 0.000000 0.000000 0.000000
# 3 -0.011740 -0.005370 0.027071 0.000000 0.000000 0.000000
# 4 0.000000 0.000000 0.000000 0.047060 0.000000 0.000000
# 5 0.000000 0.000000 0.000000 0.000000 0.034721 0.000000
# 6 0.000000 0.000000 0.000000 0.000000 0.000000 0.084637
#
#
# Mechanical properties :
#
#
# Convention : Reuss Voigt Hill
#
# Bulk Modulus (GPa) = 40.63748 60.48332 50.56040
# Shear Modulus (GPa) = 17.64953 21.52377 19.58665
#
# Velocity S-wave (km/s) = 3.18234 3.51431 3.35244
# Velocity P-wave (km/s) = 6.06802 7.15350 6.63300
#
# Compressibility (1/GPa) = 0.02460783
#
# Stress axis : x y z
#
# Youngs Moduli (GPa) = 75.33071 38.03097 36.93981
#
# Poissons Ratio (x) = 0.14854 0.43369
# Poissons Ratio (y) = 0.29423 0.19837
# Poissons Ratio (z) = 0.88441 0.20423
#
# Static dielectric constant tensor:
#      x y z
#    x 3.687360 0.000000 0.000000 
#    y 0.000000 3.054270 0.000000 
#    z 0.000000 0.000000 3.181960 
# 
# 
# High freq. dielectric constant tensor:
#      x y z
#    x 1.680550 0.000000 0.000000 
#    y 0.000000 1.656560 0.000000 
#    z 0.000000 0.000000 1.651480 
# 
# From -- ./inp_files/32729.got.cif
#   From: 2010.03.12/outbox.cif.g09.slc.cpg/sg62_17_cif.got.tgz:32729.got - 2010.04.10 19:12:36.
