data_PCOD8250576
_publ_section_title
;
Structure prediction by ZEFSAII (Michael W. Deem and Ramdas Pophale) SiO2 
 PCOD8250576
Probable space group: P N M A
;
_chemical_formula_sum "Si O2"
_cell_formula_units_Z 56
_cell_length_a 19.769120
_cell_length_b 8.777589
_cell_length_c 17.436006
_cell_angle_alpha 90.000000
_cell_angle_beta 90.000000
_cell_angle_gamma 90.000000
_cell_volume 3025.586607
_symmetry_space_group_name_H-M "P N M A"
_symmetry_group_IT_number 62
_symmetry_cell_setting 'orthorhombic'
loop_
_space_group_symop_operation_xyz
x,y,z
1/2-x,-y,1/2+z
1/2+x,1/2-y,1/2-z
-x,1/2+y,-z
-x,-y,-z
1/2+x,y,1/2-z
1/2-x,1/2+y,1/2+z
x,1/2-y,z
loop_
_atom_site_type_symbol
_atom_site_label
_atom_site_fract_x
_atom_site_fract_y
_atom_site_fract_z
Si Si1 0.309268 0.568831 0.930057
Si Si2 0.339382 0.068640 0.470577
Si Si3 0.405599 0.568403 0.616256
Si Si4 0.431820 0.572937 0.030674
Si Si5 0.886187 0.570961 0.714291
Si Si6 0.475644 0.575623 0.193070
Si Si7 0.451056 0.571037 0.363988
O O1 0.308993 0.750000 0.933910
O O2 0.235715 0.506936 0.952237
O O3 0.327798 0.512213 0.843572
O O4 0.365350 0.503539 0.989538
O O5 0.344434 0.250000 0.468656
O O6 0.357425 0.007744 0.554267
O O7 0.387461 0.998852 0.406545
O O8 0.404727 0.750000 0.607770
O O9 0.377566 0.509707 0.698847
O O10 0.481830 0.510121 0.604240
O O11 0.436731 0.750000 0.011433
O O12 0.424679 0.543861 0.122441
O O13 0.500000 0.500000 0.000000
O O14 0.884898 0.750000 0.717834
O O15 0.958079 0.524417 0.679460
O O16 0.499837 0.750000 0.194061
O O17 0.440049 0.535456 0.273763
O O18 0.456595 0.750000 0.381404
#
# Coordination Sequence:
#
# PCOD8250576 Si02
#       7
#     8   8   8   8   8   8   8
#     4   9  19  35  54  75 106 145 178 211 259 319
#     4  11  22  37  54  76 107 145 184 218 264 321
#     4  10  20  35  58  83 106 135 177 225 269 316
#     4  10  18  32  55  80 106 138 175 216 259 311
#     4   9  17  33  56  78 102 136 174 212 259 314
#     4   9  18  31  52  82 109 131 167 217 266 311
#     4  10  20  36  56  80 109 139 175 224 272 316
#
# _framework density 18.508807000000001
#
# number of rings (size 3 to 8) (size 9 to 14) (size 15 to 20)
#    0.000    2.286    1.429    1.714    0.000    1.143 
#    2.571    2.857    0.000    0.000    0.000    0.000 
#    0.000    0.000    0.000    0.000    0.000    0.000 
#
# Total GULP energy -694240.876715 kJ/mol
# GULP energy per Si atom -12397.158513 kJ/mol
# Density = 1.846668 g / cm^3
# Si number density = 18.508807 Si / 1000 Ang^3
#
#
#
# Elastic Constant Matrix: (Units=GPa)
#
#
# Indices 1 2 3 4 5 6 
#
# 1 186.0953 59.4177 117.1086 0.0000 0.0000 0.0000
# 2 59.4177 65.6578 50.6290 0.0000 0.0000 0.0000
# 3 117.1086 50.6290 161.5632 0.0000 0.0000 0.0000
# 4 0.0000 0.0000 0.0000 18.1750 0.0000 0.0000
# 5 0.0000 0.0000 0.0000 0.0000 27.3970 0.0000
# 6 0.0000 0.0000 0.0000 0.0000 0.0000 22.4646
#
#
#
# Elastic Compliance Matrix: (Units=1/GPa)
#
#
# Indices 1 2 3 4 5 6 
#
# 1 0.011008 -0.005023 -0.006405 0.000000 0.000000 0.000000
# 2 -0.005023 0.022375 -0.003371 0.000000 0.000000 0.000000
# 3 -0.006405 -0.003371 0.011889 0.000000 0.000000 0.000000
# 4 0.000000 0.000000 0.000000 0.055021 0.000000 0.000000
# 5 0.000000 0.000000 0.000000 0.000000 0.036500 0.000000
# 6 0.000000 0.000000 0.000000 0.000000 0.000000 0.044514
#
#
# Mechanical properties :
#
#
# Convention : Reuss Voigt Hill
#
# Bulk Modulus (GPa) = 63.79943 96.40301 80.10122
# Shear Modulus (GPa) = 23.13424 26.01805 24.57615
#
# Velocity S-wave (km/s) = 3.53923 3.75335 3.64786
# Velocity P-wave (km/s) = 7.15864 8.42505 7.81753
#
# Compressibility (1/GPa) = 0.01567412
#
# Stress axis : x y z
#
# Youngs Moduli (GPa) = 90.84300 44.69215 84.11396
#
# Poissons Ratio (x) = 0.22448 0.53876
# Poissons Ratio (y) = 0.45628 0.28355
# Poissons Ratio (z) = 0.58186 0.15066
#
# Static dielectric constant tensor:
#      x y z
#    x 3.409720 0.000000 0.000000 
#    y 0.000000 3.304630 0.000000 
#    z 0.000000 0.000000 3.918960 
# 
# 
# High freq. dielectric constant tensor:
#      x y z
#    x 1.696690 0.000000 0.000000 
#    y 0.000000 1.707010 0.000000 
#    z 0.000000 0.000000 1.739980 
# 
# From -- ./inp_files/24658.got.cif
#   From: 2010.03.12/outbox.cif.g09.slc.cpg/sg62_13_cif.got.tgz:24658.got - 2010.04.10 19:12:36.
