data_PCOD8250571
_publ_section_title
;
Structure prediction by ZEFSAII (Michael W. Deem and Ramdas Pophale) SiO2 
 PCOD8250571
Probable space group: P N M A
;
_chemical_formula_sum "Si O2"
_cell_formula_units_Z 64
_cell_length_a 19.521337
_cell_length_b 9.303235
_cell_length_c 20.897557
_cell_angle_alpha 90.000000
_cell_angle_beta 90.000000
_cell_angle_gamma 90.000000
_cell_volume 3795.238462
_symmetry_space_group_name_H-M "P N M A"
_symmetry_group_IT_number 62
_symmetry_cell_setting 'orthorhombic'
loop_
_space_group_symop_operation_xyz
x,y,z
1/2-x,-y,1/2+z
1/2+x,1/2-y,1/2-z
-x,1/2+y,-z
-x,-y,-z
1/2+x,y,1/2-z
1/2-x,1/2+y,1/2+z
x,1/2-y,z
loop_
_atom_site_type_symbol
_atom_site_label
_atom_site_fract_x
_atom_site_fract_y
_atom_site_fract_z
Si Si1 0.060504 0.415787 0.728136
Si Si2 0.423945 0.084538 0.630279
Si Si3 0.069895 0.416188 0.259611
Si Si4 0.712939 0.918359 0.436078
Si Si5 0.701149 0.920087 0.575939
Si Si6 0.575754 0.086830 0.623521
Si Si7 0.792509 0.579831 0.314430
Si Si8 0.218980 0.416181 0.299740
O O1 0.040576 0.250000 0.719120
O O2 0.078463 0.449875 0.801438
O O3 0.126891 0.458263 0.686504
O O4 0.995106 0.509022 0.705930
O O5 0.416875 0.250000 0.653313
O O6 0.366077 0.043259 0.579123
O O7 0.498355 0.060520 0.598356
O O8 0.413811 0.985155 0.691449
O O9 0.052165 0.250000 0.249510
O O10 0.137181 0.437455 0.303149
O O11 0.724932 0.750000 0.435300
O O12 0.729687 0.977540 0.507285
O O13 0.762863 0.982772 0.381384
O O14 0.693260 0.750000 0.573947
O O15 0.752094 0.970469 0.632013
O O16 0.625527 0.981980 0.585909
O O17 0.599509 0.250000 0.611513
O O18 0.780976 0.750000 0.307109
O O19 0.752551 0.507928 0.256227
O O20 0.238046 0.250000 0.287683
#
# Coordination Sequence:
#
# PCOD8250571 Si02
#       8
#     8   8   8   8   8   8   8   8
#     4   9  18  31  49  74  98 122 159 205 246 283
#     4   9  17  31  49  68  95 128 164 203 235 274
#     4  10  19  30  47  72  99 128 160 195 244 293
#     4   9  18  32  51  72  94 128 168 201 239 285
#     4  10  20  33  48  69  99 132 163 196 239 293
#     4   9  17  29  45  69  98 127 160 197 237 280
#     4  10  18  32  55  75  93 124 166 206 243 282
#     4  10  20  32  48  73 102 129 160 199 243 291
#
# _framework density 16.863235
#
# number of rings (size 3 to 8) (size 9 to 14) (size 15 to 20)
#    0.000    2.500    2.500    1.125    0.000    3.500 
#    0.000    1.250    0.000    0.750    0.000    0.000 
#    0.000    0.000    0.000    0.000    0.000    0.125 
#
# Total GULP energy -793382.163971 kJ/mol
# GULP energy per Si atom -12396.596312 kJ/mol
# Density = 1.682485 g / cm^3
# Si number density = 16.863235 Si / 1000 Ang^3
#
#
#
# Elastic Constant Matrix: (Units=GPa)
#
#
# Indices 1 2 3 4 5 6 
#
# 1 111.6302 40.7096 65.8187 0.0000 0.0000 0.0000
# 2 40.7096 45.9705 30.6569 0.0000 0.0000 0.0000
# 3 65.8187 30.6569 111.5365 0.0000 0.0000 0.0000
# 4 0.0000 0.0000 0.0000 15.4363 0.0000 0.0000
# 5 0.0000 0.0000 0.0000 0.0000 21.3411 0.0000
# 6 0.0000 0.0000 0.0000 0.0000 0.0000 24.0623
#
#
#
# Elastic Compliance Matrix: (Units=1/GPa)
#
#
# Indices 1 2 3 4 5 6 
#
# 1 0.016902 -0.010183 -0.007175 0.000000 0.000000 0.000000
# 2 -0.010183 0.032770 -0.002998 0.000000 0.000000 0.000000
# 3 -0.007175 -0.002998 0.014024 0.000000 0.000000 0.000000
# 4 0.000000 0.000000 0.000000 0.064782 0.000000 0.000000
# 5 0.000000 0.000000 0.000000 0.000000 0.046858 0.000000
# 6 0.000000 0.000000 0.000000 0.000000 0.000000 0.041559
#
#
# Mechanical properties :
#
#
# Convention : Reuss Voigt Hill
#
# Bulk Modulus (GPa) = 43.50934 60.38973 51.94954
# Shear Modulus (GPa) = 18.84875 20.96475 19.90675
#
# Velocity S-wave (km/s) = 3.34689 3.52976 3.43954
# Velocity P-wave (km/s) = 6.38693 7.24579 6.82988
#
# Compressibility (1/GPa) = 0.02298357
#
# Stress axis : x y z
#
# Youngs Moduli (GPa) = 59.16327 30.51568 71.30636
#
# Poissons Ratio (x) = 0.31074 0.51165
# Poissons Ratio (y) = 0.60246 0.21379
# Poissons Ratio (z) = 0.42452 0.09149
#
# Static dielectric constant tensor:
#      x y z
#    x 3.389280 0.000000 0.000000 
#    y 0.000000 3.049850 0.000000 
#    z 0.000000 0.000000 3.211840 
# 
# 
# High freq. dielectric constant tensor:
#      x y z
#    x 1.656110 0.000000 0.000000 
#    y 0.000000 1.637360 0.000000 
#    z 0.000000 0.000000 1.624260 
# 
# From -- ./inp_files/27961.got.cif
#   From: 2010.03.12/outbox.cif.g09.slc.cpg/sg62_14_cif.got.tgz:27961.got - 2010.04.10 19:12:36.
