data_PCOD8250621
_publ_section_title
;
Structure prediction by ZEFSAII (Michael W. Deem and Ramdas Pophale) SiO2 
 PCOD8250621
Probable space group: P N M A
;
_chemical_formula_sum "Si O2"
_cell_formula_units_Z 64
_cell_length_a 19.080228
_cell_length_b 8.842885
_cell_length_c 20.697754
_cell_angle_alpha 90.000000
_cell_angle_beta 90.000000
_cell_angle_gamma 90.000000
_cell_volume 3492.213268
_symmetry_space_group_name_H-M "P N M A"
_symmetry_group_IT_number 62
_symmetry_cell_setting 'orthorhombic'
loop_
_space_group_symop_operation_xyz
x,y,z
1/2-x,-y,1/2+z
1/2+x,1/2-y,1/2-z
-x,1/2+y,-z
-x,-y,-z
1/2+x,y,1/2-z
1/2-x,1/2+y,1/2+z
x,1/2-y,z
loop_
_atom_site_type_symbol
_atom_site_label
_atom_site_fract_x
_atom_site_fract_y
_atom_site_fract_z
Si Si1 0.461744 0.926592 0.810792
Si Si2 0.039856 0.428638 0.059746
Si Si3 0.176174 0.427592 0.761795
Si Si4 0.456075 0.071320 0.312479
Si Si5 0.319255 0.572944 0.752073
Si Si6 0.464470 0.429083 0.061932
Si Si7 0.668692 0.425401 0.886762
Si Si8 0.828217 0.427865 0.885136
O O1 0.476895 0.750000 0.811279
O O2 0.500776 0.994285 0.748292
O O3 0.379132 0.960441 0.805210
O O4 0.492790 0.995809 0.876586
O O5 0.045276 0.250000 0.051128
O O6 0.118288 0.496294 0.064334
O O7 0.996738 0.475240 0.123198
O O8 0.000000 0.500000 0.000000
O O9 0.185675 0.250000 0.769281
O O10 0.118905 0.489405 0.811653
O O11 0.248728 0.505712 0.781746
O O12 0.157273 0.471798 0.688071
O O13 0.444620 0.250000 0.308894
O O14 0.311309 0.750000 0.738029
O O15 0.341642 0.495163 0.685472
O O16 0.468992 0.250000 0.056649
O O17 0.383297 0.477918 0.068415
O O18 0.500000 0.500000 0.000000
O O19 0.651638 0.250000 0.897169
O O20 0.748543 0.462324 0.907580
O O21 0.841769 0.250000 0.882066
#
# Coordination Sequence:
#
# PCOD8250621 Si02
#       8
#     8   8   8   8   8   8   8   8
#     4   9  18  34  56  82 108 139 184 229 272 326
#     4  11  23  39  59  84 116 151 192 235 282 342
#     4  10  20  33  52  85 118 144 181 235 288 333
#     4  10  19  36  58  82 109 144 188 229 274 335
#     4  10  18  33  56  82 112 148 188 232 281 337
#     4  11  22  37  57  81 112 147 185 230 279 333
#     4   9  19  35  54  80 112 144 182 226 274 332
#     4  10  20  35  56  84 116 147 185 234 285 334
#
# _framework density 18.326487
#
# number of rings (size 3 to 8) (size 9 to 14) (size 15 to 20)
#    0.000    2.000    2.500    2.625    0.000    3.500 
#    0.000    3.750    0.000    3.000    0.000    0.000 
#    0.000    0.000    0.000    0.000    0.000    0.000 
#
# Total GULP energy -793677.461933 kJ/mol
# GULP energy per Si atom -12401.210343 kJ/mol
# Density = 1.828478 g / cm^3
# Si number density = 18.326487 Si / 1000 Ang^3
#
#
#
# Elastic Constant Matrix: (Units=GPa)
#
#
# Indices 1 2 3 4 5 6 
#
# 1 147.9485 59.2969 70.0573 0.0000 0.0000 0.0000
# 2 59.2969 81.2412 46.1671 0.0000 0.0000 0.0000
# 3 70.0573 46.1671 108.7183 0.0000 0.0000 0.0000
# 4 0.0000 0.0000 0.0000 26.9943 0.0000 0.0000
# 5 0.0000 0.0000 0.0000 0.0000 30.5749 0.0000
# 6 0.0000 0.0000 0.0000 0.0000 0.0000 32.0425
#
#
#
# Elastic Compliance Matrix: (Units=1/GPa)
#
#
# Indices 1 2 3 4 5 6 
#
# 1 0.011282 -0.005408 -0.004973 0.000000 0.000000 0.000000
# 2 -0.005408 0.018817 -0.004506 0.000000 0.000000 0.000000
# 3 -0.004973 -0.004506 0.014316 0.000000 0.000000 0.000000
# 4 0.000000 0.000000 0.000000 0.037045 0.000000 0.000000
# 5 0.000000 0.000000 0.000000 0.000000 0.032707 0.000000
# 6 0.000000 0.000000 0.000000 0.000000 0.000000 0.031209
#
#
# Mechanical properties :
#
#
# Convention : Reuss Voigt Hill
#
# Bulk Modulus (GPa) = 68.30326 76.55008 72.42667
# Shear Modulus (GPa) = 27.77341 28.74813 28.26077
#
# Velocity S-wave (km/s) = 3.89714 3.96494 3.93118
# Velocity P-wave (km/s) = 7.58956 7.92602 7.75961
#
# Compressibility (1/GPa) = 0.01464059
#
# Stress axis : x y z
#
# Youngs Moduli (GPa) = 88.63972 53.14421 69.85161
#
# Poissons Ratio (x) = 0.28741 0.34739
# Poissons Ratio (y) = 0.47938 0.31472
# Poissons Ratio (z) = 0.44083 0.23944
#
# Static dielectric constant tensor:
#      x y z
#    x 3.536900 0.000000 0.000000 
#    y 0.000000 3.309510 0.000000 
#    z 0.000000 0.000000 3.234850 
# 
# 
# High freq. dielectric constant tensor:
#      x y z
#    x 1.726100 0.000000 0.000000 
#    y 0.000000 1.709590 0.000000 
#    z 0.000000 0.000000 1.681510 
# 
# From -- ./inp_files/27698.got.cif
#   From: 2010.03.12/outbox.cif.g09.slc.cpg/sg62_14_cif.got.tgz:27698.got - 2010.04.10 19:12:36.
