data_PCOD8250257
_publ_section_title
;
Structure prediction by ZEFSAII (Michael W. Deem and Ramdas Pophale) SiO2 
 PCOD8250257
Probable space group: P N M A
;
_chemical_formula_sum "Si O2"
_cell_formula_units_Z 56
_cell_length_a 18.437309
_cell_length_b 8.667753
_cell_length_c 21.136599
_cell_angle_alpha 90.000000
_cell_angle_beta 90.000000
_cell_angle_gamma 90.000000
_cell_volume 3377.840740
_symmetry_space_group_name_H-M "P N M A"
_symmetry_group_IT_number 62
_symmetry_cell_setting 'orthorhombic'
loop_
_space_group_symop_operation_xyz
x,y,z
1/2-x,-y,1/2+z
1/2+x,1/2-y,1/2-z
-x,1/2+y,-z
-x,-y,-z
1/2+x,y,1/2-z
1/2-x,1/2+y,1/2+z
x,1/2-y,z
loop_
_atom_site_type_symbol
_atom_site_label
_atom_site_fract_x
_atom_site_fract_y
_atom_site_fract_z
Si Si1 0.703571 0.581523 0.819946
Si Si2 0.353532 0.931943 0.366247
Si Si3 0.586660 0.567663 0.250551
Si Si4 0.920708 0.568406 0.001389
Si Si5 0.845570 0.564984 0.874470
Si Si6 0.782474 0.920899 0.686941
Si Si7 0.932194 0.065016 0.252405
O O1 0.686654 0.750000 0.848194
O O2 0.762251 0.499093 0.866386
O O3 0.743560 0.596640 0.753405
O O4 0.626151 0.500628 0.805179
O O5 0.358745 0.750000 0.355460
O O6 0.379199 0.982986 0.435651
O O7 0.270132 0.985546 0.360112
O O8 0.407291 0.014384 0.317252
O O9 0.588414 0.750000 0.254964
O O10 0.603011 0.499240 0.319579
O O11 0.642403 0.512051 0.196556
O O12 0.508070 0.509391 0.229026
O O13 0.928009 0.750000 0.997060
O O14 0.875307 0.505943 0.941389
O O15 0.000000 0.500000 0.000000
O O16 0.844652 0.750000 0.868450
O O17 0.798261 0.750000 0.659140
O O18 0.935897 0.250000 0.253778
#
# Coordination Sequence:
#
# PCOD8250257 Si02
#       7
#     8   8   8   8   8   8   8
#     4   7  13  26  45  63  80 106 147 186 217 259
#     4  10  19  31  45  67  95 122 154 194 232 267
#     4  11  20  29  44  69  95 118 145 189 237 273
#     4  10  21  32  45  65  93 126 159 191 224 263
#     4   9  17  32  48  63  87 123 159 188 220 270
#     4   9  17  31  48  65  86 119 154 184 224 280
#     4  10  18  29  45  66  90 120 152 186 229 280
#
# _framework density 16.578638000000002
#
# number of rings (size 3 to 8) (size 9 to 14) (size 15 to 20)
#    0.000    2.571    0.000    5.143    0.000    4.000 
#    0.000    0.714    0.000    0.000    0.000    1.000 
#    0.000    0.000    0.000    0.000    0.000    0.000 
#
# Total GULP energy -693939.041093 kJ/mol
# GULP energy per Si atom -12391.768591 kJ/mol
# Density = 1.654090 g / cm^3
# Si number density = 16.578638 Si / 1000 Ang^3
#
#
#
# Elastic Constant Matrix: (Units=GPa)
#
#
# Indices 1 2 3 4 5 6 
#
# 1 155.9075 31.3577 62.3650 0.0000 0.0000 0.0000
# 2 31.3577 54.5600 17.7673 0.0000 0.0000 0.0000
# 3 62.3650 17.7673 74.2892 0.0000 0.0000 0.0000
# 4 0.0000 0.0000 0.0000 16.6736 0.0000 0.0000
# 5 0.0000 0.0000 0.0000 0.0000 27.6230 0.0000
# 6 0.0000 0.0000 0.0000 0.0000 0.0000 27.1955
#
#
#
# Elastic Compliance Matrix: (Units=1/GPa)
#
#
# Indices 1 2 3 4 5 6 
#
# 1 0.010185 -0.003329 -0.007754 0.000000 0.000000 0.000000
# 2 -0.003329 0.020964 -0.002219 0.000000 0.000000 0.000000
# 3 -0.007754 -0.002219 0.020502 0.000000 0.000000 0.000000
# 4 0.000000 0.000000 0.000000 0.059975 0.000000 0.000000
# 5 0.000000 0.000000 0.000000 0.000000 0.036202 0.000000
# 6 0.000000 0.000000 0.000000 0.000000 0.000000 0.036771
#
#
# Mechanical properties :
#
#
# Convention : Reuss Voigt Hill
#
# Bulk Modulus (GPa) = 39.92658 56.41519 48.17088
# Shear Modulus (GPa) = 22.77356 25.84954 24.31155
#
# Velocity S-wave (km/s) = 3.71032 3.95296 3.83356
# Velocity P-wave (km/s) = 6.51849 7.41197 6.97954
#
# Compressibility (1/GPa) = 0.02504597
#
# Stress axis : x y z
#
# Youngs Moduli (GPa) = 98.17911 47.69997 48.77687
#
# Poissons Ratio (x) = 0.15878 0.37824
# Poissons Ratio (y) = 0.32681 0.10826
# Poissons Ratio (z) = 0.76133 0.10587
#
# Static dielectric constant tensor:
#      x y z
#    x 3.499090 0.000000 0.000000 
#    y 0.000000 3.087540 0.000000 
#    z 0.000000 0.000000 3.028600 
# 
# 
# High freq. dielectric constant tensor:
#      x y z
#    x 1.649540 0.000000 0.000000 
#    y 0.000000 1.634160 0.000000 
#    z 0.000000 0.000000 1.596420 
# 
# From -- ./inp_files/27561.got.cif
#   From: 2010.03.12/outbox.cif.g09.slc.cpg/sg62_14_cif.got.tgz:27561.got - 2010.04.10 19:12:36.
