data_PCOD8250641
_publ_section_title
;
Structure prediction by ZEFSAII (Michael W. Deem and Ramdas Pophale) SiO2 
 PCOD8250641
Probable space group: P N M A
;
_chemical_formula_sum "Si O2"
_cell_formula_units_Z 32
_cell_length_a 14.275218
_cell_length_b 8.402751
_cell_length_c 12.431651
_cell_angle_alpha 90.000000
_cell_angle_beta 90.000000
_cell_angle_gamma 90.000000
_cell_volume 1491.190241
_symmetry_space_group_name_H-M "P N M A"
_symmetry_group_IT_number 62
_symmetry_cell_setting 'orthorhombic'
loop_
_space_group_symop_operation_xyz
x,y,z
1/2-x,-y,1/2+z
1/2+x,1/2-y,1/2-z
-x,1/2+y,-z
-x,-y,-z
1/2+x,y,1/2-z
1/2-x,1/2+y,1/2+z
x,1/2-y,z
loop_
_atom_site_type_symbol
_atom_site_label
_atom_site_fract_x
_atom_site_fract_y
_atom_site_fract_z
Si Si1 0.278061 0.564133 0.466598
Si Si2 0.595665 0.064196 0.952376
Si Si3 0.063329 0.938657 0.096315
Si Si4 0.594739 0.564389 0.721379
O O1 0.258483 0.750000 0.471863
O O2 0.179212 0.472084 0.463964
O O3 0.333715 0.509850 0.574889
O O4 0.334223 0.525169 0.358102
O O5 0.586487 0.250000 0.929763
O O6 0.621930 0.972848 0.843010
O O7 0.500000 0.000000 0.000000
O O8 0.069217 0.750000 0.099978
O O9 0.012974 0.004196 0.203890
O O10 0.000000 0.000000 0.000000
O O11 0.601672 0.750000 0.696590
#
# Coordination Sequence:
#
# PCOD8250641 Si02
#       4
#     8   8   8   8
#     4  11  22  40  64  93 124 162 207 255 304 363
#     4  12  26  45  64  90 124 162 204 253 307 367
#     4  10  18  33  58  90 122 157 199 250 300 354
#     4  11  22  40  64  93 125 163 204 252 307 364
#
# _framework density 21.459367
#
# number of rings (size 3 to 8) (size 9 to 14) (size 15 to 20)
#    0.000    1.000    0.000   12.000    0.000    2.000 
#    0.000   10.000    0.000    0.000    0.000    0.000 
#    0.000    0.000    0.000    0.000    0.000    0.000 
#
# Total GULP energy -396864.325490 kJ/mol
# GULP energy per Si atom -12402.010172 kJ/mol
# Density = 2.141052 g / cm^3
# Si number density = 21.459367 Si / 1000 Ang^3
#
#
#
# Elastic Constant Matrix: (Units=GPa)
#
#
# Indices 1 2 3 4 5 6 
#
# 1 141.4120 22.3042 32.3147 0.0000 0.0000 0.0000
# 2 22.3042 127.5062 8.7932 0.0000 0.0000 0.0000
# 3 32.3147 8.7932 78.4718 0.0000 0.0000 0.0000
# 4 0.0000 0.0000 0.0000 34.7156 0.0000 0.0000
# 5 0.0000 0.0000 0.0000 0.0000 26.4899 0.0000
# 6 0.0000 0.0000 0.0000 0.0000 0.0000 39.0225
#
#
#
# Elastic Compliance Matrix: (Units=1/GPa)
#
#
# Indices 1 2 3 4 5 6 
#
# 1 0.007978 -0.001178 -0.003153 0.000000 0.000000 0.000000
# 2 -0.001178 0.008078 -0.000420 0.000000 0.000000 0.000000
# 3 -0.003153 -0.000420 0.014089 0.000000 0.000000 0.000000
# 4 0.000000 0.000000 0.000000 0.028806 0.000000 0.000000
# 5 0.000000 0.000000 0.000000 0.000000 0.037750 0.000000
# 6 0.000000 0.000000 0.000000 0.000000 0.000000 0.025626
#
#
# Mechanical properties :
#
#
# Convention : Reuss Voigt Hill
#
# Bulk Modulus (GPa) = 48.44507 52.69044 50.56775
# Shear Modulus (GPa) = 36.04636 38.97745 37.51190
#
# Velocity S-wave (km/s) = 4.10292 4.26647 4.18550
# Velocity P-wave (km/s) = 6.71339 6.99123 6.85372
#
# Compressibility (1/GPa) = 0.02064193
#
# Stress axis : x y z
#
# Youngs Moduli (GPa) = 125.34586 123.79604 70.97724
#
# Poissons Ratio (x) = 0.14584 0.22381
# Poissons Ratio (y) = 0.14767 0.02981
# Poissons Ratio (z) = 0.39525 0.05200
#
# Static dielectric constant tensor:
#      x y z
#    x 4.610810 0.000000 0.000000 
#    y 0.000000 3.973280 0.000000 
#    z 0.000000 0.000000 3.866410 
# 
# 
# High freq. dielectric constant tensor:
#      x y z
#    x 1.849030 0.000000 0.000000 
#    y 0.000000 1.863070 0.000000 
#    z 0.000000 0.000000 1.824780 
# 
# From -- ./inp_files/12767.got.cif
#   From: 2010.03.12/outbox.cif.g09.slc.cpg/sg62_7_cif.got.tgz:12767.got - 2010.04.10 19:12:36.
