data_PCOD8250988
_publ_section_title
;
Structure prediction by ZEFSAII (Michael W. Deem and Ramdas Pophale) SiO2 
 PCOD8250988
Probable space group: P N M A
;
_chemical_formula_sum "Si O2"
_cell_formula_units_Z 56
_cell_length_a 18.672456
_cell_length_b 9.102093
_cell_length_c 17.982795
_cell_angle_alpha 90.000000
_cell_angle_beta 90.000000
_cell_angle_gamma 90.000000
_cell_volume 3056.327624
_symmetry_space_group_name_H-M "P N M A"
_symmetry_group_IT_number 62
_symmetry_cell_setting 'orthorhombic'
loop_
_space_group_symop_operation_xyz
x,y,z
1/2-x,-y,1/2+z
1/2+x,1/2-y,1/2-z
-x,1/2+y,-z
-x,-y,-z
1/2+x,y,1/2-z
1/2-x,1/2+y,1/2+z
x,1/2-y,z
loop_
_atom_site_type_symbol
_atom_site_label
_atom_site_fract_x
_atom_site_fract_y
_atom_site_fract_z
Si Si1 0.653212 0.422384 0.548681
Si Si2 0.745063 0.585443 0.341702
Si Si3 0.388928 0.579306 0.617810
Si Si4 0.047747 0.580238 0.842075
Si Si5 0.379786 0.417608 0.189392
Si Si6 0.428311 0.423782 0.026471
Si Si7 0.290467 0.916957 0.987847
O O1 0.666716 0.250000 0.557763
O O2 0.619184 0.460533 0.468818
O O3 0.599027 0.477426 0.610649
O O4 0.728589 0.505532 0.560430
O O5 0.736124 0.750000 0.312025
O O6 0.669355 0.504128 0.331733
O O7 0.807789 0.509423 0.294175
O O8 0.767178 0.579504 0.427118
O O9 0.376521 0.750000 0.632084
O O10 0.466872 0.527887 0.644244
O O11 0.058275 0.750000 0.866190
O O12 0.064006 0.556830 0.755294
O O13 0.354562 0.250000 0.183696
O O14 0.418321 0.464549 0.113125
O O15 0.431967 0.250000 0.012877
O O16 0.500000 0.500000 0.000000
O O17 0.363438 0.491330 0.978111
O O18 0.301664 0.750000 0.959815
#
# Coordination Sequence:
#
# PCOD8250988 Si02
#       7
#     8   8   8   8   8   8   8
#     4  10  19  31  49  75 104 134 167 208 253 297
#     4   9  17  30  51  74  95 123 163 207 250 296
#     4   9  18  32  51  74 101 133 171 209 247 295
#     4  10  20  34  51  73 102 137 171 205 248 302
#     4   9  19  35  53  72  98 133 171 207 250 304
#     4  10  19  33  54  78 101 129 169 217 264 308
#     4   9  17  31  51  74  98 127 164 205 248 300
#
# _framework density 18.322644
#
# number of rings (size 3 to 8) (size 9 to 14) (size 15 to 20)
#    0.000    2.571    0.000    2.143    0.000    5.714 
#    0.000    1.429    0.000    6.857    0.000    0.000 
#    0.000    0.000    0.000    0.000    0.000    0.000 
#
# Total GULP energy -694484.330885 kJ/mol
# GULP energy per Si atom -12401.505909 kJ/mol
# Density = 1.828094 g / cm^3
# Si number density = 18.322644 Si / 1000 Ang^3
#
#
#
# Elastic Constant Matrix: (Units=GPa)
#
#
# Indices 1 2 3 4 5 6 
#
# 1 172.3008 78.0973 49.0911 0.0000 0.0000 0.0000
# 2 78.0973 107.2982 35.6377 0.0000 0.0000 0.0000
# 3 49.0911 35.6377 51.1770 0.0000 0.0000 0.0000
# 4 0.0000 0.0000 0.0000 21.4357 0.0000 0.0000
# 5 0.0000 0.0000 0.0000 0.0000 16.5306 0.0000
# 6 0.0000 0.0000 0.0000 0.0000 0.0000 38.5790
#
#
#
# Elastic Compliance Matrix: (Units=1/GPa)
#
#
# Indices 1 2 3 4 5 6 
#
# 1 0.009820 -0.005228 -0.005779 0.000000 0.000000 0.000000
# 2 -0.005228 0.014907 -0.005366 0.000000 0.000000 0.000000
# 3 -0.005779 -0.005366 0.028820 0.000000 0.000000 0.000000
# 4 0.000000 0.000000 0.000000 0.046651 0.000000 0.000000
# 5 0.000000 0.000000 0.000000 0.000000 0.060494 0.000000
# 6 0.000000 0.000000 0.000000 0.000000 0.000000 0.025921
#
#
# Mechanical properties :
#
#
# Convention : Reuss Voigt Hill
#
# Bulk Modulus (GPa) = 48.07381 72.93647 60.50514
# Shear Modulus (GPa) = 22.09521 26.50572 24.30047
#
# Velocity S-wave (km/s) = 3.47637 3.80756 3.64573
# Velocity P-wave (km/s) = 6.51213 7.69566 7.12850
#
# Compressibility (1/GPa) = 0.02080135
#
# Stress axis : x y z
#
# Youngs Moduli (GPa) = 101.83216 67.08114 34.69780
#
# Poissons Ratio (x) = 0.35071 0.20053
# Poissons Ratio (y) = 0.53239 0.18618
# Poissons Ratio (z) = 0.58851 0.35995
#
# Static dielectric constant tensor:
#      x y z
#    x 3.541270 0.000000 0.000000 
#    y 0.000000 3.483400 0.000000 
#    z 0.000000 0.000000 3.078090 
# 
# 
# High freq. dielectric constant tensor:
#      x y z
#    x 1.719720 0.000000 0.000000 
#    y 0.000000 1.718250 0.000000 
#    z 0.000000 0.000000 1.674160 
# 
# From -- ./inp_files/27521.got.cif
#   From: 2010.03.12/outbox.cif.g09.slc.cpg/sg62_14_cif.got.tgz:27521.got - 2010.04.10 19:12:36.
