data_PCOD8250970
_publ_section_title
;
Structure prediction by ZEFSAII (Michael W. Deem and Ramdas Pophale) SiO2 
 PCOD8250970
Probable space group: P N M A
;
_chemical_formula_sum "Si O2"
_cell_formula_units_Z 40
_cell_length_a 5.202782
_cell_length_b 9.073890
_cell_length_c 44.797092
_cell_angle_alpha 90.000000
_cell_angle_beta 90.000000
_cell_angle_gamma 90.000000
_cell_volume 2114.847041
_symmetry_space_group_name_H-M "P N M A"
_symmetry_group_IT_number 62
_symmetry_cell_setting 'orthorhombic'
loop_
_space_group_symop_operation_xyz
x,y,z
1/2-x,-y,1/2+z
1/2+x,1/2-y,1/2-z
-x,1/2+y,-z
-x,-y,-z
1/2+x,y,1/2-z
1/2-x,1/2+y,1/2+z
x,1/2-y,z
loop_
_atom_site_type_symbol
_atom_site_label
_atom_site_fract_x
_atom_site_fract_y
_atom_site_fract_z
Si Si1 0.000976 0.575135 0.067096
Si Si2 0.998941 0.074873 0.531843
Si Si3 0.004130 0.074437 0.865850
Si Si4 0.495426 0.574934 0.168691
Si Si5 0.525762 0.921034 0.768639
O O1 0.000278 0.750000 0.068750
O O2 0.253083 0.518987 0.049962
O O3 0.750169 0.518779 0.049720
O O4 0.000194 0.510165 0.100586
O O5 0.999058 0.250000 0.527788
O O6 0.000000 0.000000 0.500000
O O7 0.001823 0.250000 0.866809
O O8 0.257719 0.015820 0.849271
O O9 0.756568 0.014657 0.848146
O O10 0.494572 0.750000 0.170078
O O11 0.505235 0.515886 0.201937
O O12 0.295012 0.963102 0.746474
O O13 0.514172 0.750000 0.777358
#
# Coordination Sequence:
#
# PCOD8250970 Si02
#       5
#     8   8   8   8   8
#     4   9  17  30  49  71  95 126 161 193 232 286
#     4  10  19  31  49  71  95 126 161 197 236 278
#     4   9  17  30  49  74  99 122 155 197 238 282
#     4  10  19  31  51  76  98 121 153 199 244 276
#     4  10  21  36  52  70  96 131 164 192 228 280
#
# _framework density 18.913896000000001
#
# number of rings (size 3 to 8) (size 9 to 14) (size 15 to 20)
#    0.000    2.400    0.000    3.000    0.000    5.600 
#    0.000    0.000    0.000    7.200    0.000    0.000 
#    0.000    0.000    0.000    0.000    0.000    0.000 
#
# Total GULP energy -496077.474212 kJ/mol
# GULP energy per Si atom -12401.936855 kJ/mol
# Density = 1.887085 g / cm^3
# Si number density = 18.913896 Si / 1000 Ang^3
#
#
#
# Elastic Constant Matrix: (Units=GPa)
#
#
# Indices 1 2 3 4 5 6 
#
# 1 165.6645 19.9377 62.3105 0.0000 0.0000 0.0000
# 2 19.9377 15.3223 25.1780 0.0000 0.0000 0.0000
# 3 62.3105 25.1780 144.5806 0.0000 0.0000 0.0000
# 4 0.0000 0.0000 0.0000 25.8564 0.0000 0.0000
# 5 0.0000 0.0000 0.0000 0.0000 38.8566 0.0000
# 6 0.0000 0.0000 0.0000 0.0000 0.0000 8.1224
#
#
#
# Elastic Compliance Matrix: (Units=1/GPa)
#
#
# Indices 1 2 3 4 5 6 
#
# 1 0.007618 -0.006329 -0.002181 0.000000 0.000000 0.000000
# 2 -0.006329 0.096685 -0.014110 0.000000 0.000000 0.000000
# 3 -0.002181 -0.014110 0.010314 0.000000 0.000000 0.000000
# 4 0.000000 0.000000 0.000000 0.038675 0.000000 0.000000
# 5 0.000000 0.000000 0.000000 0.000000 0.025736 0.000000
# 6 0.000000 0.000000 0.000000 0.000000 0.000000 0.123117
#
#
# Mechanical properties :
#
#
# Convention : Reuss Voigt Hill
#
# Bulk Modulus (GPa) = 14.41393 60.04666 37.23029
# Shear Modulus (GPa) = 13.49492 29.10983 21.30237
#
# Velocity S-wave (km/s) = 2.67403 3.92736 3.35965
# Velocity P-wave (km/s) = 4.14382 7.23753 5.89716
#
# Compressibility (1/GPa) = 0.06937733
#
# Stress axis : x y z
#
# Youngs Moduli (GPa) = 131.26144 10.34289 96.95863
#
# Poissons Ratio (x) = 0.06546 0.21148
# Poissons Ratio (y) = 0.83076 1.36804
# Poissons Ratio (z) = 0.28630 0.14593
#
# Static dielectric constant tensor:
#      x y z
#    x 4.082220 0.000000 0.000000 
#    y 0.000000 2.954070 0.000000 
#    z 0.000000 0.000000 3.561970 
# 
# 
# High freq. dielectric constant tensor:
#      x y z
#    x 1.759370 0.000000 0.000000 
#    y 0.000000 1.678880 0.000000 
#    z 0.000000 0.000000 1.752310 
# 
# From -- ./inp_files/31517.got.cif
#   From: 2010.03.12/outbox.cif.g09.slc.cpg/sg62_16_cif.got.tgz:31517.got - 2010.04.10 19:12:36.
