data_PCOD8250528
_publ_section_title
;
Structure prediction by ZEFSAII (Michael W. Deem and Ramdas Pophale) SiO2 
 PCOD8250528
Probable space group: P N M A
;
_chemical_formula_sum "Si O2"
_cell_formula_units_Z 56
_cell_length_a 25.315473
_cell_length_b 23.323136
_cell_length_c 5.008865
_cell_angle_alpha 90.000000
_cell_angle_beta 90.000000
_cell_angle_gamma 90.000000
_cell_volume 2957.415316
_symmetry_space_group_name_H-M "P N M A"
_symmetry_group_IT_number 62
_symmetry_cell_setting 'orthorhombic'
loop_
_space_group_symop_operation_xyz
x,y,z
1/2-x,-y,1/2+z
1/2+x,1/2-y,1/2-z
-x,1/2+y,-z
-x,-y,-z
1/2+x,y,1/2-z
1/2-x,1/2+y,1/2+z
x,1/2-y,z
loop_
_atom_site_type_symbol
_atom_site_label
_atom_site_fract_x
_atom_site_fract_y
_atom_site_fract_z
Si Si1 0.709176 0.686674 0.621794
Si Si2 0.557246 0.817198 0.077983
Si Si3 0.743406 0.962589 0.231003
Si Si4 0.834015 0.369331 0.622589
Si Si5 0.009903 0.315997 0.061799
Si Si6 0.312143 0.645271 0.123416
Si Si7 0.626780 0.317656 0.361968
O O1 0.692393 0.750000 0.707088
O O2 0.668389 0.666438 0.396014
O O3 0.767392 0.686553 0.497792
O O4 0.706944 0.649649 0.891797
O O5 0.574892 0.750000 0.098092
O O6 0.606753 0.859278 0.016599
O O7 0.529022 0.842576 0.341017
O O8 0.514731 0.826136 0.848882
O O9 0.685292 0.933918 0.188614
O O10 0.787366 0.917430 0.330980
O O11 0.736095 0.010549 0.456137
O O12 0.014832 0.250000 0.983754
O O13 0.069065 0.341479 0.054205
O O14 0.332256 0.671162 0.400662
O O15 0.358150 0.645683 0.901423
O O16 0.625203 0.250000 0.290867
#
# Coordination Sequence:
#
# PCOD8250528 Si02
#       7
#     8   8   8   8   8   8   8
#     4  11  20  32  48  78 115 142 165 206 257 325
#     4  10  18  32  50  77 110 142 174 209 249 310
#     4  11  23  41  57  76 103 134 181 237 274 317
#     4  11  22  34  54  79 104 143 183 214 266 320
#     4   9  19  31  49  75 111 148 177 205 245 299
#     4  11  22  34  54  79 104 143 182 213 267 321
#     4  11  20  34  53  82 116 146 175 210 252 316
#
# _framework density 18.935454
#
# number of rings (size 3 to 8) (size 9 to 14) (size 15 to 20)
#    0.000    1.429    0.000    8.571    0.000    3.429 
#    0.000    0.000    0.000    0.000    0.000   20.000 
#    0.000    0.000    0.000    0.000    0.000    0.000 
#
# Total GULP energy -694297.414541 kJ/mol
# GULP energy per Si atom -12398.168117 kJ/mol
# Density = 1.889236 g / cm^3
# Si number density = 18.935454 Si / 1000 Ang^3
#
#
#
# Elastic Constant Matrix: (Units=GPa)
#
#
# Indices 1 2 3 4 5 6 
#
# 1 85.6968 24.2680 5.0732 0.0000 0.0000 0.0000
# 2 24.2680 53.5026 13.7260 0.0000 0.0000 0.0000
# 3 5.0732 13.7260 81.7101 0.0000 0.0000 0.0000
# 4 0.0000 0.0000 0.0000 32.5484 0.0000 0.0000
# 5 0.0000 0.0000 0.0000 0.0000 33.1758 0.0000
# 6 0.0000 0.0000 0.0000 0.0000 0.0000 10.5743
#
#
#
# Elastic Compliance Matrix: (Units=1/GPa)
#
#
# Indices 1 2 3 4 5 6 
#
# 1 0.013392 -0.006125 0.000197 0.000000 0.000000 0.000000
# 2 -0.006125 0.022334 -0.003371 0.000000 0.000000 0.000000
# 3 0.000197 -0.003371 0.012792 0.000000 0.000000 0.000000
# 4 0.000000 0.000000 0.000000 0.030723 0.000000 0.000000
# 5 0.000000 0.000000 0.000000 0.000000 0.030142 0.000000
# 6 0.000000 0.000000 0.000000 0.000000 0.000000 0.094569
#
#
# Mechanical properties :
#
#
# Convention : Reuss Voigt Hill
#
# Bulk Modulus (GPa) = 33.42229 34.11599 33.76914
# Shear Modulus (GPa) = 21.50315 27.11588 24.30952
#
# Velocity S-wave (km/s) = 3.37353 3.78830 3.58692
# Velocity P-wave (km/s) = 5.73264 6.09845 5.91837
#
# Compressibility (1/GPa) = 0.02992015
#
# Stress axis : x y z
#
# Youngs Moduli (GPa) = 74.67224 44.77512 78.17097
#
# Poissons Ratio (x) = 0.27425 -0.01543
# Poissons Ratio (y) = 0.45737 0.26355
# Poissons Ratio (z) = -0.01474 0.15096
#
# Static dielectric constant tensor:
#      x y z
#    x 3.523030 0.000000 0.000000 
#    y 0.000000 3.142510 0.000000 
#    z 0.000000 0.000000 3.685730 
# 
# 
# High freq. dielectric constant tensor:
#      x y z
#    x 1.734560 0.000000 0.000000 
#    y 0.000000 1.684630 0.000000 
#    z 0.000000 0.000000 1.763940 
# 
# From -- ./inp_files/2813.got.cif
#   From: 2010.03.12/outbox.cif.g09.slc.cpg/sg62_2_cif.got.tgz:2813.got - 2010.04.10 19:12:36.
