data_PCOD8250832
_publ_section_title
;
Structure prediction by ZEFSAII (Michael W. Deem and Ramdas Pophale) SiO2 
 PCOD8250832
Probable space group: P N M A
;
_chemical_formula_sum "Si O2"
_cell_formula_units_Z 64
_cell_length_a 20.799180
_cell_length_b 9.224910
_cell_length_c 19.137479
_cell_angle_alpha 90.000000
_cell_angle_beta 90.000000
_cell_angle_gamma 90.000000
_cell_volume 3671.918881
_symmetry_space_group_name_H-M "P N M A"
_symmetry_group_IT_number 62
_symmetry_cell_setting 'orthorhombic'
loop_
_space_group_symop_operation_xyz
x,y,z
1/2-x,-y,1/2+z
1/2+x,1/2-y,1/2-z
-x,1/2+y,-z
-x,-y,-z
1/2+x,y,1/2-z
1/2-x,1/2+y,1/2+z
x,1/2-y,z
loop_
_atom_site_type_symbol
_atom_site_label
_atom_site_fract_x
_atom_site_fract_y
_atom_site_fract_z
Si Si1 0.312344 0.914677 0.060406
Si Si2 0.555030 0.419123 0.458661
Si Si3 0.953560 0.916568 0.448695
Si Si4 0.823331 0.410055 0.958917
Si Si5 0.184176 0.913042 0.207656
Si Si6 0.560311 0.081879 0.297096
Si Si7 0.304459 0.416501 0.198914
Si Si8 0.553665 0.917582 0.804603
O O1 0.307855 0.750000 0.092451
O O2 0.380541 0.930018 0.020572
O O3 0.249173 0.938839 0.010597
O O4 0.311103 0.037730 0.118694
O O5 0.500000 0.500000 0.500000
O O6 0.549995 0.250000 0.473828
O O7 0.624823 0.474045 0.485876
O O8 0.547002 0.458923 0.377475
O O9 0.975332 0.750000 0.444888
O O10 0.957660 0.981576 0.371237
O O11 0.000000 0.000000 0.500000
O O12 0.847975 0.250000 0.980597
O O13 0.814204 0.420309 0.875797
O O14 0.182409 0.750000 0.236383
O O15 0.120546 0.994530 0.234550
O O16 0.248985 0.989893 0.237297
O O17 0.577332 0.250000 0.290176
O O18 0.497362 0.038054 0.254155
O O19 0.283014 0.250000 0.203017
O O20 0.375861 0.441336 0.230876
O O21 0.545837 0.750000 0.827764
#
# Coordination Sequence:
#
# PCOD8250832 Si02
#       8
#     8   8   8   8   8   8   8   8
#     4   8  15  27  43  64  90 118 150 189 230 270
#     4  10  19  30  46  68  93 121 151 186 228 274
#     4  10  19  31  48  71  98 127 158 191 231 277
#     4   8  14  26  43  63  87 114 146 186 227 266
#     4   9  16  26  42  65  92 119 149 187 229 272
#     4   9  18  32  49  69  93 121 154 191 231 276
#     4   9  15  24  42  66  90 116 148 188 231 271
#     4   9  18  32  49  70  95 122 155 194 234 278
#
# _framework density 17.429579
#
# number of rings (size 3 to 8) (size 9 to 14) (size 15 to 20)
#    0.000    3.000    0.000    2.250    0.000    5.000 
#    0.000    0.000    0.000    1.500    0.000    5.250 
#    0.000    0.000    0.000    0.000    0.000    0.000 
#
# Total GULP energy -793049.484086 kJ/mol
# GULP energy per Si atom -12391.398189 kJ/mol
# Density = 1.738991 g / cm^3
# Si number density = 17.429579 Si / 1000 Ang^3
#
#
#
# Elastic Constant Matrix: (Units=GPa)
#
#
# Indices 1 2 3 4 5 6 
#
# 1 180.1789 84.0589 43.8894 0.0000 0.0000 0.0000
# 2 84.0589 109.7886 32.7124 0.0000 0.0000 0.0000
# 3 43.8894 32.7124 32.5700 0.0000 0.0000 0.0000
# 4 0.0000 0.0000 0.0000 17.0110 0.0000 0.0000
# 5 0.0000 0.0000 0.0000 0.0000 23.3892 0.0000
# 6 0.0000 0.0000 0.0000 0.0000 0.0000 33.5538
#
#
#
# Elastic Compliance Matrix: (Units=1/GPa)
#
#
# Indices 1 2 3 4 5 6 
#
# 1 0.009974 -0.005183 -0.008235 0.000000 0.000000 0.000000
# 2 -0.005183 0.015692 -0.008776 0.000000 0.000000 0.000000
# 3 -0.008235 -0.008776 0.050614 0.000000 0.000000 0.000000
# 4 0.000000 0.000000 0.000000 0.058786 0.000000 0.000000
# 5 0.000000 0.000000 0.000000 0.000000 0.042755 0.000000
# 6 0.000000 0.000000 0.000000 0.000000 0.000000 0.029803
#
#
# Mechanical properties :
#
#
# Convention : Reuss Voigt Hill
#
# Bulk Modulus (GPa) = 31.35547 71.53989 51.44768
# Shear Modulus (GPa) = 19.03742 25.58258 22.31000
#
# Velocity S-wave (km/s) = 3.30850 3.83530 3.58160
# Velocity P-wave (km/s) = 5.71172 7.79403 6.83267
#
# Compressibility (1/GPa) = 0.03189237
#
# Stress axis : x y z
#
# Youngs Moduli (GPa) = 100.26213 63.72874 19.75731
#
# Poissons Ratio (x) = 0.33029 0.16270
# Poissons Ratio (y) = 0.51964 0.17339
# Poissons Ratio (z) = 0.82563 0.55929
#
# Static dielectric constant tensor:
#      x y z
#    x 3.783960 0.000000 0.000000 
#    y 0.000000 3.377150 0.000000 
#    z 0.000000 0.000000 2.652360 
# 
# 
# High freq. dielectric constant tensor:
#      x y z
#    x 1.701040 0.000000 0.000000 
#    y 0.000000 1.685190 0.000000 
#    z 0.000000 0.000000 1.594490 
# 
# From -- ./inp_files/30069.got.cif
#   From: 2010.03.12/outbox.cif.g09.slc.cpg/sg62_16_cif.got.tgz:30069.got - 2010.04.10 19:12:36.
