data_PCOD8250390
_publ_section_title
;
Structure prediction by ZEFSAII (Michael W. Deem and Ramdas Pophale) SiO2 
 PCOD8250390
Probable space group: P N M A
;
_chemical_formula_sum "Si O2"
_cell_formula_units_Z 64
_cell_length_a 10.003646
_cell_length_b 21.281570
_cell_length_c 18.016256
_cell_angle_alpha 90.000000
_cell_angle_beta 90.000000
_cell_angle_gamma 90.000000
_cell_volume 3835.540060
_symmetry_space_group_name_H-M "P N M A"
_symmetry_group_IT_number 62
_symmetry_cell_setting 'orthorhombic'
loop_
_space_group_symop_operation_xyz
x,y,z
1/2-x,-y,1/2+z
1/2+x,1/2-y,1/2-z
-x,1/2+y,-z
-x,-y,-z
1/2+x,y,1/2-z
1/2-x,1/2+y,1/2+z
x,1/2-y,z
loop_
_atom_site_type_symbol
_atom_site_label
_atom_site_fract_x
_atom_site_fract_y
_atom_site_fract_z
Si Si1 0.035930 0.822269 0.162131
Si Si2 0.642307 0.442248 0.042841
Si Si3 0.054347 0.876339 0.319738
Si Si4 0.715704 0.979168 0.828203
Si Si5 0.787991 0.615231 0.400462
Si Si6 0.914332 0.980247 0.697448
Si Si7 0.232360 0.321772 0.916795
Si Si8 0.831737 0.429566 0.480362
O O1 0.029120 0.750000 0.186499
O O2 0.016547 0.864819 0.234622
O O3 0.175475 0.835516 0.121999
O O4 0.918939 0.839057 0.104677
O O5 0.644087 0.434419 0.132197
O O6 0.490647 0.435683 0.015865
O O7 0.717937 0.391098 0.990816
O O8 0.714752 0.508566 0.024712
O O9 0.176449 0.831917 0.343978
O O10 0.930716 0.859063 0.373026
O O11 0.103701 0.948026 0.329771
O O12 0.833922 0.963549 0.771383
O O13 0.572163 0.970061 0.788056
O O14 0.724439 0.930507 0.896403
O O15 0.734572 0.049214 0.858945
O O16 0.243707 0.250000 0.943731
O O17 0.279157 0.365833 0.983731
#
# Coordination Sequence:
#
# PCOD8250390 Si02
#       8
#     8   8   8   8   8   8   8   8
#     4  11  24  35  45  71 109 140 172 212 250 292
#     4   9  16  32  54  72 100 134 165 211 253 296
#     4  11  19  32  53  70 101 139 175 204 235 297
#     4   9  19  31  52  76 102 129 162 206 259 300
#     4  10  19  34  51  71 100 139 174 206 250 293
#     4  10  18  30  51  78 105 130 161 206 258 303
#     4  11  22  35  51  72 100 137 175 210 247 292
#     4   9  16  34  52  73  99 132 168 205 250 303
#
# _framework density 16.686046000000001
#
# number of rings (size 3 to 8) (size 9 to 14) (size 15 to 20)
#    0.000    2.000    3.750    2.625    1.750    2.000 
#    2.250    1.250    0.000    0.000    0.000    4.375 
#    0.000    0.000    0.000    0.000    0.000    0.000 
#
# Total GULP energy -793251.147370 kJ/mol
# GULP energy per Si atom -12394.549178 kJ/mol
# Density = 1.664807 g / cm^3
# Si number density = 16.686046 Si / 1000 Ang^3
#
#
#
# Elastic Constant Matrix: (Units=GPa)
#
#
# Indices 1 2 3 4 5 6 
#
# 1 71.5536 30.9184 47.0008 0.0000 0.0000 0.0000
# 2 30.9184 40.3931 27.4683 0.0000 0.0000 0.0000
# 3 47.0008 27.4683 80.9294 0.0000 0.0000 0.0000
# 4 0.0000 0.0000 0.0000 21.5789 0.0000 0.0000
# 5 0.0000 0.0000 0.0000 0.0000 29.6920 0.0000
# 6 0.0000 0.0000 0.0000 0.0000 0.0000 22.0953
#
#
#
# Elastic Compliance Matrix: (Units=1/GPa)
#
#
# Indices 1 2 3 4 5 6 
#
# 1 0.026992 -0.013001 -0.011263 0.000000 0.000000 0.000000
# 2 -0.013001 0.038448 -0.005499 0.000000 0.000000 0.000000
# 3 -0.011263 -0.005499 0.020764 0.000000 0.000000 0.000000
# 4 0.000000 0.000000 0.000000 0.046342 0.000000 0.000000
# 5 0.000000 0.000000 0.000000 0.000000 0.033679 0.000000
# 6 0.000000 0.000000 0.000000 0.000000 0.000000 0.045259
#
#
# Mechanical properties :
#
#
# Convention : Reuss Voigt Hill
#
# Bulk Modulus (GPa) = 37.48545 44.85012 41.16779
# Shear Modulus (GPa) = 17.86342 20.50579 19.18461
#
# Velocity S-wave (km/s) = 3.27549 3.50940 3.39446
# Velocity P-wave (km/s) = 6.06787 6.58470 6.33156
#
# Compressibility (1/GPa) = 0.02667702
#
# Stress axis : x y z
#
# Youngs Moduli (GPa) = 37.04846 26.00927 48.16040
#
# Poissons Ratio (x) = 0.33816 0.54243
# Poissons Ratio (y) = 0.48168 0.26483
# Poissons Ratio (z) = 0.41728 0.14302
#
# Static dielectric constant tensor:
#      x y z
#    x 3.119480 0.000000 0.000000 
#    y 0.000000 2.851590 0.000000 
#    z 0.000000 0.000000 3.155350 
# 
# 
# High freq. dielectric constant tensor:
#      x y z
#    x 1.639520 0.000000 0.000000 
#    y 0.000000 1.604470 0.000000 
#    z 0.000000 0.000000 1.640620 
# 
# From -- ./inp_files/26280.got.cif
#   From: 2010.03.12/outbox.cif.g09.slc.cpg/sg62_14_cif.got.tgz:26280.got - 2010.04.10 19:12:36.
