data_PCOD8250985
_publ_section_title
;
Structure prediction by ZEFSAII (Michael W. Deem and Ramdas Pophale) SiO2 
 PCOD8250985
Probable space group: P N M A
;
_chemical_formula_sum "Si O2"
_cell_formula_units_Z 64
_cell_length_a 30.160609
_cell_length_b 8.629418
_cell_length_c 14.486213
_cell_angle_alpha 90.000000
_cell_angle_beta 90.000000
_cell_angle_gamma 90.000000
_cell_volume 3770.304960
_symmetry_space_group_name_H-M "P N M A"
_symmetry_group_IT_number 62
_symmetry_cell_setting 'orthorhombic'
loop_
_space_group_symop_operation_xyz
x,y,z
1/2-x,-y,1/2+z
1/2+x,1/2-y,1/2-z
-x,1/2+y,-z
-x,-y,-z
1/2+x,y,1/2-z
1/2-x,1/2+y,1/2+z
x,1/2-y,z
loop_
_atom_site_type_symbol
_atom_site_label
_atom_site_fract_x
_atom_site_fract_y
_atom_site_fract_z
Si Si1 0.204833 0.430549 0.321388
Si Si2 0.230037 0.932084 0.501429
Si Si3 0.048152 0.430360 0.906463
Si Si4 0.864208 0.926541 0.179403
Si Si5 0.448725 0.069695 0.602891
Si Si6 0.864114 0.928323 0.831938
Si Si7 0.176191 0.571514 0.992919
Si Si8 0.289199 0.068963 0.205479
O O1 0.211880 0.250000 0.343402
O O2 0.197667 0.526325 0.416311
O O3 0.159213 0.457592 0.265989
O O4 0.247416 0.498373 0.263793
O O5 0.241267 0.750000 0.503351
O O6 0.210383 0.988818 0.599512
O O7 0.272577 0.035285 0.480663
O O8 0.049187 0.250000 0.935851
O O9 0.082726 0.462155 0.822305
O O10 0.999139 0.477266 0.871534
O O11 0.061435 0.529886 0.996179
O O12 0.854479 0.750000 0.205692
O O13 0.849904 0.959031 0.075134
O O14 0.836961 0.028985 0.251580
O O15 0.439840 0.250000 0.618222
O O16 0.415985 0.975106 0.670819
O O17 0.858598 0.750000 0.861741
O O18 0.839028 0.037543 0.903904
O O19 0.167389 0.750000 0.967164
O O20 0.282834 0.250000 0.206000
#
# Coordination Sequence:
#
# PCOD8250985 Si02
#       8
#     8   8   8   8   8   8   8   8
#     4  10  21  36  52  72 102 134 169 208 251 298
#     4  11  22  37  53  71 100 135 171 211 254 292
#     4   9  19  33  48  70 104 136 165 205 252 300
#     4  11  21  33  51  74 100 136 173 205 247 298
#     4  10  19  31  49  74 101 133 169 206 249 301
#     4  11  21  35  51  71 102 138 171 209 253 297
#     4  12  22  31  48  73 102 135 172 210 246 292
#     4  10  21  36  51  72 102 134 167 208 249 293
#
# _framework density 16.974754000000001
#
# number of rings (size 3 to 8) (size 9 to 14) (size 15 to 20)
#    0.000    1.500    3.750    2.625    0.000    3.000 
#    0.000    0.000    0.000    0.000    0.000    0.875 
#    0.000    0.000    0.000    0.000    0.000    0.000 
#
# Total GULP energy -793496.463859 kJ/mol
# GULP energy per Si atom -12398.382248 kJ/mol
# Density = 1.693612 g / cm^3
# Si number density = 16.974754 Si / 1000 Ang^3
#
#
#
# Elastic Constant Matrix: (Units=GPa)
#
#
# Indices 1 2 3 4 5 6 
#
# 1 100.6170 19.9848 36.5319 0.0000 0.0000 0.0000
# 2 19.9848 32.9473 21.4629 0.0000 0.0000 0.0000
# 3 36.5319 21.4629 89.8783 0.0000 0.0000 0.0000
# 4 0.0000 0.0000 0.0000 23.5934 0.0000 0.0000
# 5 0.0000 0.0000 0.0000 0.0000 20.9006 0.0000
# 6 0.0000 0.0000 0.0000 0.0000 0.0000 25.3714
#
#
#
# Elastic Compliance Matrix: (Units=1/GPa)
#
#
# Indices 1 2 3 4 5 6 
#
# 1 0.012314 -0.004984 -0.003815 0.000000 0.000000 0.000000
# 2 -0.004984 0.037960 -0.007039 0.000000 0.000000 0.000000
# 3 -0.003815 -0.007039 0.014358 0.000000 0.000000 0.000000
# 4 0.000000 0.000000 0.000000 0.042385 0.000000 0.000000
# 5 0.000000 0.000000 0.000000 0.000000 0.047845 0.000000
# 6 0.000000 0.000000 0.000000 0.000000 0.000000 0.039414
#
#
# Mechanical properties :
#
#
# Convention : Reuss Voigt Hill
#
# Bulk Modulus (GPa) = 30.34382 42.15577 36.24980
# Shear Modulus (GPa) = 21.10265 23.67063 22.38664
#
# Velocity S-wave (km/s) = 3.52970 3.73830 3.63550
# Velocity P-wave (km/s) = 5.87591 6.59708 6.24691
#
# Compressibility (1/GPa) = 0.03295563
#
# Stress axis : x y z
#
# Youngs Moduli (GPa) = 81.21043 26.34347 69.64921
#
# Poissons Ratio (x) = 0.13129 0.26570
# Poissons Ratio (y) = 0.40475 0.49027
# Poissons Ratio (z) = 0.30981 0.18543
#
# Static dielectric constant tensor:
#      x y z
#    x 3.346180 0.000000 0.000000 
#    y 0.000000 3.141680 0.000000 
#    z 0.000000 0.000000 3.060710 
# 
# 
# High freq. dielectric constant tensor:
#      x y z
#    x 1.649590 0.000000 0.000000 
#    y 0.000000 1.660000 0.000000 
#    z 0.000000 0.000000 1.622610 
# 
# From -- ./inp_files/21251.got.cif
#   From: 2010.03.12/outbox.cif.g09.slc.cpg/sg62_11_cif.got.tgz:21251.got - 2010.04.10 19:12:36.
