data_PCOD8250708
_publ_section_title
;
Structure prediction by ZEFSAII (Michael W. Deem and Ramdas Pophale) SiO2 
 PCOD8250708
Probable space group: P N M A
;
_chemical_formula_sum "Si O2"
_cell_formula_units_Z 48
_cell_length_a 14.859428
_cell_length_b 17.432027
_cell_length_c 8.623268
_cell_angle_alpha 90.000000
_cell_angle_beta 90.000000
_cell_angle_gamma 90.000000
_cell_volume 2233.684680
_symmetry_space_group_name_H-M "P N M A"
_symmetry_group_IT_number 62
_symmetry_cell_setting 'orthorhombic'
loop_
_space_group_symop_operation_xyz
x,y,z
1/2-x,-y,1/2+z
1/2+x,1/2-y,1/2-z
-x,1/2+y,-z
-x,-y,-z
1/2+x,y,1/2-z
1/2-x,1/2+y,1/2+z
x,1/2-y,z
loop_
_atom_site_type_symbol
_atom_site_label
_atom_site_fract_x
_atom_site_fract_y
_atom_site_fract_z
Si Si1 0.328206 0.250000 0.205600
Si Si2 0.804082 0.102386 0.119441
Si Si3 0.035442 0.506171 0.737583
Si Si4 0.884514 0.917989 0.547793
Si Si5 0.507665 0.250000 0.404212
Si Si6 0.910628 0.750000 0.594153
Si Si7 0.563813 0.632611 0.371017
Si Si8 0.914176 0.250000 0.602002
O O1 0.279016 0.327542 0.264212
O O2 0.423109 0.250000 0.291542
O O3 0.328541 0.250000 0.015908
O O4 0.713679 0.050234 0.101460
O O5 0.887771 0.052234 0.176354
O O6 0.837589 0.131314 0.950471
O O7 0.086227 0.455517 0.611307
O O8 0.964256 0.567506 0.670124
O O9 0.978588 0.451067 0.849190
O O10 0.864284 0.826964 0.528792
O O11 0.591617 0.250000 0.284528
O O12 0.506884 0.176560 0.517705
O O13 0.009516 0.750000 0.525568
O O14 0.580004 0.673716 0.205853
#
# Coordination Sequence:
#
# PCOD8250708 Si02
#       8
#     4   8   8   8   4   4   8   4
#     4   9  19  38  62  95 124 168 215 260 318 379
#     4  11  24  42  67  93 133 170 215 270 320 381
#     4  11  24  42  63 101 129 172 215 263 334 382
#     4  11  25  41  69  95 131 173 218 265 322 394
#     4   8  18  34  64  93 124 167 211 261 320 367
#     4  11  19  41  65  92 124 173 220 258 314 395
#     4  10  20  38  65  97 127 170 214 265 322 379
#     4  10  18  35  69  94 126 174 214 267 318 381
#
# _framework density 21.489155
#
# number of rings (size 3 to 8) (size 9 to 14) (size 15 to 20)
#    0.000    1.667    1.667    4.500    4.667    0.000 
#    0.000    0.000    3.667    0.000    0.000    0.000 
#    0.000    0.000    0.000    0.000    0.000    0.000 
#
# Total GULP energy -594879.695478 kJ/mol
# GULP energy per Si atom -12393.326989 kJ/mol
# Density = 2.144024 g / cm^3
# Si number density = 21.489155 Si / 1000 Ang^3
#
#
#
# Elastic Constant Matrix: (Units=GPa)
#
#
# Indices 1 2 3 4 5 6 
#
# 1 100.7107 24.3691 33.0168 0.0000 0.0000 0.0000
# 2 24.3691 101.3397 29.6777 0.0000 0.0000 0.0000
# 3 33.0168 29.6777 115.2853 0.0000 0.0000 0.0000
# 4 0.0000 0.0000 0.0000 12.6138 0.0000 0.0000
# 5 0.0000 0.0000 0.0000 0.0000 16.1958 0.0000
# 6 0.0000 0.0000 0.0000 0.0000 0.0000 36.0532
#
#
#
# Elastic Compliance Matrix: (Units=1/GPa)
#
#
# Indices 1 2 3 4 5 6 
#
# 1 0.011291 -0.001912 -0.002741 0.000000 0.000000 0.000000
# 2 -0.001912 0.010996 -0.002283 0.000000 0.000000 0.000000
# 3 -0.002741 -0.002283 0.010047 0.000000 0.000000 0.000000
# 4 0.000000 0.000000 0.000000 0.079278 0.000000 0.000000
# 5 0.000000 0.000000 0.000000 0.000000 0.061744 0.000000
# 6 0.000000 0.000000 0.000000 0.000000 0.000000 0.027737
#
#
# Mechanical properties :
#
#
# Convention : Reuss Voigt Hill
#
# Bulk Modulus (GPa) = 54.16925 54.60699 54.38812
# Shear Modulus (GPa) = 22.61214 28.32404 25.46809
#
# Velocity S-wave (km/s) = 3.24737 3.63445 3.44635
# Velocity P-wave (km/s) = 6.27081 6.56345 6.41880
#
# Compressibility (1/GPa) = 0.01846066
#
# Stress axis : x y z
#
# Youngs Moduli (GPa) = 88.56711 90.94005 99.53264
#
# Poissons Ratio (x) = 0.17390 0.27285
# Poissons Ratio (y) = 0.16937 0.22724
# Poissons Ratio (z) = 0.24279 0.20762
#
# Static dielectric constant tensor:
#      x y z
#    x 3.810570 0.000000 0.000000 
#    y 0.000000 3.934850 0.000000 
#    z 0.000000 0.000000 4.063090 
# 
# 
# High freq. dielectric constant tensor:
#      x y z
#    x 1.826680 0.000000 0.000000 
#    y 0.000000 1.846050 0.000000 
#    z 0.000000 0.000000 1.849350 
# 
# From -- ./inp_files/6552.got.cif
#   From: 2010.03.12/outbox.cif.g09.slc.cpg/sg62_4_cif.got.tgz:6552.got - 2010.04.10 19:12:36.
