data_PCOD8250890
_publ_section_title
;
Structure prediction by ZEFSAII (Michael W. Deem and Ramdas Pophale) SiO2 
 PCOD8250890
Probable space group: P N M A
;
_chemical_formula_sum "Si O2"
_cell_formula_units_Z 56
_cell_length_a 20.658651
_cell_length_b 13.242938
_cell_length_c 11.706857
_cell_angle_alpha 90.000000
_cell_angle_beta 90.000000
_cell_angle_gamma 90.000000
_cell_volume 3202.776388
_symmetry_space_group_name_H-M "P N M A"
_symmetry_group_IT_number 62
_symmetry_cell_setting 'orthorhombic'
loop_
_space_group_symop_operation_xyz
x,y,z
1/2-x,-y,1/2+z
1/2+x,1/2-y,1/2-z
-x,1/2+y,-z
-x,-y,-z
1/2+x,y,1/2-z
1/2-x,1/2+y,1/2+z
x,1/2-y,z
loop_
_atom_site_type_symbol
_atom_site_label
_atom_site_fract_x
_atom_site_fract_y
_atom_site_fract_z
Si Si1 0.027873 0.370040 0.410847
Si Si2 0.634571 0.364576 0.678608
Si Si3 0.652886 0.053673 0.210248
Si Si4 0.225840 0.636058 0.221852
Si Si5 0.687780 0.363968 0.450466
Si Si6 0.077817 0.023585 0.623346
Si Si7 0.784191 0.962387 0.483739
O O1 0.029208 0.250000 0.390891
O O2 0.080272 0.427311 0.331855
O O3 0.039932 0.395232 0.544200
O O4 0.958817 0.416119 0.373614
O O5 0.618474 0.250000 0.713627
O O6 0.709326 0.389152 0.708368
O O7 0.628889 0.382895 0.541606
O O8 0.584234 0.434584 0.747260
O O9 0.664093 0.120536 0.321814
O O10 0.666585 0.935979 0.239508
O O11 0.703037 0.084931 0.109269
O O12 0.201729 0.750000 0.239262
O O13 0.243105 0.618837 0.088164
O O14 0.712631 0.250000 0.464269
O O15 0.747278 0.432421 0.487095
O O16 0.148508 0.007497 0.573651
#
# Coordination Sequence:
#
# PCOD8250890 Si02
#       7
#     8   8   8   8   8   8   8
#     4  10  20  35  53  75 102 136 174 215 260 298
#     4   9  16  30  52  74  99 131 167 205 251 309
#     4  10  19  32  49  74 105 135 170 214 258 307
#     4   9  17  30  49  72 100 134 167 204 257 308
#     4  10  19  30  49  77 104 133 168 206 258 318
#     4   9  19  34  53  74 100 134 177 216 250 300
#     4   9  18  31  50  73 102 131 167 211 261 302
#
# _framework density 17.484829000000001
#
# number of rings (size 3 to 8) (size 9 to 14) (size 15 to 20)
#    0.000    2.571    1.429    0.857    0.000    4.571 
#    0.000    7.143    0.000    0.857    0.000    0.000 
#    0.000    0.000    0.000    0.000    0.000    0.000 
#
# Total GULP energy -694014.194165 kJ/mol
# GULP energy per Si atom -12393.110610 kJ/mol
# Density = 1.744503 g / cm^3
# Si number density = 17.484829 Si / 1000 Ang^3
#
#
#
# Elastic Constant Matrix: (Units=GPa)
#
#
# Indices 1 2 3 4 5 6 
#
# 1 55.5372 38.4883 22.9656 0.0000 0.0000 0.0000
# 2 38.4883 98.4359 31.2817 0.0000 0.0000 0.0000
# 3 22.9656 31.2817 123.4820 0.0000 0.0000 0.0000
# 4 0.0000 0.0000 0.0000 21.9777 0.0000 0.0000
# 5 0.0000 0.0000 0.0000 0.0000 15.6358 0.0000
# 6 0.0000 0.0000 0.0000 0.0000 0.0000 22.7359
#
#
#
# Elastic Compliance Matrix: (Units=1/GPa)
#
#
# Indices 1 2 3 4 5 6 
#
# 1 0.025334 -0.009144 -0.002395 0.000000 0.000000 0.000000
# 2 -0.009144 0.014349 -0.001934 0.000000 0.000000 0.000000
# 3 -0.002395 -0.001934 0.009034 0.000000 0.000000 0.000000
# 4 0.000000 0.000000 0.000000 0.045501 0.000000 0.000000
# 5 0.000000 0.000000 0.000000 0.000000 0.063956 0.000000
# 6 0.000000 0.000000 0.000000 0.000000 0.000000 0.043983
#
#
# Mechanical properties :
#
#
# Convention : Reuss Voigt Hill
#
# Bulk Modulus (GPa) = 45.93701 51.43624 48.68663
# Shear Modulus (GPa) = 21.15416 24.38449 22.76933
#
# Velocity S-wave (km/s) = 3.48208 3.73850 3.61256
# Velocity P-wave (km/s) = 6.51890 6.93662 6.73100
#
# Compressibility (1/GPa) = 0.02176894
#
# Stress axis : x y z
#
# Youngs Moduli (GPa) = 39.47341 69.69125 110.69508
#
# Poissons Ratio (x) = 0.63727 0.26513
# Poissons Ratio (y) = 0.36095 0.21412
# Poissons Ratio (z) = 0.09454 0.13481
#
# Static dielectric constant tensor:
#      x y z
#    x 2.979280 0.000000 0.000000 
#    y 0.000000 3.137900 0.000000 
#    z 0.000000 0.000000 3.605640 
# 
# 
# High freq. dielectric constant tensor:
#      x y z
#    x 1.640360 0.000000 0.000000 
#    y 0.000000 1.668060 0.000000 
#    z 0.000000 0.000000 1.690060 
# 
# From -- ./inp_files/15266.got.cif
#   From: 2010.03.12/outbox.cif.g09.slc.cpg/sg62_8_cif.got.tgz:15266.got - 2010.04.10 19:12:36.
