data_PCOD8250150
_publ_section_title
;
Structure prediction by ZEFSAII (Michael W. Deem and Ramdas Pophale) SiO2 
 PCOD8250150
Probable space group: P N M A
;
_chemical_formula_sum "Si O2"
_cell_formula_units_Z 64
_cell_length_a 26.490088
_cell_length_b 8.889696
_cell_length_c 18.481637
_cell_angle_alpha 90.000000
_cell_angle_beta 90.000000
_cell_angle_gamma 90.000000
_cell_volume 4352.219061
_symmetry_space_group_name_H-M "P N M A"
_symmetry_group_IT_number 62
_symmetry_cell_setting 'orthorhombic'
loop_
_space_group_symop_operation_xyz
x,y,z
1/2-x,-y,1/2+z
1/2+x,1/2-y,1/2-z
-x,1/2+y,-z
-x,-y,-z
1/2+x,y,1/2-z
1/2-x,1/2+y,1/2+z
x,1/2-y,z
loop_
_atom_site_type_symbol
_atom_site_label
_atom_site_fract_x
_atom_site_fract_y
_atom_site_fract_z
Si Si1 0.850916 0.423858 0.839597
Si Si2 0.557783 0.073931 0.579669
Si Si3 0.288095 0.078707 0.787027
Si Si4 0.352333 0.426466 0.345164
Si Si5 0.202314 0.922409 0.705664
Si Si6 0.749315 0.927126 0.419437
Si Si7 0.239229 0.077073 0.929716
Si Si8 0.443556 0.427028 0.572506
O O1 0.853456 0.250000 0.858022
O O2 0.842216 0.451216 0.752841
O O3 0.803178 0.488641 0.884907
O O4 0.904399 0.489751 0.866681
O O5 0.569186 0.250000 0.583906
O O6 0.499832 0.035913 0.599788
O O7 0.592225 0.987170 0.637088
O O8 0.570239 0.016410 0.499676
O O9 0.270588 0.250000 0.766249
O O10 0.286866 0.061000 0.873804
O O11 0.250768 0.956241 0.754615
O O12 0.348112 0.250000 0.361729
O O13 0.344603 0.459310 0.259189
O O14 0.311424 0.508741 0.395619
O O15 0.202294 0.750000 0.681601
O O16 0.204140 0.020808 0.632246
O O17 0.750583 0.750000 0.425788
O O18 0.756659 0.993891 0.498557
O O19 0.227983 0.250000 0.947527
O O20 0.438386 0.250000 0.556112
#
# Coordination Sequence:
#
# PCOD8250150 Si02
#       8
#     8   8   8   8   8   8   8   8
#     4   8  14  26  42  56  73 102 136 162 190 232
#     4  10  19  28  40  59  81 106 137 173 207 237
#     4   8  15  27  41  57  78 104 131 163 202 238
#     4  10  19  30  43  57  78 110 141 169 205 244
#     4   9  17  28  41  57  77 103 136 170 200 234
#     4  10  18  27  41  60  83 110 135 161 198 241
#     4  10  18  27  41  61  83 105 134 169 199 236
#     4   9  17  29  43  58  79 107 138 171 203 238
#
# _framework density 14.705143
#
# number of rings (size 3 to 8) (size 9 to 14) (size 15 to 20)
#    0.000    2.750    0.000    3.375    0.000    3.500 
#    0.000    2.500    0.000    0.000    0.000    0.000 
#    0.000    1.000    0.000    2.000    0.000    2.625 
#
# Total GULP energy -792952.797248 kJ/mol
# GULP energy per Si atom -12389.887457 kJ/mol
# Density = 1.467167 g / cm^3
# Si number density = 14.705143 Si / 1000 Ang^3
#
#
#
# Elastic Constant Matrix: (Units=GPa)
#
#
# Indices 1 2 3 4 5 6 
#
# 1 79.4644 30.0412 55.9965 0.0000 0.0000 0.0000
# 2 30.0412 61.1535 42.3297 0.0000 0.0000 0.0000
# 3 55.9965 42.3297 111.5216 0.0000 0.0000 0.0000
# 4 0.0000 0.0000 0.0000 23.0297 0.0000 0.0000
# 5 0.0000 0.0000 0.0000 0.0000 26.5930 0.0000
# 6 0.0000 0.0000 0.0000 0.0000 0.0000 15.6096
#
#
#
# Elastic Compliance Matrix: (Units=1/GPa)
#
#
# Indices 1 2 3 4 5 6 
#
# 1 0.020147 -0.003926 -0.008626 0.000000 0.000000 0.000000
# 2 -0.003926 0.022945 -0.006738 0.000000 0.000000 0.000000
# 3 -0.008626 -0.006738 0.015855 0.000000 0.000000 0.000000
# 4 0.000000 0.000000 0.000000 0.043422 0.000000 0.000000
# 5 0.000000 0.000000 0.000000 0.000000 0.037604 0.000000
# 6 0.000000 0.000000 0.000000 0.000000 0.000000 0.064063
#
#
# Mechanical properties :
#
#
# Convention : Reuss Voigt Hill
#
# Bulk Modulus (GPa) = 49.09743 56.54159 52.81951
# Shear Modulus (GPa) = 20.04771 21.29790 20.67281
#
# Velocity S-wave (km/s) = 3.69631 3.80982 3.75350
# Velocity P-wave (km/s) = 7.18870 7.60833 7.40149
#
# Compressibility (1/GPa) = 0.02036766
#
# Stress axis : x y z
#
# Youngs Moduli (GPa) = 49.63526 43.58299 63.07034
#
# Poissons Ratio (x) = 0.17112 0.54403
# Poissons Ratio (y) = 0.19489 0.42494
# Poissons Ratio (z) = 0.42814 0.29364
#
# Static dielectric constant tensor:
#      x y z
#    x 2.843230 0.000000 0.000000 
#    y 0.000000 2.879090 0.000000 
#    z 0.000000 0.000000 2.993600 
# 
# 
# High freq. dielectric constant tensor:
#      x y z
#    x 1.526190 0.000000 0.000000 
#    y 0.000000 1.568820 0.000000 
#    z 0.000000 0.000000 1.554620 
# 
# From -- ./inp_files/25001.got.cif
#   From: 2010.03.12/outbox.cif.g09.slc.cpg/sg62_13_cif.got.tgz:25001.got - 2010.04.10 19:12:36.
