data_PCOD8250239
_publ_section_title
;
Structure prediction by ZEFSAII (Michael W. Deem and Ramdas Pophale) SiO2 
 PCOD8250239
Probable space group: P N M A
;
_chemical_formula_sum "Si O2"
_cell_formula_units_Z 64
_cell_length_a 19.041762
_cell_length_b 9.342501
_cell_length_c 23.426388
_cell_angle_alpha 90.000000
_cell_angle_beta 90.000000
_cell_angle_gamma 90.000000
_cell_volume 4167.500088
_symmetry_space_group_name_H-M "P N M A"
_symmetry_group_IT_number 62
_symmetry_cell_setting 'orthorhombic'
loop_
_space_group_symop_operation_xyz
x,y,z
1/2-x,-y,1/2+z
1/2+x,1/2-y,1/2-z
-x,1/2+y,-z
-x,-y,-z
1/2+x,y,1/2-z
1/2-x,1/2+y,1/2+z
x,1/2-y,z
loop_
_atom_site_type_symbol
_atom_site_label
_atom_site_fract_x
_atom_site_fract_y
_atom_site_fract_z
Si Si1 0.493388 0.417443 0.118432
Si Si2 0.649432 0.915108 0.735308
Si Si3 0.716922 0.417039 0.168822
Si Si4 0.274448 0.586371 0.169317
Si Si5 0.138771 0.917891 0.233162
Si Si6 0.136259 0.418767 0.438752
Si Si7 0.505361 0.415407 0.251823
Si Si8 0.636183 0.417233 0.934413
O O1 0.480601 0.250000 0.108014
O O2 0.562338 0.475011 0.085758
O O3 0.502590 0.451110 0.184941
O O4 0.428259 0.502765 0.093980
O O5 0.651853 0.750000 0.752996
O O6 0.700866 0.947337 0.681730
O O7 0.569564 0.956950 0.719577
O O8 0.673796 0.996509 0.791383
O O9 0.697969 0.250000 0.178954
O O10 0.668102 0.509867 0.209756
O O11 0.699716 0.463757 0.103858
O O12 0.289091 0.750000 0.185740
O O13 0.192725 0.549843 0.181107
O O14 0.293542 0.555989 0.103226
O O15 0.128975 0.750000 0.243909
O O16 0.064130 0.987975 0.217427
O O17 0.133040 0.250000 0.442223
O O18 0.150271 0.480347 0.502150
O O19 0.524125 0.250000 0.262348
O O20 0.617156 0.250000 0.936752
#
# Coordination Sequence:
#
# PCOD8250239 Si02
#       8
#     8   8   8   8   8   8   8   8
#     4  10  18  29  42  61  90 117 144 177 204 240
#     4   9  17  28  46  65  83 110 142 174 216 259
#     4   9  16  30  47  63  84 111 142 179 216 251
#     4   9  18  30  42  61  87 111 141 179 211 248
#     4  10  19  29  43  63  86 112 142 176 215 255
#     4   9  17  29  44  61  84 115 147 176 208 244
#     4  10  18  29  44  65  89 114 142 175 213 256
#     4  10  19  30  44  61  84 117 149 175 206 247
#
# _framework density 15.356928
#
# number of rings (size 3 to 8) (size 9 to 14) (size 15 to 20)
#    0.000    2.500    2.500    0.750    0.000    1.500 
#    0.000    0.625    0.000    0.000    0.000    0.875 
#    0.000    0.000    0.000    0.000    0.000    0.000 
#
# Total GULP energy -793316.153158 kJ/mol
# GULP energy per Si atom -12395.564893 kJ/mol
# Density = 1.532198 g / cm^3
# Si number density = 15.356928 Si / 1000 Ang^3
#
#
#
# Elastic Constant Matrix: (Units=GPa)
#
#
# Indices 1 2 3 4 5 6 
#
# 1 130.4788 45.0121 58.7444 0.0000 0.0000 0.0000
# 2 45.0121 43.7438 26.3471 0.0000 0.0000 0.0000
# 3 58.7444 26.3471 73.7394 0.0000 0.0000 0.0000
# 4 0.0000 0.0000 0.0000 12.2970 0.0000 0.0000
# 5 0.0000 0.0000 0.0000 0.0000 19.7079 0.0000
# 6 0.0000 0.0000 0.0000 0.0000 0.0000 19.5739
#
#
#
# Elastic Compliance Matrix: (Units=1/GPa)
#
#
# Indices 1 2 3 4 5 6 
#
# 1 0.014954 -0.010464 -0.008174 0.000000 0.000000 0.000000
# 2 -0.010464 0.036452 -0.004688 0.000000 0.000000 0.000000
# 3 -0.008174 -0.004688 0.021748 0.000000 0.000000 0.000000
# 4 0.000000 0.000000 0.000000 0.081321 0.000000 0.000000
# 5 0.000000 0.000000 0.000000 0.000000 0.050741 0.000000
# 6 0.000000 0.000000 0.000000 0.000000 0.000000 0.051088
#
#
# Mechanical properties :
#
#
# Convention : Reuss Voigt Hill
#
# Bulk Modulus (GPa) = 37.73413 56.46324 47.09868
# Shear Modulus (GPa) = 16.03636 18.17299 17.10468
#
# Velocity S-wave (km/s) = 3.23498 3.44375 3.34100
# Velocity P-wave (km/s) = 6.21114 7.25670 6.75418
#
# Compressibility (1/GPa) = 0.02650121
#
# Stress axis : x y z
#
# Youngs Moduli (GPa) = 66.87010 27.43357 45.98051
#
# Poissons Ratio (x) = 0.28708 0.37586
# Poissons Ratio (y) = 0.69976 0.21554
# Poissons Ratio (z) = 0.54662 0.12860
#
# Static dielectric constant tensor:
#      x y z
#    x 3.174250 0.000000 0.000000 
#    y 0.000000 2.898230 0.000000 
#    z 0.000000 0.000000 3.076830 
# 
# 
# High freq. dielectric constant tensor:
#      x y z
#    x 1.588380 0.000000 0.000000 
#    y 0.000000 1.581260 0.000000 
#    z 0.000000 0.000000 1.562740 
# 
# From -- ./inp_files/27894.got.cif
#   From: 2010.03.12/outbox.cif.g09.slc.cpg/sg62_14_cif.got.tgz:27894.got - 2010.04.10 19:12:36.
