data_PCOD8250440
_publ_section_title
;
Structure prediction by ZEFSAII (Michael W. Deem and Ramdas Pophale) SiO2 
 PCOD8250440
Probable space group: P N M A
;
_chemical_formula_sum "Si O2"
_cell_formula_units_Z 64
_cell_length_a 14.286287
_cell_length_b 8.759226
_cell_length_c 30.190718
_cell_angle_alpha 90.000000
_cell_angle_beta 90.000000
_cell_angle_gamma 90.000000
_cell_volume 3777.970339
_symmetry_space_group_name_H-M "P N M A"
_symmetry_group_IT_number 62
_symmetry_cell_setting 'orthorhombic'
loop_
_space_group_symop_operation_xyz
x,y,z
1/2-x,-y,1/2+z
1/2+x,1/2-y,1/2-z
-x,1/2+y,-z
-x,-y,-z
1/2+x,y,1/2-z
1/2-x,1/2+y,1/2+z
x,1/2-y,z
loop_
_atom_site_type_symbol
_atom_site_label
_atom_site_fract_x
_atom_site_fract_y
_atom_site_fract_z
Si Si1 0.297129 0.931899 0.372995
Si Si2 0.329323 0.929992 0.802793
Si Si3 0.334055 0.077608 0.631286
Si Si4 0.228029 0.429159 0.717317
Si Si5 0.886396 0.071414 0.045197
Si Si6 0.487442 0.928818 0.226225
Si Si7 0.973517 0.578593 0.177333
Si Si8 0.101438 0.428377 0.047213
O O1 0.291453 0.750000 0.372965
O O2 0.384778 0.000926 0.345254
O O3 0.206561 0.001918 0.349381
O O4 0.311509 0.988060 0.423135
O O5 0.318998 0.750000 0.803095
O O6 0.271590 0.993367 0.760692
O O7 0.438348 0.977284 0.802541
O O8 0.300390 0.250000 0.620717
O O9 0.274706 0.007602 0.672018
O O10 0.442210 0.075688 0.643661
O O11 0.328672 0.974699 0.587277
O O12 0.249881 0.250000 0.722117
O O13 0.118427 0.463414 0.711565
O O14 0.869943 0.250000 0.049322
O O15 0.993479 0.026711 0.057568
O O16 0.863231 0.018905 0.995585
O O17 0.511871 0.750000 0.222374
O O18 0.500609 0.996156 0.275902
O O19 0.941623 0.750000 0.189275
O O20 0.110347 0.250000 0.037834
#
# Coordination Sequence:
#
# PCOD8250440 Si02
#       8
#     8   8   8   8   8   8   8   8
#     4  11  20  34  53  74 100 138 178 211 253 307
#     4  12  24  34  48  75 107 137 171 214 262 307
#     4  10  18  31  50  75 102 133 173 214 254 298
#     4  10  20  35  55  75  98 136 181 217 254 304
#     4  10  20  33  49  73 103 134 170 214 257 300
#     4  10  19  36  54  71  97 136 181 218 251 297
#     4   9  16  27  50  74  97 130 172 213 248 292
#     4  10  20  32  48  73 104 138 170 204 253 311
#
# _framework density 16.940313
#
# number of rings (size 3 to 8) (size 9 to 14) (size 15 to 20)
#    0.000    1.750    3.750    2.250    0.000    2.000 
#    0.000    0.000    0.000    0.000    0.000    0.875 
#    0.000    0.000    0.000    0.000    0.000    0.000 
#
# Total GULP energy -793427.357284 kJ/mol
# GULP energy per Si atom -12397.302458 kJ/mol
# Density = 1.690176 g / cm^3
# Si number density = 16.940313 Si / 1000 Ang^3
#
#
#
# Elastic Constant Matrix: (Units=GPa)
#
#
# Indices 1 2 3 4 5 6 
#
# 1 58.7236 25.5950 27.5366 0.0000 0.0000 0.0000
# 2 25.5950 71.9801 37.2789 0.0000 0.0000 0.0000
# 3 27.5366 37.2789 100.3823 0.0000 0.0000 0.0000
# 4 0.0000 0.0000 0.0000 28.3799 0.0000 0.0000
# 5 0.0000 0.0000 0.0000 0.0000 29.7858 0.0000
# 6 0.0000 0.0000 0.0000 0.0000 0.0000 18.0250
#
#
#
# Elastic Compliance Matrix: (Units=1/GPa)
#
#
# Indices 1 2 3 4 5 6 
#
# 1 0.021228 -0.005612 -0.003739 0.000000 0.000000 0.000000
# 2 -0.005612 0.018685 -0.005399 0.000000 0.000000 0.000000
# 3 -0.003739 -0.005399 0.012993 0.000000 0.000000 0.000000
# 4 0.000000 0.000000 0.000000 0.035236 0.000000 0.000000
# 5 0.000000 0.000000 0.000000 0.000000 0.033573 0.000000
# 6 0.000000 0.000000 0.000000 0.000000 0.000000 0.055479
#
#
# Mechanical properties :
#
#
# Convention : Reuss Voigt Hill
#
# Bulk Modulus (GPa) = 42.72654 45.76742 44.24698
# Shear Modulus (GPa) = 23.31043 24.61650 23.96347
#
# Velocity S-wave (km/s) = 3.71352 3.81613 3.76517
# Velocity P-wave (km/s) = 6.60784 6.81855 6.71402
#
# Compressibility (1/GPa) = 0.02340466
#
# Stress axis : x y z
#
# Youngs Moduli (GPa) = 47.10699 53.51986 76.96547
#
# Poissons Ratio (x) = 0.30035 0.28779
# Poissons Ratio (y) = 0.26436 0.41557
# Poissons Ratio (z) = 0.17614 0.28898
#
# Static dielectric constant tensor:
#      x y z
#    x 3.045240 0.000000 0.000000 
#    y 0.000000 3.036980 0.000000 
#    z 0.000000 0.000000 3.195440 
# 
# 
# High freq. dielectric constant tensor:
#      x y z
#    x 1.625300 0.000000 0.000000 
#    y 0.000000 1.643640 0.000000 
#    z 0.000000 0.000000 1.650000 
# 
# From -- ./inp_files/32705.got.cif
#   From: 2010.03.12/outbox.cif.g09.slc.cpg/sg62_17_cif.got.tgz:32705.got - 2010.04.10 19:12:36.
