data_PCOD8250464
_publ_section_title
;
Structure prediction by ZEFSAII (Michael W. Deem and Ramdas Pophale) SiO2 
 PCOD8250464
Probable space group: P N M A
;
_chemical_formula_sum "Si O2"
_cell_formula_units_Z 56
_cell_length_a 15.259041
_cell_length_b 9.395612
_cell_length_c 21.237260
_cell_angle_alpha 90.000000
_cell_angle_beta 90.000000
_cell_angle_gamma 90.000000
_cell_volume 3044.744102
_symmetry_space_group_name_H-M "P N M A"
_symmetry_group_IT_number 62
_symmetry_cell_setting 'orthorhombic'
loop_
_space_group_symop_operation_xyz
x,y,z
1/2-x,-y,1/2+z
1/2+x,1/2-y,1/2-z
-x,1/2+y,-z
-x,-y,-z
1/2+x,y,1/2-z
1/2-x,1/2+y,1/2+z
x,1/2-y,z
loop_
_atom_site_type_symbol
_atom_site_label
_atom_site_fract_x
_atom_site_fract_y
_atom_site_fract_z
Si Si1 0.785934 0.585600 0.104917
Si Si2 0.525217 0.079602 0.563657
Si Si3 0.593433 0.411013 0.790946
Si Si4 0.530010 0.584123 0.906159
Si Si5 0.116730 0.912128 0.465387
Si Si6 0.552656 0.916106 0.307518
Si Si7 0.780312 0.413289 0.735476
O O1 0.802987 0.750000 0.121685
O O2 0.878805 0.521471 0.084073
O O3 0.719579 0.564511 0.046668
O O4 0.743063 0.514317 0.167829
O O5 0.524690 0.250000 0.552722
O O6 0.458843 0.032303 0.620005
O O7 0.500000 0.000000 0.500000
O O8 0.571095 0.250000 0.812743
O O9 0.571548 0.523599 0.843734
O O10 0.537725 0.449693 0.728852
O O11 0.696117 0.427379 0.779416
O O12 0.513972 0.750000 0.897886
O O13 0.436684 0.511704 0.918074
O O14 0.596871 0.547739 0.962671
O O15 0.088729 0.750000 0.451085
O O16 0.570630 0.750000 0.310543
O O17 0.636371 0.987180 0.271195
O O18 0.805874 0.250000 0.722438
#
# Coordination Sequence:
#
# PCOD8250464 Si02
#       7
#     8   8   8   8   8   8   8
#     4   9  16  31  54  77 100 132 178 221 258 307
#     4  10  20  35  54  77 106 139 175 218 264 312
#     4  10  18  31  52  75  98 130 169 210 255 304
#     4  10  20  32  47  74 108 135 163 209 264 308
#     4   9  18  33  53  73  97 136 178 211 249 307
#     4   9  17  31  52  78 104 129 171 224 261 299
#     4   9  16  27  50  79  99 125 171 221 260 296
#
# _framework density 18.392351000000001
#
# number of rings (size 3 to 8) (size 9 to 14) (size 15 to 20)
#    0.000    2.571    1.429    1.286    0.000    4.000 
#    0.000    1.429    0.000    3.429    0.000    0.000 
#    0.000    0.000    0.000    0.000    0.000    0.000 
#
# Total GULP energy -694106.125400 kJ/mol
# GULP energy per Si atom -12394.752239 kJ/mol
# Density = 1.835049 g / cm^3
# Si number density = 18.392351 Si / 1000 Ang^3
#
#
#
# Elastic Constant Matrix: (Units=GPa)
#
#
# Indices 1 2 3 4 5 6 
#
# 1 119.3062 19.8600 58.3021 0.0000 0.0000 0.0000
# 2 19.8600 35.8674 27.1767 0.0000 0.0000 0.0000
# 3 58.3021 27.1767 119.3706 0.0000 0.0000 0.0000
# 4 0.0000 0.0000 0.0000 28.1567 0.0000 0.0000
# 5 0.0000 0.0000 0.0000 0.0000 28.4365 0.0000
# 6 0.0000 0.0000 0.0000 0.0000 0.0000 12.5003
#
#
#
# Elastic Compliance Matrix: (Units=1/GPa)
#
#
# Indices 1 2 3 4 5 6 
#
# 1 0.011190 -0.002483 -0.004900 0.000000 0.000000 0.000000
# 2 -0.002483 0.034244 -0.006583 0.000000 0.000000 0.000000
# 3 -0.004900 -0.006583 0.012269 0.000000 0.000000 0.000000
# 4 0.000000 0.000000 0.000000 0.035516 0.000000 0.000000
# 5 0.000000 0.000000 0.000000 0.000000 0.035166 0.000000
# 6 0.000000 0.000000 0.000000 0.000000 0.000000 0.079998
#
#
# Mechanical properties :
#
#
# Convention : Reuss Voigt Hill
#
# Bulk Modulus (GPa) = 33.59107 53.91353 43.75230
# Shear Modulus (GPa) = 20.30559 25.09907 22.70233
#
# Velocity S-wave (km/s) = 3.32629 3.69812 3.51712
# Velocity P-wave (km/s) = 5.74939 6.90011 6.35087
#
# Compressibility (1/GPa) = 0.02976982
#
# Stress axis : x y z
#
# Youngs Moduli (GPa) = 89.36907 29.20255 81.50503
#
# Poissons Ratio (x) = 0.07251 0.39936
# Poissons Ratio (y) = 0.22192 0.53657
# Poissons Ratio (z) = 0.43789 0.19225
#
# Static dielectric constant tensor:
#      x y z
#    x 3.580390 0.000000 0.000000 
#    y 0.000000 2.940270 0.000000 
#    z 0.000000 0.000000 3.482140 
# 
# 
# High freq. dielectric constant tensor:
#      x y z
#    x 1.721220 0.000000 0.000000 
#    y 0.000000 1.656500 0.000000 
#    z 0.000000 0.000000 1.721230 
# 
# From -- ./inp_files/27215.got.cif
#   From: 2010.03.12/outbox.cif.g09.slc.cpg/sg62_14_cif.got.tgz:27215.got - 2010.04.10 19:12:36.
