data_PCOD8250192
_publ_section_title
;
Structure prediction by ZEFSAII (Michael W. Deem and Ramdas Pophale) SiO2 
 PCOD8250192
Probable space group: P N M A
;
_chemical_formula_sum "Si O2"
_cell_formula_units_Z 56
_cell_length_a 13.674583
_cell_length_b 9.004640
_cell_length_c 29.118278
_cell_angle_alpha 90.000000
_cell_angle_beta 90.000000
_cell_angle_gamma 90.000000
_cell_volume 3585.470341
_symmetry_space_group_name_H-M "P N M A"
_symmetry_group_IT_number 62
_symmetry_cell_setting 'orthorhombic'
loop_
_space_group_symop_operation_xyz
x,y,z
1/2-x,-y,1/2+z
1/2+x,1/2-y,1/2-z
-x,1/2+y,-z
-x,-y,-z
1/2+x,y,1/2-z
1/2-x,1/2+y,1/2+z
x,1/2-y,z
loop_
_atom_site_type_symbol
_atom_site_label
_atom_site_fract_x
_atom_site_fract_y
_atom_site_fract_z
Si Si1 0.109560 0.074976 0.899881
Si Si2 0.899336 0.919691 0.000691
Si Si3 0.600808 0.076589 0.401096
Si Si4 0.293137 0.419254 0.677627
Si Si5 0.112553 0.921000 0.273424
Si Si6 0.892278 0.577788 0.265658
Si Si7 0.289786 0.074399 0.316747
O O1 0.108059 0.250000 0.889021
O O2 0.154440 0.039566 0.951208
O O3 0.181989 0.992609 0.865662
O O4 0.999237 0.014480 0.894730
O O5 0.927909 0.750000 0.003391
O O6 0.848085 0.953791 0.951437
O O7 0.000000 0.000000 0.000000
O O8 0.576925 0.250000 0.394442
O O9 0.680139 0.026985 0.363907
O O10 0.302481 0.250000 0.660814
O O11 0.365852 0.450273 0.719927
O O12 0.182326 0.455911 0.692958
O O13 0.135417 0.750000 0.285544
O O14 0.000271 0.963110 0.283163
O O15 0.179812 0.023415 0.305181
O O16 0.885215 0.750000 0.250722
O O17 0.866283 0.480962 0.221347
O O18 0.293819 0.250000 0.319257
#
# Coordination Sequence:
#
# PCOD8250192 Si02
#       7
#     8   8   8   8   8   8   8
#     4  10  18  30  46  62  86 120 152 180 214 259
#     4   8  16  28  42  61  85 114 146 179 216 259
#     4  10  18  28  43  66  93 117 145 182 222 259
#     4   9  17  28  44  67  90 116 149 177 211 261
#     4   9  18  33  49  63  84 116 151 183 212 250
#     4   9  18  33  50  65  86 118 153 183 210 252
#     4  11  21  30  44  68  93 115 143 180 222 262
#
# _framework density 15.618593000000001
#
# number of rings (size 3 to 8) (size 9 to 14) (size 15 to 20)
#    0.000    2.571    0.000    3.857    0.000    5.143 
#    0.000    0.000    0.000    0.000    0.000    1.000 
#    0.000    0.000    0.000    0.000    0.000    0.000 
#
# Total GULP energy -693988.962468 kJ/mol
# GULP energy per Si atom -12392.660044 kJ/mol
# Density = 1.558304 g / cm^3
# Si number density = 15.618593 Si / 1000 Ang^3
#
#
#
# Elastic Constant Matrix: (Units=GPa)
#
#
# Indices 1 2 3 4 5 6 
#
# 1 89.0212 38.4228 50.3691 0.0000 0.0000 0.0000
# 2 38.4228 85.5497 59.4463 0.0000 0.0000 0.0000
# 3 50.3691 59.4463 124.3178 0.0000 0.0000 0.0000
# 4 0.0000 0.0000 0.0000 24.3392 0.0000 0.0000
# 5 0.0000 0.0000 0.0000 0.0000 18.8527 0.0000
# 6 0.0000 0.0000 0.0000 0.0000 0.0000 19.4888
#
#
#
# Elastic Compliance Matrix: (Units=1/GPa)
#
#
# Indices 1 2 3 4 5 6 
#
# 1 0.015381 -0.003860 -0.004386 0.000000 0.000000 0.000000
# 2 -0.003860 0.018475 -0.007270 0.000000 0.000000 0.000000
# 3 -0.004386 -0.007270 0.013297 0.000000 0.000000 0.000000
# 4 0.000000 0.000000 0.000000 0.041086 0.000000 0.000000
# 5 0.000000 0.000000 0.000000 0.000000 0.053043 0.000000
# 6 0.000000 0.000000 0.000000 0.000000 0.000000 0.051312
#
#
# Mechanical properties :
#
#
# Convention : Reuss Voigt Hill
#
# Bulk Modulus (GPa) = 62.03379 66.15169 64.09274
# Shear Modulus (GPa) = 21.83409 22.57952 22.20681
#
# Velocity S-wave (km/s) = 3.74298 3.80634 3.77479
# Velocity P-wave (km/s) = 7.64748 7.85901 7.75397
#
# Compressibility (1/GPa) = 0.01612025
#
# Stress axis : x y z
#
# Youngs Moduli (GPa) = 65.01495 54.12786 75.20306
#
# Poissons Ratio (x) = 0.20896 0.32983
# Poissons Ratio (y) = 0.25099 0.54674
# Poissons Ratio (z) = 0.28515 0.39352
#
# Static dielectric constant tensor:
#      x y z
#    x 2.807330 0.000000 0.000000 
#    y 0.000000 3.013990 0.000000 
#    z 0.000000 0.000000 3.476510 
# 
# 
# High freq. dielectric constant tensor:
#      x y z
#    x 1.566280 0.000000 0.000000 
#    y 0.000000 1.607120 0.000000 
#    z 0.000000 0.000000 1.600330 
# 
# From -- ./inp_files/32640.got.cif
#   From: 2010.03.12/outbox.cif.g09.slc.cpg/sg62_17_cif.got.tgz:32640.got - 2010.04.10 19:12:36.
