data_PCOD8250812
_publ_section_title
;
Structure prediction by ZEFSAII (Michael W. Deem and Ramdas Pophale) SiO2 
 PCOD8250812
Probable space group: P N M A
;
_chemical_formula_sum "Si O2"
_cell_formula_units_Z 56
_cell_length_a 10.247595
_cell_length_b 23.391655
_cell_length_c 11.727653
_cell_angle_alpha 90.000000
_cell_angle_beta 90.000000
_cell_angle_gamma 90.000000
_cell_volume 2811.214671
_symmetry_space_group_name_H-M "P N M A"
_symmetry_group_IT_number 62
_symmetry_cell_setting 'orthorhombic'
loop_
_space_group_symop_operation_xyz
x,y,z
1/2-x,-y,1/2+z
1/2+x,1/2-y,1/2-z
-x,1/2+y,-z
-x,-y,-z
1/2+x,y,1/2-z
1/2-x,1/2+y,1/2+z
x,1/2-y,z
loop_
_atom_site_type_symbol
_atom_site_label
_atom_site_fract_x
_atom_site_fract_y
_atom_site_fract_z
Si Si1 0.472740 0.317222 0.522254
Si Si2 0.704995 0.110702 0.606893
Si Si3 0.302509 0.408181 0.135668
Si Si4 0.917192 0.977206 0.395706
Si Si5 0.212733 0.891721 0.141670
Si Si6 0.997304 0.521053 0.154478
Si Si7 0.981180 0.893404 0.814222
O O1 0.485531 0.250000 0.513933
O O2 0.592172 0.341496 0.597515
O O3 0.334313 0.333598 0.580923
O O4 0.473870 0.342514 0.395289
O O5 0.798582 0.114610 0.495329
O O6 0.784480 0.121404 0.722901
O O7 0.640936 0.047463 0.613790
O O8 0.303404 0.477143 0.134553
O O9 0.435910 0.387256 0.197603
O O10 0.175189 0.387976 0.207462
O O11 0.851665 0.914337 0.408323
O O12 0.016748 0.974733 0.290760
O O13 0.000000 0.000000 0.500000
O O14 0.112617 0.941284 0.102969
O O15 0.998383 0.454147 0.118893
#
# Coordination Sequence:
#
# PCOD8250812 Si02
#       7
#     8   8   8   8   8   8   8
#     4  10  23  39  57  79 112 163 212 249 292 347
#     4   9  20  35  58  84 116 149 193 248 305 365
#     4  10  20  35  57  85 117 156 189 237 308 364
#     4  10  19  29  51  86 125 151 185 234 301 384
#     4  10  19  35  57  85 119 152 196 247 309 367
#     4   9  18  32  52  83 119 152 182 233 310 371
#     4  10  21  37  58  84 120 156 197 244 298 362
#
# _framework density 19.920216
#
# number of rings (size 3 to 8) (size 9 to 14) (size 15 to 20)
#    0.000    2.286    1.429    0.857    2.000    4.571 
#    0.000    2.857    0.000    0.000    0.000    3.000 
#    0.000    0.000    0.000    0.000    0.000    0.000 
#
# Total GULP energy -693958.351638 kJ/mol
# GULP energy per Si atom -12392.113422 kJ/mol
# Density = 1.987488 g / cm^3
# Si number density = 19.920216 Si / 1000 Ang^3
#
#
#
# Elastic Constant Matrix: (Units=GPa)
#
#
# Indices 1 2 3 4 5 6 
#
# 1 72.7556 19.2389 45.4882 0.0000 0.0000 0.0000
# 2 19.2389 103.8422 27.3252 0.0000 0.0000 0.0000
# 3 45.4882 27.3252 101.9542 0.0000 0.0000 0.0000
# 4 0.0000 0.0000 0.0000 20.5446 0.0000 0.0000
# 5 0.0000 0.0000 0.0000 0.0000 33.3404 0.0000
# 6 0.0000 0.0000 0.0000 0.0000 0.0000 18.0631
#
#
#
# Elastic Compliance Matrix: (Units=1/GPa)
#
#
# Indices 1 2 3 4 5 6 
#
# 1 0.019251 -0.001406 -0.008212 0.000000 0.000000 0.000000
# 2 -0.001406 0.010463 -0.002177 0.000000 0.000000 0.000000
# 3 -0.008212 -0.002177 0.014056 0.000000 0.000000 0.000000
# 4 0.000000 0.000000 0.000000 0.048675 0.000000 0.000000
# 5 0.000000 0.000000 0.000000 0.000000 0.029994 0.000000
# 6 0.000000 0.000000 0.000000 0.000000 0.000000 0.055361
#
#
# Mechanical properties :
#
#
# Convention : Reuss Voigt Hill
#
# Bulk Modulus (GPa) = 49.55444 51.40630 50.48037
# Shear Modulus (GPa) = 24.02502 26.82294 25.42398
#
# Velocity S-wave (km/s) = 3.47661 3.67347 3.57640
# Velocity P-wave (km/s) = 6.40673 6.62229 6.51540
#
# Compressibility (1/GPa) = 0.02017983
#
# Stress axis : x y z
#
# Youngs Moduli (GPa) = 51.94588 95.57192 71.14474
#
# Poissons Ratio (x) = 0.13434 0.58426
# Poissons Ratio (y) = 0.07302 0.15490
# Poissons Ratio (z) = 0.42659 0.20808
#
# Static dielectric constant tensor:
#      x y z
#    x 3.636560 0.000000 0.000000 
#    y 0.000000 3.270600 0.000000 
#    z 0.000000 0.000000 3.585080 
# 
# 
# High freq. dielectric constant tensor:
#      x y z
#    x 1.776290 0.000000 0.000000 
#    y 0.000000 1.727810 0.000000 
#    z 0.000000 0.000000 1.779540 
# 
# From -- ./inp_files/12506.got.cif
#   From: 2010.03.12/outbox.cif.g09.slc.cpg/sg62_7_cif.got.tgz:12506.got - 2010.04.10 19:12:36.
