data_PCOD8250278
_publ_section_title
;
Structure prediction by ZEFSAII (Michael W. Deem and Ramdas Pophale) SiO2 
 PCOD8250278
Probable space group: P N M A
;
_chemical_formula_sum "Si O2"
_cell_formula_units_Z 56
_cell_length_a 21.071596
_cell_length_b 8.623120
_cell_length_c 18.237516
_cell_angle_alpha 90.000000
_cell_angle_beta 90.000000
_cell_angle_gamma 90.000000
_cell_volume 3313.809562
_symmetry_space_group_name_H-M "P N M A"
_symmetry_group_IT_number 62
_symmetry_cell_setting 'orthorhombic'
loop_
_space_group_symop_operation_xyz
x,y,z
1/2-x,-y,1/2+z
1/2+x,1/2-y,1/2-z
-x,1/2+y,-z
-x,-y,-z
1/2+x,y,1/2-z
1/2-x,1/2+y,1/2+z
x,1/2-y,z
loop_
_atom_site_type_symbol
_atom_site_label
_atom_site_fract_x
_atom_site_fract_y
_atom_site_fract_z
Si Si1 0.626993 0.432827 0.657796
Si Si2 0.304373 0.428968 0.219516
Si Si3 0.495478 0.433605 0.419293
Si Si4 0.251399 0.430183 0.419156
Si Si5 0.315244 0.429604 0.793156
Si Si6 0.623356 0.068352 0.338526
Si Si7 0.747438 0.427785 0.427635
O O1 0.624327 0.250000 0.667369
O O2 0.632205 0.513570 0.738735
O O3 0.563242 0.491255 0.621388
O O4 0.686078 0.477356 0.606135
O O5 0.289610 0.250000 0.239698
O O6 0.249685 0.539139 0.250326
O O7 0.305123 0.447781 0.131314
O O8 0.500000 0.500000 0.500000
O O9 0.487675 0.250000 0.422558
O O10 0.558404 0.484088 0.375949
O O11 0.264712 0.250000 0.408559
O O12 0.189977 0.481505 0.371211
O O13 0.236511 0.465264 0.503648
O O14 0.324650 0.250000 0.809691
O O15 0.372615 0.488873 0.741704
O O16 0.627043 0.250000 0.324864
O O17 0.681362 0.017202 0.391010
O O18 0.741916 0.250000 0.453678
#
# Coordination Sequence:
#
# PCOD8250278 Si02
#       7
#     8   8   8   8   8   8   8
#     4  11  21  33  48  67  96 129 163 199 233 276
#     4   9  17  31  49  67  91 122 156 194 237 283
#     4  11  22  35  51  71  97 129 164 198 233 274
#     4  11  20  30  47  70  97 126 158 195 237 284
#     4  10  18  29  47  68  92 121 155 194 235 281
#     4   9  19  34  49  66  93 127 159 194 233 276
#     4   9  17  30  48  71  97 122 152 194 242 284
#
# _framework density 16.898980000000002
#
# number of rings (size 3 to 8) (size 9 to 14) (size 15 to 20)
#    0.000    2.000    0.000    8.143    0.000    5.143 
#    0.000    0.000    0.000    0.000    0.000    1.000 
#    0.000    0.000    0.000    0.000    0.000    0.000 
#
# Total GULP energy -694209.606555 kJ/mol
# GULP energy per Si atom -12396.600117 kJ/mol
# Density = 1.686052 g / cm^3
# Si number density = 16.898980 Si / 1000 Ang^3
#
#
#
# Elastic Constant Matrix: (Units=GPa)
#
#
# Indices 1 2 3 4 5 6 
#
# 1 72.0943 34.3313 60.8993 0.0000 0.0000 0.0000
# 2 34.3313 77.8603 49.1761 0.0000 0.0000 0.0000
# 3 60.8993 49.1761 137.7863 0.0000 0.0000 0.0000
# 4 0.0000 0.0000 0.0000 32.3210 0.0000 0.0000
# 5 0.0000 0.0000 0.0000 0.0000 28.7498 0.0000
# 6 0.0000 0.0000 0.0000 0.0000 0.0000 20.6775
#
#
#
# Elastic Compliance Matrix: (Units=1/GPa)
#
#
# Indices 1 2 3 4 5 6 
#
# 1 0.023503 -0.004909 -0.008636 0.000000 0.000000 0.000000
# 2 -0.004909 0.017606 -0.004114 0.000000 0.000000 0.000000
# 3 -0.008636 -0.004114 0.012543 0.000000 0.000000 0.000000
# 4 0.000000 0.000000 0.000000 0.030940 0.000000 0.000000
# 5 0.000000 0.000000 0.000000 0.000000 0.034783 0.000000
# 6 0.000000 0.000000 0.000000 0.000000 0.000000 0.048362
#
#
# Mechanical properties :
#
#
# Convention : Reuss Voigt Hill
#
# Bulk Modulus (GPa) = 54.54185 64.06159 59.30172
# Shear Modulus (GPa) = 23.90435 25.90529 24.90482
#
# Velocity S-wave (km/s) = 3.76512 3.91954 3.84311
# Velocity P-wave (km/s) = 7.15869 7.64687 7.40680
#
# Compressibility (1/GPa) = 0.01833454
#
# Stress axis : x y z
#
# Youngs Moduli (GPa) = 42.54696 56.79725 79.72590
#
# Poissons Ratio (x) = 0.27881 0.68852
# Poissons Ratio (y) = 0.20886 0.32800
# Poissons Ratio (z) = 0.36744 0.23367
#
# Static dielectric constant tensor:
#      x y z
#    x 3.067180 0.000000 0.000000 
#    y 0.000000 3.217020 0.000000 
#    z 0.000000 0.000000 3.462590 
# 
# 
# High freq. dielectric constant tensor:
#      x y z
#    x 1.606560 0.000000 0.000000 
#    y 0.000000 1.664620 0.000000 
#    z 0.000000 0.000000 1.658360 
# 
# From -- ./inp_files/24591.got.cif
#   From: 2010.03.12/outbox.cif.g09.slc.cpg/sg62_13_cif.got.tgz:24591.got - 2010.04.10 19:12:36.
