data_PCOD8250718
_publ_section_title
;
Structure prediction by ZEFSAII (Michael W. Deem and Ramdas Pophale) SiO2 
 PCOD8250718
Probable space group: P N M A
;
_chemical_formula_sum "Si O2"
_cell_formula_units_Z 48
_cell_length_a 17.943908
_cell_length_b 14.155325
_cell_length_c 10.138754
_cell_angle_alpha 90.000000
_cell_angle_beta 90.000000
_cell_angle_gamma 90.000000
_cell_volume 2575.262268
_symmetry_space_group_name_H-M "P N M A"
_symmetry_group_IT_number 62
_symmetry_cell_setting 'orthorhombic'
loop_
_space_group_symop_operation_xyz
x,y,z
1/2-x,-y,1/2+z
1/2+x,1/2-y,1/2-z
-x,1/2+y,-z
-x,-y,-z
1/2+x,y,1/2-z
1/2-x,1/2+y,1/2+z
x,1/2-y,z
loop_
_atom_site_type_symbol
_atom_site_label
_atom_site_fract_x
_atom_site_fract_y
_atom_site_fract_z
Si Si1 0.319090 0.640370 0.074110
Si Si2 0.461888 0.408049 0.445061
Si Si3 0.650889 0.477317 0.683133
Si Si4 0.681957 0.036171 0.189990
Si Si5 0.652342 0.854517 0.334244
Si Si6 0.620568 0.353502 0.429615
O O1 0.342260 0.750000 0.055794
O O2 0.363048 0.597517 0.199757
O O3 0.230577 0.630207 0.091861
O O4 0.344172 0.576613 0.950483
O O5 0.500000 0.500000 0.500000
O O6 0.411083 0.438835 0.319111
O O7 0.412432 0.359556 0.557820
O O8 0.531245 0.342403 0.405488
O O9 0.729681 0.527170 0.697502
O O10 0.645694 0.423987 0.544008
O O11 0.643204 0.934244 0.220572
O O12 0.658541 0.112612 0.296578
O O13 0.649904 0.750000 0.268490
O O14 0.651885 0.250000 0.464240
#
# Coordination Sequence:
#
# PCOD8250718 Si02
#       6
#     8   8   8   8   8   8
#     4  10  20  33  55  84 117 151 185 232 291 342
#     4  10  18  36  58  84 111 147 190 239 284 320
#     4  10  19  36  57  82 115 152 190 232 284 339
#     4  11  19  36  55  85 117 148 187 239 288 330
#     4  10  19  34  57  82 111 151 193 232 283 340
#     4  11  22  36  61  87 113 147 194 237 280 340
#
# _framework density 18.638877999999998
#
# number of rings (size 3 to 8) (size 9 to 14) (size 15 to 20)
#    0.000    1.667    5.000    2.500    0.000    0.667 
#    0.000    0.833    0.000    2.000    0.000    0.000 
#    0.000    0.000    0.000    0.000    0.000    0.000 
#
# Total GULP energy -594930.809722 kJ/mol
# GULP energy per Si atom -12394.391869 kJ/mol
# Density = 1.859646 g / cm^3
# Si number density = 18.638878 Si / 1000 Ang^3
#
#
#
# Elastic Constant Matrix: (Units=GPa)
#
#
# Indices 1 2 3 4 5 6 
#
# 1 82.7076 14.5468 26.3283 0.0000 0.0000 0.0000
# 2 14.5468 75.4286 20.7791 0.0000 0.0000 0.0000
# 3 26.3283 20.7791 93.3501 0.0000 0.0000 0.0000
# 4 0.0000 0.0000 0.0000 22.8596 0.0000 0.0000
# 5 0.0000 0.0000 0.0000 0.0000 31.2584 0.0000
# 6 0.0000 0.0000 0.0000 0.0000 0.0000 19.1752
#
#
#
# Elastic Compliance Matrix: (Units=1/GPa)
#
#
# Indices 1 2 3 4 5 6 
#
# 1 0.013474 -0.001653 -0.003432 0.000000 0.000000 0.000000
# 2 -0.001653 0.014326 -0.002723 0.000000 0.000000 0.000000
# 3 -0.003432 -0.002723 0.012286 0.000000 0.000000 0.000000
# 4 0.000000 0.000000 0.000000 0.043745 0.000000 0.000000
# 5 0.000000 0.000000 0.000000 0.000000 0.031991 0.000000
# 6 0.000000 0.000000 0.000000 0.000000 0.000000 0.052151
#
#
# Mechanical properties :
#
#
# Convention : Reuss Voigt Hill
#
# Bulk Modulus (GPa) = 40.86483 41.64385 41.25434
# Shear Modulus (GPa) = 26.07594 27.31410 26.69502
#
# Velocity S-wave (km/s) = 3.74439 3.83226 3.78858
# Velocity P-wave (km/s) = 6.37699 6.47862 6.42801
#
# Compressibility (1/GPa) = 0.02447092
#
# Stress axis : x y z
#
# Youngs Moduli (GPa) = 74.21635 69.80111 81.39044
#
# Poissons Ratio (x) = 0.11538 0.27935
# Poissons Ratio (y) = 0.12268 0.22161
# Poissons Ratio (z) = 0.25473 0.19005
#
# Static dielectric constant tensor:
#      x y z
#    x 3.515770 0.000000 0.000000 
#    y 0.000000 3.782490 0.000000 
#    z 0.000000 0.000000 3.342280 
# 
# 
# High freq. dielectric constant tensor:
#      x y z
#    x 1.713350 0.000000 0.000000 
#    y 0.000000 1.737670 0.000000 
#    z 0.000000 0.000000 1.700670 
# 
# From -- ./inp_files/7678.got.cif
#   From: 2010.03.12/outbox.cif.g09.slc.cpg/sg62_4_cif.got.tgz:7678.got - 2010.04.10 19:12:36.
