data_PCOD8250840
_publ_section_title
;
Structure prediction by ZEFSAII (Michael W. Deem and Ramdas Pophale) SiO2 
 PCOD8250840
Probable space group: P N M A
;
_chemical_formula_sum "Si O2"
_cell_formula_units_Z 56
_cell_length_a 18.179964
_cell_length_b 8.951444
_cell_length_c 20.550847
_cell_angle_alpha 90.000000
_cell_angle_beta 90.000000
_cell_angle_gamma 90.000000
_cell_volume 3344.381743
_symmetry_space_group_name_H-M "P N M A"
_symmetry_group_IT_number 62
_symmetry_cell_setting 'orthorhombic'
loop_
_space_group_symop_operation_xyz
x,y,z
1/2-x,-y,1/2+z
1/2+x,1/2-y,1/2-z
-x,1/2+y,-z
-x,-y,-z
1/2+x,y,1/2-z
1/2-x,1/2+y,1/2+z
x,1/2-y,z
loop_
_atom_site_type_symbol
_atom_site_label
_atom_site_fract_x
_atom_site_fract_y
_atom_site_fract_z
Si Si1 0.076831 0.426753 0.745209
Si Si2 0.921994 0.076279 0.506357
Si Si3 0.923742 0.577085 0.761451
Si Si4 0.842536 0.425191 0.372854
Si Si5 0.206408 0.582576 0.178713
Si Si6 0.717276 0.414821 0.682437
Si Si7 0.655463 0.420659 0.124601
O O1 0.074892 0.250000 0.732239
O O2 0.100605 0.506394 0.678697
O O3 0.133405 0.465771 0.804050
O O4 0.998483 0.485661 0.767778
O O5 0.936719 0.250000 0.513791
O O6 0.872990 0.039427 0.443939
O O7 0.879882 0.020977 0.569592
O O8 0.000000 0.000000 0.500000
O O9 0.937868 0.750000 0.776954
O O10 0.868901 0.510718 0.815784
O O11 0.891408 0.555406 0.689600
O O12 0.835595 0.250000 0.358512
O O13 0.761882 0.498942 0.370026
O O14 0.190086 0.750000 0.152767
O O15 0.243921 0.591145 0.248286
O O16 0.719654 0.250000 0.650268
O O17 0.759787 0.529837 0.635754
O O18 0.655202 0.250000 0.101898
#
# Coordination Sequence:
#
# PCOD8250840 Si02
#       7
#     8   8   8   8   8   8   8
#     4  10  19  30  47  71  96 124 156 192 234 279
#     4  11  23  35  48  67  94 127 161 195 229 268
#     4  10  19  30  46  70  98 125 153 192 237 278
#     4  10  20  33  47  66  93 125 159 194 233 276
#     4   9  17  30  48  68  90 120 155 191 232 279
#     4   8  16  30  46  65  90 119 152 189 231 275
#     4  10  20  32  47  67  92 124 160 193 229 273
#
# _framework density 16.744499999999999
#
# number of rings (size 3 to 8) (size 9 to 14) (size 15 to 20)
#    0.000    2.286    0.000    4.286    0.000   11.429 
#    0.000    0.000    0.000    0.000    0.000    1.000 
#    0.000    0.000    0.000    0.000    0.000    0.000 
#
# Total GULP energy -694397.368915 kJ/mol
# GULP energy per Si atom -12399.953016 kJ/mol
# Density = 1.670639 g / cm^3
# Si number density = 16.744500 Si / 1000 Ang^3
#
#
#
# Elastic Constant Matrix: (Units=GPa)
#
#
# Indices 1 2 3 4 5 6 
#
# 1 112.0708 50.5257 38.8832 0.0000 0.0000 0.0000
# 2 50.5257 90.7057 44.6018 0.0000 0.0000 0.0000
# 3 38.8832 44.6018 51.0948 0.0000 0.0000 0.0000
# 4 0.0000 0.0000 0.0000 23.1992 0.0000 0.0000
# 5 0.0000 0.0000 0.0000 0.0000 18.8938 0.0000
# 6 0.0000 0.0000 0.0000 0.0000 0.0000 35.0984
#
#
#
# Elastic Compliance Matrix: (Units=1/GPa)
#
#
# Indices 1 2 3 4 5 6 
#
# 1 0.012959 -0.004151 -0.006238 0.000000 0.000000 0.000000
# 2 -0.004151 0.020645 -0.014863 0.000000 0.000000 0.000000
# 3 -0.006238 -0.014863 0.037293 0.000000 0.000000 0.000000
# 4 0.000000 0.000000 0.000000 0.043105 0.000000 0.000000
# 5 0.000000 0.000000 0.000000 0.000000 0.052927 0.000000
# 6 0.000000 0.000000 0.000000 0.000000 0.000000 0.028491
#
#
# Mechanical properties :
#
#
# Convention : Reuss Voigt Hill
#
# Bulk Modulus (GPa) = 49.03665 57.98808 53.51236
# Shear Modulus (GPa) = 19.78466 23.42901 21.60684
#
# Velocity S-wave (km/s) = 3.44111 3.74466 3.59609
# Velocity P-wave (km/s) = 6.71842 7.30773 7.01926
#
# Compressibility (1/GPa) = 0.02039291
#
# Stress axis : x y z
#
# Youngs Moduli (GPa) = 77.16858 48.43748 26.81495
#
# Poissons Ratio (x) = 0.20106 0.16727
# Poissons Ratio (y) = 0.32032 0.39854
# Poissons Ratio (z) = 0.48138 0.71991
#
# Static dielectric constant tensor:
#      x y z
#    x 3.526570 0.000000 0.000000 
#    y 0.000000 3.364780 0.000000 
#    z 0.000000 0.000000 2.951300 
# 
# 
# High freq. dielectric constant tensor:
#      x y z
#    x 1.650650 0.000000 0.000000 
#    y 0.000000 1.665510 0.000000 
#    z 0.000000 0.000000 1.600980 
# 
# From -- ./inp_files/27502.got.cif
#   From: 2010.03.12/outbox.cif.g09.slc.cpg/sg62_14_cif.got.tgz:27502.got - 2010.04.10 19:12:36.
