data_PCOD8250834
_publ_section_title
;
Structure prediction by ZEFSAII (Michael W. Deem and Ramdas Pophale) SiO2 
 PCOD8250834
Probable space group: P N M A
;
_chemical_formula_sum "Si O2"
_cell_formula_units_Z 64
_cell_length_a 23.133135
_cell_length_b 9.202004
_cell_length_c 17.521450
_cell_angle_alpha 90.000000
_cell_angle_beta 90.000000
_cell_angle_gamma 90.000000
_cell_volume 3729.812101
_symmetry_space_group_name_H-M "P N M A"
_symmetry_group_IT_number 62
_symmetry_cell_setting 'orthorhombic'
loop_
_space_group_symop_operation_xyz
x,y,z
1/2-x,-y,1/2+z
1/2+x,1/2-y,1/2-z
-x,1/2+y,-z
-x,-y,-z
1/2+x,y,1/2-z
1/2-x,1/2+y,1/2+z
x,1/2-y,z
loop_
_atom_site_type_symbol
_atom_site_label
_atom_site_fract_x
_atom_site_fract_y
_atom_site_fract_z
Si Si1 0.587284 0.915871 0.462081
Si Si2 0.970981 0.914675 0.093945
Si Si3 0.078983 0.413380 0.447980
Si Si4 0.625941 0.919458 0.825814
Si Si5 0.862392 0.914907 0.180838
Si Si6 0.520987 0.086360 0.887783
Si Si7 0.681829 0.580432 0.985828
Si Si8 0.810866 0.920110 0.017807
O O1 0.606725 0.750000 0.469830
O O2 0.540474 0.937327 0.392445
O O3 0.551836 0.963593 0.536514
O O4 0.646034 0.008637 0.455134
O O5 0.961107 0.750000 0.060811
O O6 0.932248 0.929413 0.170179
O O7 0.088964 0.250000 0.417217
O O8 0.045809 0.408628 0.527486
O O9 0.140338 0.492398 0.457540
O O10 0.040437 0.503189 0.387494
O O11 0.613637 0.750000 0.816374
O O12 0.667171 0.951419 0.897634
O O13 0.657281 0.981631 0.750179
O O14 0.564920 0.000417 0.833879
O O15 0.845156 0.750000 0.201491
O O16 0.829609 0.964152 0.103537
O O17 0.512407 0.250000 0.856459
O O18 0.674293 0.750000 0.004809
O O19 0.746389 0.524303 0.001735
O O20 0.815334 0.750000 0.005058
#
# Coordination Sequence:
#
# PCOD8250834 Si02
#       8
#     8   8   8   8   8   8   8   8
#     4   9  15  24  42  67  90 111 142 185 226 262
#     4   8  15  27  42  62  89 118 144 174 220 277
#     4   9  16  26  43  68  93 114 143 186 227 263
#     4  10  19  30  46  69  94 118 151 197 243 284
#     4   9  17  30  47  66  90 120 153 189 233 287
#     4   9  16  27  44  65  90 119 146 175 222 279
#     4   9  18  32  48  66  91 125 162 196 232 278
#     4   9  18  32  48  66  91 125 163 197 231 277
#
# _framework density 17.159041999999999
#
# number of rings (size 3 to 8) (size 9 to 14) (size 15 to 20)
#    0.000    3.000    0.000    2.250    0.000    6.500 
#    0.000    0.000    0.000    1.500    0.000    8.750 
#    0.000    0.000    0.000    0.000    0.000    0.000 
#
# Total GULP energy -793088.237047 kJ/mol
# GULP energy per Si atom -12392.003704 kJ/mol
# Density = 1.711999 g / cm^3
# Si number density = 17.159042 Si / 1000 Ang^3
#
#
#
# Elastic Constant Matrix: (Units=GPa)
#
#
# Indices 1 2 3 4 5 6 
#
# 1 141.1947 53.4947 32.5639 0.0000 0.0000 0.0000
# 2 53.4947 85.3966 28.9355 0.0000 0.0000 0.0000
# 3 32.5639 28.9355 47.8721 0.0000 0.0000 0.0000
# 4 0.0000 0.0000 0.0000 21.2611 0.0000 0.0000
# 5 0.0000 0.0000 0.0000 0.0000 13.9925 0.0000
# 6 0.0000 0.0000 0.0000 0.0000 0.0000 27.3956
#
#
#
# Elastic Compliance Matrix: (Units=1/GPa)
#
#
# Indices 1 2 3 4 5 6 
#
# 1 0.009784 -0.004872 -0.003711 0.000000 0.000000 0.000000
# 2 -0.004872 0.017152 -0.007053 0.000000 0.000000 0.000000
# 3 -0.003711 -0.007053 0.027676 0.000000 0.000000 0.000000
# 4 0.000000 0.000000 0.000000 0.047034 0.000000 0.000000
# 5 0.000000 0.000000 0.000000 0.000000 0.071467 0.000000
# 6 0.000000 0.000000 0.000000 0.000000 0.000000 0.036502
#
#
# Mechanical properties :
#
#
# Convention : Reuss Voigt Hill
#
# Bulk Modulus (GPa) = 42.84344 56.05017 49.44681
# Shear Modulus (GPa) = 20.10724 23.16113 21.63418
#
# Velocity S-wave (km/s) = 3.42689 3.67794 3.55463
# Velocity P-wave (km/s) = 6.37815 7.12547 6.76214
#
# Compressibility (1/GPa) = 0.02334080
#
# Stress axis : x y z
#
# Youngs Moduli (GPa) = 102.20831 58.30339 36.13184
#
# Poissons Ratio (x) = 0.28403 0.13408
# Poissons Ratio (y) = 0.49792 0.25485
# Poissons Ratio (z) = 0.37927 0.41123
#
# Static dielectric constant tensor:
#      x y z
#    x 3.367440 0.000000 0.000000 
#    y 0.000000 3.304270 0.000000 
#    z 0.000000 0.000000 2.854950 
# 
# 
# High freq. dielectric constant tensor:
#      x y z
#    x 1.655330 0.000000 0.000000 
#    y 0.000000 1.671960 0.000000 
#    z 0.000000 0.000000 1.612700 
# 
# From -- ./inp_files/24923.got.cif
#   From: 2010.03.12/outbox.cif.g09.slc.cpg/sg62_13_cif.got.tgz:24923.got - 2010.04.10 19:12:36.
