data_PCOD8250333
_publ_section_title
;
Structure prediction by ZEFSAII (Michael W. Deem and Ramdas Pophale) SiO2 
 PCOD8250333
Probable space group: P N M A
;
_chemical_formula_sum "Si O2"
_cell_formula_units_Z 64
_cell_length_a 8.949552
_cell_length_b 18.986151
_cell_length_c 24.699974
_cell_angle_alpha 90.000000
_cell_angle_beta 90.000000
_cell_angle_gamma 90.000000
_cell_volume 4196.958960
_symmetry_space_group_name_H-M "P N M A"
_symmetry_group_IT_number 62
_symmetry_cell_setting 'orthorhombic'
loop_
_space_group_symop_operation_xyz
x,y,z
1/2-x,-y,1/2+z
1/2+x,1/2-y,1/2-z
-x,1/2+y,-z
-x,-y,-z
1/2+x,y,1/2-z
1/2-x,1/2+y,1/2+z
x,1/2-y,z
loop_
_atom_site_type_symbol
_atom_site_label
_atom_site_fract_x
_atom_site_fract_y
_atom_site_fract_z
Si Si1 0.624372 0.625009 0.911521
Si Si2 0.677660 0.021677 0.947927
Si Si3 0.429245 0.077963 0.498821
Si Si4 0.279599 0.830561 0.695931
Si Si5 0.639750 0.549112 0.065537
Si Si6 0.883695 0.334247 0.197379
Si Si7 0.209708 0.329949 0.983787
Si Si8 0.281994 0.909518 0.898728
O O1 0.696321 0.546589 0.909836
O O2 0.683617 0.663120 0.858377
O O3 0.682451 0.666623 0.964118
O O4 0.444155 0.623137 0.914416
O O5 0.818223 0.075108 0.948698
O O6 0.535277 0.066076 0.928234
O O7 0.663470 0.992699 0.009269
O O8 0.547166 0.140052 0.503401
O O9 0.339458 0.100651 0.445536
O O10 0.500000 0.000000 0.500000
O O11 0.308163 0.750000 0.709446
O O12 0.181004 0.861092 0.745106
O O13 0.446275 0.863720 0.691752
O O14 0.696993 0.494312 0.111509
O O15 0.725468 0.623293 0.065837
O O16 0.875233 0.250000 0.189502
O O17 0.778068 0.371023 0.153805
O O18 0.195558 0.250000 0.963951
#
# Coordination Sequence:
#
# PCOD8250333 Si02
#       8
#     8   8   8   8   8   8   8   8
#     4  10  18  30  46  65  85 117 158 191 221 269
#     4   8  15  27  45  61  79 111 149 178 217 271
#     4  11  17  29  45  63  88 115 148 187 233 267
#     4  10  20  33  45  61  90 122 152 193 237 265
#     4   8  15  30  43  60  81 110 147 182 222 266
#     4  10  21  33  46  64  88 121 159 194 231 269
#     4  11  20  28  42  66  90 116 151 189 226 271
#     4  10  19  30  48  63  82 117 158 189 227 274
#
# _framework density 15.249136
#
# number of rings (size 3 to 8) (size 9 to 14) (size 15 to 20)
#    0.000    2.250    3.750    4.125    0.000    3.500 
#    0.000    1.875    0.000    0.000    0.000    0.000 
#    0.000    0.000    0.000   18.000    0.000    2.250 
#
# Total GULP energy -792860.529738 kJ/mol
# GULP energy per Si atom -12388.445777 kJ/mol
# Density = 1.521443 g / cm^3
# Si number density = 15.249136 Si / 1000 Ang^3
#
#
#
# Elastic Constant Matrix: (Units=GPa)
#
#
# Indices 1 2 3 4 5 6 
#
# 1 98.5306 35.5091 15.9640 0.0000 0.0000 0.0000
# 2 35.5091 69.5721 13.2111 0.0000 0.0000 0.0000
# 3 15.9640 13.2111 31.3039 0.0000 0.0000 0.0000
# 4 0.0000 0.0000 0.0000 17.8964 0.0000 0.0000
# 5 0.0000 0.0000 0.0000 0.0000 22.1749 0.0000
# 6 0.0000 0.0000 0.0000 0.0000 0.0000 21.9862
#
#
#
# Elastic Compliance Matrix: (Units=1/GPa)
#
#
# Indices 1 2 3 4 5 6 
#
# 1 0.012911 -0.005805 -0.004134 0.000000 0.000000 0.000000
# 2 -0.005805 0.018235 -0.004736 0.000000 0.000000 0.000000
# 3 -0.004134 -0.004736 0.036052 0.000000 0.000000 0.000000
# 4 0.000000 0.000000 0.000000 0.055877 0.000000 0.000000
# 5 0.000000 0.000000 0.000000 0.000000 0.045096 0.000000
# 6 0.000000 0.000000 0.000000 0.000000 0.000000 0.045483
#
#
# Mechanical properties :
#
#
# Convention : Reuss Voigt Hill
#
# Bulk Modulus (GPa) = 26.42089 36.53056 31.47573
# Shear Modulus (GPa) = 19.56028 21.39301 20.47664
#
# Velocity S-wave (km/s) = 3.58538 3.74959 3.66841
# Velocity P-wave (km/s) = 5.87399 6.53864 6.21520
#
# Compressibility (1/GPa) = 0.03784883
#
# Stress axis : x y z
#
# Youngs Moduli (GPa) = 77.45411 54.83822 27.73771
#
# Poissons Ratio (x) = 0.31831 0.11468
# Poissons Ratio (y) = 0.44958 0.13136
# Poissons Ratio (z) = 0.32023 0.25970
#
# Static dielectric constant tensor:
#      x y z
#    x 3.443020 0.000000 0.000000 
#    y 0.000000 2.873470 0.000000 
#    z 0.000000 0.000000 2.682400 
# 
# 
# High freq. dielectric constant tensor:
#      x y z
#    x 1.614530 0.000000 0.000000 
#    y 0.000000 1.556970 0.000000 
#    z 0.000000 0.000000 1.536370 
# 
# From -- ./inp_files/29080.got.cif
#   From: 2010.03.12/outbox.cif.g09.slc.cpg/sg62_15_cif.got.tgz:29080.got - 2010.04.10 19:12:36.
