data_PCOD8250117
_publ_section_title
;
Structure prediction by ZEFSAII (Michael W. Deem and Ramdas Pophale) SiO2 
 PCOD8250117
Probable space group: P N M A
;
_chemical_formula_sum "Si O2"
_cell_formula_units_Z 56
_cell_length_a 5.175502
_cell_length_b 28.059173
_cell_length_c 24.055304
_cell_angle_alpha 90.000000
_cell_angle_beta 90.000000
_cell_angle_gamma 90.000000
_cell_volume 3493.318607
_symmetry_space_group_name_H-M "P N M A"
_symmetry_group_IT_number 62
_symmetry_cell_setting 'orthorhombic'
loop_
_space_group_symop_operation_xyz
x,y,z
1/2-x,-y,1/2+z
1/2+x,1/2-y,1/2-z
-x,1/2+y,-z
-x,-y,-z
1/2+x,y,1/2-z
1/2-x,1/2+y,1/2+z
x,1/2-y,z
loop_
_atom_site_type_symbol
_atom_site_label
_atom_site_fract_x
_atom_site_fract_y
_atom_site_fract_z
Si Si1 0.649434 0.483436 0.897202
Si Si2 0.621715 0.460343 0.539581
Si Si3 0.137090 0.043785 0.729561
Si Si4 0.674785 0.194890 0.214909
Si Si5 0.252719 0.380763 0.378953
Si Si6 0.247751 0.911299 0.566263
Si Si7 0.818695 0.059589 0.222324
O O1 0.382534 0.477955 0.930624
O O2 0.598248 0.469589 0.833952
O O3 0.746855 0.537708 0.902187
O O4 0.884739 0.448771 0.918267
O O5 0.500000 0.500000 0.500000
O O6 0.704676 0.416432 0.500083
O O7 0.397091 0.073274 0.744138
O O8 0.177507 0.996942 0.768747
O O9 0.399697 0.181842 0.241602
O O10 0.689857 0.250000 0.197841
O O11 0.714263 0.165581 0.158574
O O12 0.524859 0.377847 0.410495
O O13 0.255445 0.428890 0.341511
O O14 0.023417 0.384768 0.423795
O O15 0.590500 0.083173 0.259671
#
# Coordination Sequence:
#
# PCOD8250117 Si02
#       7
#     8   8   8   8   8   8   8
#     4  11  19  31  44  57  82 112 133 166 219 262
#     4  10  20  32  43  57  78 108 138 166 209 265
#     4  10  18  27  38  56  76  98 128 164 202 244
#     4  10  21  36  50  65  88 116 142 170 219 289
#     4  12  20  30  46  64  82 104 133 178 223 252
#     4  11  20  30  44  62  79 100 137 175 209 254
#     4  10  18  26  36  55  77  94 118 157 204 248
#
# _framework density 16.030601999999998
#
# number of rings (size 3 to 8) (size 9 to 14) (size 15 to 20)
#    0.000    1.429    0.000   11.143    0.000    0.000 
#    0.000    0.000    0.000    0.000    0.000    0.000 
#    0.000    0.000    0.000    0.000    0.000    0.000 
#
# Total GULP energy -693988.445232 kJ/mol
# GULP energy per Si atom -12392.650808 kJ/mol
# Density = 1.599412 g / cm^3
# Si number density = 16.030602 Si / 1000 Ang^3
#
#
#
# Elastic Constant Matrix: (Units=GPa)
#
#
# Indices 1 2 3 4 5 6 
#
# 1 152.9851 14.4145 37.2184 0.0000 0.0000 0.0000
# 2 14.4145 25.5103 17.5733 0.0000 0.0000 0.0000
# 3 37.2184 17.5733 67.9125 0.0000 0.0000 0.0000
# 4 0.0000 0.0000 0.0000 18.8370 0.0000 0.0000
# 5 0.0000 0.0000 0.0000 0.0000 34.7364 0.0000
# 6 0.0000 0.0000 0.0000 0.0000 0.0000 12.3219
#
#
#
# Elastic Compliance Matrix: (Units=1/GPa)
#
#
# Indices 1 2 3 4 5 6 
#
# 1 0.007605 -0.001735 -0.003719 0.000000 0.000000 0.000000
# 2 -0.001735 0.048099 -0.011495 0.000000 0.000000 0.000000
# 3 -0.003719 -0.011495 0.019737 0.000000 0.000000 0.000000
# 4 0.000000 0.000000 0.000000 0.053087 0.000000 0.000000
# 5 0.000000 0.000000 0.000000 0.000000 0.028788 0.000000
# 6 0.000000 0.000000 0.000000 0.000000 0.000000 0.081156
#
#
# Mechanical properties :
#
#
# Convention : Reuss Voigt Hill
#
# Bulk Modulus (GPa) = 24.07160 42.75781 33.41470
# Shear Modulus (GPa) = 17.46915 24.99252 21.23083
#
# Velocity S-wave (km/s) = 3.30470 3.95276 3.64317
# Velocity P-wave (km/s) = 5.44151 6.89659 6.21180
#
# Compressibility (1/GPa) = 0.04154273
#
# Stress axis : x y z
#
# Youngs Moduli (GPa) = 131.49643 20.79036 50.66546
#
# Poissons Ratio (x) = 0.03608 0.18841
# Poissons Ratio (y) = 0.22820 0.58241
# Poissons Ratio (z) = 0.48898 0.23899
#
# Static dielectric constant tensor:
#      x y z
#    x 4.348570 0.000000 0.000000 
#    y 0.000000 2.516120 0.000000 
#    z 0.000000 0.000000 3.217470 
# 
# 
# High freq. dielectric constant tensor:
#      x y z
#    x 1.661820 0.000000 0.000000 
#    y 0.000000 1.521480 0.000000 
#    z 0.000000 0.000000 1.612400 
# 
# From -- ./inp_files/25444.got.cif
#   From: 2010.03.12/outbox.cif.g09.slc.cpg/sg62_13_cif.got.tgz:25444.got - 2010.04.10 19:12:36.
