data_PCOD8250715
_publ_section_title
;
Structure prediction by ZEFSAII (Michael W. Deem and Ramdas Pophale) SiO2 
 PCOD8250715
Probable space group: P N M A
;
_chemical_formula_sum "Si O2"
_cell_formula_units_Z 56
_cell_length_a 12.971256
_cell_length_b 13.628417
_cell_length_c 17.120562
_cell_angle_alpha 90.000000
_cell_angle_beta 90.000000
_cell_angle_gamma 90.000000
_cell_volume 3026.533330
_symmetry_space_group_name_H-M "P N M A"
_symmetry_group_IT_number 62
_symmetry_cell_setting 'orthorhombic'
loop_
_space_group_symop_operation_xyz
x,y,z
1/2-x,-y,1/2+z
1/2+x,1/2-y,1/2-z
-x,1/2+y,-z
-x,-y,-z
1/2+x,y,1/2-z
1/2-x,1/2+y,1/2+z
x,1/2-y,z
loop_
_atom_site_type_symbol
_atom_site_label
_atom_site_fract_x
_atom_site_fract_y
_atom_site_fract_z
Si Si1 0.656341 0.040347 0.011343
Si Si2 0.408336 0.642304 0.274455
Si Si3 0.057865 0.862326 0.753803
Si Si4 0.100481 0.522768 0.230847
Si Si5 0.715707 0.983350 0.656235
Si Si6 0.950489 0.134415 0.428801
Si Si7 0.750981 0.359836 0.865621
O O1 0.687381 0.108403 0.940223
O O2 0.625986 0.930606 0.982573
O O3 0.756549 0.037113 0.066766
O O4 0.565511 0.095722 0.057106
O O5 0.423060 0.750000 0.309603
O O6 0.516858 0.603196 0.241748
O O7 0.364947 0.573438 0.343285
O O8 0.328294 0.640112 0.204829
O O9 0.032816 0.750000 0.769832
O O10 0.161783 0.891497 0.800221
O O11 0.076747 0.883484 0.662068
O O12 0.958666 0.921004 0.786644
O O13 0.178090 0.510510 0.301831
O O14 0.157318 0.563167 0.153000
O O15 0.939926 0.250000 0.450459
O O16 0.795938 0.250000 0.877641
#
# Coordination Sequence:
#
# PCOD8250715 Si02
#       7
#     8   8   8   8   8   8   8
#     4  11  21  36  56  83 118 151 182 239 290 345
#     4   9  19  35  55  80 109 146 190 233 276 334
#     4  10  21  38  58  84 113 148 196 238 278 339
#     4  10  18  36  57  79 108 147 188 234 281 329
#     4  10  21  34  57  82 113 147 188 235 282 335
#     4  10  21  36  57  84 115 152 190 236 292 340
#     4  10  21  35  56  84 114 147 189 232 285 346
#
# _framework density 18.503017
#
# number of rings (size 3 to 8) (size 9 to 14) (size 15 to 20)
#    0.000    2.000    1.429    3.429    2.000    2.857 
#    0.000    3.571    0.000    1.714    0.000    0.000 
#    0.000    0.000    0.000    0.000    0.000    0.000 
#
# Total GULP energy -694288.482252 kJ/mol
# GULP energy per Si atom -12398.008612 kJ/mol
# Density = 1.846090 g / cm^3
# Si number density = 18.503017 Si / 1000 Ang^3
#
#
#
# Elastic Constant Matrix: (Units=GPa)
#
#
# Indices 1 2 3 4 5 6 
#
# 1 71.2294 40.9823 5.8705 0.0000 0.0000 0.0000
# 2 40.9823 137.1925 39.8293 0.0000 0.0000 0.0000
# 3 5.8705 39.8293 44.9138 0.0000 0.0000 0.0000
# 4 0.0000 0.0000 0.0000 22.7292 0.0000 0.0000
# 5 0.0000 0.0000 0.0000 0.0000 27.3346 0.0000
# 6 0.0000 0.0000 0.0000 0.0000 0.0000 21.1688
#
#
#
# Elastic Compliance Matrix: (Units=1/GPa)
#
#
# Indices 1 2 3 4 5 6 
#
# 1 0.017272 -0.006066 0.003121 0.000000 0.000000 0.000000
# 2 -0.006066 0.011946 -0.009801 0.000000 0.000000 0.000000
# 3 0.003121 -0.009801 0.030549 0.000000 0.000000 0.000000
# 4 0.000000 0.000000 0.000000 0.043996 0.000000 0.000000
# 5 0.000000 0.000000 0.000000 0.000000 0.036584 0.000000
# 6 0.000000 0.000000 0.000000 0.000000 0.000000 0.047239
#
#
# Mechanical properties :
#
#
# Convention : Reuss Voigt Hill
#
# Bulk Modulus (GPa) = 29.17495 47.41109 38.29302
# Shear Modulus (GPa) = 22.27150 25.35676 23.81413
#
# Velocity S-wave (km/s) = 3.47316 3.70592 3.59143
# Velocity P-wave (km/s) = 5.64674 6.63256 6.15941
#
# Compressibility (1/GPa) = 0.03427598
#
# Stress axis : x y z
#
# Youngs Moduli (GPa) = 57.89779 83.70699 32.73480
#
# Poissons Ratio (x) = 0.50774 -0.10218
# Poissons Ratio (y) = 0.35119 0.32084
# Poissons Ratio (z) = -0.18073 0.82043
#
# Static dielectric constant tensor:
#      x y z
#    x 3.512230 0.000000 0.000000 
#    y 0.000000 3.750670 0.000000 
#    z 0.000000 0.000000 3.215560 
# 
# 
# High freq. dielectric constant tensor:
#      x y z
#    x 1.718790 0.000000 0.000000 
#    y 0.000000 1.730060 0.000000 
#    z 0.000000 0.000000 1.694230 
# 
# From -- ./inp_files/18073.got.cif
#   From: 2010.03.12/outbox.cif.g09.slc.cpg/sg62_10_cif.got.tgz:18073.got - 2010.04.10 19:12:36.
