data_PCOD8250402
_publ_section_title
;
Structure prediction by ZEFSAII (Michael W. Deem and Ramdas Pophale) SiO2 
 PCOD8250402
Probable space group: P N M A
;
_chemical_formula_sum "Si O2"
_cell_formula_units_Z 64
_cell_length_a 23.876385
_cell_length_b 14.409802
_cell_length_c 9.509744
_cell_angle_alpha 90.000000
_cell_angle_beta 90.000000
_cell_angle_gamma 90.000000
_cell_volume 3271.865275
_symmetry_space_group_name_H-M "P N M A"
_symmetry_group_IT_number 62
_symmetry_cell_setting 'orthorhombic'
loop_
_space_group_symop_operation_xyz
x,y,z
1/2-x,-y,1/2+z
1/2+x,1/2-y,1/2-z
-x,1/2+y,-z
-x,-y,-z
1/2+x,y,1/2-z
1/2-x,1/2+y,1/2+z
x,1/2-y,z
loop_
_atom_site_type_symbol
_atom_site_label
_atom_site_fract_x
_atom_site_fract_y
_atom_site_fract_z
Si Si1 0.118387 0.355619 0.787524
Si Si2 0.343157 0.964007 0.551917
Si Si3 0.270923 0.855639 0.752779
Si Si4 0.134467 0.143371 0.471480
Si Si5 0.840882 0.354916 0.095491
Si Si6 0.011959 0.856049 0.187158
Si Si7 0.439056 0.965069 0.771070
Si Si8 0.533698 0.644885 0.634347
O O1 0.129519 0.250000 0.834953
O O2 0.144799 0.376666 0.635305
O O3 0.052453 0.374340 0.778947
O O4 0.148831 0.422350 0.897068
O O5 0.287869 0.921909 0.624006
O O6 0.396576 0.938324 0.646096
O O7 0.334949 0.074744 0.535899
O O8 0.280510 0.750000 0.704084
O O9 0.307610 0.877409 0.891487
O O10 0.206302 0.874886 0.788162
O O11 0.114989 0.250000 0.448870
O O12 0.085381 0.075448 0.415740
O O13 0.835179 0.250000 0.034980
O O14 0.900860 0.368295 0.170837
O O15 0.029730 0.750000 0.218649
O O16 0.050468 0.924022 0.282744
O O17 0.023566 0.884348 0.026543
O O18 0.498896 0.919350 0.738574
O O19 0.513575 0.750000 0.657205
#
# Coordination Sequence:
#
# PCOD8250402 Si02
#       8
#     8   8   8   8   8   8   8   8
#     4  10  20  34  53  82 114 143 180 232 285 330
#     4  11  20  33  60  85 105 142 188 231 274 325
#     4   9  20  38  57  80 108 139 183 234 276 324
#     4   9  20  36  54  78 110 144 179 229 293 338
#     4  10  21  36  54  82 116 148 183 229 280 333
#     4  10  19  30  49  79 115 147 184 228 273 330
#     4  11  19  32  54  83 111 142 188 231 272 330
#     4  10  18  30  52  83 114 148 186 226 276 337
#
# _framework density 19.560706
#
# number of rings (size 3 to 8) (size 9 to 14) (size 15 to 20)
#    0.000    2.000    2.500    1.875    0.000    2.500 
#    0.000    0.000    0.000    1.500    0.000    0.000 
#    0.000    0.000    0.000    0.000    0.000    0.000 
#
# Total GULP energy -793713.819504 kJ/mol
# GULP energy per Si atom -12401.778430 kJ/mol
# Density = 1.951619 g / cm^3
# Si number density = 19.560706 Si / 1000 Ang^3
#
#
#
# Elastic Constant Matrix: (Units=GPa)
#
#
# Indices 1 2 3 4 5 6 
#
# 1 81.5184 36.7387 28.0174 0.0000 0.0000 0.0000
# 2 36.7387 91.3125 37.8578 0.0000 0.0000 0.0000
# 3 28.0174 37.8578 78.8633 0.0000 0.0000 0.0000
# 4 0.0000 0.0000 0.0000 24.0971 0.0000 0.0000
# 5 0.0000 0.0000 0.0000 0.0000 23.2275 0.0000
# 6 0.0000 0.0000 0.0000 0.0000 0.0000 25.0472
#
#
#
# Elastic Compliance Matrix: (Units=1/GPa)
#
#
# Indices 1 2 3 4 5 6 
#
# 1 0.015589 -0.004964 -0.003155 0.000000 0.000000 0.000000
# 2 -0.004964 0.015253 -0.005559 0.000000 0.000000 0.000000
# 3 -0.003155 -0.005559 0.016470 0.000000 0.000000 0.000000
# 4 0.000000 0.000000 0.000000 0.041499 0.000000 0.000000
# 5 0.000000 0.000000 0.000000 0.000000 0.043052 0.000000
# 6 0.000000 0.000000 0.000000 0.000000 0.000000 0.039925
#
#
# Mechanical properties :
#
#
# Convention : Reuss Voigt Hill
#
# Bulk Modulus (GPa) = 50.11069 50.76912 50.43990
# Shear Modulus (GPa) = 24.29605 24.41305 24.35455
#
# Velocity S-wave (km/s) = 3.52815 3.53663 3.53239
# Velocity P-wave (km/s) = 6.50159 6.53360 6.51762
#
# Compressibility (1/GPa) = 0.01995582
#
# Stress axis : x y z
#
# Youngs Moduli (GPa) = 64.14901 65.56014 60.71809
#
# Poissons Ratio (x) = 0.32543 0.19158
# Poissons Ratio (y) = 0.31842 0.33751
# Poissons Ratio (z) = 0.20241 0.36443
#
# Static dielectric constant tensor:
#      x y z
#    x 3.542540 0.000000 0.000000 
#    y 0.000000 3.817890 0.000000 
#    z 0.000000 0.000000 3.263310 
# 
# 
# High freq. dielectric constant tensor:
#      x y z
#    x 1.756580 0.000000 0.000000 
#    y 0.000000 1.774020 0.000000 
#    z 0.000000 0.000000 1.727590 
# 
# From -- ./inp_files/9506.got.cif
#   From: 2010.03.12/outbox.cif.g09.slc.cpg/sg62_5_cif.got.tgz:9506.got - 2010.04.10 19:12:36.
