data_PCOD8250112
_publ_section_title
;
Structure prediction by ZEFSAII (Michael W. Deem and Ramdas Pophale) SiO2 
 PCOD8250112
Probable space group: P N M A
;
_chemical_formula_sum "Si O2"
_cell_formula_units_Z 64
_cell_length_a 18.146113
_cell_length_b 9.468309
_cell_length_c 26.454982
_cell_angle_alpha 90.000000
_cell_angle_beta 90.000000
_cell_angle_gamma 90.000000
_cell_volume 4545.309956
_symmetry_space_group_name_H-M "P N M A"
_symmetry_group_IT_number 62
_symmetry_cell_setting 'orthorhombic'
loop_
_space_group_symop_operation_xyz
x,y,z
1/2-x,-y,1/2+z
1/2+x,1/2-y,1/2-z
-x,1/2+y,-z
-x,-y,-z
1/2+x,y,1/2-z
1/2-x,1/2+y,1/2+z
x,1/2-y,z
loop_
_atom_site_type_symbol
_atom_site_label
_atom_site_fract_x
_atom_site_fract_y
_atom_site_fract_z
Si Si1 0.423440 0.583312 0.258538
Si Si2 0.669431 0.416525 0.647037
Si Si3 0.075560 0.414109 0.945301
Si Si4 0.809813 0.408492 0.699211
Si Si5 0.167228 0.086929 0.151639
Si Si6 0.216929 0.094959 0.698928
Si Si7 0.930208 0.914343 0.940484
Si Si8 0.927189 0.916011 0.749764
O O1 0.443039 0.750000 0.261027
O O2 0.388549 0.527457 0.311253
O O3 0.366517 0.550966 0.212796
O O4 0.494677 0.491090 0.247780
O O5 0.672953 0.250000 0.654518
O O6 0.642691 0.460984 0.591092
O O7 0.753417 0.470078 0.656404
O O8 0.056534 0.250000 0.937525
O O9 0.004008 0.500380 0.929156
O O10 0.098985 0.446102 0.002941
O O11 0.838815 0.250000 0.686087
O O12 0.763320 0.402518 0.750114
O O13 0.877692 0.516061 0.705120
O O14 0.187038 0.250000 0.150195
O O15 0.132030 0.035885 0.098779
O O16 0.109511 0.052717 0.196047
O O17 0.245343 0.009537 0.158874
O O18 0.217081 0.250000 0.674087
O O19 0.948871 0.750000 0.932849
O O20 0.935824 0.750000 0.739522
#
# Coordination Sequence:
#
# PCOD8250112 Si02
#       8
#     8   8   8   8   8   8   8   8
#     4   9  16  26  39  55  75  97 123 155 188 218
#     4   8  14  25  41  57  71  94 129 160 184 214
#     4   9  16  26  40  56  74  98 129 160 184 211
#     4   8  14  26  40  52  70  95 122 154 188 216
#     4   9  17  27  37  51  75 104 128 151 181 216
#     4   8  15  26  39  54  70  92 124 157 184 215
#     4   9  17  27  37  53  78 103 126 154 186 215
#     4  10  18  25  35  54  77 100 127 152 177 217
#
# _framework density 14.080448000000001
#
# number of rings (size 3 to 8) (size 9 to 14) (size 15 to 20)
#    0.000    3.250    0.000    2.625    0.000    1.500 
#    0.000    2.500    0.000    0.000    0.000    0.000 
#    0.000    1.000    0.000    2.000    0.000    2.625 
#
# Total GULP energy -793200.043668 kJ/mol
# GULP energy per Si atom -12393.750682 kJ/mol
# Density = 1.404840 g / cm^3
# Si number density = 14.080448 Si / 1000 Ang^3
#
#
#
# Elastic Constant Matrix: (Units=GPa)
#
#
# Indices 1 2 3 4 5 6 
#
# 1 97.8177 51.2687 48.6044 0.0000 0.0000 0.0000
# 2 51.2687 58.5674 33.8916 0.0000 0.0000 0.0000
# 3 48.6044 33.8916 73.7764 0.0000 0.0000 0.0000
# 4 0.0000 0.0000 0.0000 14.1903 0.0000 0.0000
# 5 0.0000 0.0000 0.0000 0.0000 24.8069 0.0000
# 6 0.0000 0.0000 0.0000 0.0000 0.0000 22.4530
#
#
#
# Elastic Compliance Matrix: (Units=1/GPa)
#
#
# Indices 1 2 3 4 5 6 
#
# 1 0.021590 -0.014531 -0.007548 0.000000 0.000000 0.000000
# 2 -0.014531 0.033037 -0.005603 0.000000 0.000000 0.000000
# 3 -0.007548 -0.005603 0.021101 0.000000 0.000000 0.000000
# 4 0.000000 0.000000 0.000000 0.070471 0.000000 0.000000
# 5 0.000000 0.000000 0.000000 0.000000 0.040311 0.000000
# 6 0.000000 0.000000 0.000000 0.000000 0.000000 0.044537
#
#
# Mechanical properties :
#
#
# Convention : Reuss Voigt Hill
#
# Bulk Modulus (GPa) = 49.10923 55.29899 52.20411
# Shear Modulus (GPa) = 17.05310 18.71649 17.88480
#
# Velocity S-wave (km/s) = 3.48389 3.64985 3.56783
# Velocity P-wave (km/s) = 7.15099 7.55783 7.35722
#
# Compressibility (1/GPa) = 0.02036277
#
# Stress axis : x y z
#
# Youngs Moduli (GPa) = 46.31783 30.26865 47.39044
#
# Poissons Ratio (x) = 0.43985 0.35771
# Poissons Ratio (y) = 0.67307 0.26555
# Poissons Ratio (z) = 0.34961 0.16961
#
# Static dielectric constant tensor:
#      x y z
#    x 2.823430 0.000000 0.000000 
#    y 0.000000 2.793220 0.000000 
#    z 0.000000 0.000000 2.748300 
# 
# 
# High freq. dielectric constant tensor:
#      x y z
#    x 1.525320 0.000000 0.000000 
#    y 0.000000 1.532210 0.000000 
#    z 0.000000 0.000000 1.507960 
# 
# From -- ./inp_files/31344.got.cif
#   From: 2010.03.12/outbox.cif.g09.slc.cpg/sg62_16_cif.got.tgz:31344.got - 2010.04.10 19:12:36.
