data_PCOD8250504
_publ_section_title
;
Structure prediction by ZEFSAII (Michael W. Deem and Ramdas Pophale) SiO2 
 PCOD8250504
Probable space group: P N M A
;
_chemical_formula_sum "Si O2"
_cell_formula_units_Z 64
_cell_length_a 9.603205
_cell_length_b 19.728772
_cell_length_c 20.465422
_cell_angle_alpha 90.000000
_cell_angle_beta 90.000000
_cell_angle_gamma 90.000000
_cell_volume 3877.367431
_symmetry_space_group_name_H-M "P N M A"
_symmetry_group_IT_number 62
_symmetry_cell_setting 'orthorhombic'
loop_
_space_group_symop_operation_xyz
x,y,z
1/2-x,-y,1/2+z
1/2+x,1/2-y,1/2-z
-x,1/2+y,-z
-x,-y,-z
1/2+x,y,1/2-z
1/2-x,1/2+y,1/2+z
x,1/2-y,z
loop_
_atom_site_type_symbol
_atom_site_label
_atom_site_fract_x
_atom_site_fract_y
_atom_site_fract_z
Si Si1 0.643555 0.523912 0.671050
Si Si2 0.589041 0.049247 0.549881
Si Si3 0.449534 0.674322 0.524079
Si Si4 0.112692 0.064927 0.250118
Si Si5 0.837460 0.991816 0.487290
Si Si6 0.527431 0.326535 0.148654
Si Si7 0.231034 0.630155 0.935617
Si Si8 0.257740 0.406535 0.116215
O O1 0.574031 0.464419 0.627394
O O2 0.796960 0.513285 0.703783
O O3 0.535334 0.534385 0.730137
O O4 0.658476 0.585903 0.621033
O O5 0.551933 0.128070 0.540986
O O6 0.754198 0.040032 0.537337
O O7 0.500000 0.000000 0.500000
O O8 0.389693 0.750000 0.512056
O O9 0.611135 0.681811 0.543056
O O10 0.361199 0.633812 0.577796
O O11 0.083234 0.134651 0.287923
O O12 0.207105 0.082255 0.188848
O O13 0.794510 0.019533 0.415249
O O14 0.785680 0.915255 0.502690
O O15 0.000000 0.000000 0.500000
O O16 0.492493 0.250000 0.169812
O O17 0.642749 0.326094 0.091999
O O18 0.394253 0.361107 0.116608
#
# Coordination Sequence:
#
# PCOD8250504 Si02
#       8
#     8   8   8   8   8   8   8   8
#     4  10  19  34  52  71 101 129 175 219 253 297
#     4  10  18  34  54  76 102 133 171 220 271 300
#     4  11  21  33  54  80 103 133 174 216 264 317
#     4  11  21  34  46  71  98 136 180 212 244 304
#     4  10  18  31  55  74  97 129 171 220 268 302
#     4  11  23  35  45  65 105 146 175 206 251 309
#     4  10  19  35  51  73  98 137 172 213 260 306
#     4  11  21  35  51  74 103 138 174 218 258 308
#
# _framework density 16.506045
#
# number of rings (size 3 to 8) (size 9 to 14) (size 15 to 20)
#    0.000    1.500    6.250    1.500    0.000    1.000 
#    0.000    0.000    0.000    0.000    0.000    0.875 
#    0.000    0.000    0.000    0.000    0.000    0.000 
#
# Total GULP energy -792856.474185 kJ/mol
# GULP energy per Si atom -12388.382409 kJ/mol
# Density = 1.646848 g / cm^3
# Si number density = 16.506045 Si / 1000 Ang^3
#
#
#
# Elastic Constant Matrix: (Units=GPa)
#
#
# Indices 1 2 3 4 5 6 
#
# 1 98.7188 18.2685 29.6927 0.0000 0.0000 0.0000
# 2 18.2685 59.1792 42.0736 0.0000 0.0000 0.0000
# 3 29.6927 42.0736 79.0488 0.0000 0.0000 0.0000
# 4 0.0000 0.0000 0.0000 15.7453 0.0000 0.0000
# 5 0.0000 0.0000 0.0000 0.0000 25.1320 0.0000
# 6 0.0000 0.0000 0.0000 0.0000 0.0000 15.9661
#
#
#
# Elastic Compliance Matrix: (Units=1/GPa)
#
#
# Indices 1 2 3 4 5 6 
#
# 1 0.011442 -0.000767 -0.003890 0.000000 0.000000 0.000000
# 2 -0.000767 0.027236 -0.014208 0.000000 0.000000 0.000000
# 3 -0.003890 -0.014208 0.021674 0.000000 0.000000 0.000000
# 4 0.000000 0.000000 0.000000 0.063511 0.000000 0.000000
# 5 0.000000 0.000000 0.000000 0.000000 0.039790 0.000000
# 6 0.000000 0.000000 0.000000 0.000000 0.000000 0.062633
#
#
# Mechanical properties :
#
#
# Convention : Reuss Voigt Hill
#
# Bulk Modulus (GPa) = 44.20460 46.33514 45.26987
# Shear Modulus (GPa) = 18.41249 21.16282 19.78766
#
# Velocity S-wave (km/s) = 3.34353 3.58456 3.46614
# Velocity P-wave (km/s) = 6.46101 6.72790 6.59581
#
# Compressibility (1/GPa) = 0.02262208
#
# Stress axis : x y z
#
# Youngs Moduli (GPa) = 87.40035 36.71628 46.13856
#
# Poissons Ratio (x) = 0.02815 0.17947
# Poissons Ratio (y) = 0.06700 0.65555
# Poissons Ratio (z) = 0.33996 0.52168
#
# Static dielectric constant tensor:
#      x y z
#    x 3.417620 0.000000 0.000000 
#    y 0.000000 2.954070 0.000000 
#    z 0.000000 0.000000 3.257450 
# 
# 
# High freq. dielectric constant tensor:
#      x y z
#    x 1.663070 0.000000 0.000000 
#    y 0.000000 1.595620 0.000000 
#    z 0.000000 0.000000 1.620080 
# 
# From -- ./inp_files/26285.got.cif
#   From: 2010.03.12/outbox.cif.g09.slc.cpg/sg62_14_cif.got.tgz:26285.got - 2010.04.10 19:12:36.
