data_PCOD8250256
_publ_section_title
;
Structure prediction by ZEFSAII (Michael W. Deem and Ramdas Pophale) SiO2 
 PCOD8250256
Probable space group: P N M A
;
_chemical_formula_sum "Si O2"
_cell_formula_units_Z 64
_cell_length_a 26.474042
_cell_length_b 8.696506
_cell_length_c 18.314124
_cell_angle_alpha 90.000000
_cell_angle_beta 90.000000
_cell_angle_gamma 90.000000
_cell_volume 4216.491263
_symmetry_space_group_name_H-M "P N M A"
_symmetry_group_IT_number 62
_symmetry_cell_setting 'orthorhombic'
loop_
_space_group_symop_operation_xyz
x,y,z
1/2-x,-y,1/2+z
1/2+x,1/2-y,1/2-z
-x,1/2+y,-z
-x,-y,-z
1/2+x,y,1/2-z
1/2-x,1/2+y,1/2+z
x,1/2-y,z
loop_
_atom_site_type_symbol
_atom_site_label
_atom_site_fract_x
_atom_site_fract_y
_atom_site_fract_z
Si Si1 0.448853 0.929664 0.918500
Si Si2 0.652903 0.070133 0.158427
Si Si3 0.149162 0.926421 0.652069
Si Si4 0.750071 0.430605 0.582144
Si Si5 0.053434 0.071338 0.586304
Si Si6 0.792613 0.073217 0.210716
Si Si7 0.300240 0.073019 0.714025
Si Si8 0.256166 0.569756 0.073551
O O1 0.460615 0.750000 0.910840
O O2 0.401721 0.982752 0.869786
O O3 0.497312 0.022286 0.889924
O O4 0.436778 0.972717 0.002141
O O5 0.660450 0.250000 0.146028
O O6 0.695326 0.983276 0.111611
O O7 0.656638 0.027484 0.245009
O O8 0.156062 0.750000 0.628668
O O9 0.157136 0.945310 0.740077
O O10 0.092885 0.980741 0.636047
O O11 0.189681 0.023585 0.606408
O O12 0.744420 0.250000 0.590975
O O13 0.704101 0.515130 0.626811
O O14 0.743978 0.474819 0.498270
O O15 0.060888 0.250000 0.600876
O O16 0.773718 0.250000 0.212559
O O17 0.751637 0.959332 0.244614
O O18 0.315240 0.250000 0.722409
O O19 0.290016 0.030678 0.629333
O O20 0.258508 0.750000 0.055987
#
# Coordination Sequence:
#
# PCOD8250256 Si02
#       8
#     8   8   8   8   8   8   8   8
#     4   9  19  32  43  59  83 111 143 177 212 247
#     4  10  18  29  45  61  83 114 143 174 212 252
#     4  10  19  30  45  63  84 112 144 176 210 251
#     4  11  20  28  42  63  86 112 143 177 209 247
#     4  10  19  30  45  62  83 112 143 178 214 246
#     4   9  17  29  43  59  82 111 140 171 208 248
#     4   9  17  28  42  60  82 108 139 175 209 245
#     4  10  19  30  43  60  85 114 143 175 210 249
#
# _framework density 15.178496000000001
#
# number of rings (size 3 to 8) (size 9 to 14) (size 15 to 20)
#    0.000    2.250    0.000    5.625    0.000    5.500 
#    0.000    0.000    0.000    0.000    0.000    0.000 
#    0.000    1.000    0.000    3.250    0.000    4.000 
#
# Total GULP energy -793268.848688 kJ/mol
# GULP energy per Si atom -12394.825761 kJ/mol
# Density = 1.514395 g / cm^3
# Si number density = 15.178496 Si / 1000 Ang^3
#
#
#
# Elastic Constant Matrix: (Units=GPa)
#
#
# Indices 1 2 3 4 5 6 
#
# 1 78.7942 30.4229 47.9627 0.0000 0.0000 0.0000
# 2 30.4229 63.5953 35.2779 0.0000 0.0000 0.0000
# 3 47.9627 35.2779 94.1125 0.0000 0.0000 0.0000
# 4 0.0000 0.0000 0.0000 25.5564 0.0000 0.0000
# 5 0.0000 0.0000 0.0000 0.0000 26.6753 0.0000
# 6 0.0000 0.0000 0.0000 0.0000 0.0000 21.8146
#
#
#
# Elastic Compliance Matrix: (Units=1/GPa)
#
#
# Indices 1 2 3 4 5 6 
#
# 1 0.019502 -0.004818 -0.008133 0.000000 0.000000 0.000000
# 2 -0.004818 0.021043 -0.005432 0.000000 0.000000 0.000000
# 3 -0.008133 -0.005432 0.016807 0.000000 0.000000 0.000000
# 4 0.000000 0.000000 0.000000 0.039129 0.000000 0.000000
# 5 0.000000 0.000000 0.000000 0.000000 0.037488 0.000000
# 6 0.000000 0.000000 0.000000 0.000000 0.000000 0.045841
#
#
# Mechanical properties :
#
#
# Convention : Reuss Voigt Hill
#
# Bulk Modulus (GPa) = 48.57912 51.53656 50.05784
# Shear Modulus (GPa) = 22.37760 22.99849 22.68805
#
# Velocity S-wave (km/s) = 3.84382 3.89678 3.87039
# Velocity P-wave (km/s) = 7.19546 7.36708 7.28178
#
# Compressibility (1/GPa) = 0.02058498
#
# Stress axis : x y z
#
# Youngs Moduli (GPa) = 51.27659 47.52226 59.50006
#
# Poissons Ratio (x) = 0.22896 0.48391
# Poissons Ratio (y) = 0.24705 0.32323
# Poissons Ratio (z) = 0.41703 0.25816
#
# Static dielectric constant tensor:
#      x y z
#    x 2.755680 0.000000 0.000000 
#    y 0.000000 3.010440 0.000000 
#    z 0.000000 0.000000 3.254460 
# 
# 
# High freq. dielectric constant tensor:
#      x y z
#    x 1.542940 0.000000 0.000000 
#    y 0.000000 1.600130 0.000000 
#    z 0.000000 0.000000 1.573730 
# 
# From -- ./inp_files/25005.got.cif
#   From: 2010.03.12/outbox.cif.g09.slc.cpg/sg62_13_cif.got.tgz:25005.got - 2010.04.10 19:12:36.
