data_PCOD8250650
_publ_section_title
;
Structure prediction by ZEFSAII (Michael W. Deem and Ramdas Pophale) SiO2 
 PCOD8250650
Probable space group: P N M A
;
_chemical_formula_sum "Si O2"
_cell_formula_units_Z 64
_cell_length_a 11.531760
_cell_length_b 16.463611
_cell_length_c 17.138323
_cell_angle_alpha 90.000000
_cell_angle_beta 90.000000
_cell_angle_gamma 90.000000
_cell_volume 3253.786215
_symmetry_space_group_name_H-M "P N M A"
_symmetry_group_IT_number 62
_symmetry_cell_setting 'orthorhombic'
loop_
_space_group_symop_operation_xyz
x,y,z
1/2-x,-y,1/2+z
1/2+x,1/2-y,1/2-z
-x,1/2+y,-z
-x,-y,-z
1/2+x,y,1/2-z
1/2-x,1/2+y,1/2+z
x,1/2-y,z
loop_
_atom_site_type_symbol
_atom_site_label
_atom_site_fract_x
_atom_site_fract_y
_atom_site_fract_z
Si Si1 0.496820 0.489554 0.828427
Si Si2 0.250869 0.663702 0.975809
Si Si3 0.962442 0.839389 0.417669
Si Si4 0.973936 0.158734 0.927890
Si Si5 0.122671 0.156590 0.069756
Si Si6 0.362735 0.411322 0.042459
Si Si7 0.733785 0.492106 0.096399
Si Si8 0.990294 0.004221 0.150130
O O1 0.540632 0.398371 0.843230
O O2 0.557943 0.549685 0.890101
O O3 0.358041 0.480406 0.839112
O O4 0.521780 0.519415 0.741946
O O5 0.265695 0.750000 0.934838
O O6 0.278817 0.604584 0.905218
O O7 0.333588 0.656378 0.049904
O O8 0.120992 0.650595 0.004863
O O9 0.993780 0.750000 0.386691
O O10 0.054090 0.861453 0.485229
O O11 0.968503 0.250000 0.888370
O O12 0.949969 0.083730 0.868105
O O13 0.093587 0.149694 0.977213
O O14 0.093284 0.250000 0.098808
O O15 0.261355 0.143891 0.080185
O O16 0.054228 0.083854 0.115449
O O17 0.298309 0.479602 0.991243
O O18 0.863655 0.514396 0.117008
#
# Coordination Sequence:
#
# PCOD8250650 Si02
#       8
#     8   8   8   8   8   8   8   8
#     4  11  25  38  59  90 127 163 199 249 315 374
#     4  10  18  33  62  88 111 147 206 263 294 339
#     4  10  20  37  62  90 117 154 205 254 302 358
#     4  10  21  38  62  93 120 156 207 253 298 365
#     4  11  23  39  62  90 118 156 210 257 298 358
#     4  11  20  40  64  85 118 159 210 256 296 354
#     4  11  20  40  61  87 114 162 212 246 296 362
#     4  12  25  39  62  90 129 169 194 251 323 371
#
# _framework density 19.669392999999999
#
# number of rings (size 3 to 8) (size 9 to 14) (size 15 to 20)
#    0.000    1.250    5.000    2.250    1.750    0.500 
#    0.000    1.875    0.000    0.000    0.000    0.000 
#    0.000    0.000    0.000    0.000    0.000    0.000 
#
# Total GULP energy -792886.253005 kJ/mol
# GULP energy per Si atom -12388.847703 kJ/mol
# Density = 1.962462 g / cm^3
# Si number density = 19.669393 Si / 1000 Ang^3
#
#
#
# Elastic Constant Matrix: (Units=GPa)
#
#
# Indices 1 2 3 4 5 6 
#
# 1 59.0350 19.5985 -0.0621 0.0000 0.0000 0.0000
# 2 19.5985 135.8870 31.3913 0.0000 0.0000 0.0000
# 3 -0.0621 31.3913 72.1013 0.0000 0.0000 0.0000
# 4 0.0000 0.0000 0.0000 20.3031 0.0000 0.0000
# 5 0.0000 0.0000 0.0000 0.0000 14.6628 0.0000
# 6 0.0000 0.0000 0.0000 0.0000 0.0000 24.2479
#
#
#
# Elastic Compliance Matrix: (Units=1/GPa)
#
#
# Indices 1 2 3 4 5 6 
#
# 1 0.017894 -0.002873 0.001266 0.000000 0.000000 0.000000
# 2 -0.002873 0.008643 -0.003766 0.000000 0.000000 0.000000
# 3 0.001266 -0.003766 0.015510 0.000000 0.000000 0.000000
# 4 0.000000 0.000000 0.000000 0.049253 0.000000 0.000000
# 5 0.000000 0.000000 0.000000 0.000000 0.068200 0.000000
# 6 0.000000 0.000000 0.000000 0.000000 0.000000 0.041241
#
#
# Mechanical properties :
#
#
# Convention : Reuss Voigt Hill
#
# Bulk Modulus (GPa) = 31.94634 40.98653 36.46643
# Shear Modulus (GPa) = 22.53053 26.24913 24.38983
#
# Velocity S-wave (km/s) = 3.38814 3.65707 3.52517
# Velocity P-wave (km/s) = 5.61987 6.22215 5.92866
#
# Compressibility (1/GPa) = 0.03130249
#
# Stress axis : x y z
#
# Youngs Moduli (GPa) = 55.88354 115.69564 64.47480
#
# Poissons Ratio (x) = 0.33244 -0.08165
# Poissons Ratio (y) = 0.16058 0.24279
# Poissons Ratio (z) = -0.07077 0.43566
#
# Static dielectric constant tensor:
#      x y z
#    x 3.770140 0.000000 0.000000 
#    y 0.000000 3.998400 0.000000 
#    z 0.000000 0.000000 3.153230 
# 
# 
# High freq. dielectric constant tensor:
#      x y z
#    x 1.782920 0.000000 0.000000 
#    y 0.000000 1.785730 0.000000 
#    z 0.000000 0.000000 1.714540 
# 
# From -- ./inp_files/18259.got.cif
#   From: 2010.03.12/outbox.cif.g09.slc.cpg/sg62_10_cif.got.tgz:18259.got - 2010.04.10 19:12:36.
