data_PCOD8250628
_publ_section_title
;
Structure prediction by ZEFSAII (Michael W. Deem and Ramdas Pophale) SiO2 
 PCOD8250628
Probable space group: P N M A
;
_chemical_formula_sum "Si O2"
_cell_formula_units_Z 64
_cell_length_a 19.577757
_cell_length_b 8.880466
_cell_length_c 20.337111
_cell_angle_alpha 90.000000
_cell_angle_beta 90.000000
_cell_angle_gamma 90.000000
_cell_volume 3535.802093
_symmetry_space_group_name_H-M "P N M A"
_symmetry_group_IT_number 62
_symmetry_cell_setting 'orthorhombic'
loop_
_space_group_symop_operation_xyz
x,y,z
1/2-x,-y,1/2+z
1/2+x,1/2-y,1/2-z
-x,1/2+y,-z
-x,-y,-z
1/2+x,y,1/2-z
1/2-x,1/2+y,1/2+z
x,1/2-y,z
loop_
_atom_site_type_symbol
_atom_site_label
_atom_site_fract_x
_atom_site_fract_y
_atom_site_fract_z
Si Si1 0.280000 0.073928 0.443573
Si Si2 0.560176 0.571541 0.382128
Si Si3 0.413884 0.576482 0.241108
Si Si4 0.300917 0.425896 0.828438
Si Si5 0.729281 0.078130 0.808629
Si Si6 0.563272 0.925530 0.233166
Si Si7 0.305570 0.927061 0.574538
Si Si8 0.421490 0.074557 0.377955
O O1 0.269403 0.250000 0.454154
O O2 0.356890 0.033876 0.422527
O O3 0.226477 0.019362 0.389448
O O4 0.264359 0.989174 0.511746
O O5 0.563304 0.750000 0.388655
O O6 0.570384 0.512349 0.307399
O O7 0.619532 0.501086 0.426160
O O8 0.486389 0.515025 0.406964
O O9 0.415009 0.750000 0.265835
O O10 0.352568 0.550499 0.189727
O O11 0.486857 0.538404 0.206254
O O12 0.403229 0.472323 0.303943
O O13 0.300071 0.250000 0.846920
O O14 0.254883 0.457526 0.764589
O O15 0.377569 0.490369 0.813984
O O16 0.747719 0.250000 0.827763
O O17 0.764068 0.967608 0.859932
O O18 0.577921 0.750000 0.237566
O O19 0.313122 0.750000 0.569811
O O20 0.438496 0.250000 0.379336
#
# Coordination Sequence:
#
# PCOD8250628 Si02
#       8
#     8   8   8   8   8   8   8   8
#     4  11  24  39  54  76 111 149 186 227 277 328
#     4  10  19  35  56  78 109 148 184 220 268 327
#     4   9  17  31  54  81 110 147 184 219 268 329
#     4  10  18  33  57  83 110 141 183 227 271 322
#     4  10  19  34  57  83 111 145 184 226 275 328
#     4   8  15  29  52  81 109 139 175 218 266 317
#     4  12  25  38  55  79 109 145 187 231 279 329
#     4  10  20  33  51  79 111 144 183 227 269 318
#
# _framework density 18.100562
#
# number of rings (size 3 to 8) (size 9 to 14) (size 15 to 20)
#    0.000    2.000    2.500    3.000    0.000    3.000 
#    0.000    0.625    0.000    0.750    0.000    0.000 
#    0.000    0.000    0.000    0.000    0.000    0.000 
#
# Total GULP energy -793564.598478 kJ/mol
# GULP energy per Si atom -12399.446851 kJ/mol
# Density = 1.805936 g / cm^3
# Si number density = 18.100562 Si / 1000 Ang^3
#
#
#
# Elastic Constant Matrix: (Units=GPa)
#
#
# Indices 1 2 3 4 5 6 
#
# 1 95.3867 28.4663 15.9046 0.0000 0.0000 0.0000
# 2 28.4663 62.7098 14.6509 0.0000 0.0000 0.0000
# 3 15.9046 14.6509 40.5632 0.0000 0.0000 0.0000
# 4 0.0000 0.0000 0.0000 28.2482 0.0000 0.0000
# 5 0.0000 0.0000 0.0000 0.0000 19.4250 0.0000
# 6 0.0000 0.0000 0.0000 0.0000 0.0000 27.2264
#
#
#
# Elastic Compliance Matrix: (Units=1/GPa)
#
#
# Indices 1 2 3 4 5 6 
#
# 1 0.012475 -0.004937 -0.003108 0.000000 0.000000 0.000000
# 2 -0.004937 0.019370 -0.005060 0.000000 0.000000 0.000000
# 3 -0.003108 -0.005060 0.027699 0.000000 0.000000 0.000000
# 4 0.000000 0.000000 0.000000 0.035401 0.000000 0.000000
# 5 0.000000 0.000000 0.000000 0.000000 0.051480 0.000000
# 6 0.000000 0.000000 0.000000 0.000000 0.000000 0.036729
#
#
# Mechanical properties :
#
#
# Convention : Reuss Voigt Hill
#
# Bulk Modulus (GPa) = 30.00005 35.18925 32.59465
# Shear Modulus (GPa) = 22.67822 24.28913 23.48368
#
# Velocity S-wave (km/s) = 3.54347 3.66717 3.60585
# Velocity P-wave (km/s) = 5.77509 6.11670 5.94835
#
# Compressibility (1/GPa) = 0.03333327
#
# Stress axis : x y z
#
# Youngs Moduli (GPa) = 80.15905 51.62702 36.10187
#
# Poissons Ratio (x) = 0.25487 0.11222
# Poissons Ratio (y) = 0.39573 0.18269
# Poissons Ratio (z) = 0.24916 0.26125
#
# Static dielectric constant tensor:
#      x y z
#    x 3.658290 0.000000 0.000000 
#    y 0.000000 3.208950 0.000000 
#    z 0.000000 0.000000 3.104640 
# 
# 
# High freq. dielectric constant tensor:
#      x y z
#    x 1.710870 0.000000 0.000000 
#    y 0.000000 1.692140 0.000000 
#    z 0.000000 0.000000 1.671330 
# 
# From -- ./inp_files/24824.got.cif
#   From: 2010.03.12/outbox.cif.g09.slc.cpg/sg62_13_cif.got.tgz:24824.got - 2010.04.10 19:12:36.
