data_PCOD8250482
_publ_section_title
;
Structure prediction by ZEFSAII (Michael W. Deem and Ramdas Pophale) SiO2 
 PCOD8250482
Probable space group: P N M A
;
_chemical_formula_sum "Si O2"
_cell_formula_units_Z 64
_cell_length_a 11.885956
_cell_length_b 9.159629
_cell_length_c 29.223525
_cell_angle_alpha 90.000000
_cell_angle_beta 90.000000
_cell_angle_gamma 90.000000
_cell_volume 3181.592849
_symmetry_space_group_name_H-M "P N M A"
_symmetry_group_IT_number 62
_symmetry_cell_setting 'orthorhombic'
loop_
_space_group_symop_operation_xyz
x,y,z
1/2-x,-y,1/2+z
1/2+x,1/2-y,1/2-z
-x,1/2+y,-z
-x,-y,-z
1/2+x,y,1/2-z
1/2-x,1/2+y,1/2+z
x,1/2-y,z
loop_
_atom_site_type_symbol
_atom_site_label
_atom_site_fract_x
_atom_site_fract_y
_atom_site_fract_z
Si Si1 0.015319 0.083655 0.821682
Si Si2 0.767491 0.417918 0.657254
Si Si3 0.523939 0.579459 0.219776
Si Si4 0.310625 0.579276 0.935846
Si Si5 0.641601 0.420123 0.387306
Si Si6 0.618832 0.921807 0.846639
Si Si7 0.229477 0.915873 0.030463
Si Si8 0.528477 0.419987 0.930711
O O1 0.987232 0.250000 0.834521
O O2 0.959632 0.041807 0.773166
O O3 0.148663 0.058093 0.817962
O O4 0.965761 0.984223 0.861740
O O5 0.785637 0.250000 0.642971
O O6 0.862707 0.467524 0.693259
O O7 0.767360 0.513414 0.611424
O O8 0.495375 0.750000 0.213482
O O9 0.416977 0.483958 0.202750
O O10 0.336126 0.750000 0.929783
O O11 0.423425 0.500183 0.954253
O O12 0.216426 0.555441 0.975915
O O13 0.623991 0.250000 0.392496
O O14 0.752079 0.460423 0.357820
O O15 0.649502 0.482606 0.438948
O O16 0.596638 0.750000 0.850348
O O17 0.536639 0.008326 0.880648
O O18 0.199648 0.750000 0.043337
O O19 0.359476 0.950062 0.041132
O O20 0.501647 0.250000 0.925014
#
# Coordination Sequence:
#
# PCOD8250482 Si02
#       8
#     8   8   8   8   8   8   8   8
#     4  10  23  41  63  86 114 154 197 245 291 346
#     4  10  22  40  59  87 120 152 197 244 291 347
#     4  10  21  37  61  88 114 149 193 239 290 351
#     4  11  21  34  55  85 119 156 196 243 298 351
#     4  10  22  39  59  86 119 153 195 245 294 348
#     4  10  20  34  54  84 118 150 186 234 288 342
#     4   9  20  36  56  83 116 156 201 242 291 353
#     4  10  18  31  52  80 116 156 191 234 287 344
#
# _framework density 20.11571
#
# number of rings (size 3 to 8) (size 9 to 14) (size 15 to 20)
#    0.000    2.000    1.250    1.875    1.750    4.000 
#    0.000    0.625    0.000    0.000    0.000    0.000 
#    0.000    0.000    0.000    0.000    0.000    0.000 
#
# Total GULP energy -793626.989030 kJ/mol
# GULP energy per Si atom -12400.421704 kJ/mol
# Density = 2.006993 g / cm^3
# Si number density = 20.115710 Si / 1000 Ang^3
#
#
#
# Elastic Constant Matrix: (Units=GPa)
#
#
# Indices 1 2 3 4 5 6 
#
# 1 51.7132 22.9280 27.7250 0.0000 0.0000 0.0000
# 2 22.9280 84.6098 44.8990 0.0000 0.0000 0.0000
# 3 27.7250 44.8990 107.4007 0.0000 0.0000 0.0000
# 4 0.0000 0.0000 0.0000 30.8414 0.0000 0.0000
# 5 0.0000 0.0000 0.0000 0.0000 21.3304 0.0000
# 6 0.0000 0.0000 0.0000 0.0000 0.0000 28.0707
#
#
#
# Elastic Compliance Matrix: (Units=1/GPa)
#
#
# Indices 1 2 3 4 5 6 
#
# 1 0.023472 -0.004042 -0.004369 0.000000 0.000000 0.000000
# 2 -0.004042 0.015884 -0.005597 0.000000 0.000000 0.000000
# 3 -0.004369 -0.005597 0.012779 0.000000 0.000000 0.000000
# 4 0.000000 0.000000 0.000000 0.032424 0.000000 0.000000
# 5 0.000000 0.000000 0.000000 0.000000 0.046881 0.000000
# 6 0.000000 0.000000 0.000000 0.000000 0.000000 0.035624
#
#
# Mechanical properties :
#
#
# Convention : Reuss Voigt Hill
#
# Bulk Modulus (GPa) = 41.46228 48.31419 44.88824
# Shear Modulus (GPa) = 24.61583 25.92662 25.27122
#
# Velocity S-wave (km/s) = 3.50195 3.59398 3.54827
# Velocity P-wave (km/s) = 6.08344 6.42593 6.25703
#
# Compressibility (1/GPa) = 0.02411831
#
# Stress axis : x y z
#
# Youngs Moduli (GPa) = 42.60379 62.95485 78.25482
#
# Poissons Ratio (x) = 0.25446 0.34193
# Poissons Ratio (y) = 0.17220 0.43800
# Poissons Ratio (z) = 0.18616 0.35236
#
# Static dielectric constant tensor:
#      x y z
#    x 3.447810 0.000000 0.000000 
#    y 0.000000 3.590090 0.000000 
#    z 0.000000 0.000000 3.718320 
# 
# 
# High freq. dielectric constant tensor:
#      x y z
#    x 1.766740 0.000000 0.000000 
#    y 0.000000 1.783910 0.000000 
#    z 0.000000 0.000000 1.789020 
# 
# From -- ./inp_files/32469.got.cif
#   From: 2010.03.12/outbox.cif.g09.slc.cpg/sg62_17_cif.got.tgz:32469.got - 2010.04.10 19:12:36.
