data_PCOD8250597
_publ_section_title
;
Structure prediction by ZEFSAII (Michael W. Deem and Ramdas Pophale) SiO2 
 PCOD8250597
Probable space group: P N M A
;
_chemical_formula_sum "Si O2"
_cell_formula_units_Z 64
_cell_length_a 23.954508
_cell_length_b 8.730447
_cell_length_c 15.495286
_cell_angle_alpha 90.000000
_cell_angle_beta 90.000000
_cell_angle_gamma 90.000000
_cell_volume 3240.584363
_symmetry_space_group_name_H-M "P N M A"
_symmetry_group_IT_number 62
_symmetry_cell_setting 'orthorhombic'
loop_
_space_group_symop_operation_xyz
x,y,z
1/2-x,-y,1/2+z
1/2+x,1/2-y,1/2-z
-x,1/2+y,-z
-x,-y,-z
1/2+x,y,1/2-z
1/2-x,1/2+y,1/2+z
x,1/2-y,z
loop_
_atom_site_type_symbol
_atom_site_label
_atom_site_fract_x
_atom_site_fract_y
_atom_site_fract_z
Si Si1 0.562904 0.570221 0.747270
Si Si2 0.631570 0.424741 0.895859
Si Si3 0.870339 0.930469 0.591020
Si Si4 0.748742 0.070405 0.148454
Si Si5 0.251456 0.074948 0.670817
Si Si6 0.557614 0.568918 0.239186
Si Si7 0.634308 0.932623 0.585867
Si Si8 0.129870 0.930549 0.103176
O O1 0.550726 0.750000 0.742301
O O2 0.601412 0.537666 0.829806
O O3 0.506017 0.479216 0.755777
O O4 0.593280 0.507952 0.660892
O O5 0.614446 0.250000 0.874187
O O6 0.698405 0.443610 0.891363
O O7 0.613451 0.469168 0.992623
O O8 0.870752 0.750000 0.607908
O O9 0.809048 0.000352 0.612441
O O10 0.916401 0.006768 0.651163
O O11 0.747218 0.250000 0.133160
O O12 0.803078 0.001546 0.100324
O O13 0.755627 0.036106 0.248850
O O14 0.257701 0.250000 0.703397
O O15 0.305969 0.022999 0.618372
O O16 0.562407 0.750000 0.237886
O O17 0.590486 0.498766 0.322199
O O18 0.636543 0.750000 0.589578
O O19 0.612641 0.991411 0.492251
O O20 0.122813 0.750000 0.104681
#
# Coordination Sequence:
#
# PCOD8250597 Si02
#       8
#     8   8   8   8   8   8   8   8
#     4  11  23  39  59  82 110 148 190 236 281 327
#     4  10  21  37  59  86 115 148 185 228 279 334
#     4  10  21  37  59  86 115 148 185 228 279 334
#     4  10  18  32  57  86 116 147 180 221 274 333
#     4  10  18  32  57  86 116 147 180 221 274 333
#     4  11  23  39  59  82 110 148 190 236 281 327
#     4   9  18  34  57  84 113 147 184 221 271 334
#     4   9  18  34  57  84 113 147 184 221 271 334
#
# _framework density 19.749524000000001
#
# number of rings (size 3 to 8) (size 9 to 14) (size 15 to 20)
#    0.000    2.000    2.500    1.500    0.000    4.500 
#    0.000    0.000    0.000    7.500    0.000    0.000 
#    0.000    0.000    0.000    0.000    0.000    0.000 
#
# Total GULP energy -793566.068453 kJ/mol
# GULP energy per Si atom -12399.469820 kJ/mol
# Density = 1.970457 g / cm^3
# Si number density = 19.749524 Si / 1000 Ang^3
#
#
#
# Elastic Constant Matrix: (Units=GPa)
#
#
# Indices 1 2 3 4 5 6 
#
# 1 114.3522 13.9652 53.5446 0.0000 0.0000 0.0000
# 2 13.9652 20.2685 23.3160 0.0000 0.0000 0.0000
# 3 53.5446 23.3160 146.5409 0.0000 0.0000 0.0000
# 4 0.0000 0.0000 0.0000 25.0604 0.0000 0.0000
# 5 0.0000 0.0000 0.0000 0.0000 17.4476 0.0000
# 6 0.0000 0.0000 0.0000 0.0000 0.0000 6.8633
#
#
#
# Elastic Compliance Matrix: (Units=1/GPa)
#
#
# Indices 1 2 3 4 5 6 
#
# 1 0.010753 -0.003536 -0.003366 0.000000 0.000000 0.000000
# 2 -0.003536 0.061554 -0.008502 0.000000 0.000000 0.000000
# 3 -0.003366 -0.008502 0.009407 0.000000 0.000000 0.000000
# 4 0.000000 0.000000 0.000000 0.039904 0.000000 0.000000
# 5 0.000000 0.000000 0.000000 0.000000 0.057315 0.000000
# 6 0.000000 0.000000 0.000000 0.000000 0.000000 0.145702
#
#
# Mechanical properties :
#
#
# Convention : Reuss Voigt Hill
#
# Bulk Modulus (GPa) = 19.64441 51.42368 35.53404
# Shear Modulus (GPa) = 13.42600 22.56332 17.99466
#
# Velocity S-wave (km/s) = 2.61015 3.38372 3.02179
# Velocity P-wave (km/s) = 4.36489 6.43121 5.49603
#
# Compressibility (1/GPa) = 0.05090508
#
# Stress axis : x y z
#
# Youngs Moduli (GPa) = 92.99658 16.24586 106.30646
#
# Poissons Ratio (x) = 0.05745 0.35787
# Poissons Ratio (y) = 0.32888 0.90378
# Poissons Ratio (z) = 0.31306 0.13812
#
# Static dielectric constant tensor:
#      x y z
#    x 3.692830 0.000000 0.000000 
#    y 0.000000 3.248620 0.000000 
#    z 0.000000 0.000000 3.788090 
# 
# 
# High freq. dielectric constant tensor:
#      x y z
#    x 1.773340 0.000000 0.000000 
#    y 0.000000 1.733450 0.000000 
#    z 0.000000 0.000000 1.781990 
# 
# From -- ./inp_files/20756.got.cif
#   From: 2010.03.12/outbox.cif.g09.slc.cpg/sg62_11_cif.got.tgz:20756.got - 2010.04.10 19:12:36.
