data_PCOD8250481
_publ_section_title
;
Structure prediction by ZEFSAII (Michael W. Deem and Ramdas Pophale) SiO2 
 PCOD8250481
Probable space group: P N M A
;
_chemical_formula_sum "Si O2"
_cell_formula_units_Z 64
_cell_length_a 15.078837
_cell_length_b 8.813223
_cell_length_c 24.714372
_cell_angle_alpha 90.000000
_cell_angle_beta 90.000000
_cell_angle_gamma 90.000000
_cell_volume 3284.370821
_symmetry_space_group_name_H-M "P N M A"
_symmetry_group_IT_number 62
_symmetry_cell_setting 'orthorhombic'
loop_
_space_group_symop_operation_xyz
x,y,z
1/2-x,-y,1/2+z
1/2+x,1/2-y,1/2-z
-x,1/2+y,-z
-x,-y,-z
1/2+x,y,1/2-z
1/2-x,1/2+y,1/2+z
x,1/2-y,z
loop_
_atom_site_type_symbol
_atom_site_label
_atom_site_fract_x
_atom_site_fract_y
_atom_site_fract_z
Si Si1 0.865342 0.423454 0.928081
Si Si2 0.195320 0.929078 0.186230
Si Si3 0.061307 0.925104 0.579567
Si Si4 0.478168 0.928407 0.724573
Si Si5 0.882222 0.578479 0.525022
Si Si6 0.948827 0.576481 0.119419
Si Si7 0.395593 0.573185 0.189712
Si Si8 0.314574 0.424433 0.456131
O O1 0.834620 0.250000 0.931243
O O2 0.817807 0.495513 0.875028
O O3 0.970938 0.441733 0.922814
O O4 0.835810 0.498539 0.984794
O O5 0.176666 0.750000 0.185016
O O6 0.294149 0.967079 0.207310
O O7 0.121200 0.001929 0.225359
O O8 0.077492 0.750000 0.594837
O O9 0.957869 0.960811 0.568545
O O10 0.116253 0.965336 0.525752
O O11 0.094314 0.032936 0.627071
O O12 0.467790 0.750000 0.725296
O O13 0.533748 0.978751 0.672564
O O14 0.532872 0.978306 0.777050
O O15 0.895583 0.750000 0.503135
O O16 0.789462 0.561448 0.555813
O O17 0.937022 0.750000 0.137810
O O18 0.860395 0.519813 0.090785
O O19 0.413871 0.750000 0.198649
O O20 0.347554 0.250000 0.453549
#
# Coordination Sequence:
#
# PCOD8250481 Si02
#       8
#     8   8   8   8   8   8   8   8
#     4   8  15  29  52  79 107 138 178 227 275 328
#     4   9  19  38  62  86 111 144 188 235 285 339
#     4  10  20  35  56  83 114 147 187 236 285 335
#     4  11  23  40  60  84 115 149 187 237 291 341
#     4   9  19  35  54  79 115 153 187 230 284 338
#     4  10  20  35  52  75 111 149 187 233 283 334
#     4  11  22  39  64  88 112 148 193 238 288 344
#     4  10  18  31  52  79 109 147 190 229 281 339
#
# _framework density 19.486228000000001
#
# number of rings (size 3 to 8) (size 9 to 14) (size 15 to 20)
#    0.000    2.250    0.000    4.125    0.000    4.000 
#    2.250    2.500    0.000    0.000    0.000    0.000 
#    0.000    0.000    0.000    0.000    0.000    0.000 
#
# Total GULP energy -793614.965224 kJ/mol
# GULP energy per Si atom -12400.233832 kJ/mol
# Density = 1.944188 g / cm^3
# Si number density = 19.486228 Si / 1000 Ang^3
#
#
#
# Elastic Constant Matrix: (Units=GPa)
#
#
# Indices 1 2 3 4 5 6 
#
# 1 108.8699 44.2287 39.4827 0.0000 0.0000 0.0000
# 2 44.2287 73.6823 27.3845 0.0000 0.0000 0.0000
# 3 39.4827 27.3845 49.6182 0.0000 0.0000 0.0000
# 4 0.0000 0.0000 0.0000 30.5949 0.0000 0.0000
# 5 0.0000 0.0000 0.0000 0.0000 25.9330 0.0000
# 6 0.0000 0.0000 0.0000 0.0000 0.0000 26.1468
#
#
#
# Elastic Compliance Matrix: (Units=1/GPa)
#
#
# Indices 1 2 3 4 5 6 
#
# 1 0.014523 -0.005564 -0.008486 0.000000 0.000000 0.000000
# 2 -0.005564 0.019206 -0.006172 0.000000 0.000000 0.000000
# 3 -0.008486 -0.006172 0.030313 0.000000 0.000000 0.000000
# 4 0.000000 0.000000 0.000000 0.032685 0.000000 0.000000
# 5 0.000000 0.000000 0.000000 0.000000 0.038561 0.000000
# 6 0.000000 0.000000 0.000000 0.000000 0.000000 0.038246
#
#
# Mechanical properties :
#
#
# Convention : Reuss Voigt Hill
#
# Bulk Modulus (GPa) = 42.37718 50.48467 46.43093
# Shear Modulus (GPa) = 22.53854 24.60659 23.57256
#
# Velocity S-wave (km/s) = 3.40463 3.55740 3.48185
# Velocity P-wave (km/s) = 6.10326 6.54504 6.32801
#
# Compressibility (1/GPa) = 0.02359760
#
# Stress axis : x y z
#
# Youngs Moduli (GPa) = 68.85626 52.06836 32.98951
#
# Poissons Ratio (x) = 0.28970 0.27994
# Poissons Ratio (y) = 0.38311 0.20362
# Poissons Ratio (z) = 0.58429 0.32138
#
# Static dielectric constant tensor:
#      x y z
#    x 3.641320 0.000000 0.000000 
#    y 0.000000 3.413650 0.000000 
#    z 0.000000 0.000000 3.388200 
# 
# 
# High freq. dielectric constant tensor:
#      x y z
#    x 1.766850 0.000000 0.000000 
#    y 0.000000 1.745920 0.000000 
#    z 0.000000 0.000000 1.741850 
# 
# From -- ./inp_files/29925.got.cif
#   From: 2010.03.12/outbox.cif.g09.slc.cpg/sg62_15_cif.got.tgz:29925.got - 2010.04.10 19:12:36.
