data_PCOD8250829
_publ_section_title
;
Structure prediction by ZEFSAII (Michael W. Deem and Ramdas Pophale) SiO2 
 PCOD8250829
Probable space group: P N M A
;
_chemical_formula_sum "Si O2"
_cell_formula_units_Z 56
_cell_length_a 18.638809
_cell_length_b 9.413771
_cell_length_c 18.372234
_cell_angle_alpha 90.000000
_cell_angle_beta 90.000000
_cell_angle_gamma 90.000000
_cell_volume 3223.619362
_symmetry_space_group_name_H-M "P N M A"
_symmetry_group_IT_number 62
_symmetry_cell_setting 'orthorhombic'
loop_
_space_group_symop_operation_xyz
x,y,z
1/2-x,-y,1/2+z
1/2+x,1/2-y,1/2-z
-x,1/2+y,-z
-x,-y,-z
1/2+x,y,1/2-z
1/2-x,1/2+y,1/2+z
x,1/2-y,z
loop_
_atom_site_type_symbol
_atom_site_label
_atom_site_fract_x
_atom_site_fract_y
_atom_site_fract_z
Si Si1 0.651761 0.086659 0.540840
Si Si2 0.736019 0.591304 0.341547
Si Si3 0.394289 0.583970 0.623087
Si Si4 0.037173 0.081573 0.840103
Si Si5 0.389114 0.581909 0.192147
Si Si6 0.434647 0.581617 0.035245
Si Si7 0.280356 0.906332 0.991587
O O1 0.669624 0.250000 0.552421
O O2 0.618081 0.056389 0.462132
O O3 0.595118 0.033197 0.600243
O O4 0.727633 0.008529 0.553292
O O5 0.714528 0.750000 0.314000
O O6 0.670378 0.482991 0.329525
O O7 0.806271 0.529761 0.299824
O O8 0.755951 0.599954 0.425587
O O9 0.400166 0.750000 0.641310
O O10 0.465715 0.504409 0.645680
O O11 0.022068 0.250000 0.844360
O O12 0.065426 0.032652 0.761356
O O13 0.384429 0.750000 0.186454
O O14 0.426357 0.525553 0.118335
O O15 0.448460 0.750000 0.033088
O O16 0.362974 0.541715 0.989439
O O17 0.500000 0.500000 0.000000
O O18 0.274295 0.750000 0.956587
#
# Coordination Sequence:
#
# PCOD8250829 Si02
#       7
#     8   8   8   8   8   8   8
#     4   9  18  30  46  69  95 122 157 196 233 273
#     4   8  14  29  51  68  83 113 154 192 227 270
#     4  10  19  30  45  70  99 124 153 192 233 278
#     4  10  19  32  49  69  94 126 160 195 232 274
#     4   8  16  32  52  70  90 119 160 199 230 270
#     4   9  17  31  51  74  95 120 155 196 237 278
#     4   8  15  28  47  68  90 116 149 186 229 279
#
# _framework density 17.371777000000002
#
# number of rings (size 3 to 8) (size 9 to 14) (size 15 to 20)
#    0.000    3.143    0.000    2.571    0.000    1.714 
#    0.000    5.000    0.000    6.857    0.000    0.000 
#    0.000    0.000    0.000    0.000    0.000    0.000 
#
# Total GULP energy -694117.154426 kJ/mol
# GULP energy per Si atom -12394.949186 kJ/mol
# Density = 1.733224 g / cm^3
# Si number density = 17.371777 Si / 1000 Ang^3
#
#
#
# Elastic Constant Matrix: (Units=GPa)
#
#
# Indices 1 2 3 4 5 6 
#
# 1 179.1546 78.1168 60.0895 0.0000 0.0000 0.0000
# 2 78.1168 69.2396 34.8991 0.0000 0.0000 0.0000
# 3 60.0895 34.8991 61.0093 0.0000 0.0000 0.0000
# 4 0.0000 0.0000 0.0000 16.2034 0.0000 0.0000
# 5 0.0000 0.0000 0.0000 0.0000 12.5947 0.0000
# 6 0.0000 0.0000 0.0000 0.0000 0.0000 36.1705
#
#
#
# Elastic Compliance Matrix: (Units=1/GPa)
#
#
# Indices 1 2 3 4 5 6 
#
# 1 0.012325 -0.010941 -0.005880 0.000000 0.000000 0.000000
# 2 -0.010941 0.030006 -0.006389 0.000000 0.000000 0.000000
# 3 -0.005880 -0.006389 0.025837 0.000000 0.000000 0.000000
# 4 0.000000 0.000000 0.000000 0.061715 0.000000 0.000000
# 5 0.000000 0.000000 0.000000 0.000000 0.079399 0.000000
# 6 0.000000 0.000000 0.000000 0.000000 0.000000 0.027647
#
#
# Mechanical properties :
#
#
# Convention : Reuss Voigt Hill
#
# Bulk Modulus (GPa) = 45.98022 72.84600 59.41311
# Shear Modulus (GPa) = 17.20592 22.08025 19.64308
#
# Velocity S-wave (km/s) = 3.15056 3.56903 3.36631
# Velocity P-wave (km/s) = 6.30559 7.68170 7.02741
#
# Compressibility (1/GPa) = 0.02174848
#
# Stress axis : x y z
#
# Youngs Moduli (GPa) = 81.13850 33.32640 38.70417
#
# Poissons Ratio (x) = 0.36462 0.22759
# Poissons Ratio (y) = 0.88773 0.24726
# Poissons Ratio (z) = 0.47712 0.21291
#
# Static dielectric constant tensor:
#      x y z
#    x 3.509770 0.000000 0.000000 
#    y 0.000000 3.265040 0.000000 
#    z 0.000000 0.000000 3.288270 
# 
# 
# High freq. dielectric constant tensor:
#      x y z
#    x 1.682690 0.000000 0.000000 
#    y 0.000000 1.654550 0.000000 
#    z 0.000000 0.000000 1.640880 
# 
# From -- ./inp_files/27522.got.cif
#   From: 2010.03.12/outbox.cif.g09.slc.cpg/sg62_14_cif.got.tgz:27522.got - 2010.04.10 19:12:36.
