data_PCOD8250800
_publ_section_title
;
Structure prediction by ZEFSAII (Michael W. Deem and Ramdas Pophale) SiO2 
 PCOD8250800
Probable space group: P N M A
;
_chemical_formula_sum "Si O2"
_cell_formula_units_Z 64
_cell_length_a 21.366019
_cell_length_b 9.256645
_cell_length_c 17.948999
_cell_angle_alpha 90.000000
_cell_angle_beta 90.000000
_cell_angle_gamma 90.000000
_cell_volume 3549.910895
_symmetry_space_group_name_H-M "P N M A"
_symmetry_group_IT_number 62
_symmetry_cell_setting 'orthorhombic'
loop_
_space_group_symop_operation_xyz
x,y,z
1/2-x,-y,1/2+z
1/2+x,1/2-y,1/2-z
-x,1/2+y,-z
-x,-y,-z
1/2+x,y,1/2-z
1/2-x,1/2+y,1/2+z
x,1/2-y,z
loop_
_atom_site_type_symbol
_atom_site_label
_atom_site_fract_x
_atom_site_fract_y
_atom_site_fract_z
Si Si1 0.111225 0.915631 0.601742
Si Si2 0.757941 0.080710 0.114029
Si Si3 0.149528 0.915230 0.758579
Si Si4 0.035761 0.080004 0.065479
Si Si5 0.550519 0.087856 0.659375
Si Si6 0.141823 0.584720 0.436302
Si Si7 0.502965 0.583361 0.076496
Si Si8 0.852410 0.591274 0.025342
O O1 0.089890 0.750000 0.591311
O O2 0.161701 0.930871 0.669366
O O3 0.139742 0.969670 0.522944
O O4 0.049771 0.007198 0.627276
O O5 0.750113 0.250000 0.105817
O O6 0.790226 0.035831 0.192800
O O7 0.689875 0.010051 0.111143
O O8 0.799405 0.025454 0.044085
O O9 0.133865 0.750000 0.779922
O O10 0.088803 0.011005 0.775311
O O11 0.018653 0.250000 0.066064
O O12 0.110855 0.057783 0.052371
O O13 0.012744 0.004100 0.142057
O O14 0.000000 0.000000 0.000000
O O15 0.531694 0.250000 0.684366
O O16 0.594197 0.091981 0.587432
O O17 0.164357 0.750000 0.434509
O O18 0.074547 0.568028 0.394975
O O19 0.485056 0.750000 0.065805
O O20 0.500000 0.500000 0.000000
O O21 0.820578 0.750000 0.021226
#
# Coordination Sequence:
#
# PCOD8250800 Si02
#       8
#     8   8   8   8   8   8   8   8
#     4   9  18  33  53  75  99 128 161 201 248 294
#     4  10  19  29  46  71  97 128 166 205 241 285
#     4   9  18  32  48  69  98 129 163 203 246 292
#     4   9  15  23  37  57  81 112 150 193 240 283
#     4   9  16  25  39  61  87 117 153 192 237 285
#     4   9  18  32  50  72  99 129 158 194 242 292
#     4   9  17  30  50  76 101 124 153 192 241 293
#     4   8  15  26  39  57  84 117 152 190 233 280
#
# _framework density 18.028621999999999
#
# number of rings (size 3 to 8) (size 9 to 14) (size 15 to 20)
#    0.000    3.000    0.000    3.000    0.000    7.000 
#    0.000    0.000    0.000    1.500    0.000    7.000 
#    0.000    0.000    0.000    0.000    0.000    0.000 
#
# Total GULP energy -792875.060699 kJ/mol
# GULP energy per Si atom -12388.672823 kJ/mol
# Density = 1.798759 g / cm^3
# Si number density = 18.028622 Si / 1000 Ang^3
#
#
#
# Elastic Constant Matrix: (Units=GPa)
#
#
# Indices 1 2 3 4 5 6 
#
# 1 81.8301 43.5009 30.6274 0.0000 0.0000 0.0000
# 2 43.5009 95.2105 24.2386 0.0000 0.0000 0.0000
# 3 30.6274 24.2386 57.9167 0.0000 0.0000 0.0000
# 4 0.0000 0.0000 0.0000 17.3629 0.0000 0.0000
# 5 0.0000 0.0000 0.0000 0.0000 18.1644 0.0000
# 6 0.0000 0.0000 0.0000 0.0000 0.0000 33.1001
#
#
#
# Elastic Compliance Matrix: (Units=1/GPa)
#
#
# Indices 1 2 3 4 5 6 
#
# 1 0.018326 -0.006610 -0.006925 0.000000 0.000000 0.000000
# 2 -0.006610 0.014140 -0.002422 0.000000 0.000000 0.000000
# 3 -0.006925 -0.002422 0.021942 0.000000 0.000000 0.000000
# 4 0.000000 0.000000 0.000000 0.057594 0.000000 0.000000
# 5 0.000000 0.000000 0.000000 0.000000 0.055053 0.000000
# 6 0.000000 0.000000 0.000000 0.000000 0.000000 0.030211
#
#
# Mechanical properties :
#
#
# Convention : Reuss Voigt Hill
#
# Bulk Modulus (GPa) = 44.45684 47.96567 46.21126
# Shear Modulus (GPa) = 21.12575 22.83151 21.97863
#
# Velocity S-wave (km/s) = 3.42685 3.56252 3.49534
# Velocity P-wave (km/s) = 6.35377 6.60190 6.47902
#
# Compressibility (1/GPa) = 0.02249372
#
# Stress axis : x y z
#
# Youngs Moduli (GPa) = 54.56656 70.72242 45.57518
#
# Poissons Ratio (x) = 0.46749 0.31560
# Poissons Ratio (y) = 0.36070 0.11038
# Poissons Ratio (z) = 0.37786 0.17129
#
# Static dielectric constant tensor:
#      x y z
#    x 3.793930 0.000000 0.000000 
#    y 0.000000 3.575650 0.000000 
#    z 0.000000 0.000000 4.007310 
# 
# 
# High freq. dielectric constant tensor:
#      x y z
#    x 1.676850 0.000000 0.000000 
#    y 0.000000 1.707330 0.000000 
#    z 0.000000 0.000000 1.661630 
# 
# From -- ./inp_files/27949.got.cif
#   From: 2010.03.12/outbox.cif.g09.slc.cpg/sg62_14_cif.got.tgz:27949.got - 2010.04.10 19:12:36.
