data_PCOD8250221
_publ_section_title
;
Structure prediction by ZEFSAII (Michael W. Deem and Ramdas Pophale) SiO2 
 PCOD8250221
Probable space group: P N M A
;
_chemical_formula_sum "Si O2"
_cell_formula_units_Z 64
_cell_length_a 14.977612
_cell_length_b 9.359256
_cell_length_c 24.632327
_cell_angle_alpha 90.000000
_cell_angle_beta 90.000000
_cell_angle_gamma 90.000000
_cell_volume 3452.942479
_symmetry_space_group_name_H-M "P N M A"
_symmetry_group_IT_number 62
_symmetry_cell_setting 'orthorhombic'
loop_
_space_group_symop_operation_xyz
x,y,z
1/2-x,-y,1/2+z
1/2+x,1/2-y,1/2-z
-x,1/2+y,-z
-x,-y,-z
1/2+x,y,1/2-z
1/2-x,1/2+y,1/2+z
x,1/2-y,z
loop_
_atom_site_type_symbol
_atom_site_label
_atom_site_fract_x
_atom_site_fract_y
_atom_site_fract_z
Si Si1 0.117584 0.912455 0.524727
Si Si2 0.433624 0.583362 0.926123
Si Si3 0.863229 0.919735 0.072765
Si Si4 0.811787 0.913476 0.954582
Si Si5 0.386167 0.919835 0.804755
Si Si6 0.290318 0.581434 0.313949
Si Si7 0.948395 0.087435 0.890621
Si Si8 0.484783 0.587481 0.271104
O O1 0.104782 0.750000 0.505443
O O2 0.207531 0.929865 0.559583
O O3 0.036466 0.962187 0.562962
O O4 0.127464 0.003547 0.469869
O O5 0.418825 0.750000 0.934421
O O6 0.406791 0.535510 0.866338
O O7 0.864036 0.750000 0.076800
O O8 0.803509 0.972943 0.123700
O O9 0.964517 0.975553 0.079135
O O10 0.827277 0.976320 0.015277
O O11 0.843623 0.750000 0.953015
O O12 0.863169 0.997726 0.908384
O O13 0.379072 0.750000 0.796382
O O14 0.292399 0.994040 0.788017
O O15 0.469424 0.978529 0.770363
O O16 0.269167 0.750000 0.311362
O O17 0.380612 0.547169 0.280119
O O18 0.931438 0.250000 0.907938
O O19 0.960522 0.073728 0.826612
O O20 0.491616 0.750000 0.249281
#
# Coordination Sequence:
#
# PCOD8250221 Si02
#       8
#     8   8   8   8   8   8   8   8
#     4   9  18  33  52  74 104 139 172 209 253 307
#     4   9  19  35  52  74 105 136 169 212 262 311
#     4   8  15  29  50  75 101 133 172 214 257 304
#     4  10  18  28  47  76 105 135 171 204 251 317
#     4  11  22  35  55  82 110 140 174 221 277 327
#     4   9  18  36  60  80 102 137 182 227 266 311
#     4   9  18  33  50  69 100 135 169 214 262 302
#     4   9  20  39  58  76 103 140 182 228 267 312
#
# _framework density 18.534915999999999
#
# number of rings (size 3 to 8) (size 9 to 14) (size 15 to 20)
#    0.000    2.750    0.000    3.000    0.000    3.500 
#    2.250    2.500    0.000    0.000    0.000    0.000 
#    0.000    0.000    0.000    0.000    0.000    0.000 
#
# Total GULP energy -793455.669718 kJ/mol
# GULP energy per Si atom -12397.744839 kJ/mol
# Density = 1.849273 g / cm^3
# Si number density = 18.534916 Si / 1000 Ang^3
#
#
#
# Elastic Constant Matrix: (Units=GPa)
#
#
# Indices 1 2 3 4 5 6 
#
# 1 101.9677 48.1628 43.9661 0.0000 0.0000 0.0000
# 2 48.1628 63.2107 36.2584 0.0000 0.0000 0.0000
# 3 43.9661 36.2584 54.3591 0.0000 0.0000 0.0000
# 4 0.0000 0.0000 0.0000 29.0750 0.0000 0.0000
# 5 0.0000 0.0000 0.0000 0.0000 26.2941 0.0000
# 6 0.0000 0.0000 0.0000 0.0000 0.0000 29.4634
#
#
#
# Elastic Compliance Matrix: (Units=1/GPa)
#
#
# Indices 1 2 3 4 5 6 
#
# 1 0.017447 -0.008421 -0.008494 0.000000 0.000000 0.000000
# 2 -0.008421 0.029689 -0.012992 0.000000 0.000000 0.000000
# 3 -0.008494 -0.012992 0.033932 0.000000 0.000000 0.000000
# 4 0.000000 0.000000 0.000000 0.034394 0.000000 0.000000
# 5 0.000000 0.000000 0.000000 0.000000 0.038031 0.000000
# 6 0.000000 0.000000 0.000000 0.000000 0.000000 0.033940
#
#
# Mechanical properties :
#
#
# Convention : Reuss Voigt Hill
#
# Bulk Modulus (GPa) = 47.05101 52.92356 49.98729
# Shear Modulus (GPa) = 19.65925 23.04316 21.35121
#
# Velocity S-wave (km/s) = 3.26031 3.52977 3.39771
# Velocity P-wave (km/s) = 6.29389 6.72516 6.51310
#
# Compressibility (1/GPa) = 0.02125353
#
# Stress axis : x y z
#
# Youngs Moduli (GPa) = 57.31559 33.68267 29.47055
#
# Poissons Ratio (x) = 0.28365 0.25033
# Poissons Ratio (y) = 0.48267 0.38287
# Poissons Ratio (z) = 0.48686 0.43760
#
# Static dielectric constant tensor:
#      x y z
#    x 3.490860 0.000000 0.000000 
#    y 0.000000 3.186300 0.000000 
#    z 0.000000 0.000000 3.271400 
# 
# 
# High freq. dielectric constant tensor:
#      x y z
#    x 1.729020 0.000000 0.000000 
#    y 0.000000 1.700830 0.000000 
#    z 0.000000 0.000000 1.701880 
# 
# From -- ./inp_files/29765.got.cif
#   From: 2010.03.12/outbox.cif.g09.slc.cpg/sg62_15_cif.got.tgz:29765.got - 2010.04.10 19:12:36.
