data_PCOD8250672
_publ_section_title
;
Structure prediction by ZEFSAII (Michael W. Deem and Ramdas Pophale) SiO2 
 PCOD8250672
Probable space group: P N M A
;
_chemical_formula_sum "Si O2"
_cell_formula_units_Z 64
_cell_length_a 16.952606
_cell_length_b 19.049120
_cell_length_c 10.204299
_cell_angle_alpha 90.000000
_cell_angle_beta 90.000000
_cell_angle_gamma 90.000000
_cell_volume 3295.296991
_symmetry_space_group_name_H-M "P N M A"
_symmetry_group_IT_number 62
_symmetry_cell_setting 'orthorhombic'
loop_
_space_group_symop_operation_xyz
x,y,z
1/2-x,-y,1/2+z
1/2+x,1/2-y,1/2-z
-x,1/2+y,-z
-x,-y,-z
1/2+x,y,1/2-z
1/2-x,1/2+y,1/2+z
x,1/2-y,z
loop_
_atom_site_type_symbol
_atom_site_label
_atom_site_fract_x
_atom_site_fract_y
_atom_site_fract_z
Si Si1 0.704185 0.941718 0.394196
Si Si2 0.656152 0.830414 0.718433
Si Si3 0.253859 0.041623 0.886487
Si Si4 0.420638 0.567353 0.361056
Si Si5 0.936084 0.586669 0.431520
Si Si6 0.895503 0.424169 0.459697
Si Si7 0.443232 0.418293 0.460517
Si Si8 0.290614 0.669195 0.981381
O O1 0.729400 0.982468 0.263078
O O2 0.610388 0.942949 0.414883
O O3 0.738826 0.862585 0.397731
O O4 0.748778 0.974365 0.520372
O O5 0.643536 0.750000 0.762557
O O6 0.639716 0.883307 0.836145
O O7 0.591872 0.849068 0.606561
O O8 0.743825 0.841209 0.657269
O O9 0.170782 0.082321 0.895190
O O10 0.328433 0.088671 0.929565
O O11 0.439423 0.605018 0.223195
O O12 0.442829 0.483678 0.357677
O O13 0.471539 0.600784 0.480001
O O14 0.907951 0.506380 0.434799
O O15 0.876526 0.633151 0.518097
O O16 0.020964 0.605474 0.492388
O O17 0.302887 0.750000 0.012909
#
# Coordination Sequence:
#
# PCOD8250672 Si02
#       8
#     8   8   8   8   8   8   8   8
#     4  10  20  34  58  89 120 158 198 253 307 370
#     4  10  22  43  63  86 125 165 207 256 318 390
#     4  11  20  34  60  91 124 156 202 254 313 363
#     4  10  18  34  57  90 119 153 197 259 304 369
#     4  11  21  37  59  90 123 154 210 260 315 362
#     4  11  23  36  60  91 122 159 205 262 315 371
#     4   9  19  34  58  87 123 154 202 248 314 364
#     4  10  21  38  62  85 117 166 207 247 310 384
#
# _framework density 19.421619
#
# number of rings (size 3 to 8) (size 9 to 14) (size 15 to 20)
#    0.000    1.750    3.750    0.750    3.500    0.500 
#    2.250    1.250    0.000    3.000    0.000    0.000 
#    0.000    0.000    0.000    0.000    0.000    0.000 
#
# Total GULP energy -793040.416667 kJ/mol
# GULP energy per Si atom -12391.256510 kJ/mol
# Density = 1.937741 g / cm^3
# Si number density = 19.421619 Si / 1000 Ang^3
#
#
#
# Elastic Constant Matrix: (Units=GPa)
#
#
# Indices 1 2 3 4 5 6 
#
# 1 123.5258 44.5046 55.1545 0.0000 0.0000 0.0000
# 2 44.5046 78.6429 43.5016 0.0000 0.0000 0.0000
# 3 55.1545 43.5016 113.6975 0.0000 0.0000 0.0000
# 4 0.0000 0.0000 0.0000 18.5826 0.0000 0.0000
# 5 0.0000 0.0000 0.0000 0.0000 30.7938 0.0000
# 6 0.0000 0.0000 0.0000 0.0000 0.0000 21.9181
#
#
#
# Elastic Compliance Matrix: (Units=1/GPa)
#
#
# Indices 1 2 3 4 5 6 
#
# 1 0.011372 -0.004292 -0.003874 0.000000 0.000000 0.000000
# 2 -0.004292 0.017750 -0.004709 0.000000 0.000000 0.000000
# 3 -0.003874 -0.004709 0.012476 0.000000 0.000000 0.000000
# 4 0.000000 0.000000 0.000000 0.053814 0.000000 0.000000
# 5 0.000000 0.000000 0.000000 0.000000 0.032474 0.000000
# 6 0.000000 0.000000 0.000000 0.000000 0.000000 0.045624
#
#
# Mechanical properties :
#
#
# Convention : Reuss Voigt Hill
#
# Bulk Modulus (GPa) = 63.10434 66.90973 65.00703
# Shear Modulus (GPa) = 24.44475 25.77260 25.10868
#
# Velocity S-wave (km/s) = 3.55158 3.64676 3.59948
# Velocity P-wave (km/s) = 7.02713 7.22895 7.12876
#
# Compressibility (1/GPa) = 0.01584677
#
# Stress axis : x y z
#
# Youngs Moduli (GPa) = 87.93719 56.33947 80.15225
#
# Poissons Ratio (x) = 0.24183 0.31052
# Poissons Ratio (y) = 0.37746 0.37743
# Poissons Ratio (z) = 0.34068 0.26530
#
# Static dielectric constant tensor:
#      x y z
#    x 3.864330 0.000000 0.000000 
#    y 0.000000 3.226700 0.000000 
#    z 0.000000 0.000000 3.508300 
# 
# 
# High freq. dielectric constant tensor:
#      x y z
#    x 1.774920 0.000000 0.000000 
#    y 0.000000 1.709710 0.000000 
#    z 0.000000 0.000000 1.749790 
# 
# From -- ./inp_files/8136.got.cif
#   From: 2010.03.12/outbox.cif.g09.slc.cpg/sg62_5_cif.got.tgz:8136.got - 2010.04.10 19:12:36.
