data_PCOD8250893
_publ_section_title
;
Structure prediction by ZEFSAII (Michael W. Deem and Ramdas Pophale) SiO2 
 PCOD8250893
Probable space group: P N M A
;
_chemical_formula_sum "Si O2"
_cell_formula_units_Z 56
_cell_length_a 21.213373
_cell_length_b 9.121866
_cell_length_c 14.988698
_cell_angle_alpha 90.000000
_cell_angle_beta 90.000000
_cell_angle_gamma 90.000000
_cell_volume 2900.396189
_symmetry_space_group_name_H-M "P N M A"
_symmetry_group_IT_number 62
_symmetry_cell_setting 'orthorhombic'
loop_
_space_group_symop_operation_xyz
x,y,z
1/2-x,-y,1/2+z
1/2+x,1/2-y,1/2-z
-x,1/2+y,-z
-x,-y,-z
1/2+x,y,1/2-z
1/2-x,1/2+y,1/2+z
x,1/2-y,z
loop_
_atom_site_type_symbol
_atom_site_label
_atom_site_fract_x
_atom_site_fract_y
_atom_site_fract_z
Si Si1 0.036911 0.577434 0.261058
Si Si2 0.243121 0.578346 0.497516
Si Si3 0.144160 0.584799 0.925321
Si Si4 0.834582 0.077119 0.666159
Si Si5 0.265365 0.576757 0.185754
Si Si6 0.456257 0.086940 0.564747
Si Si7 0.100310 0.078105 0.762402
O O1 0.047038 0.750000 0.260646
O O2 0.094448 0.511110 0.319939
O O3 0.047108 0.513211 0.161731
O O4 0.964819 0.540385 0.292439
O O5 0.249484 0.750000 0.516928
O O6 0.297680 0.525434 0.430825
O O7 0.181807 0.540359 0.437034
O O8 0.246723 0.493311 0.589776
O O9 0.164073 0.750000 0.896552
O O10 0.096203 0.515775 0.853202
O O11 0.113254 0.590700 0.023014
O O12 0.832818 0.250000 0.679951
O O13 0.784127 0.015439 0.739990
O O14 0.259202 0.750000 0.175047
O O15 0.337064 0.530604 0.209797
O O16 0.484515 0.250000 0.574029
O O17 0.500000 0.000000 0.500000
O O18 0.102122 0.250000 0.785958
#
# Coordination Sequence:
#
# PCOD8250893 Si02
#       7
#     8   8   8   8   8   8   8
#     4   9  17  31  53  78 106 144 186 225 272 331
#     4  11  22  37  58  83 109 145 194 238 277 330
#     4  11  21  33  53  81 114 146 179 227 284 332
#     4   9  18  35  57  80 111 146 185 230 279 333
#     4  10  20  37  58  81 112 148 187 233 284 331
#     4  10  19  30  49  77 108 141 177 219 272 334
#     4  10  19  34  57  81 108 145 187 226 270 336
#
# _framework density 19.307708000000002
#
# number of rings (size 3 to 8) (size 9 to 14) (size 15 to 20)
#    0.000    2.000    2.857    1.714    0.000    3.429 
#    0.000    0.714    0.000    3.429    0.000    0.000 
#    0.000    0.000    0.000    0.000    0.000    0.000 
#
# Total GULP energy -693829.964505 kJ/mol
# GULP energy per Si atom -12389.820795 kJ/mol
# Density = 1.926376 g / cm^3
# Si number density = 19.307708 Si / 1000 Ang^3
#
#
#
# Elastic Constant Matrix: (Units=GPa)
#
#
# Indices 1 2 3 4 5 6 
#
# 1 114.8512 11.9456 17.3629 0.0000 0.0000 0.0000
# 2 11.9456 34.0836 11.2879 0.0000 0.0000 0.0000
# 3 17.3629 11.2879 57.0905 0.0000 0.0000 0.0000
# 4 0.0000 0.0000 0.0000 24.5294 0.0000 0.0000
# 5 0.0000 0.0000 0.0000 0.0000 32.0835 0.0000
# 6 0.0000 0.0000 0.0000 0.0000 0.0000 14.3251
#
#
#
# Elastic Compliance Matrix: (Units=1/GPa)
#
#
# Indices 1 2 3 4 5 6 
#
# 1 0.009320 -0.002491 -0.002342 0.000000 0.000000 0.000000
# 2 -0.002491 0.032061 -0.005582 0.000000 0.000000 0.000000
# 3 -0.002342 -0.005582 0.019332 0.000000 0.000000 0.000000
# 4 0.000000 0.000000 0.000000 0.040767 0.000000 0.000000
# 5 0.000000 0.000000 0.000000 0.000000 0.031169 0.000000
# 6 0.000000 0.000000 0.000000 0.000000 0.000000 0.069807
#
#
# Mechanical properties :
#
#
# Convention : Reuss Voigt Hill
#
# Bulk Modulus (GPa) = 25.07257 31.91312 28.49284
# Shear Modulus (GPa) = 21.13449 25.21619 23.17534
#
# Velocity S-wave (km/s) = 3.31208 3.61781 3.46832
# Velocity P-wave (km/s) = 5.25742 5.83232 5.55232
#
# Compressibility (1/GPa) = 0.03988423
#
# Stress axis : x y z
#
# Youngs Moduli (GPa) = 107.29556 31.19048 51.72803
#
# Poissons Ratio (x) = 0.07769 0.12115
# Poissons Ratio (y) = 0.26726 0.28872
# Poissons Ratio (z) = 0.25129 0.17409
#
# Static dielectric constant tensor:
#      x y z
#    x 3.965510 0.000000 0.000000 
#    y 0.000000 3.154490 0.000000 
#    z 0.000000 0.000000 3.510780 
# 
# 
# High freq. dielectric constant tensor:
#      x y z
#    x 1.763830 0.000000 0.000000 
#    y 0.000000 1.717010 0.000000 
#    z 0.000000 0.000000 1.735100 
# 
# From -- ./inp_files/20440.got.cif
#   From: 2010.03.12/outbox.cif.g09.slc.cpg/sg62_11_cif.got.tgz:20440.got - 2010.04.10 19:12:36.
