data_PCOD8250320
_publ_section_title
;
Structure prediction by ZEFSAII (Michael W. Deem and Ramdas Pophale) SiO2 
 PCOD8250320
Probable space group: P N M A
;
_chemical_formula_sum "Si O2"
_cell_formula_units_Z 64
_cell_length_a 22.362732
_cell_length_b 9.193219
_cell_length_c 17.299079
_cell_angle_alpha 90.000000
_cell_angle_beta 90.000000
_cell_angle_gamma 90.000000
_cell_volume 3556.439680
_symmetry_space_group_name_H-M "P N M A"
_symmetry_group_IT_number 62
_symmetry_cell_setting 'orthorhombic'
loop_
_space_group_symop_operation_xyz
x,y,z
1/2-x,-y,1/2+z
1/2+x,1/2-y,1/2-z
-x,1/2+y,-z
-x,-y,-z
1/2+x,y,1/2-z
1/2-x,1/2+y,1/2+z
x,1/2-y,z
loop_
_atom_site_type_symbol
_atom_site_label
_atom_site_fract_x
_atom_site_fract_y
_atom_site_fract_z
Si Si1 0.219682 0.416372 0.662118
Si Si2 0.606758 0.085070 0.740904
Si Si3 0.896899 0.578852 0.636345
Si Si4 0.944939 0.583818 0.083946
Si Si5 0.966781 0.423038 0.362306
Si Si6 0.838196 0.577121 0.792705
Si Si7 0.626643 0.420765 0.965647
Si Si8 0.564102 0.079413 0.412539
O O1 0.241402 0.250000 0.657956
O O2 0.174103 0.442610 0.732395
O O3 0.274843 0.518549 0.679905
O O4 0.186776 0.461452 0.581745
O O5 0.587457 0.250000 0.762729
O O6 0.605842 0.060449 0.648597
O O7 0.561281 0.974444 0.781437
O O8 0.899974 0.750000 0.647223
O O9 0.858434 0.515706 0.708413
O O10 0.864574 0.536543 0.555620
O O11 0.964889 0.520361 0.635602
O O12 0.966512 0.750000 0.079302
O O13 0.001354 0.490162 0.110001
O O14 0.918734 0.535965 0.000776
O O15 0.962410 0.250000 0.369088
O O16 0.930617 0.493677 0.433216
O O17 0.833974 0.750000 0.792208
O O18 0.885572 0.518795 0.855428
O O19 0.612774 0.250000 0.955910
O O20 0.557290 0.250000 0.401174
#
# Coordination Sequence:
#
# PCOD8250320 Si02
#       8
#     8   8   8   8   8   8   8   8
#     4   9  19  35  51  67  93 130 170 209 243 284
#     4   9  18  33  51  71  99 137 170 200 244 296
#     4   9  18  32  51  75 102 132 162 197 246 302
#     4   9  17  31  52  76 100 129 167 202 241 301
#     4  10  18  29  51  81 107 127 157 203 249 294
#     4  10  20  35  52  71  99 133 167 205 251 293
#     4   9  18  35  54  71  99 137 167 195 242 300
#     4   9  18  32  50  74 104 132 157 201 258 299
#
# _framework density 17.995525000000001
#
# number of rings (size 3 to 8) (size 9 to 14) (size 15 to 20)
#    0.000    2.750    0.000    2.250    0.000    4.000 
#    2.250    2.500    0.000    0.000    0.000    0.000 
#    0.000    0.000    0.000    0.000    0.000    0.000 
#
# Total GULP energy -793379.574995 kJ/mol
# GULP energy per Si atom -12396.555859 kJ/mol
# Density = 1.795457 g / cm^3
# Si number density = 17.995525 Si / 1000 Ang^3
#
#
#
# Elastic Constant Matrix: (Units=GPa)
#
#
# Indices 1 2 3 4 5 6 
#
# 1 111.7451 32.5175 80.6241 0.0000 0.0000 0.0000
# 2 32.5175 35.9018 32.5212 0.0000 0.0000 0.0000
# 3 80.6241 32.5212 155.7701 0.0000 0.0000 0.0000
# 4 0.0000 0.0000 0.0000 19.6347 0.0000 0.0000
# 5 0.0000 0.0000 0.0000 0.0000 19.5129 0.0000
# 6 0.0000 0.0000 0.0000 0.0000 0.0000 30.0556
#
#
#
# Elastic Compliance Matrix: (Units=1/GPa)
#
#
# Indices 1 2 3 4 5 6 
#
# 1 0.016243 -0.008751 -0.006580 0.000000 0.000000 0.000000
# 2 -0.008751 0.039065 -0.003626 0.000000 0.000000 0.000000
# 3 -0.006580 -0.003626 0.010583 0.000000 0.000000 0.000000
# 4 0.000000 0.000000 0.000000 0.050930 0.000000 0.000000
# 5 0.000000 0.000000 0.000000 0.000000 0.051248 0.000000
# 6 0.000000 0.000000 0.000000 0.000000 0.000000 0.033272
#
#
# Mechanical properties :
#
#
# Convention : Reuss Voigt Hill
#
# Bulk Modulus (GPa) = 35.74607 66.08249 50.91428
# Shear Modulus (GPa) = 20.11414 24.35759 22.23586
#
# Velocity S-wave (km/s) = 3.34687 3.68303 3.51897
# Velocity P-wave (km/s) = 5.90275 7.40862 6.69814
#
# Compressibility (1/GPa) = 0.02797511
#
# Stress axis : x y z
#
# Youngs Moduli (GPa) = 61.56456 25.59832 94.49541
#
# Poissons Ratio (x) = 0.22402 0.62179
# Poissons Ratio (y) = 0.53878 0.34266
# Poissons Ratio (z) = 0.40510 0.09283
#
# Static dielectric constant tensor:
#      x y z
#    x 3.162160 0.000000 0.000000 
#    y 0.000000 3.180330 0.000000 
#    z 0.000000 0.000000 3.708440 
# 
# 
# High freq. dielectric constant tensor:
#      x y z
#    x 1.677900 0.000000 0.000000 
#    y 0.000000 1.679590 0.000000 
#    z 0.000000 0.000000 1.712410 
# 
# From -- ./inp_files/24792.got.cif
#   From: 2010.03.12/outbox.cif.g09.slc.cpg/sg62_13_cif.got.tgz:24792.got - 2010.04.10 19:12:36.
