data_PCOD8250183
_publ_section_title
;
Structure prediction by ZEFSAII (Michael W. Deem and Ramdas Pophale) SiO2 
 PCOD8250183
Probable space group: P N M A
;
_chemical_formula_sum "Si O2"
_cell_formula_units_Z 64
_cell_length_a 25.980780
_cell_length_b 8.977986
_cell_length_c 18.208353
_cell_angle_alpha 90.000000
_cell_angle_beta 90.000000
_cell_angle_gamma 90.000000
_cell_volume 4247.190819
_symmetry_space_group_name_H-M "P N M A"
_symmetry_group_IT_number 62
_symmetry_cell_setting 'orthorhombic'
loop_
_space_group_symop_operation_xyz
x,y,z
1/2-x,-y,1/2+z
1/2+x,1/2-y,1/2-z
-x,1/2+y,-z
-x,-y,-z
1/2+x,y,1/2-z
1/2-x,1/2+y,1/2+z
x,1/2-y,z
loop_
_atom_site_type_symbol
_atom_site_label
_atom_site_fract_x
_atom_site_fract_y
_atom_site_fract_z
Si Si1 0.246452 0.922868 0.079858
Si Si2 0.298469 0.424527 0.206123
Si Si3 0.240777 0.081819 0.929236
Si Si4 0.209629 0.581086 0.285620
Si Si5 0.357041 0.576158 0.327661
Si Si6 0.941306 0.922300 0.927811
Si Si7 0.640217 0.918634 0.339655
Si Si8 0.940010 0.423322 0.078132
O O1 0.259020 0.750000 0.086045
O O2 0.190468 0.960241 0.112773
O O3 0.291080 0.010445 0.124046
O O4 0.247810 0.968634 0.995195
O O5 0.308727 0.250000 0.201390
O O6 0.246943 0.458552 0.251417
O O7 0.345984 0.501784 0.248520
O O8 0.237975 0.250000 0.960086
O O9 0.289938 0.062944 0.873940
O O10 0.189175 0.042926 0.884307
O O11 0.230117 0.750000 0.266445
O O12 0.153728 0.560881 0.247424
O O13 0.365421 0.750000 0.315706
O O14 0.409262 0.505898 0.358228
O O15 0.932513 0.750000 0.945584
O O16 0.000081 0.955587 0.906972
O O17 0.906158 0.971316 0.859442
O O18 0.923557 0.014217 0.998893
O O19 0.622636 0.750000 0.355967
O O20 0.926557 0.250000 0.079646
#
# Coordination Sequence:
#
# PCOD8250183 Si02
#       8
#     8   8   8   8   8   8   8   8
#     4  10  19  29  41  60  86 113 142 174 206 243
#     4  10  18  28  43  61  82 109 140 172 207 248
#     4   9  17  28  42  61  84 109 138 171 207 246
#     4   8  16  30  43  58  83 111 139 173 209 246
#     4  10  19  31  46  62  83 111 142 176 213 251
#     4  10  20  31  43  61  85 111 141 180 217 247
#     4   9  17  29  44  59  80 113 146 175 209 249
#     4  10  20  32  44  60  83 111 144 178 212 251
#
# _framework density 15.068783
#
# number of rings (size 3 to 8) (size 9 to 14) (size 15 to 20)
#    0.000    2.500    0.000    4.875    0.000    8.500 
#    0.000    0.000    0.000    0.000    0.000    0.000 
#    0.000    1.000    0.000    3.000    0.000    4.625 
#
# Total GULP energy -793417.680164 kJ/mol
# GULP energy per Si atom -12397.151253 kJ/mol
# Density = 1.503449 g / cm^3
# Si number density = 15.068783 Si / 1000 Ang^3
#
#
#
# Elastic Constant Matrix: (Units=GPa)
#
#
# Indices 1 2 3 4 5 6 
#
# 1 59.1582 38.5813 35.6401 0.0000 0.0000 0.0000
# 2 38.5813 90.8383 43.1470 0.0000 0.0000 0.0000
# 3 35.6401 43.1470 77.9021 0.0000 0.0000 0.0000
# 4 0.0000 0.0000 0.0000 26.8613 0.0000 0.0000
# 5 0.0000 0.0000 0.0000 0.0000 26.3127 0.0000
# 6 0.0000 0.0000 0.0000 0.0000 0.0000 23.2310
#
#
#
# Elastic Compliance Matrix: (Units=1/GPa)
#
#
# Indices 1 2 3 4 5 6 
#
# 1 0.026631 -0.007496 -0.008032 0.000000 0.000000 0.000000
# 2 -0.007496 0.017048 -0.006013 0.000000 0.000000 0.000000
# 3 -0.008032 -0.006013 0.019842 0.000000 0.000000 0.000000
# 4 0.000000 0.000000 0.000000 0.037228 0.000000 0.000000
# 5 0.000000 0.000000 0.000000 0.000000 0.038005 0.000000
# 6 0.000000 0.000000 0.000000 0.000000 0.000000 0.043046
#
#
# Mechanical properties :
#
#
# Convention : Reuss Voigt Hill
#
# Bulk Modulus (GPa) = 48.92531 51.40391 50.16461
# Shear Modulus (GPa) = 21.58002 22.64967 22.11485
#
# Velocity S-wave (km/s) = 3.78842 3.88117 3.83507
# Velocity P-wave (km/s) = 7.18851 7.36692 7.27826
#
# Compressibility (1/GPa) = 0.02043932
#
# Stress axis : x y z
#
# Youngs Moduli (GPa) = 37.54960 58.65654 50.39873
#
# Poissons Ratio (x) = 0.43968 0.40481
# Poissons Ratio (y) = 0.28147 0.30305
# Poissons Ratio (z) = 0.30161 0.35271
#
# Static dielectric constant tensor:
#      x y z
#    x 2.712700 0.000000 0.000000 
#    y 0.000000 2.936740 0.000000 
#    z 0.000000 0.000000 2.962410 
# 
# 
# High freq. dielectric constant tensor:
#      x y z
#    x 1.538950 0.000000 0.000000 
#    y 0.000000 1.590720 0.000000 
#    z 0.000000 0.000000 1.565660 
# 
# From -- ./inp_files/24926.got.cif
#   From: 2010.03.12/outbox.cif.g09.slc.cpg/sg62_13_cif.got.tgz:24926.got - 2010.04.10 19:12:36.
