data_PCOD8250472
_publ_section_title
;
Structure prediction by ZEFSAII (Michael W. Deem and Ramdas Pophale) SiO2 
 PCOD8250472
Probable space group: P N M A
;
_chemical_formula_sum "Si O2"
_cell_formula_units_Z 64
_cell_length_a 16.724548
_cell_length_b 9.196155
_cell_length_c 22.583734
_cell_angle_alpha 90.000000
_cell_angle_beta 90.000000
_cell_angle_gamma 90.000000
_cell_volume 3473.412971
_symmetry_space_group_name_H-M "P N M A"
_symmetry_group_IT_number 62
_symmetry_cell_setting 'orthorhombic'
loop_
_space_group_symop_operation_xyz
x,y,z
1/2-x,-y,1/2+z
1/2+x,1/2-y,1/2-z
-x,1/2+y,-z
-x,-y,-z
1/2+x,y,1/2-z
1/2-x,1/2+y,1/2+z
x,1/2-y,z
loop_
_atom_site_type_symbol
_atom_site_label
_atom_site_fract_x
_atom_site_fract_y
_atom_site_fract_z
Si Si1 0.682439 0.085893 0.286708
Si Si2 0.639135 0.582708 0.177824
Si Si3 0.277367 0.581536 0.404197
Si Si4 0.042558 0.421151 0.694580
Si Si5 0.584142 0.920049 0.381391
Si Si6 0.198104 0.423440 0.035537
Si Si7 0.826223 0.087186 0.369672
Si Si8 0.419365 0.579882 0.325663
O O1 0.647671 0.250000 0.288169
O O2 0.771669 0.084462 0.311442
O O3 0.687002 0.023293 0.221147
O O4 0.625693 0.978027 0.322434
O O5 0.646972 0.750000 0.199060
O O6 0.685014 0.560216 0.115364
O O7 0.546983 0.535933 0.174763
O O8 0.299436 0.750000 0.409621
O O9 0.288753 0.514511 0.469541
O O10 0.339303 0.513185 0.355994
O O11 0.054618 0.250000 0.694056
O O12 0.098108 0.486533 0.643232
O O13 0.062335 0.486881 0.760153
O O14 0.602558 0.750000 0.388387
O O15 0.490263 0.950825 0.372576
O O16 0.617264 0.004668 0.438783
O O17 0.187955 0.250000 0.039724
O O18 0.274764 0.471884 0.074623
O O19 0.856807 0.250000 0.382949
O O20 0.409343 0.750000 0.314737
#
# Coordination Sequence:
#
# PCOD8250472 Si02
#       8
#     8   8   8   8   8   8   8   8
#     4  10  19  32  51  76 106 138 170 207 260 319
#     4  10  19  33  54  78 103 135 174 215 262 312
#     4   9  18  33  54  74 100 142 179 212 259 311
#     4  10  19  32  51  79 107 129 167 217 260 312
#     4  10  18  31  52  77 106 136 168 214 258 303
#     4   9  19  36  53  73 102 137 183 220 250 309
#     4   9  19  33  49  71  99 133 173 213 255 304
#     4   9  17  30  49  78 108 130 164 212 258 308
#
# _framework density 18.425681000000001
#
# number of rings (size 3 to 8) (size 9 to 14) (size 15 to 20)
#    0.000    2.500    1.250    2.250    0.000    4.500 
#    0.000    1.250    0.000    2.250    0.000    0.000 
#    0.000    0.000    0.000    0.000    0.000    0.000 
#
# Total GULP energy -793301.560244 kJ/mol
# GULP energy per Si atom -12395.336879 kJ/mol
# Density = 1.838374 g / cm^3
# Si number density = 18.425681 Si / 1000 Ang^3
#
#
#
# Elastic Constant Matrix: (Units=GPa)
#
#
# Indices 1 2 3 4 5 6 
#
# 1 112.1389 29.0673 57.1772 0.0000 0.0000 0.0000
# 2 29.0673 39.1133 18.3584 0.0000 0.0000 0.0000
# 3 57.1772 18.3584 86.9860 0.0000 0.0000 0.0000
# 4 0.0000 0.0000 0.0000 19.7627 0.0000 0.0000
# 5 0.0000 0.0000 0.0000 0.0000 19.5054 0.0000
# 6 0.0000 0.0000 0.0000 0.0000 0.0000 24.8222
#
#
#
# Elastic Compliance Matrix: (Units=1/GPa)
#
#
# Indices 1 2 3 4 5 6 
#
# 1 0.015071 -0.007270 -0.008372 0.000000 0.000000 0.000000
# 2 -0.007270 0.031885 -0.001950 0.000000 0.000000 0.000000
# 3 -0.008372 -0.001950 0.017411 0.000000 0.000000 0.000000
# 4 0.000000 0.000000 0.000000 0.050600 0.000000 0.000000
# 5 0.000000 0.000000 0.000000 0.000000 0.051268 0.000000
# 6 0.000000 0.000000 0.000000 0.000000 0.000000 0.040286
#
#
# Mechanical properties :
#
#
# Convention : Reuss Voigt Hill
#
# Bulk Modulus (GPa) = 34.26849 49.71600 41.99224
# Shear Modulus (GPa) = 19.88598 21.72709 20.80653
#
# Velocity S-wave (km/s) = 3.28876 3.43764 3.36402
# Velocity P-wave (km/s) = 5.74977 6.54194 6.15860
#
# Compressibility (1/GPa) = 0.02918133
#
# Stress axis : x y z
#
# Youngs Moduli (GPa) = 66.35422 31.36245 57.43630
#
# Poissons Ratio (x) = 0.22802 0.48084
# Poissons Ratio (y) = 0.48243 0.11202
# Poissons Ratio (z) = 0.55550 0.06117
#
# Static dielectric constant tensor:
#      x y z
#    x 3.383550 0.000000 0.000000 
#    y 0.000000 3.146600 0.000000 
#    z 0.000000 0.000000 3.414640 
# 
# 
# High freq. dielectric constant tensor:
#      x y z
#    x 1.713820 0.000000 0.000000 
#    y 0.000000 1.685820 0.000000 
#    z 0.000000 0.000000 1.703750 
# 
# From -- ./inp_files/29730.got.cif
#   From: 2010.03.12/outbox.cif.g09.slc.cpg/sg62_15_cif.got.tgz:29730.got - 2010.04.10 19:12:36.
