data_PCOD8250312
_publ_section_title
;
Structure prediction by ZEFSAII (Michael W. Deem and Ramdas Pophale) SiO2 
 PCOD8250312
Probable space group: P N M A
;
_chemical_formula_sum "Si O2"
_cell_formula_units_Z 40
_cell_length_a 21.032816
_cell_length_b 8.852362
_cell_length_c 12.565577
_cell_angle_alpha 90.000000
_cell_angle_beta 90.000000
_cell_angle_gamma 90.000000
_cell_volume 2339.586052
_symmetry_space_group_name_H-M "P N M A"
_symmetry_group_IT_number 62
_symmetry_cell_setting 'orthorhombic'
loop_
_space_group_symop_operation_xyz
x,y,z
1/2-x,-y,1/2+z
1/2+x,1/2-y,1/2-z
-x,1/2+y,-z
-x,-y,-z
1/2+x,y,1/2-z
1/2-x,1/2+y,1/2+z
x,1/2-y,z
loop_
_atom_site_type_symbol
_atom_site_label
_atom_site_fract_x
_atom_site_fract_y
_atom_site_fract_z
Si Si1 0.067887 0.425350 0.504045
Si Si2 0.306196 0.429402 0.613105
Si Si3 0.704211 0.072180 0.601151
Si Si4 0.666479 0.073196 0.829175
Si Si5 0.833331 0.926466 0.676236
O O1 0.057122 0.250000 0.524377
O O2 0.108727 0.497093 0.602341
O O3 0.104206 0.455371 0.393773
O O4 0.000000 0.500000 0.500000
O O5 0.313209 0.250000 0.617221
O O6 0.329539 0.492760 0.499456
O O7 0.234092 0.488436 0.629402
O O8 0.347739 0.501513 0.708140
O O9 0.710390 0.250000 0.582066
O O10 0.659637 0.037076 0.703654
O O11 0.774273 0.006517 0.619120
O O12 0.667563 0.250000 0.851667
O O13 0.817604 0.750000 0.686437
#
# Coordination Sequence:
#
# PCOD8250312 Si02
#       5
#     8   8   8   8   8
#     4  10  20  35  52  71 101 136 169 209 250 296
#     4  10  18  31  50  73 104 133 162 206 256 304
#     4  10  18  29  50  76 102 132 164 202 255 310
#     4   8  16  31  47  68 100 132 160 198 251 297
#     4  10  19  32  49  72 103 134 167 208 254 300
#
# _framework density 17.097042999999999
#
# number of rings (size 3 to 8) (size 9 to 14) (size 15 to 20)
#    0.000    2.400    2.000    3.000    0.000    1.600 
#    0.000    2.000    0.000    1.200    0.000    0.000 
#    0.000    0.000    0.000    0.000    0.000    0.000 
#
# Total GULP energy -495864.397881 kJ/mol
# GULP energy per Si atom -12396.609947 kJ/mol
# Density = 1.705813 g / cm^3
# Si number density = 17.097043 Si / 1000 Ang^3
#
#
#
# Elastic Constant Matrix: (Units=GPa)
#
#
# Indices 1 2 3 4 5 6 
#
# 1 81.3152 34.2364 46.8174 0.0000 0.0000 0.0000
# 2 34.2364 72.2175 56.2186 0.0000 0.0000 0.0000
# 3 46.8174 56.2186 149.4851 0.0000 0.0000 0.0000
# 4 0.0000 0.0000 0.0000 31.3601 0.0000 0.0000
# 5 0.0000 0.0000 0.0000 0.0000 19.7336 0.0000
# 6 0.0000 0.0000 0.0000 0.0000 0.0000 23.0590
#
#
#
# Elastic Compliance Matrix: (Units=1/GPa)
#
#
# Indices 1 2 3 4 5 6 
#
# 1 0.016330 -0.005317 -0.003115 0.000000 0.000000 0.000000
# 2 -0.005317 0.021310 -0.006349 0.000000 0.000000 0.000000
# 3 -0.003115 -0.006349 0.010053 0.000000 0.000000 0.000000
# 4 0.000000 0.000000 0.000000 0.031888 0.000000 0.000000
# 5 0.000000 0.000000 0.000000 0.000000 0.050675 0.000000
# 6 0.000000 0.000000 0.000000 0.000000 0.000000 0.043367
#
#
# Mechanical properties :
#
#
# Convention : Reuss Voigt Hill
#
# Bulk Modulus (GPa) = 55.15297 64.17364 59.66331
# Shear Modulus (GPa) = 23.89741 25.88025 24.88883
#
# Velocity S-wave (km/s) = 3.74271 3.89488 3.81955
# Velocity P-wave (km/s) = 7.14185 7.60548 7.37730
#
# Compressibility (1/GPa) = 0.01813139
#
# Stress axis : x y z
#
# Youngs Moduli (GPa) = 61.23819 46.92589 99.47294
#
# Poissons Ratio (x) = 0.24949 0.30984
# Poissons Ratio (y) = 0.32559 0.63158
# Poissons Ratio (z) = 0.19074 0.29794
#
# Static dielectric constant tensor:
#      x y z
#    x 2.922580 0.000000 0.000000 
#    y 0.000000 3.132060 0.000000 
#    z 0.000000 0.000000 3.639820 
# 
# 
# High freq. dielectric constant tensor:
#      x y z
#    x 1.609000 0.000000 0.000000 
#    y 0.000000 1.656190 0.000000 
#    z 0.000000 0.000000 1.680360 
# 
# From -- ./inp_files/13863.got.cif
#   From: 2010.03.12/outbox.cif.g09.slc.cpg/sg62_7_cif.got.tgz:13863.got - 2010.04.10 19:12:36.
