data_PCOD8250786
_publ_section_title
;
Structure prediction by ZEFSAII (Michael W. Deem and Ramdas Pophale) SiO2 
 PCOD8250786
Probable space group: P N M A
;
_chemical_formula_sum "Si O2"
_cell_formula_units_Z 64
_cell_length_a 26.417967
_cell_length_b 8.773503
_cell_length_c 18.010137
_cell_angle_alpha 90.000000
_cell_angle_beta 90.000000
_cell_angle_gamma 90.000000
_cell_volume 4174.355564
_symmetry_space_group_name_H-M "P N M A"
_symmetry_group_IT_number 62
_symmetry_cell_setting 'orthorhombic'
loop_
_space_group_symop_operation_xyz
x,y,z
1/2-x,-y,1/2+z
1/2+x,1/2-y,1/2-z
-x,1/2+y,-z
-x,-y,-z
1/2+x,y,1/2-z
1/2-x,1/2+y,1/2+z
x,1/2-y,z
loop_
_atom_site_type_symbol
_atom_site_label
_atom_site_fract_x
_atom_site_fract_y
_atom_site_fract_z
Si Si1 0.258619 0.928700 0.581835
Si Si2 0.550058 0.427799 0.414221
Si Si3 0.254179 0.073313 0.425948
Si Si4 0.852453 0.072073 0.167327
Si Si5 0.698743 0.419779 0.796705
Si Si6 0.854559 0.429822 0.841598
Si Si7 0.555467 0.427165 0.585073
Si Si8 0.701310 0.581456 0.199034
O O1 0.267845 0.750000 0.591175
O O2 0.246266 0.968970 0.497293
O O3 0.210138 0.979133 0.630601
O O4 0.309274 0.016329 0.605452
O O5 0.538910 0.250000 0.403318
O O6 0.594808 0.480716 0.361066
O O7 0.565330 0.464297 0.498839
O O8 0.500483 0.521689 0.391387
O O9 0.251998 0.250000 0.447893
O O10 0.307534 0.027190 0.389047
O O11 0.208455 0.036724 0.368428
O O12 0.852268 0.250000 0.182335
O O13 0.845850 0.992051 0.247271
O O14 0.905243 0.022288 0.132996
O O15 0.682576 0.250000 0.821602
O O16 0.748841 0.414065 0.748275
O O17 0.861535 0.250000 0.854159
O O18 0.843570 0.468681 0.754938
O O19 0.562572 0.250000 0.602534
O O20 0.690609 0.750000 0.166382
#
# Coordination Sequence:
#
# PCOD8250786 Si02
#       8
#     8   8   8   8   8   8   8   8
#     4  11  20  29  43  63  88 116 147 180 214 255
#     4  10  20  32  46  64  86 113 147 185 220 255
#     4  10  19  29  43  63  87 115 146 179 214 254
#     4  10  19  30  45  64  86 114 148 182 217 258
#     4   9  17  30  45  61  84 112 143 178 216 257
#     4  10  19  31  46  63  86 115 146 179 217 260
#     4  10  20  32  45  62  86 116 148 183 221 256
#     4   8  16  29  43  60  83 111 141 175 213 253
#
# _framework density 15.331707
#
# number of rings (size 3 to 8) (size 9 to 14) (size 15 to 20)
#    0.000    2.250    0.000    4.875    0.000    8.500 
#    0.000    0.000    0.000    0.000    0.000    0.000 
#    0.000    1.000    0.000    3.750    0.000    5.750 
#
# Total GULP energy -793627.122160 kJ/mol
# GULP energy per Si atom -12400.423784 kJ/mol
# Density = 1.529681 g / cm^3
# Si number density = 15.331707 Si / 1000 Ang^3
#
#
#
# Elastic Constant Matrix: (Units=GPa)
#
#
# Indices 1 2 3 4 5 6 
#
# 1 55.6446 7.0246 30.5267 0.0000 0.0000 0.0000
# 2 7.0246 47.1411 20.4197 0.0000 0.0000 0.0000
# 3 30.5267 20.4197 66.3030 0.0000 0.0000 0.0000
# 4 0.0000 0.0000 0.0000 27.4658 0.0000 0.0000
# 5 0.0000 0.0000 0.0000 0.0000 23.5278 0.0000
# 6 0.0000 0.0000 0.0000 0.0000 0.0000 25.3788
#
#
#
# Elastic Compliance Matrix: (Units=1/GPa)
#
#
# Indices 1 2 3 4 5 6 
#
# 1 0.024125 0.001404 -0.011540 0.000000 0.000000 0.000000
# 2 0.001404 0.024560 -0.008210 0.000000 0.000000 0.000000
# 3 -0.011540 -0.008210 0.022924 0.000000 0.000000 0.000000
# 4 0.000000 0.000000 0.000000 0.036409 0.000000 0.000000
# 5 0.000000 0.000000 0.000000 0.000000 0.042503 0.000000
# 6 0.000000 0.000000 0.000000 0.000000 0.000000 0.039403
#
#
# Mechanical properties :
#
#
# Convention : Reuss Voigt Hill
#
# Bulk Modulus (GPa) = 28.63992 31.67007 30.15499
# Shear Modulus (GPa) = 20.98602 22.68234 21.83418
#
# Velocity S-wave (km/s) = 3.70374 3.85052 3.77784
# Velocity P-wave (km/s) = 6.08367 6.36161 6.22419
#
# Compressibility (1/GPa) = 0.03491630
#
# Stress axis : x y z
#
# Youngs Moduli (GPa) = 41.45148 40.71654 43.62298
#
# Poissons Ratio (x) = -0.05715 0.50339
# Poissons Ratio (y) = -0.05818 0.35815
# Poissons Ratio (z) = 0.47833 0.33429
#
# Static dielectric constant tensor:
#      x y z
#    x 2.767170 0.000000 0.000000 
#    y 0.000000 3.074930 0.000000 
#    z 0.000000 0.000000 2.966290 
# 
# 
# High freq. dielectric constant tensor:
#      x y z
#    x 1.553330 0.000000 0.000000 
#    y 0.000000 1.606370 0.000000 
#    z 0.000000 0.000000 1.573780 
# 
# From -- ./inp_files/24950.got.cif
#   From: 2010.03.12/outbox.cif.g09.slc.cpg/sg62_13_cif.got.tgz:24950.got - 2010.04.10 19:12:36.
