data_PCOD8250724
_publ_section_title
;
Structure prediction by ZEFSAII (Michael W. Deem and Ramdas Pophale) SiO2 
 PCOD8250724
Probable space group: P N M A
;
_chemical_formula_sum "Si O2"
_cell_formula_units_Z 64
_cell_length_a 31.062447
_cell_length_b 8.747727
_cell_length_c 12.082370
_cell_angle_alpha 90.000000
_cell_angle_beta 90.000000
_cell_angle_gamma 90.000000
_cell_volume 3283.091730
_symmetry_space_group_name_H-M "P N M A"
_symmetry_group_IT_number 62
_symmetry_cell_setting 'orthorhombic'
loop_
_space_group_symop_operation_xyz
x,y,z
1/2-x,-y,1/2+z
1/2+x,1/2-y,1/2-z
-x,1/2+y,-z
-x,-y,-z
1/2+x,y,1/2-z
1/2-x,1/2+y,1/2+z
x,1/2-y,z
loop_
_atom_site_type_symbol
_atom_site_label
_atom_site_fract_x
_atom_site_fract_y
_atom_site_fract_z
Si Si1 0.045306 0.928344 0.474051
Si Si2 0.579712 0.573067 0.258097
Si Si3 0.376641 0.431526 0.349742
Si Si4 0.706998 0.430421 0.033730
Si Si5 0.673711 0.930506 0.245646
Si Si6 0.453177 0.431364 0.512036
Si Si7 0.801617 0.431233 0.988168
Si Si8 0.874991 0.568158 0.394518
O O1 0.046704 0.750000 0.503921
O O2 0.047747 0.957167 0.342671
O O3 0.083307 0.008619 0.541059
O O4 0.000000 0.000000 0.500000
O O5 0.586190 0.750000 0.285381
O O6 0.625768 0.510720 0.219457
O O7 0.563648 0.497532 0.371845
O O8 0.375194 0.250000 0.334471
O O9 0.420417 0.480239 0.414209
O O10 0.335067 0.491463 0.418823
O O11 0.375833 0.509984 0.230759
O O12 0.706912 0.250000 0.025279
O O13 0.703522 0.481622 0.160159
O O14 0.753447 0.497518 0.999663
O O15 0.668404 0.494173 0.955526
O O16 0.680553 0.750000 0.230402
O O17 0.683264 0.986900 0.368763
O O18 0.500000 0.500000 0.500000
O O19 0.457133 0.250000 0.516621
O O20 0.801630 0.250000 0.994963
O O21 0.876217 0.750000 0.394429
#
# Coordination Sequence:
#
# PCOD8250724 Si02
#       8
#     8   8   8   8   8   8   8   8
#     4  11  23  40  62  89 118 153 196 241 289 347
#     4   9  18  36  61  84 109 143 189 237 282 335
#     4  10  21  39  61  83 113 154 197 238 286 349
#     4  10  22  38  56  85 120 152 188 239 294 342
#     4  10  18  36  64  85 107 148 197 241 284 344
#     4  10  21  38  59  86 114 146 186 233 286 343
#     4   9  19  37  61  85 114 152 192 237 294 349
#     4  11  24  40  57  83 122 159 192 239 294 346
#
# _framework density 19.493819999999999
#
# number of rings (size 3 to 8) (size 9 to 14) (size 15 to 20)
#    0.000    2.000    2.500    0.750    3.500    1.000 
#    0.000    2.500    0.000    0.000    0.000    0.000 
#    0.000    0.000    0.000    0.000    0.000    0.000 
#
# Total GULP energy -793349.733120 kJ/mol
# GULP energy per Si atom -12396.089580 kJ/mol
# Density = 1.944945 g / cm^3
# Si number density = 19.493820 Si / 1000 Ang^3
#
#
#
# Elastic Constant Matrix: (Units=GPa)
#
#
# Indices 1 2 3 4 5 6 
#
# 1 152.5100 30.0330 53.9411 0.0000 0.0000 0.0000
# 2 30.0330 30.7440 28.5366 0.0000 0.0000 0.0000
# 3 53.9411 28.5366 119.3295 0.0000 0.0000 0.0000
# 4 0.0000 0.0000 0.0000 29.1075 0.0000 0.0000
# 5 0.0000 0.0000 0.0000 0.0000 33.8864 0.0000
# 6 0.0000 0.0000 0.0000 0.0000 0.0000 24.4236
#
#
#
# Elastic Compliance Matrix: (Units=1/GPa)
#
#
# Indices 1 2 3 4 5 6 
#
# 1 0.008632 -0.006183 -0.002423 0.000000 0.000000 0.000000
# 2 -0.006183 0.046235 -0.008262 0.000000 0.000000 0.000000
# 3 -0.002423 -0.008262 0.011451 0.000000 0.000000 0.000000
# 4 0.000000 0.000000 0.000000 0.034355 0.000000 0.000000
# 5 0.000000 0.000000 0.000000 0.000000 0.029510 0.000000
# 6 0.000000 0.000000 0.000000 0.000000 0.000000 0.040944
#
#
# Mechanical properties :
#
#
# Convention : Reuss Voigt Hill
#
# Bulk Modulus (GPa) = 30.69153 58.62278 44.65715
# Shear Modulus (GPa) = 23.17774 30.15502 26.66638
#
# Velocity S-wave (km/s) = 3.45190 3.93733 3.70258
# Velocity P-wave (km/s) = 5.62724 7.12797 6.42160
#
# Compressibility (1/GPa) = 0.03258228
#
# Stress axis : x y z
#
# Youngs Moduli (GPa) = 115.85423 21.62857 87.32622
#
# Poissons Ratio (x) = 0.13372 0.21161
# Poissons Ratio (y) = 0.71629 0.72148
# Poissons Ratio (z) = 0.28074 0.17869
#
# Static dielectric constant tensor:
#      x y z
#    x 3.890990 0.000000 0.000000 
#    y 0.000000 3.254230 0.000000 
#    z 0.000000 0.000000 3.725970 
# 
# 
# High freq. dielectric constant tensor:
#      x y z
#    x 1.775380 0.000000 0.000000 
#    y 0.000000 1.726060 0.000000 
#    z 0.000000 0.000000 1.775140 
# 
# From -- ./inp_files/15922.got.cif
#   From: 2010.03.12/outbox.cif.g09.slc.cpg/sg62_8_cif.got.tgz:15922.got - 2010.04.10 19:12:36.
