data_PCOD8250758
_publ_section_title
;
Structure prediction by ZEFSAII (Michael W. Deem and Ramdas Pophale) SiO2 
 PCOD8250758
Probable space group: P N M A
;
_chemical_formula_sum "Si O2"
_cell_formula_units_Z 64
_cell_length_a 18.413576
_cell_length_b 8.971012
_cell_length_c 26.563721
_cell_angle_alpha 90.000000
_cell_angle_beta 90.000000
_cell_angle_gamma 90.000000
_cell_volume 4388.018869
_symmetry_space_group_name_H-M "P N M A"
_symmetry_group_IT_number 62
_symmetry_cell_setting 'orthorhombic'
loop_
_space_group_symop_operation_xyz
x,y,z
1/2-x,-y,1/2+z
1/2+x,1/2-y,1/2-z
-x,1/2+y,-z
-x,-y,-z
1/2+x,y,1/2-z
1/2-x,1/2+y,1/2+z
x,1/2-y,z
loop_
_atom_site_type_symbol
_atom_site_label
_atom_site_fract_x
_atom_site_fract_y
_atom_site_fract_z
Si Si1 0.155080 0.574290 0.852997
Si Si2 0.412331 0.426328 0.739892
Si Si3 0.834659 0.573010 0.852164
Si Si4 0.924279 0.575457 0.059386
Si Si5 0.573107 0.423125 0.445365
Si Si6 0.303382 0.412465 0.195893
Si Si7 0.291864 0.585897 0.795124
Si Si8 0.934486 0.428748 0.244228
O O1 0.150819 0.750000 0.860630
O O2 0.136547 0.494903 0.905187
O O3 0.237773 0.526694 0.838889
O O4 0.097708 0.524883 0.810063
O O5 0.414618 0.250000 0.735259
O O6 0.389196 0.495388 0.686627
O O7 0.357635 0.472049 0.785001
O O8 0.490736 0.488866 0.754213
O O9 0.836340 0.750000 0.840850
O O10 0.859812 0.537136 0.908783
O O11 0.751556 0.509503 0.844540
O O12 0.925242 0.750000 0.068110
O O13 0.003386 0.513514 0.073355
O O14 0.904236 0.532482 0.001896
O O15 0.552195 0.250000 0.441913
O O16 0.323346 0.250000 0.174365
O O17 0.257033 0.396266 0.246226
O O18 0.379453 0.489927 0.211513
O O19 0.323392 0.750000 0.809001
O O20 0.942914 0.250000 0.247383
#
# Coordination Sequence:
#
# PCOD8250758 Si02
#       8
#     8   8   8   8   8   8   8   8
#     4   9  17  29  45  60  75 103 140 169 195 232
#     4  11  20  26  36  59  85 105 128 158 195 234
#     4   9  16  29  45  56  72 103 140 169 193 226
#     4  10  19  28  39  58  83 107 133 168 205 235
#     4   9  18  30  42  56  77 108 141 169 197 232
#     4   7  12  24  42  58  69  90 128 167 192 217
#     4   8  15  29  44  56  73 101 135 164 191 228
#     4   9  16  27  41  56  76 102 131 159 190 230
#
# _framework density 14.58517
#
# number of rings (size 3 to 8) (size 9 to 14) (size 15 to 20)
#    0.000    3.000    0.000    4.500    0.000    5.000 
#    0.000    5.000    0.000    0.000    0.000    0.000 
#    0.000    1.000    0.000    2.000    0.000    2.625 
#
# Total GULP energy -792936.606695 kJ/mol
# GULP energy per Si atom -12389.634480 kJ/mol
# Density = 1.455197 g / cm^3
# Si number density = 14.585170 Si / 1000 Ang^3
#
#
#
# Elastic Constant Matrix: (Units=GPa)
#
#
# Indices 1 2 3 4 5 6 
#
# 1 103.7791 38.3378 54.4279 0.0000 0.0000 0.0000
# 2 38.3378 47.8112 28.0788 0.0000 0.0000 0.0000
# 3 54.4279 28.0788 79.4204 0.0000 0.0000 0.0000
# 4 0.0000 0.0000 0.0000 18.0276 0.0000 0.0000
# 5 0.0000 0.0000 0.0000 0.0000 27.2556 0.0000
# 6 0.0000 0.0000 0.0000 0.0000 0.0000 10.5253
#
#
#
# Elastic Compliance Matrix: (Units=1/GPa)
#
#
# Indices 1 2 3 4 5 6 
#
# 1 0.017589 -0.008865 -0.008920 0.000000 0.000000 0.000000
# 2 -0.008865 0.030865 -0.004837 0.000000 0.000000 0.000000
# 3 -0.008920 -0.004837 0.020414 0.000000 0.000000 0.000000
# 4 0.000000 0.000000 0.000000 0.055470 0.000000 0.000000
# 5 0.000000 0.000000 0.000000 0.000000 0.036690 0.000000
# 6 0.000000 0.000000 0.000000 0.000000 0.000000 0.095009
#
#
# Mechanical properties :
#
#
# Convention : Reuss Voigt Hill
#
# Bulk Modulus (GPa) = 42.32891 52.52217 47.42554
# Shear Modulus (GPa) = 16.17312 18.50611 17.33962
#
# Velocity S-wave (km/s) = 3.33359 3.56593 3.45171
# Velocity P-wave (km/s) = 6.62586 7.28308 6.96223
#
# Compressibility (1/GPa) = 0.02362452
#
# Stress axis : x y z
#
# Youngs Moduli (GPa) = 56.85432 32.39929 48.98637
#
# Poissons Ratio (x) = 0.28723 0.43694
# Poissons Ratio (y) = 0.50404 0.23693
# Poissons Ratio (z) = 0.50711 0.15670
#
# Static dielectric constant tensor:
#      x y z
#    x 3.042480 0.000000 0.000000 
#    y 0.000000 2.711090 0.000000 
#    z 0.000000 0.000000 2.831280 
# 
# 
# High freq. dielectric constant tensor:
#      x y z
#    x 1.550230 0.000000 0.000000 
#    y 0.000000 1.545320 0.000000 
#    z 0.000000 0.000000 1.527570 
# 
# From -- ./inp_files/31334.got.cif
#   From: 2010.03.12/outbox.cif.g09.slc.cpg/sg62_16_cif.got.tgz:31334.got - 2010.04.10 19:12:36.
