data_PCOD8250552
_publ_section_title
;
Structure prediction by ZEFSAII (Michael W. Deem and Ramdas Pophale) SiO2 
 PCOD8250552
Probable space group: P N M A
;
_chemical_formula_sum "Si O2"
_cell_formula_units_Z 40
_cell_length_a 8.177187
_cell_length_b 10.846702
_cell_length_c 20.279242
_cell_angle_alpha 90.000000
_cell_angle_beta 90.000000
_cell_angle_gamma 90.000000
_cell_volume 1798.677724
_symmetry_space_group_name_H-M "P N M A"
_symmetry_group_IT_number 62
_symmetry_cell_setting 'orthorhombic'
loop_
_space_group_symop_operation_xyz
x,y,z
1/2-x,-y,1/2+z
1/2+x,1/2-y,1/2-z
-x,1/2+y,-z
-x,-y,-z
1/2+x,y,1/2-z
1/2-x,1/2+y,1/2+z
x,1/2-y,z
loop_
_atom_site_type_symbol
_atom_site_label
_atom_site_fract_x
_atom_site_fract_y
_atom_site_fract_z
Si Si1 0.794075 0.750000 0.352246
Si Si2 0.933939 0.889032 0.792153
Si Si3 0.752945 0.512381 0.183058
Si Si4 0.693523 0.105458 0.551216
Si Si5 0.046027 0.250000 0.775227
Si Si6 0.671467 0.522021 0.417885
O O1 0.637995 0.750000 0.302410
O O2 0.955449 0.750000 0.305345
O O3 0.796707 0.630611 0.398813
O O4 0.887391 0.750000 0.772489
O O5 0.898044 0.985121 0.731768
O O6 0.834017 0.926833 0.857232
O O7 0.126465 0.895475 0.807847
O O8 0.699328 0.532157 0.106739
O O9 0.858607 0.631828 0.199619
O O10 0.733271 0.250000 0.551861
O O11 0.502591 0.083997 0.566473
O O12 0.742145 0.049894 0.480678
#
# Coordination Sequence:
#
# PCOD8250552 Si02
#       6
#     4   8   8   8   4   8
#     4  12  20  36  58  88 118 141 197 233 285 338
#     4  11  22  36  53  82 115 149 186 229 287 341
#     4  11  20  36  58  83 111 144 190 234 283 337
#     4  10  18  32  53  81 115 144 184 234 289 335
#     4  12  18  36  58  88 114 141 191 247 271 334
#     4  10  19  32  52  80 113 148 179 233 283 334
#
# _framework density 22.238561000000001
#
# number of rings (size 3 to 8) (size 9 to 14) (size 15 to 20)
#    0.000    1.200    8.000    1.200    0.000    0.000 
#    3.600    0.000    0.000    1.200    0.000    0.000 
#    0.000    0.000    0.000    0.000    0.000    0.000 
#
# Total GULP energy -495923.318172 kJ/mol
# GULP energy per Si atom -12398.082954 kJ/mol
# Density = 2.218794 g / cm^3
# Si number density = 22.238561 Si / 1000 Ang^3
#
#
#
# Elastic Constant Matrix: (Units=GPa)
#
#
# Indices 1 2 3 4 5 6 
#
# 1 17.2309 17.5488 21.4130 0.0000 0.0000 0.0000
# 2 17.5488 112.9034 57.7662 0.0000 0.0000 0.0000
# 3 21.4130 57.7662 181.4361 0.0000 0.0000 0.0000
# 4 0.0000 0.0000 0.0000 37.5819 0.0000 0.0000
# 5 0.0000 0.0000 0.0000 0.0000 24.7779 0.0000
# 6 0.0000 0.0000 0.0000 0.0000 0.0000 11.9786
#
#
#
# Elastic Compliance Matrix: (Units=1/GPa)
#
#
# Indices 1 2 3 4 5 6 
#
# 1 0.074155 -0.008420 -0.006071 0.000000 0.000000 0.000000
# 2 -0.008420 0.011537 -0.002679 0.000000 0.000000 0.000000
# 3 -0.006071 -0.002679 0.007081 0.000000 0.000000 0.000000
# 4 0.000000 0.000000 0.000000 0.026609 0.000000 0.000000
# 5 0.000000 0.000000 0.000000 0.000000 0.040359 0.000000
# 6 0.000000 0.000000 0.000000 0.000000 0.000000 0.083483
#
#
# Mechanical properties :
#
#
# Convention : Reuss Voigt Hill
#
# Bulk Modulus (GPa) = 17.11377 56.11403 36.61390
# Shear Modulus (GPa) = 16.83271 29.19049 23.01160
#
# Velocity S-wave (km/s) = 2.75419 3.62692 3.22026
# Velocity P-wave (km/s) = 4.22213 6.54423 5.50696
#
# Compressibility (1/GPa) = 0.05843249
#
# Stress axis : x y z
#
# Youngs Moduli (GPa) = 13.48524 86.67970 141.21999
#
# Poissons Ratio (x) = 0.72983 0.85735
# Poissons Ratio (y) = 0.11354 0.37838
# Poissons Ratio (z) = 0.08187 0.23225
#
# Static dielectric constant tensor:
#      x y z
#    x 3.537960 0.000000 0.000000 
#    y 0.000000 4.042820 0.000000 
#    z 0.000000 0.000000 4.550840 
# 
# 
# High freq. dielectric constant tensor:
#      x y z
#    x 1.826060 0.000000 0.000000 
#    y 0.000000 1.883490 0.000000 
#    z 0.000000 0.000000 1.886250 
# 
# From -- ./inp_files/25786.got.cif
#   From: 2010.03.12/outbox.cif.g09.slc.cpg/sg62_13_cif.got.tgz:25786.got - 2010.04.10 19:12:36.
