data_PCOD8250778
_publ_section_title
;
Structure prediction by ZEFSAII (Michael W. Deem and Ramdas Pophale) SiO2 
 PCOD8250778
Probable space group: P N M A
;
_chemical_formula_sum "Si O2"
_cell_formula_units_Z 64
_cell_length_a 18.553620
_cell_length_b 9.121361
_cell_length_c 25.690721
_cell_angle_alpha 90.000000
_cell_angle_beta 90.000000
_cell_angle_gamma 90.000000
_cell_volume 4347.750308
_symmetry_space_group_name_H-M "P N M A"
_symmetry_group_IT_number 62
_symmetry_cell_setting 'orthorhombic'
loop_
_space_group_symop_operation_xyz
x,y,z
1/2-x,-y,1/2+z
1/2+x,1/2-y,1/2-z
-x,1/2+y,-z
-x,-y,-z
1/2+x,y,1/2-z
1/2-x,1/2+y,1/2+z
x,1/2-y,z
loop_
_atom_site_type_symbol
_atom_site_label
_atom_site_fract_x
_atom_site_fract_y
_atom_site_fract_z
Si Si1 0.219868 0.915331 0.789359
Si Si2 0.298554 0.418654 0.702250
Si Si3 0.339087 0.922279 0.143397
Si Si4 0.578999 0.080725 0.251408
Si Si5 0.422272 0.079232 0.058706
Si Si6 0.843312 0.584516 0.642237
Si Si7 0.919772 0.080880 0.263472
Si Si8 0.568633 0.580014 0.061434
O O1 0.240805 0.750000 0.769511
O O2 0.257108 0.936058 0.846108
O O3 0.133047 0.932848 0.787244
O O4 0.252375 0.037686 0.752276
O O5 0.318809 0.250000 0.705727
O O6 0.246426 0.451681 0.652941
O O7 0.374233 0.505459 0.702548
O O8 0.355457 0.750000 0.141149
O O9 0.357950 0.998015 0.088737
O O10 0.388557 0.991207 0.188254
O O11 0.577819 0.250000 0.265338
O O12 0.613373 0.049067 0.195096
O O13 0.497741 0.017017 0.252164
O O14 0.422599 0.250000 0.072689
O O15 0.498269 0.012044 0.076964
O O16 0.409043 0.050547 0.997903
O O17 0.859714 0.750000 0.623481
O O18 0.865442 0.472244 0.597299
O O19 0.927108 0.250000 0.281370
O O20 0.552208 0.750000 0.071370
#
# Coordination Sequence:
#
# PCOD8250778 Si02
#       8
#     8   8   8   8   8   8   8   8
#     4   8  15  27  41  57  78 105 135 164 194 231
#     4   9  17  27  39  57  80 104 131 164 198 232
#     4  10  19  29  42  60  80 105 137 168 200 237
#     4   9  17  27  40  59  81 107 137 163 191 231
#     4  10  20  32  44  58  78 105 135 167 203 239
#     4   9  16  26  40  58  81 109 138 164 195 235
#     4   9  16  27  43  61  82 108 137 167 196 231
#     4  10  20  31  43  60  80 103 134 170 203 235
#
# _framework density 14.720255999999999
#
# number of rings (size 3 to 8) (size 9 to 14) (size 15 to 20)
#    0.000    2.750    0.000    3.000    0.000    6.500 
#    0.000    0.000    0.000    0.000    0.000    0.000 
#    0.000    1.000    0.000    2.250    0.000    3.500 
#
# Total GULP energy -793149.811589 kJ/mol
# GULP energy per Si atom -12392.965806 kJ/mol
# Density = 1.468675 g / cm^3
# Si number density = 14.720256 Si / 1000 Ang^3
#
#
#
# Elastic Constant Matrix: (Units=GPa)
#
#
# Indices 1 2 3 4 5 6 
#
# 1 99.5379 35.7422 38.0805 0.0000 0.0000 0.0000
# 2 35.7422 65.7698 34.4196 0.0000 0.0000 0.0000
# 3 38.0805 34.4196 54.1152 0.0000 0.0000 0.0000
# 4 0.0000 0.0000 0.0000 21.2616 0.0000 0.0000
# 5 0.0000 0.0000 0.0000 0.0000 24.3775 0.0000
# 6 0.0000 0.0000 0.0000 0.0000 0.0000 22.0733
#
#
#
# Elastic Compliance Matrix: (Units=1/GPa)
#
#
# Indices 1 2 3 4 5 6 
#
# 1 0.014344 -0.003766 -0.007698 0.000000 0.000000 0.000000
# 2 -0.003766 0.023780 -0.012474 0.000000 0.000000 0.000000
# 3 -0.007698 -0.012474 0.031830 0.000000 0.000000 0.000000
# 4 0.000000 0.000000 0.000000 0.047033 0.000000 0.000000
# 5 0.000000 0.000000 0.000000 0.000000 0.041021 0.000000
# 6 0.000000 0.000000 0.000000 0.000000 0.000000 0.045304
#
#
# Mechanical properties :
#
#
# Convention : Reuss Voigt Hill
#
# Bulk Modulus (GPa) = 45.29791 48.43417 46.86604
# Shear Modulus (GPa) = 19.33869 20.95453 20.14661
#
# Velocity S-wave (km/s) = 3.62850 3.77704 3.70352
# Velocity P-wave (km/s) = 6.95658 7.21082 7.08484
#
# Compressibility (1/GPa) = 0.02207607
#
# Stress axis : x y z
#
# Youngs Moduli (GPa) = 69.71568 42.05266 31.41644
#
# Poissons Ratio (x) = 0.15839 0.24185
# Poissons Ratio (y) = 0.26258 0.39190
# Poissons Ratio (z) = 0.53668 0.52458
#
# Static dielectric constant tensor:
#      x y z
#    x 3.109600 0.000000 0.000000 
#    y 0.000000 2.918100 0.000000 
#    z 0.000000 0.000000 2.643400 
# 
# 
# High freq. dielectric constant tensor:
#      x y z
#    x 1.557630 0.000000 0.000000 
#    y 0.000000 1.573660 0.000000 
#    z 0.000000 0.000000 1.520630 
# 
# From -- ./inp_files/30052.got.cif
#   From: 2010.03.12/outbox.cif.g09.slc.cpg/sg62_16_cif.got.tgz:30052.got - 2010.04.10 19:12:36.
