data_PCOD8250874
_publ_section_title
;
Structure prediction by ZEFSAII (Michael W. Deem and Ramdas Pophale) SiO2 
 PCOD8250874
Probable space group: P N M A
;
_chemical_formula_sum "Si O2"
_cell_formula_units_Z 64
_cell_length_a 15.123033
_cell_length_b 9.411114
_cell_length_c 25.251907
_cell_angle_alpha 90.000000
_cell_angle_beta 90.000000
_cell_angle_gamma 90.000000
_cell_volume 3593.967250
_symmetry_space_group_name_H-M "P N M A"
_symmetry_group_IT_number 62
_symmetry_cell_setting 'orthorhombic'
loop_
_space_group_symop_operation_xyz
x,y,z
1/2-x,-y,1/2+z
1/2+x,1/2-y,1/2-z
-x,1/2+y,-z
-x,-y,-z
1/2+x,y,1/2-z
1/2-x,1/2+y,1/2+z
x,1/2-y,z
loop_
_atom_site_type_symbol
_atom_site_label
_atom_site_fract_x
_atom_site_fract_y
_atom_site_fract_z
Si Si1 0.505646 0.917151 0.286658
Si Si2 0.195247 0.584180 0.175514
Si Si3 0.109270 0.417103 0.690052
Si Si4 0.812198 0.412349 0.028641
Si Si5 0.611415 0.089382 0.032848
Si Si6 0.038518 0.083327 0.579059
Si Si7 0.353655 0.586677 0.574213
Si Si8 0.453811 0.411433 0.386361
O O1 0.490728 0.750000 0.291643
O O2 0.611063 0.954104 0.286988
O O3 0.458613 0.979158 0.233897
O O4 0.456443 0.987471 0.335911
O O5 0.192807 0.750000 0.159782
O O6 0.288222 0.545712 0.204286
O O7 0.193289 0.494915 0.121939
O O8 0.096681 0.250000 0.688643
O O9 0.084402 0.478269 0.632117
O O10 0.834012 0.250000 0.011333
O O11 0.712655 0.425642 0.049322
O O12 0.872889 0.461037 0.077276
O O13 0.825491 0.517472 0.980388
O O14 0.577126 0.250000 0.040205
O O15 0.556635 0.989224 0.071932
O O16 0.600069 0.044506 0.971153
O O17 0.022343 0.250000 0.584104
O O18 0.322687 0.750000 0.575380
O O19 0.458761 0.572922 0.578512
O O20 0.441949 0.250000 0.366449
#
# Coordination Sequence:
#
# PCOD8250874 Si02
#       8
#     8   8   8   8   8   8   8   8
#     4   9  18  33  52  74  98 128 167 210 248 288
#     4   9  17  32  53  72  97 133 166 201 249 298
#     4   9  17  32  53  76  98 126 170 210 244 291
#     4  10  19  32  50  71  98 135 168 192 238 305
#     4   9  18  32  49  70  98 129 161 195 238 295
#     4   9  17  31  50  70  96 126 157 202 247 283
#     4  10  19  30  48  75 103 126 162 211 246 284
#     4   9  19  34  49  68 100 135 162 199 249 295
#
# _framework density 17.807618999999999
#
# number of rings (size 3 to 8) (size 9 to 14) (size 15 to 20)
#    0.000    2.750    0.000    1.500    0.000    3.500 
#    2.250    4.375    0.000    0.000    0.000    0.000 
#    0.000    0.000    0.000    0.000    0.000    0.000 
#
# Total GULP energy -793482.757604 kJ/mol
# GULP energy per Si atom -12398.168088 kJ/mol
# Density = 1.776709 g / cm^3
# Si number density = 17.807619 Si / 1000 Ang^3
#
#
#
# Elastic Constant Matrix: (Units=GPa)
#
#
# Indices 1 2 3 4 5 6 
#
# 1 119.5942 34.0098 68.1080 0.0000 0.0000 0.0000
# 2 34.0098 45.1614 32.1244 0.0000 0.0000 0.0000
# 3 68.1080 32.1244 87.9265 0.0000 0.0000 0.0000
# 4 0.0000 0.0000 0.0000 23.6043 0.0000 0.0000
# 5 0.0000 0.0000 0.0000 0.0000 26.8561 0.0000
# 6 0.0000 0.0000 0.0000 0.0000 0.0000 23.3276
#
#
#
# Elastic Compliance Matrix: (Units=1/GPa)
#
#
# Indices 1 2 3 4 5 6 
#
# 1 0.015541 -0.004243 -0.010488 0.000000 0.000000 0.000000
# 2 -0.004243 0.031077 -0.008067 0.000000 0.000000 0.000000
# 3 -0.010488 -0.008067 0.022444 0.000000 0.000000 0.000000
# 4 0.000000 0.000000 0.000000 0.042365 0.000000 0.000000
# 5 0.000000 0.000000 0.000000 0.000000 0.037235 0.000000
# 6 0.000000 0.000000 0.000000 0.000000 0.000000 0.042868
#
#
# Mechanical properties :
#
#
# Convention : Reuss Voigt Hill
#
# Bulk Modulus (GPa) = 42.61562 57.90740 50.26151
# Shear Modulus (GPa) = 20.41244 22.65360 21.53302
#
# Velocity S-wave (km/s) = 3.38934 3.57056 3.48113
# Velocity P-wave (km/s) = 6.26897 7.04184 6.66661
#
# Compressibility (1/GPa) = 0.02346557
#
# Stress axis : x y z
#
# Youngs Moduli (GPa) = 64.34579 32.17850 44.55460
#
# Poissons Ratio (x) = 0.13654 0.46728
# Poissons Ratio (y) = 0.27304 0.35943
# Poissons Ratio (z) = 0.67485 0.25959
#
# Static dielectric constant tensor:
#      x y z
#    x 3.462570 0.000000 0.000000 
#    y 0.000000 3.207450 0.000000 
#    z 0.000000 0.000000 3.277430 
# 
# 
# High freq. dielectric constant tensor:
#      x y z
#    x 1.696990 0.000000 0.000000 
#    y 0.000000 1.674280 0.000000 
#    z 0.000000 0.000000 1.671750 
# 
# From -- ./inp_files/29815.got.cif
#   From: 2010.03.12/outbox.cif.g09.slc.cpg/sg62_15_cif.got.tgz:29815.got - 2010.04.10 19:12:36.
