data_PCOD8250008
_publ_section_title
;
Structure prediction by ZEFSAII (Michael W. Deem and Ramdas Pophale) SiO2 
 PCOD8250008
Probable space group: P N M A
;
_chemical_formula_sum "Si O2"
_cell_formula_units_Z 64
_cell_length_a 17.960697
_cell_length_b 14.556166
_cell_length_c 12.060576
_cell_angle_alpha 90.000000
_cell_angle_beta 90.000000
_cell_angle_gamma 90.000000
_cell_volume 3153.103566
_symmetry_space_group_name_H-M "P N M A"
_symmetry_group_IT_number 62
_symmetry_cell_setting 'orthorhombic'
loop_
_space_group_symop_operation_xyz
x,y,z
1/2-x,-y,1/2+z
1/2+x,1/2-y,1/2-z
-x,1/2+y,-z
-x,-y,-z
1/2+x,y,1/2-z
1/2-x,1/2+y,1/2+z
x,1/2-y,z
loop_
_atom_site_type_symbol
_atom_site_label
_atom_site_fract_x
_atom_site_fract_y
_atom_site_fract_z
Si Si1 0.467579 0.094948 0.801774
Si Si2 0.260473 0.858597 0.399571
Si Si3 0.372764 0.502458 0.508597
Si Si4 0.127574 0.961930 0.500238
Si Si5 0.406522 0.847434 0.041008
Si Si6 0.674424 0.852097 0.321519
Si Si7 0.504474 0.938341 0.644507
Si Si8 0.524748 0.847901 0.859420
O O1 0.425985 0.031841 0.893167
O O2 0.531331 0.153819 0.861756
O O3 0.405356 0.155993 0.740561
O O4 0.508292 0.033328 0.711478
O O5 0.277550 0.750000 0.422255
O O6 0.195010 0.892862 0.480744
O O7 0.238057 0.873602 0.270936
O O8 0.327479 0.927425 0.430215
O O9 0.323556 0.433880 0.586669
O O10 0.424619 0.434835 0.436433
O O11 0.425974 0.568293 0.580806
O O12 0.080784 0.927329 0.604868
O O13 0.150529 0.066030 0.538280
O O14 0.362477 0.750000 0.053053
O O15 0.447164 0.851659 0.923410
O O16 0.688740 0.750000 0.373024
O O17 0.508241 0.853848 0.728661
O O18 0.563706 0.750000 0.882752
#
# Coordination Sequence:
#
# PCOD8250008 Si02
#       8
#     8   8   8   8   8   8   8   8
#     4   9  15  31  54  81 116 155 186 232 280 333
#     4  10  22  41  62  81 107 154 200 234 280 346
#     4  10  23  38  60  83 112 145 191 239 288 343
#     4  10  17  32  55  82 117 150 193 241 276 331
#     4  10  17  27  50  87 121 152 193 238 285 333
#     4   9  19  37  61  84 112 151 194 233 285 346
#     4  10  19  36  55  83 115 148 183 233 295 342
#     4  10  18  29  53  85 117 152 188 233 289 344
#
# _framework density 20.297461999999999
#
# number of rings (size 3 to 8) (size 9 to 14) (size 15 to 20)
#    0.000    2.250    2.500    1.500    0.000    5.000 
#    0.000    6.250    0.000    0.750    0.000    0.000 
#    0.000    0.000    0.000    0.000    0.000    0.000 
#
# Total GULP energy -792835.843153 kJ/mol
# GULP energy per Si atom -12388.060049 kJ/mol
# Density = 2.025126 g / cm^3
# Si number density = 20.297462 Si / 1000 Ang^3
#
#
#
# Elastic Constant Matrix: (Units=GPa)
#
#
# Indices 1 2 3 4 5 6 
#
# 1 54.6275 26.1214 25.7453 0.0000 0.0000 0.0000
# 2 26.1214 138.0304 22.4213 0.0000 0.0000 0.0000
# 3 25.7453 22.4213 79.5699 0.0000 0.0000 0.0000
# 4 0.0000 0.0000 0.0000 18.3281 0.0000 0.0000
# 5 0.0000 0.0000 0.0000 0.0000 24.6165 0.0000
# 6 0.0000 0.0000 0.0000 0.0000 0.0000 15.2648
#
#
#
# Elastic Compliance Matrix: (Units=1/GPa)
#
#
# Indices 1 2 3 4 5 6 
#
# 1 0.022938 -0.003286 -0.006496 0.000000 0.000000 0.000000
# 2 -0.003286 0.008063 -0.001209 0.000000 0.000000 0.000000
# 3 -0.006496 -0.001209 0.015010 0.000000 0.000000 0.000000
# 4 0.000000 0.000000 0.000000 0.054561 0.000000 0.000000
# 5 0.000000 0.000000 0.000000 0.000000 0.040623 0.000000
# 6 0.000000 0.000000 0.000000 0.000000 0.000000 0.065510
#
#
# Mechanical properties :
#
#
# Convention : Reuss Voigt Hill
#
# Bulk Modulus (GPa) = 41.61437 46.75599 44.18518
# Shear Modulus (GPa) = 21.12401 24.83785 22.98093
#
# Velocity S-wave (km/s) = 3.22952 3.50193 3.36848
# Velocity P-wave (km/s) = 5.86968 6.27987 6.07824
#
# Compressibility (1/GPa) = 0.02403016
#
# Stress axis : x y z
#
# Youngs Moduli (GPa) = 43.59486 124.02396 66.62214
#
# Poissons Ratio (x) = 0.40752 0.43278
# Poissons Ratio (y) = 0.14324 0.08054
# Poissons Ratio (z) = 0.28319 0.14993
#
# Static dielectric constant tensor:
#      x y z
#    x 3.385520 0.000000 0.000000 
#    y 0.000000 3.725250 0.000000 
#    z 0.000000 0.000000 3.727190 
# 
# 
# High freq. dielectric constant tensor:
#      x y z
#    x 1.759570 0.000000 0.000000 
#    y 0.000000 1.795620 0.000000 
#    z 0.000000 0.000000 1.789460 
# 
# From -- ./inp_files/14338.got.cif
#   From: 2010.03.12/outbox.cif.g09.slc.cpg/sg62_8_cif.got.tgz:14338.got - 2010.04.10 19:12:36.
