data_PCOD8250363
_publ_section_title
;
Structure prediction by ZEFSAII (Michael W. Deem and Ramdas Pophale) SiO2 
 PCOD8250363
Probable space group: P N M A
;
_chemical_formula_sum "Si O2"
_cell_formula_units_Z 48
_cell_length_a 9.345971
_cell_length_b 18.151387
_cell_length_c 14.539066
_cell_angle_alpha 90.000000
_cell_angle_beta 90.000000
_cell_angle_gamma 90.000000
_cell_volume 2466.441127
_symmetry_space_group_name_H-M "P N M A"
_symmetry_group_IT_number 62
_symmetry_cell_setting 'orthorhombic'
loop_
_space_group_symop_operation_xyz
x,y,z
1/2-x,-y,1/2+z
1/2+x,1/2-y,1/2-z
-x,1/2+y,-z
-x,-y,-z
1/2+x,y,1/2-z
1/2-x,1/2+y,1/2+z
x,1/2-y,z
loop_
_atom_site_type_symbol
_atom_site_label
_atom_site_fract_x
_atom_site_fract_y
_atom_site_fract_z
Si Si1 0.611143 0.668200 0.139034
Si Si2 0.297659 0.622663 0.195473
Si Si3 0.885606 0.429224 0.953021
Si Si4 0.490646 0.933501 0.634480
Si Si5 0.744433 0.036962 0.238703
Si Si6 0.356808 0.480067 0.947621
O O1 0.616583 0.750000 0.095546
O O2 0.454125 0.654127 0.179980
O O3 0.726044 0.665658 0.221019
O O4 0.651290 0.608974 0.060582
O O5 0.199380 0.633564 0.103103
O O6 0.305979 0.535082 0.210955
O O7 0.987397 0.477204 0.884995
O O8 0.778354 0.489427 0.997659
O O9 0.980930 0.393072 0.035872
O O10 0.623395 0.915244 0.701425
O O11 0.344049 0.912749 0.687712
O O12 0.638927 0.013803 0.155384
O O13 0.500000 0.500000 0.000000
#
# Coordination Sequence:
#
# PCOD8250363 Si02
#       6
#     8   8   8   8   8   8
#     4  11  22  34  51  76 111 151 178 210 268 333
#     4  10  18  32  50  69 106 145 180 209 257 321
#     4   9  17  29  48  70  99 139 178 224 259 307
#     4   9  17  27  42  70 100 132 164 212 279 304
#     4   9  17  27  45  68 101 134 168 216 263 315
#     4  10  18  30  49  72  99 138 180 225 258 307
#
# _framework density 19.461238000000002
#
# number of rings (size 3 to 8) (size 9 to 14) (size 15 to 20)
#    0.000    2.333    1.667    3.500    2.333    1.333 
#    0.000    0.000    0.000    0.000    0.000    0.000 
#    0.000   22.667    0.000    0.333    0.000    0.000 
#
# Total GULP energy -594776.743513 kJ/mol
# GULP energy per Si atom -12391.182157 kJ/mol
# Density = 1.941694 g / cm^3
# Si number density = 19.461238 Si / 1000 Ang^3
#
#
#
# Elastic Constant Matrix: (Units=GPa)
#
#
# Indices 1 2 3 4 5 6 
#
# 1 67.7484 4.7559 15.7860 0.0000 0.0000 0.0000
# 2 4.7559 56.1650 13.3682 0.0000 0.0000 0.0000
# 3 15.7860 13.3682 71.6588 0.0000 0.0000 0.0000
# 4 0.0000 0.0000 0.0000 13.2971 0.0000 0.0000
# 5 0.0000 0.0000 0.0000 0.0000 39.1427 0.0000
# 6 0.0000 0.0000 0.0000 0.0000 0.0000 9.4126
#
#
#
# Elastic Compliance Matrix: (Units=1/GPa)
#
#
# Indices 1 2 3 4 5 6 
#
# 1 0.015574 -0.000525 -0.003333 0.000000 0.000000 0.000000
# 2 -0.000525 0.018650 -0.003363 0.000000 0.000000 0.000000
# 3 -0.003333 -0.003363 0.015317 0.000000 0.000000 0.000000
# 4 0.000000 0.000000 0.000000 0.075204 0.000000 0.000000
# 5 0.000000 0.000000 0.000000 0.000000 0.025548 0.000000
# 6 0.000000 0.000000 0.000000 0.000000 0.000000 0.106240
#
#
# Mechanical properties :
#
#
# Convention : Reuss Voigt Hill
#
# Bulk Modulus (GPa) = 28.49254 29.26584 28.87919
# Shear Modulus (GPa) = 17.68816 23.14795 20.41805
#
# Velocity S-wave (km/s) = 3.01805 3.45257 3.24260
# Velocity P-wave (km/s) = 5.17854 5.56456 5.37502
#
# Compressibility (1/GPa) = 0.03509690
#
# Stress axis : x y z
#
# Youngs Moduli (GPa) = 64.20975 53.62008 65.28828
#
# Poissons Ratio (x) = 0.02818 0.21759
# Poissons Ratio (y) = 0.03374 0.21959
# Poissons Ratio (z) = 0.21400 0.18035
#
# Static dielectric constant tensor:
#      x y z
#    x 3.936580 0.000000 0.000000 
#    y 0.000000 2.949710 0.000000 
#    z 0.000000 0.000000 3.984070 
# 
# 
# High freq. dielectric constant tensor:
#      x y z
#    x 1.780850 0.000000 0.000000 
#    y 0.000000 1.661950 0.000000 
#    z 0.000000 0.000000 1.769530 
# 
# From -- ./inp_files/17067.got.cif
#   From: 2010.03.12/outbox.cif.g09.slc.cpg/sg62_9_cif.got.tgz:17067.got - 2010.04.10 19:12:36.
