data_PCOD8250036
_publ_section_title
;
Structure prediction by ZEFSAII (Michael W. Deem and Ramdas Pophale) SiO2 
 PCOD8250036
Probable space group: P N M A
;
_chemical_formula_sum "Si O2"
_cell_formula_units_Z 64
_cell_length_a 21.285396
_cell_length_b 12.894310
_cell_length_c 12.183741
_cell_angle_alpha 90.000000
_cell_angle_beta 90.000000
_cell_angle_gamma 90.000000
_cell_volume 3343.955580
_symmetry_space_group_name_H-M "P N M A"
_symmetry_group_IT_number 62
_symmetry_cell_setting 'orthorhombic'
loop_
_space_group_symop_operation_xyz
x,y,z
1/2-x,-y,1/2+z
1/2+x,1/2-y,1/2-z
-x,1/2+y,-z
-x,-y,-z
1/2+x,y,1/2-z
1/2-x,1/2+y,1/2+z
x,1/2-y,z
loop_
_atom_site_type_symbol
_atom_site_label
_atom_site_fract_x
_atom_site_fract_y
_atom_site_fract_z
Si Si1 0.475898 0.632587 0.018121
Si Si2 0.597455 0.869674 0.640564
Si Si3 0.393517 0.368313 0.113111
Si Si4 0.163859 0.870695 0.252254
Si Si5 0.223077 0.871166 0.475181
Si Si6 0.456782 0.870246 0.628565
Si Si7 0.156296 0.003728 0.038071
Si Si8 0.051382 0.505214 0.339830
O O1 0.452346 0.750000 0.037267
O O2 0.487479 0.571401 0.132642
O O3 0.541580 0.625271 0.952614
O O4 0.426871 0.564963 0.945781
O O5 0.617299 0.750000 0.640085
O O6 0.599729 0.916803 0.764323
O O7 0.528108 0.881110 0.584972
O O8 0.647223 0.929862 0.565929
O O9 0.375682 0.250000 0.131588
O O10 0.336427 0.418763 0.042544
O O11 0.158710 0.750000 0.220693
O O12 0.217016 0.891461 0.344020
O O13 0.175853 0.936862 0.143817
O O14 0.099480 0.905420 0.308655
O O15 0.227528 0.750000 0.497490
O O16 0.286785 0.920245 0.517116
O O17 0.437135 0.750000 0.638779
O O18 0.458117 0.920049 0.747913
O O19 0.407307 0.929586 0.552300
#
# Coordination Sequence:
#
# PCOD8250036 Si02
#       8
#     8   8   8   8   8   8   8   8
#     4  10  17  29  50  82 116 146 185 233 277 326
#     4  10  20  36  58  83 112 144 182 230 276 333
#     4   9  17  32  56  80 108 147 184 220 269 326
#     4  10  21  38  56  79 112 147 186 230 278 337
#     4  10  21  38  58  80 108 146 189 230 273 333
#     4  10  20  36  55  82 115 145 185 235 283 334
#     4  11  23  35  59  86 108 145 187 233 286 331
#     4  10  18  28  53  83 106 148 187 224 276 330
#
# _framework density 19.139009999999999
#
# number of rings (size 3 to 8) (size 9 to 14) (size 15 to 20)
#    0.000    2.000    2.500    1.875    1.750    0.000 
#    0.000    0.000    0.000    4.500    0.000    0.000 
#    0.000    0.000    0.000    0.000    0.000    0.000 
#
# Total GULP energy -793018.962983 kJ/mol
# GULP energy per Si atom -12390.921297 kJ/mol
# Density = 1.909545 g / cm^3
# Si number density = 19.139010 Si / 1000 Ang^3
#
#
#
# Elastic Constant Matrix: (Units=GPa)
#
#
# Indices 1 2 3 4 5 6 
#
# 1 59.5165 9.5341 32.8974 0.0000 0.0000 0.0000
# 2 9.5341 81.1987 35.8307 0.0000 0.0000 0.0000
# 3 32.8974 35.8307 84.3116 0.0000 0.0000 0.0000
# 4 0.0000 0.0000 0.0000 26.8880 0.0000 0.0000
# 5 0.0000 0.0000 0.0000 0.0000 26.0933 0.0000
# 6 0.0000 0.0000 0.0000 0.0000 0.0000 27.6526
#
#
#
# Elastic Compliance Matrix: (Units=1/GPa)
#
#
# Indices 1 2 3 4 5 6 
#
# 1 0.021561 0.001453 -0.009030 0.000000 0.000000 0.000000
# 2 0.001453 0.015256 -0.007051 0.000000 0.000000 0.000000
# 3 -0.009030 -0.007051 0.018381 0.000000 0.000000 0.000000
# 4 0.000000 0.000000 0.000000 0.037191 0.000000 0.000000
# 5 0.000000 0.000000 0.000000 0.000000 0.038324 0.000000
# 6 0.000000 0.000000 0.000000 0.000000 0.000000 0.036163
#
#
# Mechanical properties :
#
#
# Convention : Reuss Voigt Hill
#
# Bulk Modulus (GPa) = 38.54734 42.39459 40.47096
# Shear Modulus (GPa) = 24.41664 25.91109 25.16387
#
# Velocity S-wave (km/s) = 3.57564 3.68344 3.62994
# Velocity P-wave (km/s) = 6.10175 6.34739 6.22578
#
# Compressibility (1/GPa) = 0.02594213
#
# Stress axis : x y z
#
# Youngs Moduli (GPa) = 46.38057 65.54778 54.40507
#
# Poissons Ratio (x) = -0.09526 0.49130
# Poissons Ratio (y) = -0.06740 0.38359
# Poissons Ratio (z) = 0.41883 0.46215
#
# Static dielectric constant tensor:
#      x y z
#    x 3.295800 0.000000 0.000000 
#    y 0.000000 3.629400 0.000000 
#    z 0.000000 0.000000 3.624240 
# 
# 
# High freq. dielectric constant tensor:
#      x y z
#    x 1.712190 0.000000 0.000000 
#    y 0.000000 1.751060 0.000000 
#    z 0.000000 0.000000 1.745820 
# 
# From -- ./inp_files/14357.got.cif
#   From: 2010.03.12/outbox.cif.g09.slc.cpg/sg62_8_cif.got.tgz:14357.got - 2010.04.10 19:12:36.
