data_PCOD8250915
_publ_section_title
;
Structure prediction by ZEFSAII (Michael W. Deem and Ramdas Pophale) SiO2 
 PCOD8250915
Probable space group: P N M A
;
_chemical_formula_sum "Si O2"
_cell_formula_units_Z 48
_cell_length_a 28.053527
_cell_length_b 9.163454
_cell_length_c 10.420419
_cell_angle_alpha 90.000000
_cell_angle_beta 90.000000
_cell_angle_gamma 90.000000
_cell_volume 2678.747979
_symmetry_space_group_name_H-M "P N M A"
_symmetry_group_IT_number 62
_symmetry_cell_setting 'orthorhombic'
loop_
_space_group_symop_operation_xyz
x,y,z
1/2-x,-y,1/2+z
1/2+x,1/2-y,1/2-z
-x,1/2+y,-z
-x,-y,-z
1/2+x,y,1/2-z
1/2-x,1/2+y,1/2+z
x,1/2-y,z
loop_
_atom_site_type_symbol
_atom_site_label
_atom_site_fract_x
_atom_site_fract_y
_atom_site_fract_z
Si Si1 0.358133 0.420587 0.735242
Si Si2 0.551394 0.918787 0.629154
Si Si3 0.354288 0.421585 0.243228
Si Si4 0.444450 0.580627 0.635483
Si Si5 0.296111 0.421912 0.487794
Si Si6 0.695842 0.923389 0.010347
O O1 0.368924 0.250000 0.743057
O O2 0.408789 0.502555 0.733848
O O3 0.328277 0.462273 0.609693
O O4 0.329276 0.475076 0.859161
O O5 0.558212 0.750000 0.587491
O O6 0.590075 0.963461 0.737122
O O7 0.498550 0.945780 0.685038
O O8 0.561554 0.015599 0.505594
O O9 0.348201 0.250000 0.241244
O O10 0.322806 0.481830 0.361303
O O11 0.335794 0.484342 0.108167
O O12 0.431772 0.750000 0.629175
O O13 0.286100 0.250000 0.481646
O O14 0.247092 0.505732 0.501052
O O15 0.701790 0.750000 0.006823
#
# Coordination Sequence:
#
# PCOD8250915 Si02
#       6
#     8   8   8   8   8   8
#     4  10  20  35  52  73 105 138 165 201 255 305
#     4   9  17  33  54  75 102 132 166 209 256 303
#     4   9  17  33  54  73  98 134 169 199 246 305
#     4  10  19  30  52  81 101 126 169 215 251 292
#     4  10  19  33  53  72  97 137 171 204 252 295
#     4  10  21  34  51  75 101 133 171 208 245 295
#
# _framework density 17.918818000000002
#
# number of rings (size 3 to 8) (size 9 to 14) (size 15 to 20)
#    0.000    2.333    1.667    1.500    0.000    2.000 
#    0.000    1.667    0.000    0.000    0.000    0.000 
#    0.000    0.000    0.000    0.000    0.000    0.000 
#
# Total GULP energy -595185.932432 kJ/mol
# GULP energy per Si atom -12399.706926 kJ/mol
# Density = 1.787803 g / cm^3
# Si number density = 17.918818 Si / 1000 Ang^3
#
#
#
# Elastic Constant Matrix: (Units=GPa)
#
#
# Indices 1 2 3 4 5 6 
#
# 1 139.4864 45.2880 49.1518 0.0000 0.0000 0.0000
# 2 45.2880 41.2972 25.8934 0.0000 0.0000 0.0000
# 3 49.1518 25.8934 102.8606 0.0000 0.0000 0.0000
# 4 0.0000 0.0000 0.0000 11.4323 0.0000 0.0000
# 5 0.0000 0.0000 0.0000 0.0000 7.1878 0.0000
# 6 0.0000 0.0000 0.0000 0.0000 0.0000 34.2650
#
#
#
# Elastic Compliance Matrix: (Units=1/GPa)
#
#
# Indices 1 2 3 4 5 6 
#
# 1 0.011786 -0.011154 -0.002824 0.000000 0.000000 0.000000
# 2 -0.011154 0.039309 -0.004565 0.000000 0.000000 0.000000
# 3 -0.002824 -0.004565 0.012221 0.000000 0.000000 0.000000
# 4 0.000000 0.000000 0.000000 0.087472 0.000000 0.000000
# 5 0.000000 0.000000 0.000000 0.000000 0.139124 0.000000
# 6 0.000000 0.000000 0.000000 0.000000 0.000000 0.029184
#
#
# Mechanical properties :
#
#
# Convention : Reuss Voigt Hill
#
# Bulk Modulus (GPa) = 38.12630 58.25672 48.19151
# Shear Modulus (GPa) = 13.70144 21.46441 17.58293
#
# Velocity S-wave (km/s) = 2.76821 3.46478 3.13590
# Velocity P-wave (km/s) = 5.61612 6.97053 6.32966
#
# Compressibility (1/GPa) = 0.02622861
#
# Stress axis : x y z
#
# Youngs Moduli (GPa) = 84.84861 25.43935 81.82905
#
# Poissons Ratio (x) = 0.28375 0.23108
# Poissons Ratio (y) = 0.94640 0.37359
# Poissons Ratio (z) = 0.23961 0.11614
#
# Static dielectric constant tensor:
#      x y z
#    x 3.520780 0.000000 0.000000 
#    y 0.000000 3.140880 0.000000 
#    z 0.000000 0.000000 3.521130 
# 
# 
# High freq. dielectric constant tensor:
#      x y z
#    x 1.709510 0.000000 0.000000 
#    y 0.000000 1.673840 0.000000 
#    z 0.000000 0.000000 1.680600 
# 
# From -- ./inp_files/15161.got.cif
#   From: 2010.03.12/outbox.cif.g09.slc.cpg/sg62_8_cif.got.tgz:15161.got - 2010.04.10 19:12:36.
