data_PCOD8250683
_publ_section_title
;
Structure prediction by ZEFSAII (Michael W. Deem and Ramdas Pophale) SiO2 
 PCOD8250683
Probable space group: P N M A
;
_chemical_formula_sum "Si O2"
_cell_formula_units_Z 56
_cell_length_a 21.440594
_cell_length_b 14.225607
_cell_length_c 8.928540
_cell_angle_alpha 90.000000
_cell_angle_beta 90.000000
_cell_angle_gamma 90.000000
_cell_volume 2723.253486
_symmetry_space_group_name_H-M "P N M A"
_symmetry_group_IT_number 62
_symmetry_cell_setting 'orthorhombic'
loop_
_space_group_symop_operation_xyz
x,y,z
1/2-x,-y,1/2+z
1/2+x,1/2-y,1/2-z
-x,1/2+y,-z
-x,-y,-z
1/2+x,y,1/2-z
1/2-x,1/2+y,1/2+z
x,1/2-y,z
loop_
_atom_site_type_symbol
_atom_site_label
_atom_site_fract_x
_atom_site_fract_y
_atom_site_fract_z
Si Si1 0.027715 0.854363 0.838616
Si Si2 0.693194 0.858820 0.871180
Si Si3 0.603799 0.976030 0.079741
Si Si4 0.470341 0.954972 0.176422
Si Si5 0.679803 0.029216 0.366560
Si Si6 0.087166 0.145038 0.954708
Si Si7 0.651810 0.854123 0.535479
O O1 0.039753 0.750000 0.767697
O O2 0.076941 0.870683 0.976223
O O3 0.959685 0.859374 0.907554
O O4 0.032058 0.933681 0.712924
O O5 0.708455 0.750000 0.909553
O O6 0.755254 0.919315 0.849665
O O7 0.660265 0.869205 0.712356
O O8 0.649459 0.901018 0.000940
O O9 0.541799 0.923749 0.143836
O O10 0.642503 0.029114 0.209909
O O11 0.576635 0.055293 0.965328
O O12 0.445397 0.889685 0.305532
O O13 0.644617 0.079972 0.502584
O O14 0.689782 0.922745 0.425851
O O15 0.111833 0.250000 0.927551
O O16 0.672545 0.750000 0.485489
#
# Coordination Sequence:
#
# PCOD8250683 Si02
#       7
#     8   8   8   8   8   8   8
#     4  10  18  34  63  91 119 160 204 248 305 371
#     4  11  24  42  61  86 122 167 213 257 309 373
#     4  11  24  37  65  92 125 161 203 264 324 374
#     4  11  21  40  61  95 129 161 199 261 330 377
#     4  12  22  40  63  89 124 164 211 256 308 372
#     4  11  22  37  61  91 124 165 206 251 309 381
#     4  10  21  39  64  87 116 161 212 256 305 371
#
# _framework density 20.563639999999999
#
# number of rings (size 3 to 8) (size 9 to 14) (size 15 to 20)
#    0.000    1.143    4.286    2.571    0.000    1.143 
#    0.000    3.571    0.000    4.286    0.000    0.000 
#    0.000    0.000    0.000    0.000    0.000    0.000 
#
# Total GULP energy -694201.240047 kJ/mol
# GULP energy per Si atom -12396.450715 kJ/mol
# Density = 2.051684 g / cm^3
# Si number density = 20.563640 Si / 1000 Ang^3
#
#
#
# Elastic Constant Matrix: (Units=GPa)
#
#
# Indices 1 2 3 4 5 6 
#
# 1 98.2178 48.9025 33.9779 0.0000 0.0000 0.0000
# 2 48.9025 116.6907 43.9342 0.0000 0.0000 0.0000
# 3 33.9779 43.9342 92.8969 0.0000 0.0000 0.0000
# 4 0.0000 0.0000 0.0000 21.5588 0.0000 0.0000
# 5 0.0000 0.0000 0.0000 0.0000 21.9226 0.0000
# 6 0.0000 0.0000 0.0000 0.0000 0.0000 23.5779
#
#
#
# Elastic Compliance Matrix: (Units=1/GPa)
#
#
# Indices 1 2 3 4 5 6 
#
# 1 0.013414 -0.004592 -0.002735 0.000000 0.000000 0.000000
# 2 -0.004592 0.011998 -0.003995 0.000000 0.000000 0.000000
# 3 -0.002735 -0.003995 0.013654 0.000000 0.000000 0.000000
# 4 0.000000 0.000000 0.000000 0.046385 0.000000 0.000000
# 5 0.000000 0.000000 0.000000 0.000000 0.045615 0.000000
# 6 0.000000 0.000000 0.000000 0.000000 0.000000 0.042413
#
#
# Mechanical properties :
#
#
# Convention : Reuss Voigt Hill
#
# Bulk Modulus (GPa) = 60.88836 62.38162 61.63499
# Shear Modulus (GPa) = 24.80217 25.47790 25.14003
#
# Velocity S-wave (km/s) = 3.47669 3.52373 3.50029
# Velocity P-wave (km/s) = 6.76687 6.85254 6.80984
#
# Compressibility (1/GPa) = 0.01642350
#
# Stress axis : x y z
#
# Youngs Moduli (GPa) = 74.55056 83.34691 73.23817
#
# Poissons Ratio (x) = 0.38271 0.20027
# Poissons Ratio (y) = 0.34232 0.29257
# Poissons Ratio (z) = 0.20386 0.33295
#
# Static dielectric constant tensor:
#      x y z
#    x 3.842310 0.000000 0.000000 
#    y 0.000000 3.776320 0.000000 
#    z 0.000000 0.000000 3.642900 
# 
# 
# High freq. dielectric constant tensor:
#      x y z
#    x 1.808900 0.000000 0.000000 
#    y 0.000000 1.797560 0.000000 
#    z 0.000000 0.000000 1.800080 
# 
# From -- ./inp_files/8738.got.cif
#   From: 2010.03.12/outbox.cif.g09.slc.cpg/sg62_5_cif.got.tgz:8738.got - 2010.04.10 19:12:36.
