data_PCOD8250706
_publ_section_title
;
Structure prediction by ZEFSAII (Michael W. Deem and Ramdas Pophale) SiO2 
 PCOD8250706
Probable space group: P N M A
;
_chemical_formula_sum "Si O2"
_cell_formula_units_Z 64
_cell_length_a 30.958959
_cell_length_b 8.873134
_cell_length_c 11.949482
_cell_angle_alpha 90.000000
_cell_angle_beta 90.000000
_cell_angle_gamma 90.000000
_cell_volume 3282.558455
_symmetry_space_group_name_H-M "P N M A"
_symmetry_group_IT_number 62
_symmetry_cell_setting 'orthorhombic'
loop_
_space_group_symop_operation_xyz
x,y,z
1/2-x,-y,1/2+z
1/2+x,1/2-y,1/2-z
-x,1/2+y,-z
-x,-y,-z
1/2+x,y,1/2-z
1/2-x,1/2+y,1/2+z
x,1/2-y,z
loop_
_atom_site_type_symbol
_atom_site_label
_atom_site_fract_x
_atom_site_fract_y
_atom_site_fract_z
Si Si1 0.872128 0.427095 0.389872
Si Si2 0.928550 0.427665 0.995443
Si Si3 0.958744 0.427885 0.756337
Si Si4 0.297812 0.428618 0.273800
Si Si5 0.797484 0.571616 0.776833
Si Si6 0.621575 0.428382 0.129991
Si Si7 0.954193 0.072816 0.237127
Si Si8 0.832213 0.429173 0.991684
O O1 0.870923 0.250000 0.417432
O O2 0.828462 0.482413 0.327953
O O3 0.876116 0.520528 0.502573
O O4 0.912685 0.466326 0.311137
O O5 0.925522 0.250000 0.009892
O O6 0.947470 0.492955 0.111288
O O7 0.880596 0.490053 0.974310
O O8 0.956558 0.474839 0.887674
O O9 0.956149 0.250000 0.739958
O O10 0.919776 0.499045 0.687978
O O11 0.004140 0.490333 0.709863
O O12 0.299303 0.250000 0.276914
O O13 0.249009 0.488395 0.263790
O O14 0.316223 0.491990 0.389637
O O15 0.798011 0.750000 0.786784
O O16 0.834943 0.515848 0.692599
O O17 0.802478 0.501105 0.898137
O O18 0.616901 0.250000 0.135829
O O19 0.963273 0.250000 0.235817
O O20 0.829127 0.250000 0.983586
#
# Coordination Sequence:
#
# PCOD8250706 Si02
#       8
#     8   8   8   8   8   8   8   8
#     4  10  21  39  62  83 109 150 194 233 277 337
#     4   9  17  33  58  87 115 143 183 229 278 337
#     4  11  22  37  59  87 115 148 190 233 278 341
#     4   9  19  37  61  86 115 151 189 231 283 338
#     4  10  22  38  56  85 120 151 186 233 285 332
#     4  11  24  40  57  81 117 154 189 236 287 331
#     4  10  20  37  60  86 114 146 184 232 288 338
#     4  10  18  35  63  87 112 151 192 230 277 338
#
# _framework density 19.496988000000002
#
# number of rings (size 3 to 8) (size 9 to 14) (size 15 to 20)
#    0.000    2.000    2.500    1.125    1.750    1.500 
#    0.000    2.500    0.000    0.000    0.000    0.000 
#    0.000    0.000    0.000    0.000    0.000    0.000 
#
# Total GULP energy -793613.719721 kJ/mol
# GULP energy per Si atom -12400.214371 kJ/mol
# Density = 1.945261 g / cm^3
# Si number density = 19.496988 Si / 1000 Ang^3
#
#
#
# Elastic Constant Matrix: (Units=GPa)
#
#
# Indices 1 2 3 4 5 6 
#
# 1 148.5407 32.6177 44.7521 0.0000 0.0000 0.0000
# 2 32.6177 31.6742 29.1140 0.0000 0.0000 0.0000
# 3 44.7521 29.1140 114.2227 0.0000 0.0000 0.0000
# 4 0.0000 0.0000 0.0000 28.3178 0.0000 0.0000
# 5 0.0000 0.0000 0.0000 0.0000 26.2480 0.0000
# 6 0.0000 0.0000 0.0000 0.0000 0.0000 16.6371
#
#
#
# Elastic Compliance Matrix: (Units=1/GPa)
#
#
# Indices 1 2 3 4 5 6 
#
# 1 0.008892 -0.007777 -0.001502 0.000000 0.000000 0.000000
# 2 -0.007777 0.048032 -0.009196 0.000000 0.000000 0.000000
# 3 -0.001502 -0.009196 0.011687 0.000000 0.000000 0.000000
# 4 0.000000 0.000000 0.000000 0.035313 0.000000 0.000000
# 5 0.000000 0.000000 0.000000 0.000000 0.038098 0.000000
# 6 0.000000 0.000000 0.000000 0.000000 0.000000 0.060106
#
#
# Mechanical properties :
#
#
# Convention : Reuss Voigt Hill
#
# Bulk Modulus (GPa) = 31.58271 56.37835 43.98053
# Shear Modulus (GPa) = 20.02938 26.77084 23.40011
#
# Velocity S-wave (km/s) = 3.20864 3.70952 3.46814
# Velocity P-wave (km/s) = 5.47367 6.87944 6.21642
#
# Compressibility (1/GPa) = 0.03166289
#
# Stress axis : x y z
#
# Youngs Moduli (GPa) = 112.45690 20.81926 85.56405
#
# Poissons Ratio (x) = 0.16191 0.12850
# Poissons Ratio (y) = 0.87455 0.78684
# Poissons Ratio (z) = 0.16888 0.19145
#
# Static dielectric constant tensor:
#      x y z
#    x 3.810540 0.000000 0.000000 
#    y 0.000000 3.198440 0.000000 
#    z 0.000000 0.000000 3.639230 
# 
# 
# High freq. dielectric constant tensor:
#      x y z
#    x 1.776300 0.000000 0.000000 
#    y 0.000000 1.728160 0.000000 
#    z 0.000000 0.000000 1.765570 
# 
# From -- ./inp_files/15861.got.cif
#   From: 2010.03.12/outbox.cif.g09.slc.cpg/sg62_8_cif.got.tgz:15861.got - 2010.04.10 19:12:36.
