data_PCOD8250401
_publ_section_title
;
Structure prediction by ZEFSAII (Michael W. Deem and Ramdas Pophale) SiO2 
 PCOD8250401
Probable space group: P N M A
;
_chemical_formula_sum "Si O2"
_cell_formula_units_Z 64
_cell_length_a 33.330012
_cell_length_b 8.941109
_cell_length_c 11.801293
_cell_angle_alpha 90.000000
_cell_angle_beta 90.000000
_cell_angle_gamma 90.000000
_cell_volume 3516.871113
_symmetry_space_group_name_H-M "P N M A"
_symmetry_group_IT_number 62
_symmetry_cell_setting 'orthorhombic'
loop_
_space_group_symop_operation_xyz
x,y,z
1/2-x,-y,1/2+z
1/2+x,1/2-y,1/2-z
-x,1/2+y,-z
-x,-y,-z
1/2+x,y,1/2-z
1/2-x,1/2+y,1/2+z
x,1/2-y,z
loop_
_atom_site_type_symbol
_atom_site_label
_atom_site_fract_x
_atom_site_fract_y
_atom_site_fract_z
Si Si1 0.167458 0.576415 0.466820
Si Si2 0.390147 0.075116 0.760146
Si Si3 0.318041 0.076224 0.371969
Si Si4 0.034942 0.424405 0.351409
Si Si5 0.044757 0.076379 0.612594
Si Si6 0.633045 0.426116 0.816393
Si Si7 0.271490 0.921165 0.817749
Si Si8 0.326772 0.925103 0.610145
O O1 0.169985 0.750000 0.496915
O O2 0.132461 0.539976 0.377534
O O3 0.159553 0.488131 0.581445
O O4 0.209884 0.524958 0.415476
O O5 0.390740 0.250000 0.732684
O O6 0.435177 0.013102 0.768851
O O7 0.368418 0.989891 0.657870
O O8 0.328431 0.250000 0.381848
O O9 0.275778 0.049028 0.309057
O O10 0.352861 0.996209 0.301443
O O11 0.315351 0.006956 0.495587
O O12 0.038272 0.250000 0.324609
O O13 0.046940 0.462664 0.480018
O O14 0.989824 0.479893 0.326957
O O15 0.034761 0.250000 0.630496
O O16 0.086634 0.029440 0.668515
O O17 0.638794 0.250000 0.812891
O O18 0.281046 0.750000 0.850256
O O19 0.290643 0.961036 0.696582
O O20 0.332126 0.750000 0.588250
#
# Coordination Sequence:
#
# PCOD8250401 Si02
#       8
#     8   8   8   8   8   8   8   8
#     4  10  20  33  54  82 111 143 183 227 274 328
#     4  10  19  33  55  82 112 146 183 227 278 329
#     4  11  24  40  57  82 111 145 188 232 281 332
#     4  10  18  30  52  82 114 148 184 226 276 329
#     4   9  19  33  50  77 115 150 185 226 272 330
#     4  11  22  37  56  80 113 153 188 226 279 333
#     4   9  21  39  58  80 109 143 181 230 278 327
#     4  10  21  39  59  80 109 146 189 232 276 329
#
# _framework density 18.197994000000001
#
# number of rings (size 3 to 8) (size 9 to 14) (size 15 to 20)
#    0.000    2.000    1.250    2.250    1.750    4.000 
#    0.000    0.000    0.000    0.750    0.000    0.000 
#    0.000    0.000    0.000    0.000    0.000    0.000 
#
# Total GULP energy -793920.900041 kJ/mol
# GULP energy per Si atom -12405.014063 kJ/mol
# Density = 1.815657 g / cm^3
# Si number density = 18.197994 Si / 1000 Ang^3
#
#
#
# Elastic Constant Matrix: (Units=GPa)
#
#
# Indices 1 2 3 4 5 6 
#
# 1 112.4866 52.9572 48.2372 0.0000 0.0000 0.0000
# 2 52.9572 89.0148 43.0181 0.0000 0.0000 0.0000
# 3 48.2372 43.0181 87.1539 0.0000 0.0000 0.0000
# 4 0.0000 0.0000 0.0000 32.9536 0.0000 0.0000
# 5 0.0000 0.0000 0.0000 0.0000 22.8133 0.0000
# 6 0.0000 0.0000 0.0000 0.0000 0.0000 32.6826
#
#
#
# Elastic Compliance Matrix: (Units=1/GPa)
#
#
# Indices 1 2 3 4 5 6 
#
# 1 0.013651 -0.005870 -0.004658 0.000000 0.000000 0.000000
# 2 -0.005870 0.017278 -0.005279 0.000000 0.000000 0.000000
# 3 -0.004658 -0.005279 0.016658 0.000000 0.000000 0.000000
# 4 0.000000 0.000000 0.000000 0.030346 0.000000 0.000000
# 5 0.000000 0.000000 0.000000 0.000000 0.043834 0.000000
# 6 0.000000 0.000000 0.000000 0.000000 0.000000 0.030597
#
#
# Mechanical properties :
#
#
# Convention : Reuss Voigt Hill
#
# Bulk Modulus (GPa) = 62.61019 64.12004 63.36512
# Shear Modulus (GPa) = 26.41283 27.31943 26.86613
#
# Velocity S-wave (km/s) = 3.81388 3.87878 3.84646
# Velocity P-wave (km/s) = 7.33988 7.44117 7.39070
#
# Compressibility (1/GPa) = 0.01597184
#
# Stress axis : x y z
#
# Youngs Moduli (GPa) = 73.25434 57.87817 60.03244
#
# Poissons Ratio (x) = 0.33976 0.27963
# Poissons Ratio (y) = 0.43003 0.31691
# Poissons Ratio (z) = 0.34122 0.30554
#
# Static dielectric constant tensor:
#      x y z
#    x 3.389160 0.000000 0.000000 
#    y 0.000000 3.428320 0.000000 
#    z 0.000000 0.000000 3.136690 
# 
# 
# High freq. dielectric constant tensor:
#      x y z
#    x 1.706830 0.000000 0.000000 
#    y 0.000000 1.718600 0.000000 
#    z 0.000000 0.000000 1.679780 
# 
# From -- ./inp_files/15902.got.cif
#   From: 2010.03.12/outbox.cif.g09.slc.cpg/sg62_8_cif.got.tgz:15902.got - 2010.04.10 19:12:36.
