data_PCOD8250412
_publ_section_title
;
Structure prediction by ZEFSAII (Michael W. Deem and Ramdas Pophale) SiO2 
 PCOD8250412
Probable space group: P N M A
;
_chemical_formula_sum "Si O2"
_cell_formula_units_Z 64
_cell_length_a 19.733007
_cell_length_b 19.633849
_cell_length_c 9.596853
_cell_angle_alpha 90.000000
_cell_angle_beta 90.000000
_cell_angle_gamma 90.000000
_cell_volume 3718.155588
_symmetry_space_group_name_H-M "P N M A"
_symmetry_group_IT_number 62
_symmetry_cell_setting 'orthorhombic'
loop_
_space_group_symop_operation_xyz
x,y,z
1/2-x,-y,1/2+z
1/2+x,1/2-y,1/2-z
-x,1/2+y,-z
-x,-y,-z
1/2+x,y,1/2-z
1/2-x,1/2+y,1/2+z
x,1/2-y,z
loop_
_atom_site_type_symbol
_atom_site_label
_atom_site_fract_x
_atom_site_fract_y
_atom_site_fract_z
Si Si1 0.071198 0.915736 0.949458
Si Si2 0.298305 0.828570 0.046685
Si Si3 0.167714 0.559681 0.704470
Si Si4 0.817966 0.924891 0.701414
Si Si5 0.816985 0.076879 0.606928
Si Si6 0.850282 0.329182 0.851726
Si Si7 0.668194 0.409478 0.701122
Si Si8 0.584316 0.435374 0.448957
O O1 0.110807 0.908319 0.804057
O O2 0.992191 0.915541 0.914044
O O3 0.088573 0.852048 0.048247
O O4 0.093964 0.983461 0.032664
O O5 0.309899 0.750000 0.011596
O O6 0.219132 0.846852 0.066816
O O7 0.335027 0.846436 0.192515
O O8 0.331209 0.872410 0.923653
O O9 0.241107 0.584958 0.751473
O O10 0.154649 0.586885 0.548771
O O11 0.163860 0.477919 0.706844
O O12 0.868803 0.906739 0.826344
O O13 0.834391 0.000995 0.654521
O O14 0.854607 0.130638 0.706138
O O15 0.736417 0.089237 0.608995
O O16 0.856651 0.250000 0.817088
O O17 0.605735 0.401018 0.595275
#
# Coordination Sequence:
#
# PCOD8250412 Si02
#       8
#     8   8   8   8   8   8   8   8
#     4  10  20  36  53  82 113 146 183 225 272 333
#     4  10  20  34  53  81 112 141 179 229 280 329
#     4  10  18  30  55  82 107 137 185 227 274 315
#     4  11  18  32  55  84 110 140 179 234 276 325
#     4  10  18  30  54  83 107 136 184 231 270 321
#     4  10  20  36  55  79 111 149 185 222 273 334
#     4   9  18  30  51  80 105 140 178 226 273 323
#     4  10  20  34  56  82 113 140 183 232 276 320
#
# _framework density 17.212834000000001
#
# number of rings (size 3 to 8) (size 9 to 14) (size 15 to 20)
#    0.000    2.000    5.000    0.000    0.000    0.000 
#    0.000    5.000    0.000    0.000    0.000    0.000 
#    0.000    0.000    0.000    0.000    0.000    0.000 
#
# Total GULP energy -793717.826374 kJ/mol
# GULP energy per Si atom -12401.841037 kJ/mol
# Density = 1.717366 g / cm^3
# Si number density = 17.212834 Si / 1000 Ang^3
#
#
#
# Elastic Constant Matrix: (Units=GPa)
#
#
# Indices 1 2 3 4 5 6 
#
# 1 80.1816 30.5275 54.5032 0.0000 0.0000 0.0000
# 2 30.5275 81.2780 57.4149 0.0000 0.0000 0.0000
# 3 54.5032 57.4149 135.3007 0.0000 0.0000 0.0000
# 4 0.0000 0.0000 0.0000 26.7324 0.0000 0.0000
# 5 0.0000 0.0000 0.0000 0.0000 25.4602 0.0000
# 6 0.0000 0.0000 0.0000 0.0000 0.0000 15.0344
#
#
#
# Elastic Compliance Matrix: (Units=1/GPa)
#
#
# Indices 1 2 3 4 5 6 
#
# 1 0.017463 -0.002270 -0.006071 0.000000 0.000000 0.000000
# 2 -0.002270 0.017866 -0.006667 0.000000 0.000000 0.000000
# 3 -0.006071 -0.006667 0.012666 0.000000 0.000000 0.000000
# 4 0.000000 0.000000 0.000000 0.037408 0.000000 0.000000
# 5 0.000000 0.000000 0.000000 0.000000 0.039277 0.000000
# 6 0.000000 0.000000 0.000000 0.000000 0.000000 0.066514
#
#
# Mechanical properties :
#
#
# Convention : Reuss Voigt Hill
#
# Bulk Modulus (GPa) = 55.62438 64.62795 60.12616
# Shear Modulus (GPa) = 22.00684 23.73304 22.86994
#
# Velocity S-wave (km/s) = 3.57951 3.71725 3.64903
# Velocity P-wave (km/s) = 7.03347 7.48677 7.26366
#
# Compressibility (1/GPa) = 0.01797773
#
# Stress axis : x y z
#
# Youngs Moduli (GPa) = 57.26414 55.97371 78.95372
#
# Poissons Ratio (x) = 0.12707 0.47935
# Poissons Ratio (y) = 0.13000 0.52636
# Poissons Ratio (z) = 0.34766 0.37316
#
# Static dielectric constant tensor:
#      x y z
#    x 2.977240 0.000000 0.000000 
#    y 0.000000 2.970060 0.000000 
#    z 0.000000 0.000000 3.220510 
# 
# 
# High freq. dielectric constant tensor:
#      x y z
#    x 1.640280 0.000000 0.000000 
#    y 0.000000 1.640940 0.000000 
#    z 0.000000 0.000000 1.673870 
# 
# From -- ./inp_files/8080.got.cif
#   From: 2010.03.12/outbox.cif.g09.slc.cpg/sg62_5_cif.got.tgz:8080.got - 2010.04.10 19:12:36.
