data_PCOD8250054
_publ_section_title
;
Structure prediction by ZEFSAII (Michael W. Deem and Ramdas Pophale) SiO2 
 PCOD8250054
Probable space group: P N M A
;
_chemical_formula_sum "Si O2"
_cell_formula_units_Z 64
_cell_length_a 27.728163
_cell_length_b 10.368164
_cell_length_c 12.678721
_cell_angle_alpha 90.000000
_cell_angle_beta 90.000000
_cell_angle_gamma 90.000000
_cell_volume 3645.007293
_symmetry_space_group_name_H-M "P N M A"
_symmetry_group_IT_number 62
_symmetry_cell_setting 'orthorhombic'
loop_
_space_group_symop_operation_xyz
x,y,z
1/2-x,-y,1/2+z
1/2+x,1/2-y,1/2-z
-x,1/2+y,-z
-x,-y,-z
1/2+x,y,1/2-z
1/2-x,1/2+y,1/2+z
x,1/2-y,z
loop_
_atom_site_type_symbol
_atom_site_label
_atom_site_fract_x
_atom_site_fract_y
_atom_site_fract_z
Si Si1 0.205485 0.892898 0.376816
Si Si2 0.409915 0.896682 0.452263
Si Si3 0.372459 0.894135 0.896205
Si Si4 0.304350 0.900028 0.483041
Si Si5 0.820895 0.389319 0.857159
Si Si6 0.537675 0.397159 0.957566
Si Si7 0.019234 0.398763 0.779615
Si Si8 0.416717 0.984952 0.684033
O O1 0.191110 0.750000 0.421528
O O2 0.260261 0.927235 0.406171
O O3 0.206665 0.889017 0.252256
O O4 0.169015 0.001201 0.419002
O O5 0.411432 0.750000 0.417549
O O6 0.355188 0.946036 0.431457
O O7 0.447630 0.964932 0.371636
O O8 0.424838 0.908012 0.574903
O O9 0.351266 0.750000 0.910913
O O10 0.394392 0.899253 0.778106
O O11 0.412250 0.923043 0.984268
O O12 0.307612 0.750000 0.518760
O O13 0.296917 0.990470 0.583978
O O14 0.812615 0.250000 0.913521
O O15 0.878609 0.401666 0.840201
O O16 0.519596 0.250000 0.979326
O O17 0.545382 0.418393 0.832647
O O18 0.500000 0.500000 0.000000
O O19 0.009507 0.250000 0.804715
O O20 0.967448 0.464940 0.775189
#
# Coordination Sequence:
#
# PCOD8250054 Si02
#       8
#     8   8   8   8   8   8   8   8
#     4   9  19  35  54  76 101 133 173 212 259 312
#     4   9  18  31  49  74 101 134 173 212 253 303
#     4  10  20  33  52  80 104 130 173 221 260 299
#     4   9  18  35  54  73 101 137 169 207 259 312
#     4   9  18  31  50  77 101 129 170 216 255 298
#     4  10  20  35  52  75 104 138 173 209 253 306
#     4  10  19  31  49  74 103 138 174 207 250 304
#     4  10  17  30  52  72 104 135 170 210 254 306
#
# _framework density 17.558264000000001
#
# number of rings (size 3 to 8) (size 9 to 14) (size 15 to 20)
#    0.000    2.500    1.250    1.125    0.000    4.500 
#    2.250    0.000    0.000    3.750    0.000    0.000 
#    0.000    0.000    0.000    0.000    0.000    0.000 
#
# Total GULP energy -793075.445748 kJ/mol
# GULP energy per Si atom -12391.803840 kJ/mol
# Density = 1.751830 g / cm^3
# Si number density = 17.558264 Si / 1000 Ang^3
#
#
#
# Elastic Constant Matrix: (Units=GPa)
#
#
# Indices 1 2 3 4 5 6 
#
# 1 95.9444 45.1498 41.6159 0.0000 0.0000 0.0000
# 2 45.1498 84.3463 20.5817 0.0000 0.0000 0.0000
# 3 41.6159 20.5817 73.2748 0.0000 0.0000 0.0000
# 4 0.0000 0.0000 0.0000 22.3739 0.0000 0.0000
# 5 0.0000 0.0000 0.0000 0.0000 30.0023 0.0000
# 6 0.0000 0.0000 0.0000 0.0000 0.0000 23.7471
#
#
#
# Elastic Compliance Matrix: (Units=1/GPa)
#
#
# Indices 1 2 3 4 5 6 
#
# 1 0.017224 -0.007336 -0.007722 0.000000 0.000000 0.000000
# 2 -0.007336 0.015853 -0.000286 0.000000 0.000000 0.000000
# 3 -0.007722 -0.000286 0.018113 0.000000 0.000000 0.000000
# 4 0.000000 0.000000 0.000000 0.044695 0.000000 0.000000
# 5 0.000000 0.000000 0.000000 0.000000 0.033331 0.000000
# 6 0.000000 0.000000 0.000000 0.000000 0.000000 0.042110
#
#
# Mechanical properties :
#
#
# Convention : Reuss Voigt Hill
#
# Bulk Modulus (GPa) = 48.77588 52.02894 50.40241
# Shear Modulus (GPa) = 23.94087 24.97254 24.45671
#
# Velocity S-wave (km/s) = 3.69658 3.77539 3.73619
# Velocity P-wave (km/s) = 6.78670 6.97863 6.88333
#
# Compressibility (1/GPa) = 0.02050194
#
# Stress axis : x y z
#
# Youngs Moduli (GPa) = 58.05823 63.08152 55.20808
#
# Poissons Ratio (x) = 0.46274 0.42631
# Poissons Ratio (y) = 0.42590 0.01582
# Poissons Ratio (z) = 0.44832 0.01807
#
# Static dielectric constant tensor:
#      x y z
#    x 3.266310 0.000000 0.000000 
#    y 0.000000 3.381350 0.000000 
#    z 0.000000 0.000000 3.317150 
# 
# 
# High freq. dielectric constant tensor:
#      x y z
#    x 1.674990 0.000000 0.000000 
#    y 0.000000 1.674020 0.000000 
#    z 0.000000 0.000000 1.671830 
# 
# From -- ./inp_files/15577.got.cif
#   From: 2010.03.12/outbox.cif.g09.slc.cpg/sg62_8_cif.got.tgz:15577.got - 2010.04.10 19:12:36.
