data_PCOD8250765
_publ_section_title
;
Structure prediction by ZEFSAII (Michael W. Deem and Ramdas Pophale) SiO2 
 PCOD8250765
Probable space group: P N M A
;
_chemical_formula_sum "Si O2"
_cell_formula_units_Z 48
_cell_length_a 16.758701
_cell_length_b 9.460395
_cell_length_c 18.258878
_cell_angle_alpha 90.000000
_cell_angle_beta 90.000000
_cell_angle_gamma 90.000000
_cell_volume 2894.834296
_symmetry_space_group_name_H-M "P N M A"
_symmetry_group_IT_number 62
_symmetry_cell_setting 'orthorhombic'
loop_
_space_group_symop_operation_xyz
x,y,z
1/2-x,-y,1/2+z
1/2+x,1/2-y,1/2-z
-x,1/2+y,-z
-x,-y,-z
1/2+x,y,1/2-z
1/2-x,1/2+y,1/2+z
x,1/2-y,z
loop_
_atom_site_type_symbol
_atom_site_label
_atom_site_fract_x
_atom_site_fract_y
_atom_site_fract_z
Si Si1 0.764630 0.586788 0.087752
Si Si2 0.719306 0.082113 0.424313
Si Si3 0.072323 0.082889 0.171372
Si Si4 0.670960 0.907712 0.798766
Si Si5 0.176496 0.405468 0.304428
Si Si6 0.582976 0.085519 0.688148
O O1 0.741710 0.750000 0.084117
O O2 0.690712 0.511916 0.128525
O O3 0.847323 0.562110 0.129497
O O4 0.773353 0.521715 0.006398
O O5 0.715047 0.250000 0.424201
O O6 0.637587 0.027523 0.387217
O O7 0.797482 0.035815 0.377531
O O8 0.055528 0.250000 0.162542
O O9 0.102052 0.047756 0.253956
O O10 0.993333 0.993650 0.155271
O O11 0.632966 0.750000 0.805092
O O12 0.746780 0.899798 0.746678
O O13 0.606247 0.016079 0.766265
O O14 0.160587 0.250000 0.337524
O O15 0.564590 0.250000 0.700851
#
# Coordination Sequence:
#
# PCOD8250765 Si02
#       6
#     8   8   8   8   8   8
#     4   9  17  29  45  66  92 117 139 173 222 265
#     4   8  15  29  48  67  86 113 149 181 211 254
#     4   9  17  30  47  64  86 118 152 181 207 247
#     4   8  14  28  48  63  79 111 152 183 207 247
#     4   8  15  28  45  64  83 109 149 186 211 244
#     4  10  19  28  41  66  96 118 139 174 220 263
#
# _framework density 16.58126
#
# number of rings (size 3 to 8) (size 9 to 14) (size 15 to 20)
#    0.000    3.333    0.000    2.500    0.000    2.000 
#    0.000    4.167    0.000    1.000    0.000    0.000 
#    0.000    0.000    0.000    0.000    0.000    0.000 
#
# Total GULP energy -594914.111865 kJ/mol
# GULP energy per Si atom -12394.043997 kJ/mol
# Density = 1.654352 g / cm^3
# Si number density = 16.581260 Si / 1000 Ang^3
#
#
#
# Elastic Constant Matrix: (Units=GPa)
#
#
# Indices 1 2 3 4 5 6 
#
# 1 17.1007 17.1625 27.5791 0.0000 0.0000 0.0000
# 2 17.1625 60.7643 43.2848 0.0000 0.0000 0.0000
# 3 27.5791 43.2848 113.1752 0.0000 0.0000 0.0000
# 4 0.0000 0.0000 0.0000 20.0089 0.0000 0.0000
# 5 0.0000 0.0000 0.0000 0.0000 15.4191 0.0000
# 6 0.0000 0.0000 0.0000 0.0000 0.0000 22.8022
#
#
#
# Elastic Compliance Matrix: (Units=1/GPa)
#
#
# Indices 1 2 3 4 5 6 
#
# 1 0.106492 -0.015933 -0.019857 0.000000 0.000000 0.000000
# 2 -0.015933 0.025003 -0.005680 0.000000 0.000000 0.000000
# 3 -0.019857 -0.005680 0.015847 0.000000 0.000000 0.000000
# 4 0.000000 0.000000 0.000000 0.049978 0.000000 0.000000
# 5 0.000000 0.000000 0.000000 0.000000 0.064854 0.000000
# 6 0.000000 0.000000 0.000000 0.000000 0.000000 0.043855
#
#
# Mechanical properties :
#
#
# Convention : Reuss Voigt Hill
#
# Bulk Modulus (GPa) = 15.52740 40.78810 28.15775
# Shear Modulus (GPa) = 12.18212 18.51364 15.34788
#
# Velocity S-wave (km/s) = 2.71346 3.34509 3.04569
# Velocity P-wave (km/s) = 4.38200 6.29061 5.42097
#
# Compressibility (1/GPa) = 0.06440229
#
# Stress axis : x y z
#
# Youngs Moduli (GPa) = 9.39038 39.99447 63.10336
#
# Poissons Ratio (x) = 0.63725 1.25302
# Poissons Ratio (y) = 0.14962 0.35843
# Poissons Ratio (z) = 0.18646 0.22717
#
# Static dielectric constant tensor:
#      x y z
#    x 2.964960 0.000000 0.000000 
#    y 0.000000 3.069820 0.000000 
#    z 0.000000 0.000000 3.389460 
# 
# 
# High freq. dielectric constant tensor:
#      x y z
#    x 1.616610 0.000000 0.000000 
#    y 0.000000 1.622360 0.000000 
#    z 0.000000 0.000000 1.629150 
# 
# From -- ./inp_files/19620.got.cif
#   From: 2010.03.12/outbox.cif.g09.slc.cpg/sg62_10_cif.got.tgz:19620.got - 2010.04.10 19:12:36.
