data_PCOD8250770
_publ_section_title
;
Structure prediction by ZEFSAII (Michael W. Deem and Ramdas Pophale) SiO2 
 PCOD8250770
Probable space group: P N M A
;
_chemical_formula_sum "Si O2"
_cell_formula_units_Z 56
_cell_length_a 17.989397
_cell_length_b 9.056740
_cell_length_c 21.184062
_cell_angle_alpha 90.000000
_cell_angle_beta 90.000000
_cell_angle_gamma 90.000000
_cell_volume 3451.419474
_symmetry_space_group_name_H-M "P N M A"
_symmetry_group_IT_number 62
_symmetry_cell_setting 'orthorhombic'
loop_
_space_group_symop_operation_xyz
x,y,z
1/2-x,-y,1/2+z
1/2+x,1/2-y,1/2-z
-x,1/2+y,-z
-x,-y,-z
1/2+x,y,1/2-z
1/2-x,1/2+y,1/2+z
x,1/2-y,z
loop_
_atom_site_type_symbol
_atom_site_label
_atom_site_fract_x
_atom_site_fract_y
_atom_site_fract_z
Si Si1 0.086324 0.418785 0.754943
Si Si2 0.584454 0.580116 0.256169
Si Si3 0.701133 0.413131 0.186294
Si Si4 0.295629 0.087951 0.186935
Si Si5 0.847085 0.076957 0.127227
Si Si6 0.920519 0.424977 0.996087
Si Si7 0.850462 0.574609 0.876187
O O1 0.107939 0.250000 0.764768
O O2 0.134847 0.479081 0.695997
O O3 0.101995 0.498586 0.820876
O O4 0.000765 0.440033 0.736531
O O5 0.603833 0.750000 0.271018
O O6 0.633040 0.525875 0.196006
O O7 0.600808 0.482470 0.317607
O O8 0.669361 0.250000 0.170117
O O9 0.749055 0.404906 0.249346
O O10 0.759483 0.468148 0.132648
O O11 0.327308 0.250000 0.170446
O O12 0.237201 0.036469 0.133167
O O13 0.855631 0.250000 0.140113
O O14 0.875091 0.031951 0.058485
O O15 0.930036 0.250000 0.988125
O O16 0.875064 0.490529 0.938312
O O17 0.000000 0.500000 0.000000
O O18 0.863570 0.750000 0.882107
#
# Coordination Sequence:
#
# PCOD8250770 Si02
#       7
#     8   8   8   8   8   8   8
#     4  10  19  28  43  68  94 117 145 182 223 264
#     4  10  19  29  43  68  96 119 146 183 226 269
#     4   8  15  29  46  63  84 114 149 183 220 265
#     4   8  16  30  46  63  86 116 149 183 222 267
#     4   9  19  33  46  62  88 120 153 184 217 260
#     4  11  22  34  48  67  92 123 155 187 220 259
#     4  10  20  33  47  65  90 121 155 188 220 262
#
# _framework density 16.225207999999999
#
# number of rings (size 3 to 8) (size 9 to 14) (size 15 to 20)
#    0.000    2.571    0.000    4.286    0.000   11.429 
#    0.000    0.000    0.000    0.000    0.000    1.000 
#    0.000    0.000    0.000    0.000    0.000    0.000 
#
# Total GULP energy -694152.749293 kJ/mol
# GULP energy per Si atom -12395.584809 kJ/mol
# Density = 1.618828 g / cm^3
# Si number density = 16.225208 Si / 1000 Ang^3
#
#
#
# Elastic Constant Matrix: (Units=GPa)
#
#
# Indices 1 2 3 4 5 6 
#
# 1 112.7017 61.0480 60.5503 0.0000 0.0000 0.0000
# 2 61.0480 85.6752 41.9269 0.0000 0.0000 0.0000
# 3 60.5503 41.9269 80.9304 0.0000 0.0000 0.0000
# 4 0.0000 0.0000 0.0000 23.2041 0.0000 0.0000
# 5 0.0000 0.0000 0.0000 0.0000 27.8220 0.0000
# 6 0.0000 0.0000 0.0000 0.0000 0.0000 29.6297
#
#
#
# Elastic Compliance Matrix: (Units=1/GPa)
#
#
# Indices 1 2 3 4 5 6 
#
# 1 0.018648 -0.008654 -0.009469 0.000000 0.000000 0.000000
# 2 -0.008654 0.019652 -0.003706 0.000000 0.000000 0.000000
# 3 -0.009469 -0.003706 0.021361 0.000000 0.000000 0.000000
# 4 0.000000 0.000000 0.000000 0.043096 0.000000 0.000000
# 5 0.000000 0.000000 0.000000 0.000000 0.035943 0.000000
# 6 0.000000 0.000000 0.000000 0.000000 0.000000 0.033750
#
#
# Mechanical properties :
#
#
# Convention : Reuss Voigt Hill
#
# Bulk Modulus (GPa) = 62.48897 67.37304 64.93101
# Shear Modulus (GPa) = 22.57943 23.84997 23.21470
#
# Velocity S-wave (km/s) = 3.73450 3.83813 3.78667
# Velocity P-wave (km/s) = 7.56257 7.82659 7.69571
#
# Compressibility (1/GPa) = 0.01600282
#
# Stress axis : x y z
#
# Youngs Moduli (GPa) = 53.62615 50.88530 46.81518
#
# Poissons Ratio (x) = 0.44035 0.44327
# Poissons Ratio (y) = 0.46407 0.17352
# Poissons Ratio (z) = 0.50776 0.18860
#
# Static dielectric constant tensor:
#      x y z
#    x 3.404330 0.000000 0.000000 
#    y 0.000000 3.225060 0.000000 
#    z 0.000000 0.000000 3.036710 
# 
# 
# High freq. dielectric constant tensor:
#      x y z
#    x 1.624490 0.000000 0.000000 
#    y 0.000000 1.635780 0.000000 
#    z 0.000000 0.000000 1.585780 
# 
# From -- ./inp_files/27529.got.cif
#   From: 2010.03.12/outbox.cif.g09.slc.cpg/sg62_14_cif.got.tgz:27529.got - 2010.04.10 19:12:36.
