data_PCOD8250886
_publ_section_title
;
Structure prediction by ZEFSAII (Michael W. Deem and Ramdas Pophale) SiO2 
 PCOD8250886
Probable space group: P N M A
;
_chemical_formula_sum "Si O2"
_cell_formula_units_Z 64
_cell_length_a 19.178495
_cell_length_b 8.892543
_cell_length_c 19.845432
_cell_angle_alpha 90.000000
_cell_angle_beta 90.000000
_cell_angle_gamma 90.000000
_cell_volume 3384.550938
_symmetry_space_group_name_H-M "P N M A"
_symmetry_group_IT_number 62
_symmetry_cell_setting 'orthorhombic'
loop_
_space_group_symop_operation_xyz
x,y,z
1/2-x,-y,1/2+z
1/2+x,1/2-y,1/2-z
-x,1/2+y,-z
-x,-y,-z
1/2+x,y,1/2-z
1/2-x,1/2+y,1/2+z
x,1/2-y,z
loop_
_atom_site_type_symbol
_atom_site_label
_atom_site_fract_x
_atom_site_fract_y
_atom_site_fract_z
Si Si1 0.273228 0.079500 0.005591
Si Si2 0.378266 0.572194 0.784908
Si Si3 0.454531 0.927093 0.652805
Si Si4 0.615929 0.424868 0.481483
Si Si5 0.248760 0.425968 0.850806
Si Si6 0.038036 0.921541 0.398656
Si Si7 0.107285 0.573660 0.877038
Si Si8 0.595706 0.421278 0.972725
O O1 0.297752 0.250000 0.016251
O O2 0.197149 0.054081 0.036300
O O3 0.274060 0.037810 0.926300
O O4 0.325535 0.969306 0.046060
O O5 0.368525 0.750000 0.784211
O O6 0.408511 0.508826 0.714329
O O7 0.303295 0.498070 0.798785
O O8 0.435619 0.530231 0.840523
O O9 0.443896 0.750000 0.650215
O O10 0.427024 0.991433 0.581549
O O11 0.536119 0.967076 0.662919
O O12 0.599814 0.250000 0.496943
O O13 0.595981 0.520512 0.546550
O O14 0.244156 0.250000 0.837257
O O15 0.171542 0.492956 0.839698
O O16 0.059207 0.750000 0.381489
O O17 0.954345 0.939097 0.407598
O O18 0.073025 0.964439 0.469116
O O19 0.122220 0.750000 0.877335
O O20 0.593385 0.250000 0.999107
#
# Coordination Sequence:
#
# PCOD8250886 Si02
#       8
#     8   8   8   8   8   8   8   8
#     4   9  17  29  50  76 105 136 170 215 270 317
#     4  11  21  35  56  79 105 143 187 223 263 323
#     4   9  20  37  56  80 110 142 179 223 272 323
#     4   9  18  35  56  79 109 142 175 222 278 323
#     4  10  20  35  54  79 108 140 175 217 267 318
#     4  10  20  33  48  72 105 139 176 222 272 317
#     4  10  19  34  58  85 109 136 178 227 268 318
#     4  10  19  30  49  74 103 138 178 221 265 312
#
# _framework density 18.909451000000001
#
# number of rings (size 3 to 8) (size 9 to 14) (size 15 to 20)
#    0.000    2.250    1.250    3.000    0.000    3.500 
#    0.000    5.625    0.000    6.000    0.000    0.000 
#    0.000    0.000    0.000    0.000    0.000    0.000 
#
# Total GULP energy -793527.752105 kJ/mol
# GULP energy per Si atom -12398.871127 kJ/mol
# Density = 1.886641 g / cm^3
# Si number density = 18.909451 Si / 1000 Ang^3
#
#
#
# Elastic Constant Matrix: (Units=GPa)
#
#
# Indices 1 2 3 4 5 6 
#
# 1 138.7511 55.2173 53.7728 0.0000 0.0000 0.0000
# 2 55.2173 76.6934 26.0845 0.0000 0.0000 0.0000
# 3 53.7728 26.0845 71.5953 0.0000 0.0000 0.0000
# 4 0.0000 0.0000 0.0000 20.0248 0.0000 0.0000
# 5 0.0000 0.0000 0.0000 0.0000 29.6173 0.0000
# 6 0.0000 0.0000 0.0000 0.0000 0.0000 30.7085
#
#
#
# Elastic Compliance Matrix: (Units=1/GPa)
#
#
# Indices 1 2 3 4 5 6 
#
# 1 0.012583 -0.006672 -0.007020 0.000000 0.000000 0.000000
# 2 -0.006672 0.018421 -0.001700 0.000000 0.000000 0.000000
# 3 -0.007020 -0.001700 0.019859 0.000000 0.000000 0.000000
# 4 0.000000 0.000000 0.000000 0.049938 0.000000 0.000000
# 5 0.000000 0.000000 0.000000 0.000000 0.033764 0.000000
# 6 0.000000 0.000000 0.000000 0.000000 0.000000 0.032564
#
#
# Mechanical properties :
#
#
# Convention : Reuss Voigt Hill
#
# Bulk Modulus (GPa) = 49.80331 61.90988 55.85660
# Shear Modulus (GPa) = 24.43724 26.20111 25.31917
#
# Velocity S-wave (km/s) = 3.59880 3.72642 3.66316
# Velocity P-wave (km/s) = 6.60783 7.16423 6.89165
#
# Compressibility (1/GPa) = 0.02007899
#
# Stress axis : x y z
#
# Youngs Moduli (GPa) = 79.47417 54.28670 50.35453
#
# Poissons Ratio (x) = 0.36219 0.35347
# Poissons Ratio (y) = 0.53023 0.08562
# Poissons Ratio (z) = 0.55789 0.09231
#
# Static dielectric constant tensor:
#      x y z
#    x 3.757570 0.000000 0.000000 
#    y 0.000000 3.371280 0.000000 
#    z 0.000000 0.000000 3.249410 
# 
# 
# High freq. dielectric constant tensor:
#      x y z
#    x 1.752430 0.000000 0.000000 
#    y 0.000000 1.731300 0.000000 
#    z 0.000000 0.000000 1.694210 
# 
# From -- ./inp_files/27930.got.cif
#   From: 2010.03.12/outbox.cif.g09.slc.cpg/sg62_14_cif.got.tgz:27930.got - 2010.04.10 19:12:36.
