data_PCOD8250703
_publ_section_title
;
Structure prediction by ZEFSAII (Michael W. Deem and Ramdas Pophale) SiO2 
 PCOD8250703
Probable space group: P N M A
;
_chemical_formula_sum "Si O2"
_cell_formula_units_Z 48
_cell_length_a 14.541940
_cell_length_b 8.347281
_cell_length_c 20.388333
_cell_angle_alpha 90.000000
_cell_angle_beta 90.000000
_cell_angle_gamma 90.000000
_cell_volume 2474.851247
_symmetry_space_group_name_H-M "P N M A"
_symmetry_group_IT_number 62
_symmetry_cell_setting 'orthorhombic'
loop_
_space_group_symop_operation_xyz
x,y,z
1/2-x,-y,1/2+z
1/2+x,1/2-y,1/2-z
-x,1/2+y,-z
-x,-y,-z
1/2+x,y,1/2-z
1/2-x,1/2+y,1/2+z
x,1/2-y,z
loop_
_atom_site_type_symbol
_atom_site_label
_atom_site_fract_x
_atom_site_fract_y
_atom_site_fract_z
Si Si1 0.197958 0.064128 0.436227
Si Si2 0.289907 0.559941 0.693940
Si Si3 0.669156 0.936356 0.925383
Si Si4 0.016728 0.934114 0.376754
Si Si5 0.681109 0.938916 0.681345
Si Si6 0.011382 0.061157 0.232972
O O1 0.213348 0.250000 0.452208
O O2 0.275317 0.995791 0.386147
O O3 0.209680 0.963646 0.502512
O O4 0.098440 0.043793 0.403502
O O5 0.285714 0.750000 0.695179
O O6 0.242951 0.496652 0.627313
O O7 0.235582 0.487612 0.756386
O O8 0.395795 0.502395 0.697178
O O9 0.649358 0.750000 0.913143
O O10 0.574187 0.031744 0.918905
O O11 0.044663 0.750000 0.386113
O O12 0.997088 0.971533 0.301223
O O13 0.695687 0.750000 0.682904
O O14 0.573640 0.985063 0.685680
O O15 0.013024 0.250000 0.247914
#
# Coordination Sequence:
#
# PCOD8250703 Si02
#       6
#     8   8   8   8   8   8
#     4  11  22  38  57  81 113 148 186 226 275 331
#     4   9  17  32  58  85 107 142 186 228 269 320
#     4  11  22  38  57  81 113 148 186 226 275 331
#     4  12  23  35  54  85 116 145 179 227 287 330
#     4   9  17  32  58  85 107 142 186 228 269 320
#     4  10  18  35  60  85 111 143 189 229 266 324
#
# _framework density 19.395105000000001
#
# number of rings (size 3 to 8) (size 9 to 14) (size 15 to 20)
#    0.000    1.667    3.333    3.000    0.000    0.000 
#    0.000    5.833    0.000    0.000    0.000    0.000 
#    0.000    0.000    0.000    0.000    0.000    0.000 
#
# Total GULP energy -595295.763929 kJ/mol
# GULP energy per Si atom -12401.995082 kJ/mol
# Density = 1.935096 g / cm^3
# Si number density = 19.395105 Si / 1000 Ang^3
#
#
#
# Elastic Constant Matrix: (Units=GPa)
#
#
# Indices 1 2 3 4 5 6 
#
# 1 128.3241 5.7830 39.5793 0.0000 0.0000 0.0000
# 2 5.7830 36.2600 4.4429 0.0000 0.0000 0.0000
# 3 39.5793 4.4429 99.9138 0.0000 0.0000 0.0000
# 4 0.0000 0.0000 0.0000 23.9371 0.0000 0.0000
# 5 0.0000 0.0000 0.0000 0.0000 32.4714 0.0000
# 6 0.0000 0.0000 0.0000 0.0000 0.0000 10.5783
#
#
#
# Elastic Compliance Matrix: (Units=1/GPa)
#
#
# Indices 1 2 3 4 5 6 
#
# 1 0.008913 -0.000994 -0.003487 0.000000 0.000000 0.000000
# 2 -0.000994 0.027841 -0.000844 0.000000 0.000000 0.000000
# 3 -0.003487 -0.000844 0.011427 0.000000 0.000000 0.000000
# 4 0.000000 0.000000 0.000000 0.041776 0.000000 0.000000
# 5 0.000000 0.000000 0.000000 0.000000 0.030796 0.000000
# 6 0.000000 0.000000 0.000000 0.000000 0.000000 0.094533
#
#
# Mechanical properties :
#
#
# Convention : Reuss Voigt Hill
#
# Bulk Modulus (GPa) = 26.64467 40.45648 33.55058
# Shear Modulus (GPa) = 20.96909 27.71022 24.33966
#
# Velocity S-wave (km/s) = 3.29166 3.78395 3.54635
# Velocity P-wave (km/s) = 5.31172 6.32419 5.83994
#
# Compressibility (1/GPa) = 0.03753095
#
# Stress axis : x y z
#
# Youngs Moduli (GPa) = 112.19660 35.91879 87.50983
#
# Poissons Ratio (x) = 0.03571 0.30510
# Poissons Ratio (y) = 0.11156 0.07387
# Poissons Ratio (z) = 0.39117 0.03032
#
# Static dielectric constant tensor:
#      x y z
#    x 3.724190 0.000000 0.000000 
#    y 0.000000 3.162850 0.000000 
#    z 0.000000 0.000000 3.626830 
# 
# 
# High freq. dielectric constant tensor:
#      x y z
#    x 1.757080 0.000000 0.000000 
#    y 0.000000 1.724530 0.000000 
#    z 0.000000 0.000000 1.753460 
# 
# From -- ./inp_files/23710.got.cif
#   From: 2010.03.12/outbox.cif.g09.slc.cpg/sg62_12_cif.got.tgz:23710.got - 2010.04.10 19:12:36.
