data_PCOD8250533
_publ_section_title
;
Structure prediction by ZEFSAII (Michael W. Deem and Ramdas Pophale) SiO2 
 PCOD8250533
Probable space group: P N M A
;
_chemical_formula_sum "Si O2"
_cell_formula_units_Z 56
_cell_length_a 21.426357
_cell_length_b 9.455625
_cell_length_c 14.964704
_cell_angle_alpha 90.000000
_cell_angle_beta 90.000000
_cell_angle_gamma 90.000000
_cell_volume 3031.842998
_symmetry_space_group_name_H-M "P N M A"
_symmetry_group_IT_number 62
_symmetry_cell_setting 'orthorhombic'
loop_
_space_group_symop_operation_xyz
x,y,z
1/2-x,-y,1/2+z
1/2+x,1/2-y,1/2-z
-x,1/2+y,-z
-x,-y,-z
1/2+x,y,1/2-z
1/2-x,1/2+y,1/2+z
x,1/2-y,z
loop_
_atom_site_type_symbol
_atom_site_label
_atom_site_fract_x
_atom_site_fract_y
_atom_site_fract_z
Si Si1 0.632700 0.092910 0.948727
Si Si2 0.273531 0.918672 0.328713
Si Si3 0.270731 0.092269 0.507501
Si Si4 0.097586 0.081253 0.744610
Si Si5 0.536952 0.592086 0.258702
Si Si6 0.169107 0.581264 0.186766
Si Si7 0.448992 0.408046 0.950647
O O1 0.604806 0.250000 0.967714
O O2 0.604389 0.029684 0.857339
O O3 0.706378 0.103129 0.938729
O O4 0.616500 0.986128 0.029366
O O5 0.270420 0.750000 0.337649
O O6 0.342557 0.971725 0.299815
O O7 0.220782 0.974102 0.258609
O O8 0.263639 0.986293 0.425523
O O9 0.290159 0.250000 0.474068
O O10 0.317230 0.034936 0.584586
O O11 0.096171 0.250000 0.744235
O O12 0.030880 0.022930 0.784780
O O13 0.538109 0.750000 0.298467
O O14 0.600015 0.514668 0.293330
O O15 0.538743 0.596306 0.152914
O O16 0.168204 0.750000 0.195851
O O17 0.447289 0.250000 0.989995
O O18 0.500000 0.500000 0.000000
#
# Coordination Sequence:
#
# PCOD8250533 Si02
#       7
#     8   8   8   8   8   8   8
#     4  10  18  32  51  72 101 137 171 210 262 317
#     4  10  19  34  56  77 101 137 181 217 255 316
#     4  10  20  34  54  78 105 135 171 220 273 312
#     4   9  16  30  51  73  98 133 173 210 251 308
#     4   9  17  29  49  74  99 130 175 217 249 303
#     4   9  17  32  53  76 101 135 176 215 256 316
#     4  11  20  30  48  77 107 136 170 212 261 316
#
# _framework density 18.470614000000001
#
# number of rings (size 3 to 8) (size 9 to 14) (size 15 to 20)
#    0.000    2.286    2.857    1.286    0.000    1.714 
#    0.000    2.143    0.000    1.714    0.000    0.000 
#    0.000    0.000    0.000    0.000    0.000    0.000 
#
# Total GULP energy -693759.702773 kJ/mol
# GULP energy per Si atom -12388.566121 kJ/mol
# Density = 1.842857 g / cm^3
# Si number density = 18.470614 Si / 1000 Ang^3
#
#
#
# Elastic Constant Matrix: (Units=GPa)
#
#
# Indices 1 2 3 4 5 6 
#
# 1 138.6240 13.6533 35.0478 0.0000 0.0000 0.0000
# 2 13.6533 46.2474 16.7748 0.0000 0.0000 0.0000
# 3 35.0478 16.7748 66.3295 0.0000 0.0000 0.0000
# 4 0.0000 0.0000 0.0000 22.3721 0.0000 0.0000
# 5 0.0000 0.0000 0.0000 0.0000 32.9676 0.0000
# 6 0.0000 0.0000 0.0000 0.0000 0.0000 14.8997
#
#
#
# Elastic Compliance Matrix: (Units=1/GPa)
#
#
# Indices 1 2 3 4 5 6 
#
# 1 0.008364 -0.000954 -0.004178 0.000000 0.000000 0.000000
# 2 -0.000954 0.023915 -0.005544 0.000000 0.000000 0.000000
# 3 -0.004178 -0.005544 0.018686 0.000000 0.000000 0.000000
# 4 0.000000 0.000000 0.000000 0.044698 0.000000 0.000000
# 5 0.000000 0.000000 0.000000 0.000000 0.030333 0.000000
# 6 0.000000 0.000000 0.000000 0.000000 0.000000 0.067116
#
#
# Mechanical properties :
#
#
# Convention : Reuss Voigt Hill
#
# Bulk Modulus (GPa) = 33.76889 42.46141 38.11515
# Shear Modulus (GPa) = 22.28798 26.42955 24.35876
#
# Velocity S-wave (km/s) = 3.47749 3.78682 3.63545
# Velocity P-wave (km/s) = 5.86908 6.49296 6.18889
#
# Compressibility (1/GPa) = 0.02961306
#
# Stress axis : x y z
#
# Youngs Moduli (GPa) = 119.55898 41.81398 53.51547
#
# Poissons Ratio (x) = 0.03988 0.22360
# Poissons Ratio (y) = 0.11403 0.29671
# Poissons Ratio (z) = 0.49955 0.23183
#
# Static dielectric constant tensor:
#      x y z
#    x 4.063340 0.000000 0.000000 
#    y 0.000000 3.341720 0.000000 
#    z 0.000000 0.000000 3.329860 
# 
# 
# High freq. dielectric constant tensor:
#      x y z
#    x 1.738580 0.000000 0.000000 
#    y 0.000000 1.664260 0.000000 
#    z 0.000000 0.000000 1.696680 
# 
# From -- ./inp_files/20371.got.cif
#   From: 2010.03.12/outbox.cif.g09.slc.cpg/sg62_11_cif.got.tgz:20371.got - 2010.04.10 19:12:36.
