data_PCOD8250411
_publ_section_title
;
Structure prediction by ZEFSAII (Michael W. Deem and Ramdas Pophale) SiO2 
 PCOD8250411
Probable space group: P N M A
;
_chemical_formula_sum "Si O2"
_cell_formula_units_Z 64
_cell_length_a 22.268452
_cell_length_b 8.863339
_cell_length_c 17.112901
_cell_angle_alpha 90.000000
_cell_angle_beta 90.000000
_cell_angle_gamma 90.000000
_cell_volume 3377.621855
_symmetry_space_group_name_H-M "P N M A"
_symmetry_group_IT_number 62
_symmetry_cell_setting 'orthorhombic'
loop_
_space_group_symop_operation_xyz
x,y,z
1/2-x,-y,1/2+z
1/2+x,1/2-y,1/2-z
-x,1/2+y,-z
-x,-y,-z
1/2+x,y,1/2-z
1/2-x,1/2+y,1/2+z
x,1/2-y,z
loop_
_atom_site_type_symbol
_atom_site_label
_atom_site_fract_x
_atom_site_fract_y
_atom_site_fract_z
Si Si1 0.278786 0.922166 0.662774
Si Si2 0.390458 0.577684 0.769593
Si Si3 0.967345 0.428749 0.859253
Si Si4 0.063043 0.574771 0.410213
Si Si5 0.628554 0.427630 0.466000
Si Si6 0.938083 0.426180 0.410886
Si Si7 0.102997 0.428030 0.863041
Si Si8 0.343210 0.572254 0.201104
O O1 0.255399 0.750000 0.655366
O O2 0.324402 0.938282 0.734495
O O3 0.311915 0.973571 0.582522
O O4 0.225179 0.035533 0.680581
O O5 0.411859 0.750000 0.768604
O O6 0.438662 0.480933 0.721861
O O7 0.388499 0.513614 0.857591
O O8 0.965736 0.250000 0.864051
O O9 0.930726 0.493627 0.932433
O O10 0.035277 0.492498 0.862055
O O11 0.066830 0.750000 0.391135
O O12 0.078866 0.538978 0.499552
O O13 0.997039 0.517503 0.386992
O O14 0.617738 0.250000 0.456288
O O15 0.636210 0.477013 0.556472
O O16 0.950372 0.250000 0.397928
O O17 0.883500 0.481489 0.359190
O O18 0.099177 0.250000 0.858869
O O19 0.141013 0.486115 0.788620
O O20 0.354441 0.750000 0.192090
#
# Coordination Sequence:
#
# PCOD8250411 Si02
#       8
#     8   8   8   8   8   8   8   8
#     4   9  20  38  56  74 104 144 184 227 272 326
#     4  10  20  35  56  80 110 149 186 223 274 330
#     4  10  18  30  53  84 116 140 172 220 271 325
#     4  10  20  35  57  86 114 141 182 231 276 328
#     4   9  18  36  57  76 106 144 181 217 269 332
#     4  10  21  37  57  81 113 149 181 221 280 338
#     4   9  19  34  53  80 108 139 175 219 270 326
#     4  11  22  37  57  79 108 145 188 233 277 324
#
# _framework density 18.948243000000002
#
# number of rings (size 3 to 8) (size 9 to 14) (size 15 to 20)
#    0.000    2.250    0.000    3.750    0.000    5.000 
#    2.250    3.750    0.000    0.000    0.000    0.000 
#    0.000    0.000    0.000    0.000    0.000    0.000 
#
# Total GULP energy -793665.097301 kJ/mol
# GULP energy per Si atom -12401.017145 kJ/mol
# Density = 1.890512 g / cm^3
# Si number density = 18.948243 Si / 1000 Ang^3
#
#
#
# Elastic Constant Matrix: (Units=GPa)
#
#
# Indices 1 2 3 4 5 6 
#
# 1 87.9922 21.0465 61.5885 0.0000 0.0000 0.0000
# 2 21.0465 38.8322 30.2043 0.0000 0.0000 0.0000
# 3 61.5885 30.2043 128.4013 0.0000 0.0000 0.0000
# 4 0.0000 0.0000 0.0000 28.3658 0.0000 0.0000
# 5 0.0000 0.0000 0.0000 0.0000 18.6252 0.0000
# 6 0.0000 0.0000 0.0000 0.0000 0.0000 32.0640
#
#
#
# Elastic Compliance Matrix: (Units=1/GPa)
#
#
# Indices 1 2 3 4 5 6 
#
# 1 0.017515 -0.003621 -0.007549 0.000000 0.000000 0.000000
# 2 -0.003621 0.032267 -0.005854 0.000000 0.000000 0.000000
# 3 -0.007549 -0.005854 0.012786 0.000000 0.000000 0.000000
# 4 0.000000 0.000000 0.000000 0.035254 0.000000 0.000000
# 5 0.000000 0.000000 0.000000 0.000000 0.053691 0.000000
# 6 0.000000 0.000000 0.000000 0.000000 0.000000 0.031188
#
#
# Mechanical properties :
#
#
# Convention : Reuss Voigt Hill
#
# Bulk Modulus (GPa) = 35.06223 53.43381 44.24802
# Shear Modulus (GPa) = 22.09903 25.30344 23.70123
#
# Velocity S-wave (km/s) = 3.41879 3.65827 3.54056
# Velocity P-wave (km/s) = 5.84197 6.79007 6.33378
#
# Compressibility (1/GPa) = 0.02852072
#
# Stress axis : x y z
#
# Youngs Moduli (GPa) = 57.09499 30.99115 78.20973
#
# Poissons Ratio (x) = 0.11221 0.59043
# Poissons Ratio (y) = 0.20673 0.45781
# Poissons Ratio (z) = 0.43103 0.18141
#
# Static dielectric constant tensor:
#      x y z
#    x 3.315030 0.000000 0.000000 
#    y 0.000000 3.390580 0.000000 
#    z 0.000000 0.000000 3.777250 
# 
# 
# High freq. dielectric constant tensor:
#      x y z
#    x 1.720670 0.000000 0.000000 
#    y 0.000000 1.731910 0.000000 
#    z 0.000000 0.000000 1.749030 
# 
# From -- ./inp_files/24691.got.cif
#   From: 2010.03.12/outbox.cif.g09.slc.cpg/sg62_13_cif.got.tgz:24691.got - 2010.04.10 19:12:36.
