data_PCOD8250381
_publ_section_title
;
Structure prediction by ZEFSAII (Michael W. Deem and Ramdas Pophale) SiO2 
 PCOD8250381
Probable space group: P N M A
;
_chemical_formula_sum "Si O2"
_cell_formula_units_Z 64
_cell_length_a 20.813773
_cell_length_b 8.952882
_cell_length_c 19.396750
_cell_angle_alpha 90.000000
_cell_angle_beta 90.000000
_cell_angle_gamma 90.000000
_cell_volume 3614.453505
_symmetry_space_group_name_H-M "P N M A"
_symmetry_group_IT_number 62
_symmetry_cell_setting 'orthorhombic'
loop_
_space_group_symop_operation_xyz
x,y,z
1/2-x,-y,1/2+z
1/2+x,1/2-y,1/2-z
-x,1/2+y,-z
-x,-y,-z
1/2+x,y,1/2-z
1/2-x,1/2+y,1/2+z
x,1/2-y,z
loop_
_atom_site_type_symbol
_atom_site_label
_atom_site_fract_x
_atom_site_fract_y
_atom_site_fract_z
Si Si1 0.138699 0.425409 0.320003
Si Si2 0.182881 0.426352 0.468019
Si Si3 0.500685 0.076890 0.324874
Si Si4 0.635841 0.574126 0.319751
Si Si5 0.060660 0.572407 0.536099
Si Si6 0.940612 0.075913 0.036064
Si Si7 0.505127 0.575626 0.825502
Si Si8 0.186432 0.926314 0.034781
O O1 0.137936 0.250000 0.305299
O O2 0.182613 0.464441 0.386222
O O3 0.164959 0.502693 0.250128
O O4 0.067071 0.489361 0.335113
O O5 0.174099 0.250000 0.479227
O O6 0.125969 0.509063 0.506607
O O7 0.248378 0.489967 0.501292
O O8 0.521942 0.250000 0.325232
O O9 0.446543 0.044765 0.382067
O O10 0.469408 0.033808 0.250878
O O11 0.564576 0.981994 0.338161
O O12 0.632928 0.750000 0.309837
O O13 0.681377 0.529994 0.384478
O O14 0.059206 0.750000 0.526513
O O15 0.000000 0.500000 0.500000
O O16 0.054740 0.519772 0.616369
O O17 0.944013 0.250000 0.018566
O O18 0.874031 0.007010 0.007952
O O19 0.000000 0.000000 0.000000
O O20 0.497774 0.750000 0.835855
O O21 0.186501 0.750000 0.025308
#
# Coordination Sequence:
#
# PCOD8250381 Si02
#       8
#     8   8   8   8   8   8   8   8
#     4   9  17  32  52  73  98 132 173 212 255 308
#     4  10  20  37  55  73 103 143 179 216 257 310
#     4   9  17  30  50  74 101 134 169 209 258 311
#     4  10  18  30  50  76 104 131 167 215 258 310
#     4  11  20  33  53  78 106 134 170 217 263 311
#     4  10  18  31  52  77 102 132 172 214 256 310
#     4   8  15  29  47  72 102 128 160 207 257 299
#     4   9  19  34  52  75 105 139 174 210 260 313
#
# _framework density 17.706686999999999
#
# number of rings (size 3 to 8) (size 9 to 14) (size 15 to 20)
#    0.000    2.500    2.500    1.500    0.000    0.500 
#    0.000    3.750    0.000    3.000    0.000    0.000 
#    0.000    0.000    0.000    0.000    0.000    0.000 
#
# Total GULP energy -793182.496039 kJ/mol
# GULP energy per Si atom -12393.476501 kJ/mol
# Density = 1.766639 g / cm^3
# Si number density = 17.706687 Si / 1000 Ang^3
#
#
#
# Elastic Constant Matrix: (Units=GPa)
#
#
# Indices 1 2 3 4 5 6 
#
# 1 121.6791 33.6868 85.2246 0.0000 0.0000 0.0000
# 2 33.6868 45.9398 47.2225 0.0000 0.0000 0.0000
# 3 85.2246 47.2225 176.6615 0.0000 0.0000 0.0000
# 4 0.0000 0.0000 0.0000 25.4625 0.0000 0.0000
# 5 0.0000 0.0000 0.0000 0.0000 31.5072 0.0000
# 6 0.0000 0.0000 0.0000 0.0000 0.0000 19.2184
#
#
#
# Elastic Compliance Matrix: (Units=1/GPa)
#
#
# Indices 1 2 3 4 5 6 
#
# 1 0.012988 -0.004251 -0.005129 0.000000 0.000000 0.000000
# 2 -0.004251 0.031406 -0.006344 0.000000 0.000000 0.000000
# 3 -0.005129 -0.006344 0.009831 0.000000 0.000000 0.000000
# 4 0.000000 0.000000 0.000000 0.039273 0.000000 0.000000
# 5 0.000000 0.000000 0.000000 0.000000 0.031739 0.000000
# 6 0.000000 0.000000 0.000000 0.000000 0.000000 0.052033
#
#
# Mechanical properties :
#
#
# Convention : Reuss Voigt Hill
#
# Bulk Modulus (GPa) = 43.90660 75.17202 59.53931
# Shear Modulus (GPa) = 23.11479 27.11405 25.11442
#
# Velocity S-wave (km/s) = 3.61699 3.91741 3.77019
# Velocity P-wave (km/s) = 6.50338 7.93774 7.25609
#
# Compressibility (1/GPa) = 0.02277562
#
# Stress axis : x y z
#
# Youngs Moduli (GPa) = 76.99537 31.84066 101.72179
#
# Poissons Ratio (x) = 0.13537 0.52174
# Poissons Ratio (y) = 0.32734 0.64534
# Poissons Ratio (z) = 0.39492 0.20200
#
# Static dielectric constant tensor:
#      x y z
#    x 3.425630 0.000000 0.000000 
#    y 0.000000 3.140730 0.000000 
#    z 0.000000 0.000000 4.095360 
# 
# 
# High freq. dielectric constant tensor:
#      x y z
#    x 1.652920 0.000000 0.000000 
#    y 0.000000 1.661780 0.000000 
#    z 0.000000 0.000000 1.707710 
# 
# From -- ./inp_files/27938.got.cif
#   From: 2010.03.12/outbox.cif.g09.slc.cpg/sg62_14_cif.got.tgz:27938.got - 2010.04.10 19:12:36.
