data_PCOD8250250
_publ_section_title
;
Structure prediction by ZEFSAII (Michael W. Deem and Ramdas Pophale) SiO2 
 PCOD8250250
Probable space group: P N M A
;
_chemical_formula_sum "Si O2"
_cell_formula_units_Z 56
_cell_length_a 29.158791
_cell_length_b 8.637687
_cell_length_c 13.746272
_cell_angle_alpha 90.000000
_cell_angle_beta 90.000000
_cell_angle_gamma 90.000000
_cell_volume 3462.198061
_symmetry_space_group_name_H-M "P N M A"
_symmetry_group_IT_number 62
_symmetry_cell_setting 'orthorhombic'
loop_
_space_group_symop_operation_xyz
x,y,z
1/2-x,-y,1/2+z
1/2+x,1/2-y,1/2-z
-x,1/2+y,-z
-x,-y,-z
1/2+x,y,1/2-z
1/2-x,1/2+y,1/2+z
x,1/2-y,z
loop_
_atom_site_type_symbol
_atom_site_label
_atom_site_fract_x
_atom_site_fract_y
_atom_site_fract_z
Si Si1 0.906825 0.432311 0.394158
Si Si2 0.681425 0.069188 0.222225
Si Si3 0.770635 0.067456 0.896050
Si Si4 0.999497 0.933821 0.392012
Si Si5 0.773934 0.432286 0.115112
Si Si6 0.907295 0.566073 0.608351
Si Si7 0.178944 0.067870 0.708915
O O1 0.911295 0.250000 0.407369
O O2 0.953307 0.498549 0.343139
O O3 0.898714 0.508294 0.499126
O O4 0.865487 0.474222 0.323363
O O5 0.678614 0.250000 0.240204
O O6 0.722710 0.026232 0.149721
O O7 0.634618 0.007216 0.174687
O O8 0.688449 0.991047 0.327200
O O9 0.770224 0.250000 0.895006
O O10 0.721537 0.008171 0.856505
O O11 0.778874 0.006424 0.004993
O O12 0.998336 0.750000 0.390847
O O13 0.000000 0.000000 0.500000
O O14 0.046452 0.995440 0.343016
O O15 0.783648 0.250000 0.124076
O O16 0.810836 0.525513 0.179078
O O17 0.910621 0.750000 0.605676
O O18 0.170254 0.250000 0.697223
#
# Coordination Sequence:
#
# PCOD8250250 Si02
#       7
#     8   8   8   8   8   8   8
#     4  11  20  30  45  66  91 121 152 185 223 269
#     4   9  18  30  46  66  91 120 152 185 222 264
#     4   9  18  31  47  65  91 121 152 188 225 262
#     4  10  18  29  44  64  90 119 149 184 222 267
#     4   9  17  31  46  64  90 121 152 186 223 261
#     4  10  18  30  46  66  93 123 151 185 224 266
#     4  10  19  31  46  67  91 119 152 187 224 265
#
# _framework density 16.174695
#
# number of rings (size 3 to 8) (size 9 to 14) (size 15 to 20)
#    0.000    2.286    0.000    6.000    0.000    4.571 
#    0.000    2.857    0.000    0.000    0.000    1.000 
#    0.000    0.000    0.000    0.000    0.000    0.000 
#
# Total GULP energy -694332.019192 kJ/mol
# GULP energy per Si atom -12398.786057 kJ/mol
# Density = 1.613788 g / cm^3
# Si number density = 16.174695 Si / 1000 Ang^3
#
#
#
# Elastic Constant Matrix: (Units=GPa)
#
#
# Indices 1 2 3 4 5 6 
#
# 1 131.0772 36.3883 52.1197 0.0000 0.0000 0.0000
# 2 36.3883 67.0860 21.6512 0.0000 0.0000 0.0000
# 3 52.1197 21.6512 97.4711 0.0000 0.0000 0.0000
# 4 0.0000 0.0000 0.0000 24.0076 0.0000 0.0000
# 5 0.0000 0.0000 0.0000 0.0000 23.1826 0.0000
# 6 0.0000 0.0000 0.0000 0.0000 0.0000 27.5306
#
#
#
# Elastic Compliance Matrix: (Units=1/GPa)
#
#
# Indices 1 2 3 4 5 6 
#
# 1 0.010715 -0.004269 -0.004781 0.000000 0.000000 0.000000
# 2 -0.004269 0.017758 -0.001662 0.000000 0.000000 0.000000
# 3 -0.004781 -0.001662 0.013185 0.000000 0.000000 0.000000
# 4 0.000000 0.000000 0.000000 0.041653 0.000000 0.000000
# 5 0.000000 0.000000 0.000000 0.000000 0.043136 0.000000
# 6 0.000000 0.000000 0.000000 0.000000 0.000000 0.036323
#
#
# Mechanical properties :
#
#
# Convention : Reuss Voigt Hill
#
# Bulk Modulus (GPa) = 49.42129 57.32809 53.37469
# Shear Modulus (GPa) = 26.18610 27.30917 26.74764
#
# Velocity S-wave (km/s) = 4.02799 4.11346 4.07095
# Velocity P-wave (km/s) = 7.22869 7.62107 7.42747
#
# Compressibility (1/GPa) = 0.02023420
#
# Stress axis : x y z
#
# Youngs Moduli (GPa) = 93.32304 56.31207 75.84172
#
# Poissons Ratio (x) = 0.24040 0.36264
# Poissons Ratio (y) = 0.39840 0.12604
# Poissons Ratio (z) = 0.44622 0.09358
#
# Static dielectric constant tensor:
#      x y z
#    x 3.539890 0.000000 0.000000 
#    y 0.000000 3.057660 0.000000 
#    z 0.000000 0.000000 2.942790 
# 
# 
# High freq. dielectric constant tensor:
#      x y z
#    x 1.623720 0.000000 0.000000 
#    y 0.000000 1.630870 0.000000 
#    z 0.000000 0.000000 1.588100 
# 
# From -- ./inp_files/21183.got.cif
#   From: 2010.03.12/outbox.cif.g09.slc.cpg/sg62_11_cif.got.tgz:21183.got - 2010.04.10 19:12:36.
