data_PCOD8250932
_publ_section_title
;
Structure prediction by ZEFSAII (Michael W. Deem and Ramdas Pophale) SiO2 
 PCOD8250932
Probable space group: P N M A
;
_chemical_formula_sum "Si O2"
_cell_formula_units_Z 64
_cell_length_a 19.099126
_cell_length_b 8.601265
_cell_length_c 23.405790
_cell_angle_alpha 90.000000
_cell_angle_beta 90.000000
_cell_angle_gamma 90.000000
_cell_volume 3845.024631
_symmetry_space_group_name_H-M "P N M A"
_symmetry_group_IT_number 62
_symmetry_cell_setting 'orthorhombic'
loop_
_space_group_symop_operation_xyz
x,y,z
1/2-x,-y,1/2+z
1/2+x,1/2-y,1/2-z
-x,1/2+y,-z
-x,-y,-z
1/2+x,y,1/2-z
1/2-x,1/2+y,1/2+z
x,1/2-y,z
loop_
_atom_site_type_symbol
_atom_site_label
_atom_site_fract_x
_atom_site_fract_y
_atom_site_fract_z
Si Si1 0.847933 0.432740 0.726490
Si Si2 0.369350 0.069575 0.433924
Si Si3 0.865287 0.567417 0.273215
Si Si4 0.767200 0.065920 0.837958
Si Si5 0.720506 0.929009 0.672522
Si Si6 0.357654 0.434267 0.561287
Si Si7 0.997564 0.432032 0.876619
Si Si8 0.491906 0.568913 0.748242
O O1 0.840147 0.250000 0.718366
O O2 0.820057 0.490010 0.788248
O O3 0.800860 0.515640 0.677981
O O4 0.928399 0.481232 0.720534
O O5 0.392749 0.250000 0.435960
O O6 0.302586 0.046533 0.392992
O O7 0.347912 0.006404 0.496617
O O8 0.433633 0.966745 0.412764
O O9 0.880710 0.750000 0.275755
O O10 0.811988 0.512055 0.323544
O O11 0.830242 0.531117 0.212228
O O12 0.937367 0.475759 0.281769
O O13 0.769150 0.250000 0.838909
O O14 0.794871 0.998554 0.898509
O O15 0.712820 0.750000 0.691025
O O16 0.354757 0.250000 0.562402
O O17 0.431700 0.490846 0.586474
O O18 0.992145 0.250000 0.862387
O O19 0.999929 0.523535 0.817558
O O20 0.478201 0.750000 0.753423
#
# Coordination Sequence:
#
# PCOD8250932 Si02
#       8
#     8   8   8   8   8   8   8   8
#     4  10  19  33  52  71  93 125 164 202 243 295
#     4  10  20  32  48  69  99 132 166 201 239 282
#     4  10  19  31  50  71  94 128 166 202 242 292
#     4   8  15  29  49  71  92 119 160 202 238 280
#     4  10  19  31  46  71 101 129 160 198 242 286
#     4   9  17  31  49  70  95 129 166 204 240 279
#     4  11  20  31  48  67  97 135 173 204 232 279
#     4  12  22  32  48  72 101 129 159 202 254 299
#
# _framework density 16.644887000000001
#
# number of rings (size 3 to 8) (size 9 to 14) (size 15 to 20)
#    0.000    2.000    2.500    3.750    0.000    0.500 
#    0.000    0.625    0.000    0.000    0.000    0.875 
#    0.000    0.000    0.000    0.000    0.000    0.000 
#
# Total GULP energy -793523.068677 kJ/mol
# GULP energy per Si atom -12398.797948 kJ/mol
# Density = 1.660700 g / cm^3
# Si number density = 16.644887 Si / 1000 Ang^3
#
#
#
# Elastic Constant Matrix: (Units=GPa)
#
#
# Indices 1 2 3 4 5 6 
#
# 1 116.5425 9.1514 56.8443 0.0000 0.0000 0.0000
# 2 9.1514 35.9525 15.2620 0.0000 0.0000 0.0000
# 3 56.8443 15.2620 86.4449 0.0000 0.0000 0.0000
# 4 0.0000 0.0000 0.0000 13.4406 0.0000 0.0000
# 5 0.0000 0.0000 0.0000 0.0000 23.6112 0.0000
# 6 0.0000 0.0000 0.0000 0.0000 0.0000 24.6492
#
#
#
# Elastic Compliance Matrix: (Units=1/GPa)
#
#
# Indices 1 2 3 4 5 6 
#
# 1 0.012636 0.000336 -0.008368 0.000000 0.000000 0.000000
# 2 0.000336 0.030077 -0.005531 0.000000 0.000000 0.000000
# 3 -0.008368 -0.005531 0.018048 0.000000 0.000000 0.000000
# 4 0.000000 0.000000 0.000000 0.074401 0.000000 0.000000
# 5 0.000000 0.000000 0.000000 0.000000 0.042353 0.000000
# 6 0.000000 0.000000 0.000000 0.000000 0.000000 0.040569
#
#
# Mechanical properties :
#
#
# Convention : Reuss Voigt Hill
#
# Bulk Modulus (GPa) = 29.73236 44.60612 37.16924
# Shear Modulus (GPa) = 19.49912 22.85235 21.17574
#
# Velocity S-wave (km/s) = 3.42640 3.70933 3.57067
# Velocity P-wave (km/s) = 5.79268 6.72327 6.27525
#
# Compressibility (1/GPa) = 0.03363339
#
# Stress axis : x y z
#
# Youngs Moduli (GPa) = 79.13939 33.24804 55.40932
#
# Poissons Ratio (x) = -0.01117 0.46369
# Poissons Ratio (y) = -0.02660 0.30648
# Poissons Ratio (z) = 0.66227 0.18390
#
# Static dielectric constant tensor:
#      x y z
#    x 3.321900 0.000000 0.000000 
#    y 0.000000 3.012980 0.000000 
#    z 0.000000 0.000000 3.233880 
# 
# 
# High freq. dielectric constant tensor:
#      x y z
#    x 1.640500 0.000000 0.000000 
#    y 0.000000 1.633800 0.000000 
#    z 0.000000 0.000000 1.612140 
# 
# From -- ./inp_files/30051.got.cif
#   From: 2010.03.12/outbox.cif.g09.slc.cpg/sg62_16_cif.got.tgz:30051.got - 2010.04.10 19:12:36.
