data_PCOD8250184
_publ_section_title
;
Structure prediction by ZEFSAII (Michael W. Deem and Ramdas Pophale) SiO2 
 PCOD8250184
Probable space group: P N M A
;
_chemical_formula_sum "Si O2"
_cell_formula_units_Z 64
_cell_length_a 18.284694
_cell_length_b 8.986111
_cell_length_c 26.365552
_cell_angle_alpha 90.000000
_cell_angle_beta 90.000000
_cell_angle_gamma 90.000000
_cell_volume 4332.078761
_symmetry_space_group_name_H-M "P N M A"
_symmetry_group_IT_number 62
_symmetry_cell_setting 'orthorhombic'
loop_
_space_group_symop_operation_xyz
x,y,z
1/2-x,-y,1/2+z
1/2+x,1/2-y,1/2-z
-x,1/2+y,-z
-x,-y,-z
1/2+x,y,1/2-z
1/2-x,1/2+y,1/2+z
x,1/2-y,z
loop_
_atom_site_type_symbol
_atom_site_label
_atom_site_fract_x
_atom_site_fract_y
_atom_site_fract_z
Si Si1 0.158904 0.925549 0.653471
Si Si2 0.917280 0.077014 0.450817
Si Si3 0.208224 0.582342 0.197388
Si Si4 0.334429 0.575435 0.849686
Si Si5 0.427140 0.927497 0.243226
Si Si6 0.583642 0.074145 0.052155
Si Si7 0.081675 0.073463 0.248207
Si Si8 0.708880 0.086143 0.696795
O O1 0.161896 0.750000 0.664710
O O2 0.133008 0.961326 0.596821
O O3 0.239486 0.996131 0.658098
O O4 0.100701 0.998786 0.691391
O O5 0.916429 0.250000 0.463685
O O6 0.999915 0.023748 0.439193
O O7 0.885466 0.991781 0.499702
O O8 0.191964 0.750000 0.177786
O O9 0.133313 0.489852 0.203545
O O10 0.248642 0.589101 0.250561
O O11 0.329342 0.750000 0.853079
O O12 0.369115 0.509029 0.901072
O O13 0.385744 0.527962 0.802853
O O14 0.251364 0.517880 0.842885
O O15 0.430490 0.750000 0.235533
O O16 0.372963 0.969626 0.290054
O O17 0.504543 0.994072 0.258267
O O18 0.590734 0.250000 0.050166
O O19 0.073627 0.250000 0.242393
O O20 0.706459 0.250000 0.672557
#
# Coordination Sequence:
#
# PCOD8250184 Si02
#       8
#     8   8   8   8   8   8   8   8
#     4  10  18  29  44  60  81 110 143 175 208 246
#     4   9  18  30  42  58  81 108 139 175 209 242
#     4   9  17  29  42  59  83 108 137 171 206 245
#     4   9  17  28  42  59  80 107 138 171 205 242
#     4  10  19  29  41  60  85 111 140 173 208 245
#     4   9  17  29  42  58  81 107 137 173 209 242
#     4  10  18  28  43  62  84 111 141 171 206 246
#     4   8  16  28  40  56  79 106 135 167 201 240
#
# _framework density 14.773508
#
# number of rings (size 3 to 8) (size 9 to 14) (size 15 to 20)
#    0.000    2.750    0.000    3.000    0.000    7.500 
#    0.000    2.500    0.000    0.000    0.000    0.000 
#    0.000    1.000    0.000    3.250    0.000    4.750 
#
# Total GULP energy -793419.098928 kJ/mol
# GULP energy per Si atom -12397.173421 kJ/mol
# Density = 1.473988 g / cm^3
# Si number density = 14.773508 Si / 1000 Ang^3
#
#
#
# Elastic Constant Matrix: (Units=GPa)
#
#
# Indices 1 2 3 4 5 6 
#
# 1 110.3576 45.9601 54.8719 0.0000 0.0000 0.0000
# 2 45.9601 62.9349 38.2953 0.0000 0.0000 0.0000
# 3 54.8719 38.2953 79.0786 0.0000 0.0000 0.0000
# 4 0.0000 0.0000 0.0000 21.5239 0.0000 0.0000
# 5 0.0000 0.0000 0.0000 0.0000 22.8744 0.0000
# 6 0.0000 0.0000 0.0000 0.0000 0.0000 27.5819
#
#
#
# Elastic Compliance Matrix: (Units=1/GPa)
#
#
# Indices 1 2 3 4 5 6 
#
# 1 0.015670 -0.006844 -0.007559 0.000000 0.000000 0.000000
# 2 -0.006844 0.025517 -0.007608 0.000000 0.000000 0.000000
# 3 -0.007559 -0.007608 0.021575 0.000000 0.000000 0.000000
# 4 0.000000 0.000000 0.000000 0.046460 0.000000 0.000000
# 5 0.000000 0.000000 0.000000 0.000000 0.043717 0.000000
# 6 0.000000 0.000000 0.000000 0.000000 0.000000 0.036256
#
#
# Mechanical properties :
#
#
# Convention : Reuss Voigt Hill
#
# Bulk Modulus (GPa) = 53.36178 58.95842 56.16010
# Shear Modulus (GPa) = 20.87994 21.94561 21.41278
#
# Velocity S-wave (km/s) = 3.76352 3.85836 3.81123
# Velocity P-wave (km/s) = 7.42184 7.73590 7.58050
#
# Compressibility (1/GPa) = 0.01874001
#
# Stress axis : x y z
#
# Youngs Moduli (GPa) = 63.81498 39.18966 46.34950
#
# Poissons Ratio (x) = 0.26822 0.35036
# Poissons Ratio (y) = 0.43675 0.35263
# Poissons Ratio (z) = 0.48239 0.29816
#
# Static dielectric constant tensor:
#      x y z
#    x 2.974800 0.000000 0.000000 
#    y 0.000000 2.959190 0.000000 
#    z 0.000000 0.000000 2.740040 
# 
# 
# High freq. dielectric constant tensor:
#      x y z
#    x 1.555960 0.000000 0.000000 
#    y 0.000000 1.575710 0.000000 
#    z 0.000000 0.000000 1.530130 
# 
# From -- ./inp_files/31342.got.cif
#   From: 2010.03.12/outbox.cif.g09.slc.cpg/sg62_16_cif.got.tgz:31342.got - 2010.04.10 19:12:36.
