data_PCOD8250507
_publ_section_title
;
Structure prediction by ZEFSAII (Michael W. Deem and Ramdas Pophale) SiO2 
 PCOD8250507
Probable space group: P N M A
;
_chemical_formula_sum "Si O2"
_cell_formula_units_Z 40
_cell_length_a 9.257560
_cell_length_b 8.698631
_cell_length_c 28.578427
_cell_angle_alpha 90.000000
_cell_angle_beta 90.000000
_cell_angle_gamma 90.000000
_cell_volume 2301.366382
_symmetry_space_group_name_H-M "P N M A"
_symmetry_group_IT_number 62
_symmetry_cell_setting 'orthorhombic'
loop_
_space_group_symop_operation_xyz
x,y,z
1/2-x,-y,1/2+z
1/2+x,1/2-y,1/2-z
-x,1/2+y,-z
-x,-y,-z
1/2+x,y,1/2-z
1/2-x,1/2+y,1/2+z
x,1/2-y,z
loop_
_atom_site_type_symbol
_atom_site_label
_atom_site_fract_x
_atom_site_fract_y
_atom_site_fract_z
Si Si1 0.296216 0.576427 0.375851
Si Si2 0.187647 0.066956 0.715032
Si Si3 0.524325 0.930320 0.550406
Si Si4 0.373305 0.568810 0.796975
Si Si5 0.113182 0.576676 0.131608
O O1 0.237197 0.750000 0.381826
O O2 0.328960 0.502571 0.427047
O O3 0.177643 0.474856 0.349205
O O4 0.449220 0.576572 0.347359
O O5 0.181643 0.250000 0.716586
O O6 0.278851 0.007928 0.670171
O O7 0.261516 0.007134 0.761658
O O8 0.030001 0.997961 0.711957
O O9 0.541463 0.750000 0.546357
O O10 0.500000 0.000000 0.500000
O O11 0.387593 0.973797 0.584135
O O12 0.374945 0.750000 0.790307
O O13 0.159067 0.750000 0.117997
#
# Coordination Sequence:
#
# PCOD8250507 Si02
#       5
#     8   8   8   8   8
#     4   9  18  35  55  78 107 141 183 224 271 326
#     4  11  22  38  57  76 107 150 188 224 274 333
#     4  10  18  31  55  84 113 142 180 228 277 324
#     4  12  24  36  53  80 112 144 185 232 276 325
#     4   8  18  34  54  78 105 139 183 224 267 322
#
# _framework density 17.380977000000001
#
# number of rings (size 3 to 8) (size 9 to 14) (size 15 to 20)
#    1.200    0.800    0.000    5.400    0.000    3.200 
#    0.000    0.000    0.000    1.200    0.000    0.000 
#    0.000    0.000    0.000    0.000    0.000    0.000 
#
# Total GULP energy -495717.902281 kJ/mol
# GULP energy per Si atom -12392.947557 kJ/mol
# Density = 1.734142 g / cm^3
# Si number density = 17.380977 Si / 1000 Ang^3
#
#
#
# Elastic Constant Matrix: (Units=GPa)
#
#
# Indices 1 2 3 4 5 6 
#
# 1 63.0253 24.6491 16.5350 0.0000 0.0000 0.0000
# 2 24.6491 117.4646 35.5857 0.0000 0.0000 0.0000
# 3 16.5350 35.5857 81.6824 0.0000 0.0000 0.0000
# 4 0.0000 0.0000 0.0000 32.6991 0.0000 0.0000
# 5 0.0000 0.0000 0.0000 0.0000 26.0756 0.0000
# 6 0.0000 0.0000 0.0000 0.0000 0.0000 26.3453
#
#
#
# Elastic Compliance Matrix: (Units=1/GPa)
#
#
# Indices 1 2 3 4 5 6 
#
# 1 0.017639 -0.003018 -0.002256 0.000000 0.000000 0.000000
# 2 -0.003018 0.010324 -0.003887 0.000000 0.000000 0.000000
# 3 -0.002256 -0.003887 0.014393 0.000000 0.000000 0.000000
# 4 0.000000 0.000000 0.000000 0.030582 0.000000 0.000000
# 5 0.000000 0.000000 0.000000 0.000000 0.038350 0.000000
# 6 0.000000 0.000000 0.000000 0.000000 0.000000 0.037957
#
#
# Mechanical properties :
#
#
# Convention : Reuss Voigt Hill
#
# Bulk Modulus (GPa) = 41.60756 46.19020 43.89888
# Shear Modulus (GPa) = 28.47749 29.38416 28.93082
#
# Velocity S-wave (km/s) = 4.05214 4.11614 4.08427
# Velocity P-wave (km/s) = 6.77375 7.01591 6.89589
#
# Compressibility (1/GPa) = 0.02403409
#
# Stress axis : x y z
#
# Youngs Moduli (GPa) = 56.69324 96.86153 69.48052
#
# Poissons Ratio (x) = 0.29233 0.15673
# Poissons Ratio (y) = 0.17110 0.27006
# Poissons Ratio (z) = 0.12789 0.37648
#
# Static dielectric constant tensor:
#      x y z
#    x 3.101160 0.000000 0.000000 
#    y 0.000000 3.297730 0.000000 
#    z 0.000000 0.000000 3.276930 
# 
# 
# High freq. dielectric constant tensor:
#      x y z
#    x 1.647050 0.000000 0.000000 
#    y 0.000000 1.684470 0.000000 
#    z 0.000000 0.000000 1.662730 
# 
# From -- ./inp_files/28567.got.cif
#   From: 2010.03.12/outbox.cif.g09.slc.cpg/sg62_15_cif.got.tgz:28567.got - 2010.04.10 19:12:36.
