data_PCOD8250909
_publ_section_title
;
Structure prediction by ZEFSAII (Michael W. Deem and Ramdas Pophale) SiO2 
 PCOD8250909
Probable space group: P N M A
;
_chemical_formula_sum "Si O2"
_cell_formula_units_Z 64
_cell_length_a 24.572285
_cell_length_b 8.990091
_cell_length_c 15.341056
_cell_angle_alpha 90.000000
_cell_angle_beta 90.000000
_cell_angle_gamma 90.000000
_cell_volume 3388.947858
_symmetry_space_group_name_H-M "P N M A"
_symmetry_group_IT_number 62
_symmetry_cell_setting 'orthorhombic'
loop_
_space_group_symop_operation_xyz
x,y,z
1/2-x,-y,1/2+z
1/2+x,1/2-y,1/2-z
-x,1/2+y,-z
-x,-y,-z
1/2+x,y,1/2-z
1/2-x,1/2+y,1/2+z
x,1/2-y,z
loop_
_atom_site_type_symbol
_atom_site_label
_atom_site_fract_x
_atom_site_fract_y
_atom_site_fract_z
Si Si1 0.641256 0.424085 0.671801
Si Si2 0.061171 0.072684 0.679973
Si Si3 0.658318 0.424247 0.482469
Si Si4 0.613264 0.075271 0.001561
Si Si5 0.945683 0.574125 0.676653
Si Si6 0.217845 0.921675 0.542934
Si Si7 0.260371 0.578594 0.216612
Si Si8 0.637327 0.576086 0.305161
O O1 0.631970 0.250000 0.671458
O O2 0.598914 0.491223 0.741674
O O3 0.630959 0.480751 0.573017
O O4 0.703977 0.458398 0.698083
O O5 0.056392 0.250000 0.681769
O O6 0.085857 0.018501 0.587934
O O7 0.002744 0.002367 0.694293
O O8 0.647464 0.250000 0.463395
O O9 0.722475 0.453770 0.494574
O O10 0.633590 0.522466 0.405152
O O11 0.621759 0.250000 0.000215
O O12 0.672529 0.003076 0.015410
O O13 0.575187 0.025376 0.081402
O O14 0.951824 0.750000 0.684378
O O15 0.904425 0.518529 0.749703
O O16 0.203241 0.750000 0.541750
O O17 0.214203 0.979260 0.641184
O O18 0.267230 0.750000 0.187822
O O19 0.197227 0.542195 0.233820
O O20 0.622909 0.750000 0.300727
#
# Coordination Sequence:
#
# PCOD8250909 Si02
#       8
#     8   8   8   8   8   8   8   8
#     4   9  17  33  59  84 109 147 187 228 280 333
#     4  10  20  38  61  82 109 146 192 235 277 338
#     4   9  19  35  56  83 117 150 184 228 282 334
#     4  10  21  37  56  80 114 153 186 226 280 339
#     4  11  24  39  57  81 113 150 189 238 290 335
#     4  10  19  30  51  83 118 148 181 226 272 327
#     4   9  17  33  56  79 111 150 186 224 276 336
#     4  10  21  37  59  83 112 150 192 234 279 335
#
# _framework density 18.884917000000002
#
# number of rings (size 3 to 8) (size 9 to 14) (size 15 to 20)
#    0.000    2.250    1.250    1.500    1.750    2.500 
#    0.000    1.875    0.000    0.000    0.000    0.000 
#    0.000    0.000    0.000    0.000    0.000    0.000 
#
# Total GULP energy -793535.539873 kJ/mol
# GULP energy per Si atom -12398.992811 kJ/mol
# Density = 1.884193 g / cm^3
# Si number density = 18.884917 Si / 1000 Ang^3
#
#
#
# Elastic Constant Matrix: (Units=GPa)
#
#
# Indices 1 2 3 4 5 6 
#
# 1 98.5203 24.8391 58.4142 0.0000 0.0000 0.0000
# 2 24.8391 23.2944 23.3193 0.0000 0.0000 0.0000
# 3 58.4142 23.3193 120.8849 0.0000 0.0000 0.0000
# 4 0.0000 0.0000 0.0000 21.5712 0.0000 0.0000
# 5 0.0000 0.0000 0.0000 0.0000 24.9503 0.0000
# 6 0.0000 0.0000 0.0000 0.0000 0.0000 29.2672
#
#
#
# Elastic Compliance Matrix: (Units=1/GPa)
#
#
# Indices 1 2 3 4 5 6 
#
# 1 0.016530 -0.011935 -0.005685 0.000000 0.000000 0.000000
# 2 -0.011935 0.061820 -0.006158 0.000000 0.000000 0.000000
# 3 -0.005685 -0.006158 0.012208 0.000000 0.000000 0.000000
# 4 0.000000 0.000000 0.000000 0.046358 0.000000 0.000000
# 5 0.000000 0.000000 0.000000 0.000000 0.040080 0.000000
# 6 0.000000 0.000000 0.000000 0.000000 0.000000 0.034168
#
#
# Mechanical properties :
#
#
# Convention : Reuss Voigt Hill
#
# Bulk Modulus (GPa) = 23.25543 50.64941 36.95242
# Shear Modulus (GPa) = 18.31140 24.23288 21.27214
#
# Velocity S-wave (km/s) = 3.11727 3.58605 3.35984
# Velocity P-wave (km/s) = 5.02966 6.63510 5.88736
#
# Compressibility (1/GPa) = 0.04300071
#
# Stress axis : x y z
#
# Youngs Moduli (GPa) = 60.49523 16.17603 81.91611
#
# Poissons Ratio (x) = 0.19306 0.46573
# Poissons Ratio (y) = 0.72200 0.50445
# Poissons Ratio (z) = 0.34394 0.09961
#
# Static dielectric constant tensor:
#      x y z
#    x 3.470410 0.000000 0.000000 
#    y 0.000000 3.326050 0.000000 
#    z 0.000000 0.000000 3.665570 
# 
# 
# High freq. dielectric constant tensor:
#      x y z
#    x 1.729060 0.000000 0.000000 
#    y 0.000000 1.718920 0.000000 
#    z 0.000000 0.000000 1.736100 
# 
# From -- ./inp_files/20914.got.cif
#   From: 2010.03.12/outbox.cif.g09.slc.cpg/sg62_11_cif.got.tgz:20914.got - 2010.04.10 19:12:36.
