data_PCOD8250508
_publ_section_title
;
Structure prediction by ZEFSAII (Michael W. Deem and Ramdas Pophale) SiO2 
 PCOD8250508
Probable space group: P N M A
;
_chemical_formula_sum "Si O2"
_cell_formula_units_Z 48
_cell_length_a 17.811942
_cell_length_b 16.941072
_cell_length_c 8.820823
_cell_angle_alpha 90.000000
_cell_angle_beta 90.000000
_cell_angle_gamma 90.000000
_cell_volume 2661.713259
_symmetry_space_group_name_H-M "P N M A"
_symmetry_group_IT_number 62
_symmetry_cell_setting 'orthorhombic'
loop_
_space_group_symop_operation_xyz
x,y,z
1/2-x,-y,1/2+z
1/2+x,1/2-y,1/2-z
-x,1/2+y,-z
-x,-y,-z
1/2+x,y,1/2-z
1/2-x,1/2+y,1/2+z
x,1/2-y,z
loop_
_atom_site_type_symbol
_atom_site_label
_atom_site_fract_x
_atom_site_fract_y
_atom_site_fract_z
Si Si1 0.348921 0.663133 0.062734
Si Si2 0.416079 0.511731 0.948002
Si Si3 0.185635 0.839158 0.918980
Si Si4 0.729464 0.159344 0.639210
Si Si5 0.719313 0.935351 0.872863
Si Si6 0.161260 0.934705 0.190581
O O1 0.385328 0.750000 0.048656
O O2 0.401598 0.604761 0.968358
O O3 0.267535 0.663013 0.989174
O O4 0.338158 0.641043 0.241282
O O5 0.406744 0.481632 0.773393
O O6 0.500000 0.500000 0.000000
O O7 0.356110 0.465086 0.048008
O O8 0.151417 0.750000 0.914075
O O9 0.190485 0.874033 0.751767
O O10 0.137146 0.900211 0.025298
O O11 0.728045 0.250000 0.590789
O O12 0.722256 0.107082 0.487599
O O13 0.811258 0.140991 0.712553
O O14 0.765326 0.008555 0.806632
#
# Coordination Sequence:
#
# PCOD8250508 Si02
#       6
#     8   8   8   8   8   8
#     4   9  17  33  53  77 108 141 178 221 276 333
#     4  11  22  36  54  84 112 147 185 228 283 326
#     4  10  18  31  56  83 107 142 185 235 280 318
#     4   9  17  29  51  81 105 134 180 229 266 310
#     4  11  18  32  55  84 110 135 186 232 269 325
#     4  10  18  33  53  78 107 141 183 227 268 327
#
# _framework density 18.033498000000002
#
# number of rings (size 3 to 8) (size 9 to 14) (size 15 to 20)
#    0.000    2.000    5.000    3.000    0.000    0.000 
#    0.000    5.833    0.000    0.000    0.000    0.000 
#    0.000    0.000    0.000    0.000    0.000    0.000 
#
# Total GULP energy -594745.347032 kJ/mol
# GULP energy per Si atom -12390.528063 kJ/mol
# Density = 1.799245 g / cm^3
# Si number density = 18.033498 Si / 1000 Ang^3
#
#
#
# Elastic Constant Matrix: (Units=GPa)
#
#
# Indices 1 2 3 4 5 6 
#
# 1 34.6436 15.5509 -4.5266 0.0000 0.0000 0.0000
# 2 15.5509 114.0525 33.4139 0.0000 0.0000 0.0000
# 3 -4.5266 33.4139 75.7948 0.0000 0.0000 0.0000
# 4 0.0000 0.0000 0.0000 34.7839 0.0000 0.0000
# 5 0.0000 0.0000 0.0000 0.0000 14.8188 0.0000
# 6 0.0000 0.0000 0.0000 0.0000 0.0000 10.7288
#
#
#
# Elastic Compliance Matrix: (Units=1/GPa)
#
#
# Indices 1 2 3 4 5 6 
#
# 1 0.031976 -0.005649 0.004400 0.000000 0.000000 0.000000
# 2 -0.005649 0.011066 -0.005216 0.000000 0.000000 0.000000
# 3 0.004400 -0.005216 0.015756 0.000000 0.000000 0.000000
# 4 0.000000 0.000000 0.000000 0.028749 0.000000 0.000000
# 5 0.000000 0.000000 0.000000 0.000000 0.067482 0.000000
# 6 0.000000 0.000000 0.000000 0.000000 0.000000 0.093207
#
#
# Mechanical properties :
#
#
# Convention : Reuss Voigt Hill
#
# Bulk Modulus (GPa) = 21.80159 34.81860 28.31010
# Shear Modulus (GPa) = 18.08614 24.06981 21.07798
#
# Velocity S-wave (km/s) = 3.17033 3.65736 3.42252
# Velocity P-wave (km/s) = 5.05144 6.09792 5.59918
#
# Compressibility (1/GPa) = 0.04586822
#
# Stress axis : x y z
#
# Youngs Moduli (GPa) = 31.27347 90.36514 63.46911
#
# Poissons Ratio (x) = 0.51047 -0.27926
# Poissons Ratio (y) = 0.17666 0.33105
# Poissons Ratio (z) = -0.13760 0.47133
#
# Static dielectric constant tensor:
#      x y z
#    x 2.713040 0.000000 0.000000 
#    y 0.000000 4.003260 0.000000 
#    z 0.000000 0.000000 3.766920 
# 
# 
# High freq. dielectric constant tensor:
#      x y z
#    x 1.621940 0.000000 0.000000 
#    y 0.000000 1.720960 0.000000 
#    z 0.000000 0.000000 1.707210 
# 
# From -- ./inp_files/6478.got.cif
#   From: 2010.03.12/outbox.cif.g09.slc.cpg/sg62_4_cif.got.tgz:6478.got - 2010.04.10 19:12:36.
