data_PCOD8250235
_publ_section_title
;
Structure prediction by ZEFSAII (Michael W. Deem and Ramdas Pophale) SiO2 
 PCOD8250235
Probable space group: P N M A
;
_chemical_formula_sum "Si O2"
_cell_formula_units_Z 56
_cell_length_a 16.075459
_cell_length_b 9.564522
_cell_length_c 19.117892
_cell_angle_alpha 90.000000
_cell_angle_beta 90.000000
_cell_angle_gamma 90.000000
_cell_volume 2939.453920
_symmetry_space_group_name_H-M "P N M A"
_symmetry_group_IT_number 62
_symmetry_cell_setting 'orthorhombic'
loop_
_space_group_symop_operation_xyz
x,y,z
1/2-x,-y,1/2+z
1/2+x,1/2-y,1/2-z
-x,1/2+y,-z
-x,-y,-z
1/2+x,y,1/2-z
1/2-x,1/2+y,1/2+z
x,1/2-y,z
loop_
_atom_site_type_symbol
_atom_site_label
_atom_site_fract_x
_atom_site_fract_y
_atom_site_fract_z
Si Si1 0.798006 0.591784 0.370667
Si Si2 0.108869 0.906590 0.091373
Si Si3 0.823384 0.086345 0.235487
Si Si4 0.732881 0.088930 0.094372
Si Si5 0.629582 0.405768 0.528992
Si Si6 0.039204 0.096122 0.826265
Si Si7 0.583759 0.088526 0.999379
O O1 0.816989 0.750000 0.345009
O O2 0.706581 0.580767 0.400539
O O3 0.798085 0.484516 0.307099
O O4 0.862537 0.546866 0.431081
O O5 0.085123 0.750000 0.066339
O O6 0.059487 0.937429 0.164856
O O7 0.080614 0.018844 0.033742
O O8 0.835129 0.250000 0.247266
O O9 0.752877 0.055163 0.176142
O O10 0.913514 0.023240 0.216032
O O11 0.756454 0.250000 0.078307
O O12 0.787414 0.991477 0.045521
O O13 0.637048 0.061410 0.071069
O O14 0.656107 0.250000 0.506030
O O15 0.569375 0.401247 0.594330
O O16 0.053740 0.250000 0.791486
O O17 0.557952 0.250000 0.995440
O O18 0.500000 0.000000 0.000000
#
# Coordination Sequence:
#
# PCOD8250235 Si02
#       7
#     8   8   8   8   8   8   8
#     4  10  21  39  60  80 111 152 190 231 285 344
#     4  10  19  34  55  78 109 148 182 219 273 334
#     4  10  21  37  59  83 112 149 186 237 291 338
#     4   9  18  37  59  79 109 149 188 226 284 347
#     4  10  18  28  50  84 114 139 173 223 268 318
#     4   9  19  34  53  79 112 147 183 220 269 336
#     4  10  21  39  62  86 112 148 194 243 289 340
#
# _framework density 19.051158000000001
#
# number of rings (size 3 to 8) (size 9 to 14) (size 15 to 20)
#    0.000    2.286    1.429    1.286    0.000    3.429 
#    2.571    0.000    0.000    0.000    0.000    0.000 
#    0.000    0.000    0.000    0.000    0.000    0.000 
#
# Total GULP energy -694019.266958 kJ/mol
# GULP energy per Si atom -12393.201196 kJ/mol
# Density = 1.900780 g / cm^3
# Si number density = 19.051158 Si / 1000 Ang^3
#
#
#
# Elastic Constant Matrix: (Units=GPa)
#
#
# Indices 1 2 3 4 5 6 
#
# 1 92.9535 34.4111 21.1545 0.0000 0.0000 0.0000
# 2 34.4111 100.3918 43.4803 0.0000 0.0000 0.0000
# 3 21.1545 43.4803 72.3189 0.0000 0.0000 0.0000
# 4 0.0000 0.0000 0.0000 33.7088 0.0000 0.0000
# 5 0.0000 0.0000 0.0000 0.0000 11.4535 0.0000
# 6 0.0000 0.0000 0.0000 0.0000 0.0000 29.7565
#
#
#
# Elastic Compliance Matrix: (Units=1/GPa)
#
#
# Indices 1 2 3 4 5 6 
#
# 1 0.012433 -0.003632 -0.001453 0.000000 0.000000 0.000000
# 2 -0.003632 0.014529 -0.007673 0.000000 0.000000 0.000000
# 3 -0.001453 -0.007673 0.018866 0.000000 0.000000 0.000000
# 4 0.000000 0.000000 0.000000 0.029666 0.000000 0.000000
# 5 0.000000 0.000000 0.000000 0.000000 0.087310 0.000000
# 6 0.000000 0.000000 0.000000 0.000000 0.000000 0.033606
#
#
# Mechanical properties :
#
#
# Convention : Reuss Voigt Hill
#
# Bulk Modulus (GPa) = 49.23247 51.52845 50.38046
# Shear Modulus (GPa) = 21.86293 26.09165 23.97729
#
# Velocity S-wave (km/s) = 3.39129 3.70477 3.55149
# Velocity P-wave (km/s) = 6.42128 6.73844 6.58177
#
# Compressibility (1/GPa) = 0.02031180
#
# Stress axis : x y z
#
# Youngs Moduli (GPa) = 80.42797 68.82680 53.00586
#
# Poissons Ratio (x) = 0.25001 0.07702
# Poissons Ratio (y) = 0.29215 0.40671
# Poissons Ratio (z) = 0.11687 0.52810
#
# Static dielectric constant tensor:
#      x y z
#    x 3.585870 0.000000 0.000000 
#    y 0.000000 3.652240 0.000000 
#    z 0.000000 0.000000 3.382030 
# 
# 
# High freq. dielectric constant tensor:
#      x y z
#    x 1.736810 0.000000 0.000000 
#    y 0.000000 1.745430 0.000000 
#    z 0.000000 0.000000 1.722080 
# 
# From -- ./inp_files/27260.got.cif
#   From: 2010.03.12/outbox.cif.g09.slc.cpg/sg62_14_cif.got.tgz:27260.got - 2010.04.10 19:12:36.
