data_PCOD8250669
_publ_section_title
;
Structure prediction by ZEFSAII (Michael W. Deem and Ramdas Pophale) SiO2 
 PCOD8250669
Probable space group: P N M A
;
_chemical_formula_sum "Si O2"
_cell_formula_units_Z 56
_cell_length_a 15.326113
_cell_length_b 9.254814
_cell_length_c 20.154059
_cell_angle_alpha 90.000000
_cell_angle_beta 90.000000
_cell_angle_gamma 90.000000
_cell_volume 2858.658282
_symmetry_space_group_name_H-M "P N M A"
_symmetry_group_IT_number 62
_symmetry_cell_setting 'orthorhombic'
loop_
_space_group_symop_operation_xyz
x,y,z
1/2-x,-y,1/2+z
1/2+x,1/2-y,1/2-z
-x,1/2+y,-z
-x,-y,-z
1/2+x,y,1/2-z
1/2-x,1/2+y,1/2+z
x,1/2-y,z
loop_
_atom_site_type_symbol
_atom_site_label
_atom_site_fract_x
_atom_site_fract_y
_atom_site_fract_z
Si Si1 0.845478 0.583760 0.120579
Si Si2 0.165184 0.589845 0.135221
Si Si3 0.678800 0.577512 0.922133
Si Si4 0.084302 0.907361 0.993226
Si Si5 0.501245 0.079153 0.714754
Si Si6 0.333418 0.083830 0.927983
Si Si7 0.011088 0.423017 0.633610
O O1 0.869488 0.750000 0.105651
O O2 0.852142 0.491039 0.054754
O O3 0.740678 0.565708 0.130376
O O4 0.909502 0.523802 0.178118
O O5 0.194134 0.750000 0.162145
O O6 0.247819 0.483790 0.128627
O O7 0.088446 0.520079 0.181257
O O8 0.127281 0.612487 0.063338
O O9 0.677607 0.750000 0.914374
O O10 0.587874 0.508584 0.901108
O O11 0.694031 0.525790 0.998633
O O12 0.061404 0.750000 0.963469
O O13 0.000000 0.000000 0.000000
O O14 0.497800 0.250000 0.708646
O O15 0.506871 0.027696 0.789927
O O16 0.353816 0.250000 0.939049
O O17 0.423021 0.016231 0.900767
O O18 0.024027 0.250000 0.627513
#
# Coordination Sequence:
#
# PCOD8250669 Si02
#       7
#     8   8   8   8   8   8   8
#     4  10  18  34  56  83 114 145 183 230 280 337
#     4  10  20  35  56  85 114 144 185 230 275 333
#     4  11  22  37  57  83 111 147 187 236 290 332
#     4  11  20  31  52  83 116 148 180 225 281 333
#     4   9  19  35  58  85 113 145 184 225 273 330
#     4   9  19  34  57  83 109 143 186 231 282 330
#     4  10  21  39  59  81 109 149 193 235 276 328
#
# _framework density 19.589611000000001
#
# number of rings (size 3 to 8) (size 9 to 14) (size 15 to 20)
#    0.000    2.000    2.857    1.286    0.000    1.714 
#    0.000    7.143    0.000    0.000    0.000    0.000 
#    0.000    0.000    0.000    0.000    0.000    0.000 
#
# Total GULP energy -693754.985655 kJ/mol
# GULP energy per Si atom -12388.481887 kJ/mol
# Density = 1.954502 g / cm^3
# Si number density = 19.589611 Si / 1000 Ang^3
#
#
#
# Elastic Constant Matrix: (Units=GPa)
#
#
# Indices 1 2 3 4 5 6 
#
# 1 149.5692 41.2365 46.9535 0.0000 0.0000 0.0000
# 2 41.2365 60.0716 16.9867 0.0000 0.0000 0.0000
# 3 46.9535 16.9867 86.1713 0.0000 0.0000 0.0000
# 4 0.0000 0.0000 0.0000 18.1462 0.0000 0.0000
# 5 0.0000 0.0000 0.0000 0.0000 15.1771 0.0000
# 6 0.0000 0.0000 0.0000 0.0000 0.0000 18.8388
#
#
#
# Elastic Compliance Matrix: (Units=1/GPa)
#
#
# Indices 1 2 3 4 5 6 
#
# 1 0.009438 -0.005321 -0.004094 0.000000 0.000000 0.000000
# 2 -0.005321 0.020630 -0.001167 0.000000 0.000000 0.000000
# 3 -0.004094 -0.001167 0.014065 0.000000 0.000000 0.000000
# 4 0.000000 0.000000 0.000000 0.055108 0.000000 0.000000
# 5 0.000000 0.000000 0.000000 0.000000 0.065889 0.000000
# 6 0.000000 0.000000 0.000000 0.000000 0.000000 0.053082
#
#
# Mechanical properties :
#
#
# Convention : Reuss Voigt Hill
#
# Bulk Modulus (GPa) = 43.53709 56.24062 49.88886
# Shear Modulus (GPa) = 20.24027 23.14145 21.69086
#
# Velocity S-wave (km/s) = 3.21785 3.44075 3.33117
# Velocity P-wave (km/s) = 6.00657 6.67509 6.34963
#
# Compressibility (1/GPa) = 0.02296892
#
# Stress axis : x y z
#
# Youngs Moduli (GPa) = 105.95412 48.47393 71.09606
#
# Poissons Ratio (x) = 0.25794 0.29105
# Poissons Ratio (y) = 0.56380 0.08298
# Poissons Ratio (z) = 0.43374 0.05658
#
# Static dielectric constant tensor:
#      x y z
#    x 3.723410 0.000000 0.000000 
#    y 0.000000 3.369460 0.000000 
#    z 0.000000 0.000000 3.670940 
# 
# 
# High freq. dielectric constant tensor:
#      x y z
#    x 1.780920 0.000000 0.000000 
#    y 0.000000 1.729440 0.000000 
#    z 0.000000 0.000000 1.750940 
# 
# From -- ./inp_files/27172.got.cif
#   From: 2010.03.12/outbox.cif.g09.slc.cpg/sg62_14_cif.got.tgz:27172.got - 2010.04.10 19:12:36.
