data_PCOD8250475
_publ_section_title
;
Structure prediction by ZEFSAII (Michael W. Deem and Ramdas Pophale) SiO2 
 PCOD8250475
Probable space group: P N M A
;
_chemical_formula_sum "Si O2"
_cell_formula_units_Z 64
_cell_length_a 19.550908
_cell_length_b 9.006351
_cell_length_c 20.705681
_cell_angle_alpha 90.000000
_cell_angle_beta 90.000000
_cell_angle_gamma 90.000000
_cell_volume 3645.904758
_symmetry_space_group_name_H-M "P N M A"
_symmetry_group_IT_number 62
_symmetry_cell_setting 'orthorhombic'
loop_
_space_group_symop_operation_xyz
x,y,z
1/2-x,-y,1/2+z
1/2+x,1/2-y,1/2-z
-x,1/2+y,-z
-x,-y,-z
1/2+x,y,1/2-z
1/2-x,1/2+y,1/2+z
x,1/2-y,z
loop_
_atom_site_type_symbol
_atom_site_label
_atom_site_fract_x
_atom_site_fract_y
_atom_site_fract_z
Si Si1 0.069417 0.424117 0.726847
Si Si2 0.423136 0.081087 0.636029
Si Si3 0.069031 0.424204 0.267563
Si Si4 0.717657 0.921018 0.428036
Si Si5 0.700303 0.925173 0.571413
Si Si6 0.573885 0.080784 0.623085
Si Si7 0.797485 0.426113 0.316387
Si Si8 0.215778 0.425385 0.308034
O O1 0.071363 0.250000 0.713085
O O2 0.080986 0.463119 0.801748
O O3 0.127203 0.504242 0.684997
O O4 0.995707 0.486689 0.704647
O O5 0.423892 0.250000 0.664000
O O6 0.362954 0.057197 0.585081
O O7 0.495712 0.051181 0.600851
O O8 0.413152 0.966970 0.694262
O O9 0.053405 0.250000 0.270819
O O10 0.135799 0.468311 0.309489
O O11 0.739061 0.750000 0.416872
O O12 0.730079 0.972335 0.501806
O O13 0.762395 0.025137 0.382724
O O14 0.697137 0.750000 0.576010
O O15 0.748952 0.992158 0.627626
O O16 0.623139 0.981286 0.579947
O O17 0.595656 0.250000 0.612401
O O18 0.803504 0.250000 0.314943
O O19 0.753323 0.488968 0.255940
O O20 0.224345 0.250000 0.306536
#
# Coordination Sequence:
#
# PCOD8250475 Si02
#       8
#     8   8   8   8   8   8   8   8
#     4  10  20  34  52  79 109 136 168 214 266 315
#     4   9  18  32  47  70 105 140 175 212 255 309
#     4  10  18  31  52  78 103 133 171 215 264 309
#     4  10  21  35  52  74 105 144 178 215 264 313
#     4  10  20  35  52  73 104 141 178 215 260 315
#     4   9  18  31  47  70 103 138 171 211 253 300
#     4  11  20  34  56  80 105 137 176 220 261 308
#     4   9  18  32  52  78 104 132 172 218 261 303
#
# _framework density 17.553943
#
# number of rings (size 3 to 8) (size 9 to 14) (size 15 to 20)
#    0.000    2.250    2.500    1.875    0.000    3.000 
#    0.000    1.250    0.000    0.750    0.000    0.000 
#    0.000    0.000    0.000    0.000    0.000    0.000 
#
# Total GULP energy -793589.359624 kJ/mol
# GULP energy per Si atom -12399.833744 kJ/mol
# Density = 1.751399 g / cm^3
# Si number density = 17.553943 Si / 1000 Ang^3
#
#
#
# Elastic Constant Matrix: (Units=GPa)
#
#
# Indices 1 2 3 4 5 6 
#
# 1 117.8800 42.0962 57.3040 0.0000 0.0000 0.0000
# 2 42.0962 58.2919 33.1693 0.0000 0.0000 0.0000
# 3 57.3040 33.1693 94.9321 0.0000 0.0000 0.0000
# 4 0.0000 0.0000 0.0000 21.7163 0.0000 0.0000
# 5 0.0000 0.0000 0.0000 0.0000 23.3170 0.0000
# 6 0.0000 0.0000 0.0000 0.0000 0.0000 27.6418
#
#
#
# Elastic Compliance Matrix: (Units=1/GPa)
#
#
# Indices 1 2 3 4 5 6 
#
# 1 0.013726 -0.006488 -0.006019 0.000000 0.000000 0.000000
# 2 -0.006488 0.024478 -0.004637 0.000000 0.000000 0.000000
# 3 -0.006019 -0.004637 0.015787 0.000000 0.000000 0.000000
# 4 0.000000 0.000000 0.000000 0.046048 0.000000 0.000000
# 5 0.000000 0.000000 0.000000 0.000000 0.042887 0.000000
# 6 0.000000 0.000000 0.000000 0.000000 0.000000 0.036177
#
#
# Mechanical properties :
#
#
# Convention : Reuss Voigt Hill
#
# Bulk Modulus (GPa) = 50.74716 59.58256 55.16486
# Shear Modulus (GPa) = 22.73164 23.77065 23.25115
#
# Velocity S-wave (km/s) = 3.60246 3.68387 3.64339
# Velocity P-wave (km/s) = 6.80262 7.21878 7.01379
#
# Compressibility (1/GPa) = 0.01970554
#
# Stress axis : x y z
#
# Youngs Moduli (GPa) = 72.85603 40.85224 63.34372
#
# Poissons Ratio (x) = 0.26503 0.38124
# Poissons Ratio (y) = 0.47265 0.29371
# Poissons Ratio (z) = 0.43849 0.18942
#
# Static dielectric constant tensor:
#      x y z
#    x 3.401220 0.000000 0.000000 
#    y 0.000000 3.138500 0.000000 
#    z 0.000000 0.000000 3.142280 
# 
# 
# High freq. dielectric constant tensor:
#      x y z
#    x 1.685700 0.000000 0.000000 
#    y 0.000000 1.671610 0.000000 
#    z 0.000000 0.000000 1.647910 
# 
# From -- ./inp_files/27962.got.cif
#   From: 2010.03.12/outbox.cif.g09.slc.cpg/sg62_14_cif.got.tgz:27962.got - 2010.04.10 19:12:36.
