data_PCOD8250038
_publ_section_title
;
Structure prediction by ZEFSAII (Michael W. Deem and Ramdas Pophale) SiO2 
 PCOD8250038
Probable space group: P N M A
;
_chemical_formula_sum "Si O2"
_cell_formula_units_Z 48
_cell_length_a 17.944734
_cell_length_b 16.556511
_cell_length_c 8.867446
_cell_angle_alpha 90.000000
_cell_angle_beta 90.000000
_cell_angle_gamma 90.000000
_cell_volume 2634.537590
_symmetry_space_group_name_H-M "P N M A"
_symmetry_group_IT_number 62
_symmetry_cell_setting 'orthorhombic'
loop_
_space_group_symop_operation_xyz
x,y,z
1/2-x,-y,1/2+z
1/2+x,1/2-y,1/2-z
-x,1/2+y,-z
-x,-y,-z
1/2+x,y,1/2-z
1/2-x,1/2+y,1/2+z
x,1/2-y,z
loop_
_atom_site_type_symbol
_atom_site_label
_atom_site_fract_x
_atom_site_fract_y
_atom_site_fract_z
Si Si1 0.880622 0.416327 0.998678
Si Si2 0.277688 0.008688 0.749198
Si Si3 0.516607 0.656783 0.249957
Si Si4 0.374991 0.407956 0.996187
Si Si5 0.395466 0.971769 0.239759
Si Si6 0.283772 0.339619 0.257838
O O1 0.920106 0.480830 0.108989
O O2 0.837072 0.349629 0.096875
O O3 0.821711 0.464787 0.898069
O O4 0.942855 0.372520 0.900724
O O5 0.314035 0.045278 0.897607
O O6 0.193389 0.041335 0.738468
O O7 0.278436 0.910458 0.759111
O O8 0.497710 0.750000 0.264270
O O9 0.567621 0.641550 0.104832
O O10 0.437618 0.612770 0.231561
O O11 0.419119 0.474289 0.095487
O O12 0.332559 0.345845 0.105558
O O13 0.247251 0.250000 0.263708
#
# Coordination Sequence:
#
# PCOD8250038 Si02
#       6
#     8   8   8   8   8   8
#     4   9  19  35  53  70  98 136 167 193 242 305
#     4   9  18  35  54  73  98 132 166 197 242 301
#     4  11  21  33  49  75 102 128 164 209 245 281
#     4   9  19  35  53  70  98 136 167 193 242 305
#     4  10  18  33  54  74  96 130 166 202 242 295
#     4  10  17  29  51  78  98 122 164 212 245 281
#
# _framework density 18.219517
#
# number of rings (size 3 to 8) (size 9 to 14) (size 15 to 20)
#    0.000    2.667    0.000    6.000    0.000    0.000 
#    0.000   10.000    0.000    0.000    0.000    2.333 
#    0.000    0.000    0.000    0.000    0.000    0.000 
#
# Total GULP energy -595028.624780 kJ/mol
# GULP energy per Si atom -12396.429683 kJ/mol
# Density = 1.817805 g / cm^3
# Si number density = 18.219517 Si / 1000 Ang^3
#
#
#
# Elastic Constant Matrix: (Units=GPa)
#
#
# Indices 1 2 3 4 5 6 
#
# 1 39.3347 33.0953 2.9949 0.0000 0.0000 0.0000
# 2 33.0953 100.2580 -6.1073 0.0000 0.0000 0.0000
# 3 2.9949 -6.1073 67.8137 0.0000 0.0000 0.0000
# 4 0.0000 0.0000 0.0000 10.8968 0.0000 0.0000
# 5 0.0000 0.0000 0.0000 0.0000 11.9454 0.0000
# 6 0.0000 0.0000 0.0000 0.0000 0.0000 25.5080
#
#
#
# Elastic Compliance Matrix: (Units=1/GPa)
#
#
# Indices 1 2 3 4 5 6 
#
# 1 0.035666 -0.011935 -0.002650 0.000000 0.000000 0.000000
# 2 -0.011935 0.014023 0.001790 0.000000 0.000000 0.000000
# 3 -0.002650 0.001790 0.015025 0.000000 0.000000 0.000000
# 4 0.000000 0.000000 0.000000 0.091770 0.000000 0.000000
# 5 0.000000 0.000000 0.000000 0.000000 0.083714 0.000000
# 6 0.000000 0.000000 0.000000 0.000000 0.000000 0.039203
#
#
# Mechanical properties :
#
#
# Convention : Reuss Voigt Hill
#
# Bulk Modulus (GPa) = 25.55974 29.70802 27.63388
# Shear Modulus (GPa) = 15.72165 21.49828 18.60997
#
# Velocity S-wave (km/s) = 2.94071 3.43878 3.19945
# Velocity P-wave (km/s) = 5.05861 5.66639 5.37110
#
# Compressibility (1/GPa) = 0.03912402
#
# Stress axis : x y z
#
# Youngs Moduli (GPa) = 28.03762 71.31122 66.55781
#
# Poissons Ratio (x) = 0.85109 0.17638
# Poissons Ratio (y) = 0.33463 -0.11914
# Poissons Ratio (z) = 0.07430 -0.12765
#
# Static dielectric constant tensor:
#      x y z
#    x 3.051540 0.000000 0.000000 
#    y 0.000000 3.231060 0.000000 
#    z 0.000000 0.000000 3.745570 
# 
# 
# High freq. dielectric constant tensor:
#      x y z
#    x 1.681460 0.000000 0.000000 
#    y 0.000000 1.695680 0.000000 
#    z 0.000000 0.000000 1.732610 
# 
# From -- ./inp_files/8591.got.cif
#   From: 2010.03.12/outbox.cif.g09.slc.cpg/sg62_5_cif.got.tgz:8591.got - 2010.04.10 19:12:36.
