data_PCOD8250153
_publ_section_title
;
Structure prediction by ZEFSAII (Michael W. Deem and Ramdas Pophale) SiO2 
 PCOD8250153
Probable space group: P N M A
;
_chemical_formula_sum "Si O2"
_cell_formula_units_Z 56
_cell_length_a 29.229013
_cell_length_b 9.194196
_cell_length_c 13.687769
_cell_angle_alpha 90.000000
_cell_angle_beta 90.000000
_cell_angle_gamma 90.000000
_cell_volume 3678.413734
_symmetry_space_group_name_H-M "P N M A"
_symmetry_group_IT_number 62
_symmetry_cell_setting 'orthorhombic'
loop_
_space_group_symop_operation_xyz
x,y,z
1/2-x,-y,1/2+z
1/2+x,1/2-y,1/2-z
-x,1/2+y,-z
-x,-y,-z
1/2+x,y,1/2-z
1/2-x,1/2+y,1/2+z
x,1/2-y,z
loop_
_atom_site_type_symbol
_atom_site_label
_atom_site_fract_x
_atom_site_fract_y
_atom_site_fract_z
Si Si1 0.317786 0.417934 0.272708
Si Si2 0.098303 0.920262 0.900079
Si Si3 0.271274 0.580049 0.107557
Si Si4 0.225775 0.081084 0.384584
Si Si5 0.999153 0.585115 0.901875
Si Si6 0.679468 0.578330 0.283242
Si Si7 0.100016 0.421222 0.107070
O O1 0.321369 0.250000 0.245015
O O2 0.364437 0.474665 0.322130
O O3 0.309986 0.502789 0.171987
O O4 0.277203 0.448153 0.348918
O O5 0.106489 0.750000 0.925711
O O6 0.048044 0.945335 0.848751
O O7 0.103840 0.012485 0.998716
O O8 0.278746 0.750000 0.119473
O O9 0.220668 0.536184 0.143758
O O10 0.277054 0.529672 0.996345
O O11 0.212625 0.250000 0.372310
O O12 0.190278 0.983453 0.324164
O O13 0.997380 0.750000 0.935506
O O14 0.951243 0.549947 0.846810
O O15 0.000000 0.500000 0.000000
O O16 0.671634 0.750000 0.277095
O O17 0.633925 0.501851 0.320444
O O18 0.111596 0.250000 0.102513
#
# Coordination Sequence:
#
# PCOD8250153 Si02
#       7
#     8   8   8   8   8   8   8
#     4   9  17  28  44  64  85 110 141 171 204 246
#     4   9  16  28  44  62  87 117 143 171 207 249
#     4   9  18  31  45  61  85 113 141 173 209 247
#     4   9  17  30  44  60  84 112 140 172 205 241
#     4   8  15  26  40  59  84 112 141 170 205 247
#     4  10  19  30  44  63  85 112 143 172 206 250
#     4  10  18  27  41  63  88 114 143 175 208 246
#
# _framework density 15.223954000000001
#
# number of rings (size 3 to 8) (size 9 to 14) (size 15 to 20)
#    0.000    2.857    0.000    1.714    0.000    4.571 
#    0.000    2.857    0.000    0.000    0.000    1.000 
#    0.000    0.000    0.000    0.000    0.000    0.000 
#
# Total GULP energy -693958.622610 kJ/mol
# GULP energy per Si atom -12392.118261 kJ/mol
# Density = 1.518930 g / cm^3
# Si number density = 15.223954 Si / 1000 Ang^3
#
#
#
# Elastic Constant Matrix: (Units=GPa)
#
#
# Indices 1 2 3 4 5 6 
#
# 1 130.7020 47.9503 61.1074 0.0000 0.0000 0.0000
# 2 47.9503 53.8622 40.6192 0.0000 0.0000 0.0000
# 3 61.1074 40.6192 102.9757 0.0000 0.0000 0.0000
# 4 0.0000 0.0000 0.0000 25.3100 0.0000 0.0000
# 5 0.0000 0.0000 0.0000 0.0000 22.5669 0.0000
# 6 0.0000 0.0000 0.0000 0.0000 0.0000 20.8743
#
#
#
# Elastic Compliance Matrix: (Units=1/GPa)
#
#
# Indices 1 2 3 4 5 6 
#
# 1 0.012593 -0.007936 -0.004342 0.000000 0.000000 0.000000
# 2 -0.007936 0.031428 -0.007688 0.000000 0.000000 0.000000
# 3 -0.004342 -0.007688 0.015320 0.000000 0.000000 0.000000
# 4 0.000000 0.000000 0.000000 0.039510 0.000000 0.000000
# 5 0.000000 0.000000 0.000000 0.000000 0.044313 0.000000
# 6 0.000000 0.000000 0.000000 0.000000 0.000000 0.047906
#
#
# Mechanical properties :
#
#
# Convention : Reuss Voigt Hill
#
# Bulk Modulus (GPa) = 51.52148 65.21038 58.36593
# Shear Modulus (GPa) = 21.05521 22.94112 21.99816
#
# Velocity S-wave (km/s) = 3.72295 3.88610 3.80540
# Velocity P-wave (km/s) = 7.23853 7.94121 7.59800
#
# Compressibility (1/GPa) = 0.01940938
#
# Stress axis : x y z
#
# Youngs Moduli (GPa) = 79.41228 31.81857 65.27280
#
# Poissons Ratio (x) = 0.25250 0.28344
# Poissons Ratio (y) = 0.63019 0.50181
# Poissons Ratio (z) = 0.34483 0.24462
#
# Static dielectric constant tensor:
#      x y z
#    x 3.421810 0.000000 0.000000 
#    y 0.000000 2.966030 0.000000 
#    z 0.000000 0.000000 2.716880 
# 
# 
# High freq. dielectric constant tensor:
#      x y z
#    x 1.586940 0.000000 0.000000 
#    y 0.000000 1.590620 0.000000 
#    z 0.000000 0.000000 1.548860 
# 
# From -- ./inp_files/21172.got.cif
#   From: 2010.03.12/outbox.cif.g09.slc.cpg/sg62_11_cif.got.tgz:21172.got - 2010.04.10 19:12:36.
