data_PCOD8250092
_publ_section_title
;
Structure prediction by ZEFSAII (Michael W. Deem and Ramdas Pophale) SiO2 
 PCOD8250092
Probable space group: P N M A
;
_chemical_formula_sum "Si O2"
_cell_formula_units_Z 64
_cell_length_a 15.518244
_cell_length_b 8.740571
_cell_length_c 23.865043
_cell_angle_alpha 90.000000
_cell_angle_beta 90.000000
_cell_angle_gamma 90.000000
_cell_volume 3237.014184
_symmetry_space_group_name_H-M "P N M A"
_symmetry_group_IT_number 62
_symmetry_cell_setting 'orthorhombic'
loop_
_space_group_symop_operation_xyz
x,y,z
1/2-x,-y,1/2+z
1/2+x,1/2-y,1/2-z
-x,1/2+y,-z
-x,-y,-z
1/2+x,y,1/2-z
1/2-x,1/2+y,1/2+z
x,1/2-y,z
loop_
_atom_site_type_symbol
_atom_site_label
_atom_site_fract_x
_atom_site_fract_y
_atom_site_fract_z
Si Si1 0.153830 0.431528 0.747527
Si Si2 0.084678 0.070151 0.865147
Si Si3 0.349626 0.068302 0.751038
Si Si4 0.589917 0.431765 0.870498
Si Si5 0.091337 0.430086 0.140087
Si Si6 0.742115 0.429763 0.553532
Si Si7 0.099964 0.568535 0.373678
Si Si8 0.242588 0.930983 0.066776
O O1 0.152851 0.250000 0.750888
O O2 0.109921 0.495171 0.803840
O O3 0.251928 0.487082 0.743281
O O4 0.104169 0.493585 0.692774
O O5 0.065957 0.250000 0.863521
O O6 0.161884 0.031457 0.907089
O O7 0.999379 0.983624 0.886497
O O8 0.360388 0.250000 0.744819
O O9 0.381657 0.008640 0.811200
O O10 0.407261 0.987726 0.704033
O O11 0.593070 0.250000 0.868437
O O12 0.495828 0.486719 0.892059
O O13 0.664390 0.493247 0.911777
O O14 0.099592 0.250000 0.136472
O O15 0.168871 0.502631 0.105729
O O16 0.748846 0.250000 0.541335
O O17 0.829191 0.494219 0.582770
O O18 0.727905 0.518448 0.496330
O O19 0.107863 0.750000 0.372652
O O20 0.238484 0.750000 0.071621
#
# Coordination Sequence:
#
# PCOD8250092 Si02
#       8
#     8   8   8   8   8   8   8   8
#     4   9  15  29  58  91 114 142 188 233 275 333
#     4  10  20  37  62  88 114 149 190 234 284 346
#     4  10  17  33  62  90 116 149 189 231 280 343
#     4   9  17  30  54  87 116 145 186 233 274 329
#     4  12  25  39  57  85 119 153 189 238 294 342
#     4  10  21  38  60  87 116 146 190 243 292 338
#     4   9  17  32  59  90 117 148 188 233 281 339
#     4  11  23  40  60  80 110 155 202 241 284 340
#
# _framework density 19.771305999999999
#
# number of rings (size 3 to 8) (size 9 to 14) (size 15 to 20)
#    0.000    2.000    2.500    2.250    0.000    3.500 
#    0.000    1.250    0.000    1.500    0.000    0.000 
#    0.000    0.000    0.000    0.000    0.000    0.000 
#
# Total GULP energy -793590.041963 kJ/mol
# GULP energy per Si atom -12399.844406 kJ/mol
# Density = 1.972631 g / cm^3
# Si number density = 19.771306 Si / 1000 Ang^3
#
#
#
# Elastic Constant Matrix: (Units=GPa)
#
#
# Indices 1 2 3 4 5 6 
#
# 1 133.1859 29.9379 30.6709 0.0000 0.0000 0.0000
# 2 29.9379 46.0890 29.1027 0.0000 0.0000 0.0000
# 3 30.6709 29.1027 96.9331 0.0000 0.0000 0.0000
# 4 0.0000 0.0000 0.0000 22.7295 0.0000 0.0000
# 5 0.0000 0.0000 0.0000 0.0000 10.7358 0.0000
# 6 0.0000 0.0000 0.0000 0.0000 0.0000 9.2308
#
#
#
# Elastic Compliance Matrix: (Units=1/GPa)
#
#
# Indices 1 2 3 4 5 6 
#
# 1 0.008930 -0.004956 -0.001338 0.000000 0.000000 0.000000
# 2 -0.004956 0.029523 -0.007296 0.000000 0.000000 0.000000
# 3 -0.001338 -0.007296 0.012930 0.000000 0.000000 0.000000
# 4 0.000000 0.000000 0.000000 0.043996 0.000000 0.000000
# 5 0.000000 0.000000 0.000000 0.000000 0.093147 0.000000
# 6 0.000000 0.000000 0.000000 0.000000 0.000000 0.108333
#
#
# Mechanical properties :
#
#
# Convention : Reuss Voigt Hill
#
# Bulk Modulus (GPa) = 41.31441 50.62567 45.97004
# Shear Modulus (GPa) = 15.05541 20.97231 18.01386
#
# Velocity S-wave (km/s) = 2.76248 3.26044 3.02174
# Velocity P-wave (km/s) = 5.57822 6.31151 5.95616
#
# Compressibility (1/GPa) = 0.02420463
#
# Stress axis : x y z
#
# Youngs Moduli (GPa) = 111.97669 33.87140 77.33900
#
# Poissons Ratio (x) = 0.16788 0.10345
# Poissons Ratio (y) = 0.55498 0.56425
# Poissons Ratio (z) = 0.14979 0.24712
#
# Static dielectric constant tensor:
#      x y z
#    x 3.922650 0.000000 0.000000 
#    y 0.000000 3.093090 0.000000 
#    z 0.000000 0.000000 3.641470 
# 
# 
# High freq. dielectric constant tensor:
#      x y z
#    x 1.791890 0.000000 0.000000 
#    y 0.000000 1.719490 0.000000 
#    z 0.000000 0.000000 1.770990 
# 
# From -- ./inp_files/29874.got.cif
#   From: 2010.03.12/outbox.cif.g09.slc.cpg/sg62_15_cif.got.tgz:29874.got - 2010.04.10 19:12:36.
