data_PCOD8250028
_publ_section_title
;
Structure prediction by ZEFSAII (Michael W. Deem and Ramdas Pophale) SiO2 
 PCOD8250028
Probable space group: P N M A
;
_chemical_formula_sum "Si O2"
_cell_formula_units_Z 64
_cell_length_a 14.261106
_cell_length_b 8.986458
_cell_length_c 30.231592
_cell_angle_alpha 90.000000
_cell_angle_beta 90.000000
_cell_angle_gamma 90.000000
_cell_volume 3874.385000
_symmetry_space_group_name_H-M "P N M A"
_symmetry_group_IT_number 62
_symmetry_cell_setting 'orthorhombic'
loop_
_space_group_symop_operation_xyz
x,y,z
1/2-x,-y,1/2+z
1/2+x,1/2-y,1/2-z
-x,1/2+y,-z
-x,-y,-z
1/2+x,y,1/2-z
1/2-x,1/2+y,1/2+z
x,1/2-y,z
loop_
_atom_site_type_symbol
_atom_site_label
_atom_site_fract_x
_atom_site_fract_y
_atom_site_fract_z
Si Si1 0.111152 0.574276 0.042368
Si Si2 0.237619 0.074570 0.281518
Si Si3 0.167966 0.083570 0.860730
Si Si4 0.978202 0.083118 0.812986
Si Si5 0.103418 0.425149 0.953774
Si Si6 0.307327 0.424925 0.632087
Si Si7 0.522109 0.076078 0.225672
Si Si8 0.345402 0.574523 0.199728
O O1 0.118529 0.750000 0.037157
O O2 0.178506 0.514173 0.082203
O O3 0.004540 0.523068 0.052458
O O4 0.147846 0.501741 0.997000
O O5 0.249272 0.250000 0.274475
O O6 0.128760 0.026132 0.282193
O O7 0.276397 0.029227 0.329505
O O8 0.291170 0.992342 0.241965
O O9 0.211256 0.250000 0.856229
O O10 0.167738 0.027999 0.911707
O O11 0.058811 0.090153 0.849064
O O12 0.958698 0.250000 0.794102
O O13 0.886651 0.010298 0.835296
O O14 0.010209 0.972782 0.774398
O O15 0.107029 0.250000 0.960391
O O16 0.325257 0.250000 0.630326
O O17 0.207239 0.464942 0.653642
O O18 0.508267 0.250000 0.219287
O O19 0.449348 0.992803 0.193087
O O20 0.351191 0.750000 0.207802
#
# Coordination Sequence:
#
# PCOD8250028 Si02
#       8
#     8   8   8   8   8   8   8   8
#     4   9  16  29  47  68  97 129 158 192 237 286
#     4  11  23  35  48  70 100 130 163 203 247 292
#     4  10  19  31  50  72  96 132 169 201 237 282
#     4  10  17  29  49  70  95 130 168 201 234 279
#     4   9  17  29  45  70 100 127 158 195 236 285
#     4   9  17  30  49  72  96 127 167 203 234 279
#     4  11  23  36  47  67 101 133 161 204 250 289
#     4  11  21  33  52  73  94 127 170 207 240 285
#
# _framework density 16.518751000000002
#
# number of rings (size 3 to 8) (size 9 to 14) (size 15 to 20)
#    0.000    2.000    3.750    1.125    0.000    2.000 
#    0.000    1.875    0.000    0.000    0.000    0.875 
#    0.000    0.000    0.000    0.000    0.000    0.000 
#
# Total GULP energy -793354.178783 kJ/mol
# GULP energy per Si atom -12396.159043 kJ/mol
# Density = 1.648115 g / cm^3
# Si number density = 16.518751 Si / 1000 Ang^3
#
#
#
# Elastic Constant Matrix: (Units=GPa)
#
#
# Indices 1 2 3 4 5 6 
#
# 1 70.4988 29.3647 25.3454 0.0000 0.0000 0.0000
# 2 29.3647 48.5487 27.8103 0.0000 0.0000 0.0000
# 3 25.3454 27.8103 100.3985 0.0000 0.0000 0.0000
# 4 0.0000 0.0000 0.0000 22.5839 0.0000 0.0000
# 5 0.0000 0.0000 0.0000 0.0000 23.4795 0.0000
# 6 0.0000 0.0000 0.0000 0.0000 0.0000 22.9441
#
#
#
# Elastic Compliance Matrix: (Units=1/GPa)
#
#
# Indices 1 2 3 4 5 6 
#
# 1 0.019276 -0.010545 -0.001945 0.000000 0.000000 0.000000
# 2 -0.010545 0.030251 -0.005717 0.000000 0.000000 0.000000
# 3 -0.001945 -0.005717 0.012035 0.000000 0.000000 0.000000
# 4 0.000000 0.000000 0.000000 0.044279 0.000000 0.000000
# 5 0.000000 0.000000 0.000000 0.000000 0.042590 0.000000
# 6 0.000000 0.000000 0.000000 0.000000 0.000000 0.043584
#
#
# Mechanical properties :
#
#
# Convention : Reuss Voigt Hill
#
# Bulk Modulus (GPa) = 39.76604 42.72075 41.24339
# Shear Modulus (GPa) = 21.11360 22.92987 22.02174
#
# Velocity S-wave (km/s) = 3.57901 3.72978 3.65517
# Velocity P-wave (km/s) = 6.41909 6.66832 6.54489
#
# Compressibility (1/GPa) = 0.02514709
#
# Stress axis : x y z
#
# Youngs Moduli (GPa) = 51.87731 33.05664 83.09003
#
# Poissons Ratio (x) = 0.34858 0.16164
# Poissons Ratio (y) = 0.54704 0.47507
# Poissons Ratio (z) = 0.10092 0.18900
#
# Static dielectric constant tensor:
#      x y z
#    x 3.070470 0.000000 0.000000 
#    y 0.000000 2.997070 0.000000 
#    z 0.000000 0.000000 3.167790 
# 
# 
# High freq. dielectric constant tensor:
#      x y z
#    x 1.611870 0.000000 0.000000 
#    y 0.000000 1.627110 0.000000 
#    z 0.000000 0.000000 1.627580 
# 
# From -- ./inp_files/32727.got.cif
#   From: 2010.03.12/outbox.cif.g09.slc.cpg/sg62_17_cif.got.tgz:32727.got - 2010.04.10 19:12:36.
