data_PCOD8250131
_publ_section_title
;
Structure prediction by ZEFSAII (Michael W. Deem and Ramdas Pophale) SiO2 
 PCOD8250131
Probable space group: P N M A
;
_chemical_formula_sum "Si O2"
_cell_formula_units_Z 64
_cell_length_a 26.829437
_cell_length_b 8.968144
_cell_length_c 18.319711
_cell_angle_alpha 90.000000
_cell_angle_beta 90.000000
_cell_angle_gamma 90.000000
_cell_volume 4407.910325
_symmetry_space_group_name_H-M "P N M A"
_symmetry_group_IT_number 62
_symmetry_cell_setting 'orthorhombic'
loop_
_space_group_symop_operation_xyz
x,y,z
1/2-x,-y,1/2+z
1/2+x,1/2-y,1/2-z
-x,1/2+y,-z
-x,-y,-z
1/2+x,y,1/2-z
1/2-x,1/2+y,1/2+z
x,1/2-y,z
loop_
_atom_site_type_symbol
_atom_site_label
_atom_site_fract_x
_atom_site_fract_y
_atom_site_fract_z
Si Si1 0.246133 0.925922 0.415620
Si Si2 0.203042 0.575174 0.790039
Si Si3 0.790013 0.079183 0.790840
Si Si4 0.351418 0.923896 0.168735
Si Si5 0.943545 0.574702 0.425618
Si Si6 0.944918 0.426410 0.577228
Si Si7 0.353221 0.077035 0.836156
Si Si8 0.758279 0.580398 0.433463
O O1 0.251326 0.750000 0.408565
O O2 0.193425 0.985214 0.383190
O O3 0.291378 0.000528 0.369995
O O4 0.250184 0.970609 0.499757
O O5 0.196726 0.750000 0.800235
O O6 0.251514 0.536640 0.742890
O O7 0.155796 0.511631 0.744914
O O8 0.773009 0.250000 0.771668
O O9 0.843295 0.047826 0.750879
O O10 0.789438 0.060283 0.878468
O O11 0.350126 0.750000 0.187083
O O12 0.404651 0.974264 0.136501
O O13 0.308510 0.962884 0.109875
O O14 0.940205 0.750000 0.440443
O O15 0.928879 0.493592 0.500044
O O16 0.999061 0.525384 0.400349
O O17 0.942041 0.250000 0.570164
O O18 0.905923 0.492196 0.637446
O O19 0.357093 0.250000 0.853062
O O20 0.761407 0.750000 0.462154
#
# Coordination Sequence:
#
# PCOD8250131 Si02
#       8
#     8   8   8   8   8   8   8   8
#     4  10  18  27  39  55  78 105 129 156 193 232
#     4  10  18  27  40  57  75  97 130 166 194 227
#     4   8  15  28  41  54  77 105 128 156 196 233
#     4   9  17  29  41  54  78 109 135 160 197 236
#     4   9  17  27  39  56  79 106 133 164 199 228
#     4   9  16  26  40  58  79 103 135 169 193 221
#     4   8  14  25  40  55  73 102 134 158 185 223
#     4   9  16  25  38  55  75 100 130 160 187 224
#
# _framework density 14.519351
#
# number of rings (size 3 to 8) (size 9 to 14) (size 15 to 20)
#    0.000    3.000    0.000    3.750    0.000    2.500 
#    0.000    2.500    0.000    0.000    0.000    0.000 
#    0.000    1.000    0.000    1.750    0.000    2.500 
#
# Total GULP energy -792975.525299 kJ/mol
# GULP energy per Si atom -12390.242583 kJ/mol
# Density = 1.448630 g / cm^3
# Si number density = 14.519351 Si / 1000 Ang^3
#
#
#
# Elastic Constant Matrix: (Units=GPa)
#
#
# Indices 1 2 3 4 5 6 
#
# 1 87.0149 22.8566 54.5028 0.0000 0.0000 0.0000
# 2 22.8566 47.2552 33.4997 0.0000 0.0000 0.0000
# 3 54.5028 33.4997 94.5976 0.0000 0.0000 0.0000
# 4 0.0000 0.0000 0.0000 23.9606 0.0000 0.0000
# 5 0.0000 0.0000 0.0000 0.0000 27.5935 0.0000
# 6 0.0000 0.0000 0.0000 0.0000 0.0000 11.7332
#
#
#
# Elastic Compliance Matrix: (Units=1/GPa)
#
#
# Indices 1 2 3 4 5 6 
#
# 1 0.018098 -0.001818 -0.009783 0.000000 0.000000 0.000000
# 2 -0.001818 0.028438 -0.009023 0.000000 0.000000 0.000000
# 3 -0.009783 -0.009023 0.019403 0.000000 0.000000 0.000000
# 4 0.000000 0.000000 0.000000 0.041735 0.000000 0.000000
# 5 0.000000 0.000000 0.000000 0.000000 0.036240 0.000000
# 6 0.000000 0.000000 0.000000 0.000000 0.000000 0.085228
#
#
# Mechanical properties :
#
#
# Convention : Reuss Voigt Hill
#
# Bulk Modulus (GPa) = 40.50291 50.06509 45.28400
# Shear Modulus (GPa) = 17.94554 20.52470 19.23512
#
# Velocity S-wave (km/s) = 3.51946 3.76388 3.64372
# Velocity P-wave (km/s) = 6.66872 7.31065 6.99705
#
# Compressibility (1/GPa) = 0.02468958
#
# Stress axis : x y z
#
# Youngs Moduli (GPa) = 55.25565 35.16468 51.53841
#
# Poissons Ratio (x) = 0.06394 0.50421
# Poissons Ratio (y) = 0.10046 0.46503
# Poissons Ratio (z) = 0.54058 0.31729
#
# Static dielectric constant tensor:
#      x y z
#    x 2.947810 0.000000 0.000000 
#    y 0.000000 2.694610 0.000000 
#    z 0.000000 0.000000 2.909630 
# 
# 
# High freq. dielectric constant tensor:
#      x y z
#    x 1.524510 0.000000 0.000000 
#    y 0.000000 1.548140 0.000000 
#    z 0.000000 0.000000 1.543920 
# 
# From -- ./inp_files/24995.got.cif
#   From: 2010.03.12/outbox.cif.g09.slc.cpg/sg62_13_cif.got.tgz:24995.got - 2010.04.10 19:12:36.
