data_PCOD8250145
_publ_section_title
;
Structure prediction by ZEFSAII (Michael W. Deem and Ramdas Pophale) SiO2 
 PCOD8250145
Probable space group: P N M A
;
_chemical_formula_sum "Si O2"
_cell_formula_units_Z 64
_cell_length_a 26.121522
_cell_length_b 8.887799
_cell_length_c 18.565420
_cell_angle_alpha 90.000000
_cell_angle_beta 90.000000
_cell_angle_gamma 90.000000
_cell_volume 4310.200579
_symmetry_space_group_name_H-M "P N M A"
_symmetry_group_IT_number 62
_symmetry_cell_setting 'orthorhombic'
loop_
_space_group_symop_operation_xyz
x,y,z
1/2-x,-y,1/2+z
1/2+x,1/2-y,1/2-z
-x,1/2+y,-z
-x,-y,-z
1/2+x,y,1/2-z
1/2-x,1/2+y,1/2+z
x,1/2-y,z
loop_
_atom_site_type_symbol
_atom_site_label
_atom_site_fract_x
_atom_site_fract_y
_atom_site_fract_z
Si Si1 0.643254 0.572801 0.833231
Si Si2 0.741248 0.576080 0.922642
Si Si3 0.301309 0.922717 0.286289
Si Si4 0.441768 0.425978 0.926717
Si Si5 0.143098 0.423016 0.342837
Si Si6 0.790829 0.921965 0.784004
Si Si7 0.260582 0.072354 0.917958
Si Si8 0.559317 0.073529 0.924651
O O1 0.636236 0.750000 0.836095
O O2 0.690107 0.513673 0.883305
O O3 0.654248 0.523208 0.750348
O O4 0.591216 0.495996 0.859314
O O5 0.731935 0.750000 0.935782
O O6 0.790992 0.548253 0.870636
O O7 0.750157 0.506615 0.001739
O O8 0.316311 0.750000 0.274351
O O9 0.291087 0.958887 0.371012
O O10 0.247223 0.956770 0.249192
O O11 0.434088 0.250000 0.936844
O O12 0.407886 0.483868 0.860202
O O13 0.500293 0.468555 0.910216
O O14 0.422183 0.503868 0.999828
O O15 0.133671 0.250000 0.363012
O O16 0.154724 0.441062 0.256564
O O17 0.190922 0.482416 0.388355
O O18 0.770260 0.750000 0.771012
O O19 0.273501 0.250000 0.915845
O O20 0.568325 0.250000 0.927971
#
# Coordination Sequence:
#
# PCOD8250145 Si02
#       8
#     8   8   8   8   8   8   8   8
#     4  10  18  28  43  59  80 111 139 165 201 242
#     4   8  14  25  40  57  77 103 135 165 196 236
#     4   9  16  25  38  57  80 105 135 169 201 238
#     4  10  20  32  44  59  82 109 134 165 205 243
#     4  10  18  27  41  59  80 108 140 171 201 238
#     4   8  15  27  40  55  77 105 136 170 205 238
#     4   9  16  26  41  59  80 108 139 171 206 241
#     4  10  20  32  45  61  80 103 136 174 203 233
#
# _framework density 14.848497
#
# number of rings (size 3 to 8) (size 9 to 14) (size 15 to 20)
#    0.000    2.750    0.000    3.375    0.000    3.500 
#    0.000    2.500    0.000    0.000    0.000    0.000 
#    0.000    1.000    0.000    2.000    0.000    2.625 
#
# Total GULP energy -793023.686198 kJ/mol
# GULP energy per Si atom -12390.995097 kJ/mol
# Density = 1.481470 g / cm^3
# Si number density = 14.848497 Si / 1000 Ang^3
#
#
#
# Elastic Constant Matrix: (Units=GPa)
#
#
# Indices 1 2 3 4 5 6 
#
# 1 64.4767 28.6886 43.0583 0.0000 0.0000 0.0000
# 2 28.6886 51.6111 26.6946 0.0000 0.0000 0.0000
# 3 43.0583 26.6946 98.2321 0.0000 0.0000 0.0000
# 4 0.0000 0.0000 0.0000 18.8565 0.0000 0.0000
# 5 0.0000 0.0000 0.0000 0.0000 24.3064 0.0000
# 6 0.0000 0.0000 0.0000 0.0000 0.0000 21.5656
#
#
#
# Elastic Compliance Matrix: (Units=1/GPa)
#
#
# Indices 1 2 3 4 5 6 
#
# 1 0.025577 -0.009795 -0.008549 0.000000 0.000000 0.000000
# 2 -0.009795 0.026296 -0.002852 0.000000 0.000000 0.000000
# 3 -0.008549 -0.002852 0.014703 0.000000 0.000000 0.000000
# 4 0.000000 0.000000 0.000000 0.053032 0.000000 0.000000
# 5 0.000000 0.000000 0.000000 0.000000 0.041141 0.000000
# 6 0.000000 0.000000 0.000000 0.000000 0.000000 0.046370
#
#
# Mechanical properties :
#
#
# Convention : Reuss Voigt Hill
#
# Bulk Modulus (GPa) = 41.35399 45.68922 43.52161
# Shear Modulus (GPa) = 19.41186 20.67092 20.04139
#
# Velocity S-wave (km/s) = 3.61962 3.73516 3.67785
# Velocity P-wave (km/s) = 6.73647 7.03129 6.88545
#
# Compressibility (1/GPa) = 0.02418146
#
# Stress axis : x y z
#
# Youngs Moduli (GPa) = 39.09708 38.02880 68.01525
#
# Poissons Ratio (x) = 0.37251 0.58149
# Poissons Ratio (y) = 0.38297 0.19399
# Poissons Ratio (z) = 0.33426 0.10847
#
# Static dielectric constant tensor:
#      x y z
#    x 2.698690 0.000000 0.000000 
#    y 0.000000 2.877220 0.000000 
#    z 0.000000 0.000000 3.191970 
# 
# 
# High freq. dielectric constant tensor:
#      x y z
#    x 1.529430 0.000000 0.000000 
#    y 0.000000 1.573940 0.000000 
#    z 0.000000 0.000000 1.561070 
# 
# From -- ./inp_files/24913.got.cif
#   From: 2010.03.12/outbox.cif.g09.slc.cpg/sg62_13_cif.got.tgz:24913.got - 2010.04.10 19:12:36.
