data_PCOD8251234
_publ_section_title
;
Structure prediction by ZEFSAII (Michael W. Deem and Ramdas Pophale) SiO2 
 PCOD8251234
Probable space group: P N M A
;
_chemical_formula_sum "Si O2"
_cell_formula_units_Z 48
_cell_length_a 18.241463
_cell_length_b 14.129298
_cell_length_c 10.122827
_cell_angle_alpha 90.000000
_cell_angle_beta 90.000000
_cell_angle_gamma 90.000000
_cell_volume 2609.047983
_symmetry_space_group_name_H-M "P N M A"
_symmetry_group_IT_number 62
_symmetry_cell_setting 'orthorhombic'
loop_
_space_group_symop_operation_xyz
x,y,z
1/2-x,-y,1/2+z
1/2+x,1/2-y,1/2-z
-x,1/2+y,-z
-x,-y,-z
1/2+x,y,1/2-z
1/2-x,1/2+y,1/2+z
x,1/2-y,z
loop_
_atom_site_type_symbol
_atom_site_label
_atom_site_fract_x
_atom_site_fract_y
_atom_site_fract_z
Si Si1 0.646906 0.932631 0.849728
Si Si2 0.876553 0.138774 0.645866
Si Si3 0.490243 0.510960 0.846999
Si Si4 0.794028 0.471650 0.858724
Si Si5 0.283811 0.353148 0.398431
Si Si6 0.635872 0.141153 0.236265
O O1 0.571664 0.975966 0.789160
O O2 0.706334 0.016111 0.859971
O O3 0.675948 0.857782 0.742734
O O4 0.636540 0.881553 0.990995
O O5 0.885360 0.250000 0.670098
O O6 0.810349 0.095950 0.732940
O O7 0.949224 0.084593 0.701648
O O8 0.442120 0.604714 0.817048
O O9 0.500000 0.500000 0.000000
O O10 0.836718 0.572327 0.854341
O O11 0.817757 0.426032 0.997313
O O12 0.297668 0.250000 0.458371
O O13 0.196444 0.369083 0.379431
O O14 0.628847 0.250000 0.285188
#
# Coordination Sequence:
#
# PCOD8251234 Si02
#       6
#     8   8   8   8   8   8
#     4  10  19  34  54  78 103 135 174 215 252 302
#     4  10  20  35  54  77 106 139 170 208 260 312
#     4   9  18  32  52  77 104 133 168 213 256 297
#     4  10  19  35  53  75 106 136 170 215 260 302
#     4  10  19  32  53  79 104 135 174 215 255 302
#     4   9  19  34  52  74 104 140 175 210 257 313
#
# _framework density 18.397514999999999
#
# number of rings (size 3 to 8) (size 9 to 14) (size 15 to 20)
#    0.000    2.333    0.000    5.000    0.000    4.000 
#    0.000    5.000    0.000    3.000    0.000    0.000 
#    0.000    0.000    0.000    0.000    0.000    0.000 
#
# Total GULP energy -594783.130528 kJ/mol
# GULP energy per Si atom -12391.315219 kJ/mol
# Density = 1.835564 g / cm^3
# Si number density = 18.397515 Si / 1000 Ang^3
#
#
#
# Elastic Constant Matrix: (Units=GPa)
#
#
# Indices 1 2 3 4 5 6 
#
# 1 117.0698 41.4034 21.0493 0.0000 0.0000 0.0000
# 2 41.4034 144.1133 39.2202 0.0000 0.0000 0.0000
# 3 21.0493 39.2202 73.2269 0.0000 0.0000 0.0000
# 4 0.0000 0.0000 0.0000 29.6325 0.0000 0.0000
# 5 0.0000 0.0000 0.0000 0.0000 15.1490 0.0000
# 6 0.0000 0.0000 0.0000 0.0000 0.0000 15.3756
#
#
#
# Elastic Compliance Matrix: (Units=1/GPa)
#
#
# Indices 1 2 3 4 5 6 
#
# 1 0.009648 -0.002361 -0.001509 0.000000 0.000000 0.000000
# 2 -0.002361 0.008701 -0.003981 0.000000 0.000000 0.000000
# 3 -0.001509 -0.003981 0.016222 0.000000 0.000000 0.000000
# 4 0.000000 0.000000 0.000000 0.033747 0.000000 0.000000
# 5 0.000000 0.000000 0.000000 0.000000 0.066011 0.000000
# 6 0.000000 0.000000 0.000000 0.000000 0.000000 0.065038
#
#
# Mechanical properties :
#
#
# Convention : Reuss Voigt Hill
#
# Bulk Modulus (GPa) = 52.99809 59.75063 56.37436
# Shear Modulus (GPa) = 22.58767 27.54722 25.06744
#
# Velocity S-wave (km/s) = 3.50774 3.87374 3.69527
# Velocity P-wave (km/s) = 6.72870 7.24954 6.99397
#
# Compressibility (1/GPa) = 0.01886860
#
# Stress axis : x y z
#
# Youngs Moduli (GPa) = 103.64518 114.93020 61.64344
#
# Poissons Ratio (x) = 0.27139 0.09300
# Poissons Ratio (y) = 0.24474 0.24543
# Poissons Ratio (z) = 0.15637 0.45759
#
# Static dielectric constant tensor:
#      x y z
#    x 4.933000 0.000000 0.000000 
#    y 0.000000 3.518080 0.000000 
#    z 0.000000 0.000000 3.168650 
# 
# 
# High freq. dielectric constant tensor:
#      x y z
#    x 1.712070 0.000000 0.000000 
#    y 0.000000 1.715230 0.000000 
#    z 0.000000 0.000000 1.691790 
# 
# From -- ./inp_files/7676.got.cif
#   From: 2010.03.12/outbox.cif.g09.slc.cpg/sg62_4_cif.got.tgz:7676.got - 2010.04.10 19:12:36.
