data_PCOD8251853
_publ_section_title
;
Structure prediction by ZEFSAII (Michael W. Deem and Ramdas Pophale) SiO2 
 PCOD8251853
Probable space group: P N M A
;
_chemical_formula_sum "Si O2"
_cell_formula_units_Z 64
_cell_length_a 24.649726
_cell_length_b 9.103587
_cell_length_c 15.159634
_cell_angle_alpha 90.000000
_cell_angle_beta 90.000000
_cell_angle_gamma 90.000000
_cell_volume 3401.835895
_symmetry_space_group_name_H-M "P N M A"
_symmetry_group_IT_number 62
_symmetry_cell_setting 'orthorhombic'
loop_
_space_group_symop_operation_xyz
x,y,z
1/2-x,-y,1/2+z
1/2+x,1/2-y,1/2-z
-x,1/2+y,-z
-x,-y,-z
1/2+x,y,1/2-z
1/2-x,1/2+y,1/2+z
x,1/2-y,z
loop_
_atom_site_type_symbol
_atom_site_label
_atom_site_fract_x
_atom_site_fract_y
_atom_site_fract_z
Si Si1 0.648263 0.421128 0.678299
Si Si2 0.063970 0.076257 0.679095
Si Si3 0.661213 0.418742 0.483571
Si Si4 0.611677 0.076163 0.005495
Si Si5 0.941937 0.421124 0.668078
Si Si6 0.216267 0.916679 0.535051
Si Si7 0.257271 0.419714 0.233806
Si Si8 0.648424 0.578755 0.309546
O O1 0.659359 0.250000 0.697364
O O2 0.600458 0.485018 0.740238
O O3 0.630565 0.444945 0.576293
O O4 0.704202 0.506703 0.694079
O O5 0.067596 0.250000 0.679585
O O6 0.086422 0.016439 0.586041
O O7 0.002252 0.024689 0.693307
O O8 0.656987 0.250000 0.451571
O O9 0.724179 0.459066 0.498984
O O10 0.635546 0.519871 0.407792
O O11 0.610563 0.250000 0.011440
O O12 0.673647 0.022278 0.013117
O O13 0.576447 0.012280 0.084062
O O14 0.941148 0.250000 0.642384
O O15 0.904432 0.453917 0.751770
O O16 0.201537 0.750000 0.509395
O O17 0.213694 0.940358 0.639875
O O18 0.248162 0.250000 0.257077
O O19 0.198912 0.496980 0.235021
O O20 0.662174 0.750000 0.314769
#
# Coordination Sequence:
#
# PCOD8251853 Si02
#       8
#     8   8   8   8   8   8   8   8
#     4  10  19  35  59  84 111 146 186 225 274 335
#     4   9  19  37  58  81 110 143 186 231 272 327
#     4   9  20  36  56  81 113 148 181 226 282 332
#     4  11  21  33  54  84 112 143 184 230 273 323
#     4  10  22  39  57  77 107 150 190 228 279 331
#     4   9  18  33  50  75 112 147 176 212 268 332
#     4  10  20  34  54  81 113 145 178 225 278 326
#     4  10  21  37  57  78 107 148 190 231 275 328
#
# _framework density 18.813372000000001
#
# number of rings (size 3 to 8) (size 9 to 14) (size 15 to 20)
#    0.000    2.250    1.250    2.250    1.750    3.500 
#    0.000    1.875    0.000    0.000    0.000    0.000 
#    0.000    0.000    0.000    0.000    0.000    0.000 
#
# Total GULP energy -793714.670676 kJ/mol
# GULP energy per Si atom -12401.791729 kJ/mol
# Density = 1.877055 g / cm^3
# Si number density = 18.813372 Si / 1000 Ang^3
#
#
#
# Elastic Constant Matrix: (Units=GPa)
#
#
# Indices 1 2 3 4 5 6 
#
# 1 100.2320 47.3722 63.4354 0.0000 0.0000 0.0000
# 2 47.3722 77.9522 51.5278 0.0000 0.0000 0.0000
# 3 63.4354 51.5278 116.0989 0.0000 0.0000 0.0000
# 4 0.0000 0.0000 0.0000 30.7182 0.0000 0.0000
# 5 0.0000 0.0000 0.0000 0.0000 25.4430 0.0000
# 6 0.0000 0.0000 0.0000 0.0000 0.0000 19.3688
#
#
#
# Elastic Compliance Matrix: (Units=1/GPa)
#
#
# Indices 1 2 3 4 5 6 
#
# 1 0.016988 -0.005927 -0.006651 0.000000 0.000000 0.000000
# 2 -0.005927 0.020222 -0.005737 0.000000 0.000000 0.000000
# 3 -0.006651 -0.005737 0.014794 0.000000 0.000000 0.000000
# 4 0.000000 0.000000 0.000000 0.032554 0.000000 0.000000
# 5 0.000000 0.000000 0.000000 0.000000 0.039303 0.000000
# 6 0.000000 0.000000 0.000000 0.000000 0.000000 0.051629
#
#
# Mechanical properties :
#
#
# Convention : Reuss Voigt Hill
#
# Bulk Modulus (GPa) = 65.04669 68.77268 66.90968
# Shear Modulus (GPa) = 23.01546 23.90251 23.45898
#
# Velocity S-wave (km/s) = 3.50145 3.56828 3.53502
# Velocity P-wave (km/s) = 7.14119 7.32198 7.23215
#
# Compressibility (1/GPa) = 0.01537357
#
# Stress axis : x y z
#
# Youngs Moduli (GPa) = 58.86646 49.45027 67.59597
#
# Poissons Ratio (x) = 0.29308 0.44961
# Poissons Ratio (y) = 0.34889 0.38779
# Poissons Ratio (z) = 0.39154 0.28369
#
# Static dielectric constant tensor:
#      x y z
#    x 3.428460 0.000000 0.000000 
#    y 0.000000 3.323610 0.000000 
#    z 0.000000 0.000000 3.491020 
# 
# 
# High freq. dielectric constant tensor:
#      x y z
#    x 1.720480 0.000000 0.000000 
#    y 0.000000 1.719710 0.000000 
#    z 0.000000 0.000000 1.733220 
# 
# From -- ./inp_files/20913.got.cif
#   From: 2010.03.12/outbox.cif.g09.slc.cpg/sg62_11_cif.got.tgz:20913.got - 2010.04.10 19:12:36.
