data_PCOD8251075
_publ_section_title
;
Structure prediction by ZEFSAII (Michael W. Deem and Ramdas Pophale) SiO2 
 PCOD8251075
Probable space group: P N M A
;
_chemical_formula_sum "Si O2"
_cell_formula_units_Z 56
_cell_length_a 14.768856
_cell_length_b 9.373529
_cell_length_c 19.291894
_cell_angle_alpha 90.000000
_cell_angle_beta 90.000000
_cell_angle_gamma 90.000000
_cell_volume 2670.698426
_symmetry_space_group_name_H-M "P N M A"
_symmetry_group_IT_number 62
_symmetry_cell_setting 'orthorhombic'
loop_
_space_group_symop_operation_xyz
x,y,z
1/2-x,-y,1/2+z
1/2+x,1/2-y,1/2-z
-x,1/2+y,-z
-x,-y,-z
1/2+x,y,1/2-z
1/2-x,1/2+y,1/2+z
x,1/2-y,z
loop_
_atom_site_type_symbol
_atom_site_label
_atom_site_fract_x
_atom_site_fract_y
_atom_site_fract_z
Si Si1 0.310874 0.582258 0.419584
Si Si2 0.416584 0.903950 0.011972
Si Si3 0.480122 0.085759 0.218671
Si Si4 0.516799 0.588999 0.620816
Si Si5 0.823513 0.581004 0.350291
Si Si6 0.842898 0.907900 0.636826
Si Si7 0.317913 0.586099 0.578060
O O1 0.311210 0.750000 0.406042
O O2 0.410170 0.522795 0.405312
O O3 0.242857 0.514545 0.361268
O O4 0.284305 0.548307 0.499714
O O5 0.454198 0.750000 0.034481
O O6 0.356961 0.891805 0.944400
O O7 0.360004 0.965636 0.074871
O O8 0.500000 0.000000 0.000000
O O9 0.460149 0.250000 0.197572
O O10 0.504942 0.069094 0.298332
O O11 0.567647 0.029845 0.174979
O O12 0.390447 0.990651 0.205379
O O13 0.552099 0.750000 0.606791
O O14 0.425238 0.558573 0.578919
O O15 0.815129 0.750000 0.336092
O O16 0.724670 0.508531 0.358563
O O17 0.819174 0.750000 0.667762
O O18 0.295569 0.750000 0.595584
#
# Coordination Sequence:
#
# PCOD8251075 Si02
#       7
#     8   8   8   8   8   8   8
#     4  11  23  38  61  91 119 150 192 248 304 346
#     4  10  19  31  52  83 118 153 188 234 290 344
#     4  10  22  40  61  85 116 157 198 237 285 349
#     4  10  23  43  63  82 111 155 203 245 288 345
#     4  11  22  35  57  90 123 154 189 237 298 352
#     4  10  20  36  58  86 119 154 195 238 286 350
#     4  10  22  40  62  88 117 153 200 247 291 346
#
# _framework density 20.968297
#
# number of rings (size 3 to 8) (size 9 to 14) (size 15 to 20)
#    0.000    1.714    2.857    1.286    0.000    4.571 
#    0.000    2.857    0.000    0.000    0.000    0.000 
#    0.000    0.000    0.000    0.000    0.000    0.000 
#
# Total GULP energy -694079.202931 kJ/mol
# GULP energy per Si atom -12394.271481 kJ/mol
# Density = 2.092057 g / cm^3
# Si number density = 20.968297 Si / 1000 Ang^3
#
#
#
# Elastic Constant Matrix: (Units=GPa)
#
#
# Indices 1 2 3 4 5 6 
#
# 1 95.9061 58.7033 9.1039 0.0000 0.0000 0.0000
# 2 58.7033 102.6401 20.2399 0.0000 0.0000 0.0000
# 3 9.1039 20.2399 38.8696 0.0000 0.0000 0.0000
# 4 0.0000 0.0000 0.0000 22.6880 0.0000 0.0000
# 5 0.0000 0.0000 0.0000 0.0000 25.5485 0.0000
# 6 0.0000 0.0000 0.0000 0.0000 0.0000 36.0399
#
#
#
# Elastic Compliance Matrix: (Units=1/GPa)
#
#
# Indices 1 2 3 4 5 6 
#
# 1 0.016088 -0.009426 0.001140 0.000000 0.000000 0.000000
# 2 -0.009426 0.016381 -0.006322 0.000000 0.000000 0.000000
# 3 0.001140 -0.006322 0.028752 0.000000 0.000000 0.000000
# 4 0.000000 0.000000 0.000000 0.044076 0.000000 0.000000
# 5 0.000000 0.000000 0.000000 0.000000 0.039141 0.000000
# 6 0.000000 0.000000 0.000000 0.000000 0.000000 0.027747
#
#
# Mechanical properties :
#
#
# Convention : Reuss Voigt Hill
#
# Bulk Modulus (GPa) = 31.24506 45.94556 38.59531
# Shear Modulus (GPa) = 23.57717 26.81318 25.19518
#
# Velocity S-wave (km/s) = 3.35688 3.57984 3.47015
# Velocity P-wave (km/s) = 5.47341 6.24872 5.87387
#
# Compressibility (1/GPa) = 0.03200505
#
# Stress axis : x y z
#
# Youngs Moduli (GPa) = 62.15660 61.04773 34.78043
#
# Poissons Ratio (x) = 0.57546 -0.03966
# Poissons Ratio (y) = 0.58591 0.21988
# Poissons Ratio (z) = -0.07087 0.38593
#
# Static dielectric constant tensor:
#      x y z
#    x 3.706450 0.000000 0.000000 
#    y 0.000000 3.841830 0.000000 
#    z 0.000000 0.000000 3.640980 
# 
# 
# High freq. dielectric constant tensor:
#      x y z
#    x 1.821780 0.000000 0.000000 
#    y 0.000000 1.817360 0.000000 
#    z 0.000000 0.000000 1.813360 
# 
# From -- ./inp_files/27170.got.cif
#   From: 2010.03.12/outbox.cif.g09.slc.cpg/sg62_14_cif.got.tgz:27170.got - 2010.04.10 19:12:36.
