data_PCOD8251528
_publ_section_title
;
Structure prediction by ZEFSAII (Michael W. Deem and Ramdas Pophale) SiO2 
 PCOD8251528
Probable space group: P N M A
;
_chemical_formula_sum "Si O2"
_cell_formula_units_Z 64
_cell_length_a 29.349785
_cell_length_b 8.924674
_cell_length_c 12.691027
_cell_angle_alpha 90.000000
_cell_angle_beta 90.000000
_cell_angle_gamma 90.000000
_cell_volume 3324.252878
_symmetry_space_group_name_H-M "P N M A"
_symmetry_group_IT_number 62
_symmetry_cell_setting 'orthorhombic'
loop_
_space_group_symop_operation_xyz
x,y,z
1/2-x,-y,1/2+z
1/2+x,1/2-y,1/2-z
-x,1/2+y,-z
-x,-y,-z
1/2+x,y,1/2-z
1/2-x,1/2+y,1/2+z
x,1/2-y,z
loop_
_atom_site_type_symbol
_atom_site_label
_atom_site_fract_x
_atom_site_fract_y
_atom_site_fract_z
Si Si1 0.916998 0.926752 0.890340
Si Si2 0.464786 0.075362 0.784588
Si Si3 0.886613 0.573822 0.117405
Si Si4 0.432701 0.925396 0.167956
Si Si5 0.203711 0.919735 0.945953
Si Si6 0.327454 0.420577 0.678725
Si Si7 0.697806 0.426895 0.119633
Si Si8 0.107107 0.927317 0.462030
O O1 0.910504 0.750000 0.877584
O O2 0.961338 0.983632 0.826404
O O3 0.877788 0.015256 0.829740
O O4 0.916271 0.973627 0.013883
O O5 0.460080 0.250000 0.757570
O O6 0.513799 0.039414 0.833773
O O7 0.427449 0.020802 0.869852
O O8 0.881835 0.750000 0.120030
O O9 0.911933 0.515130 0.221468
O O10 0.835452 0.511056 0.113627
O O11 0.422857 0.750000 0.153332
O O12 0.409610 0.014117 0.073950
O O13 0.199384 0.750000 0.905572
O O14 0.253810 0.983947 0.924336
O O15 0.199012 0.930912 0.070432
O O16 0.330870 0.250000 0.720494
O O17 0.300482 0.524925 0.759099
O O18 0.691538 0.250000 0.106896
O O19 0.657114 0.507984 0.058459
O O20 0.109653 0.750000 0.466903
#
# Coordination Sequence:
#
# PCOD8251528 Si02
#       8
#     8   8   8   8   8   8   8   8
#     4  10  19  33  57  85 112 145 188 236 281 335
#     4  10  21  37  58  84 115 152 193 238 289 341
#     4   9  20  38  58  83 115 151 192 236 288 343
#     4  10  22  40  59  81 117 159 192 234 291 346
#     4   9  21  38  57  82 113 148 188 232 286 343
#     4  10  19  35  56  79 109 145 184 231 281 332
#     4  11  22  37  58  85 113 147 189 234 286 343
#     4  11  23  38  57  84 115 149 195 242 284 339
#
# _framework density 19.252447
#
# number of rings (size 3 to 8) (size 9 to 14) (size 15 to 20)
#    0.000    2.000    1.250    1.875    0.000    5.000 
#    0.000    3.750    0.000    0.000    0.000    0.000 
#    0.000    0.000    0.000    0.000    0.000    0.000 
#
# Total GULP energy -793588.706696 kJ/mol
# GULP energy per Si atom -12399.823542 kJ/mol
# Density = 1.920863 g / cm^3
# Si number density = 19.252447 Si / 1000 Ang^3
#
#
#
# Elastic Constant Matrix: (Units=GPa)
#
#
# Indices 1 2 3 4 5 6 
#
# 1 88.9311 30.9990 51.1909 0.0000 0.0000 0.0000
# 2 30.9990 47.0922 43.2467 0.0000 0.0000 0.0000
# 3 51.1909 43.2467 119.2559 0.0000 0.0000 0.0000
# 4 0.0000 0.0000 0.0000 30.1154 0.0000 0.0000
# 5 0.0000 0.0000 0.0000 0.0000 20.7107 0.0000
# 6 0.0000 0.0000 0.0000 0.0000 0.0000 27.8397
#
#
#
# Elastic Compliance Matrix: (Units=1/GPa)
#
#
# Indices 1 2 3 4 5 6 
#
# 1 0.016120 -0.006382 -0.004605 0.000000 0.000000 0.000000
# 2 -0.006382 0.034364 -0.009722 0.000000 0.000000 0.000000
# 3 -0.004605 -0.009722 0.013888 0.000000 0.000000 0.000000
# 4 0.000000 0.000000 0.000000 0.033206 0.000000 0.000000
# 5 0.000000 0.000000 0.000000 0.000000 0.048284 0.000000
# 6 0.000000 0.000000 0.000000 0.000000 0.000000 0.035920
#
#
# Mechanical properties :
#
#
# Convention : Reuss Voigt Hill
#
# Bulk Modulus (GPa) = 43.56708 56.23917 49.90312
# Shear Modulus (GPa) = 21.65885 24.38935 23.02410
#
# Velocity S-wave (km/s) = 3.35773 3.56310 3.46194
# Velocity P-wave (km/s) = 6.14092 6.79724 6.47740
#
# Compressibility (1/GPa) = 0.02295311
#
# Stress axis : x y z
#
# Youngs Moduli (GPa) = 62.03402 29.09980 72.00556
#
# Poissons Ratio (x) = 0.18572 0.33160
# Poissons Ratio (y) = 0.39591 0.70006
# Poissons Ratio (z) = 0.28568 0.28292
#
# Static dielectric constant tensor:
#      x y z
#    x 3.553120 0.000000 0.000000 
#    y 0.000000 3.511450 0.000000 
#    z 0.000000 0.000000 3.805350 
# 
# 
# High freq. dielectric constant tensor:
#      x y z
#    x 1.747960 0.000000 0.000000 
#    y 0.000000 1.747960 0.000000 
#    z 0.000000 0.000000 1.756950 
# 
# From -- ./inp_files/15912.got.cif
#   From: 2010.03.12/outbox.cif.g09.slc.cpg/sg62_8_cif.got.tgz:15912.got - 2010.04.10 19:12:36.
