data_PCOD8251276
_publ_section_title
;
Structure prediction by ZEFSAII (Michael W. Deem and Ramdas Pophale) SiO2 
 PCOD8251276
Probable space group: P N M A
;
_chemical_formula_sum "Si O2"
_cell_formula_units_Z 56
_cell_length_a 23.820160
_cell_length_b 21.601238
_cell_length_c 5.525440
_cell_angle_alpha 90.000000
_cell_angle_beta 90.000000
_cell_angle_gamma 90.000000
_cell_volume 2843.087223
_symmetry_space_group_name_H-M "P N M A"
_symmetry_group_IT_number 62
_symmetry_cell_setting 'orthorhombic'
loop_
_space_group_symop_operation_xyz
x,y,z
1/2-x,-y,1/2+z
1/2+x,1/2-y,1/2-z
-x,1/2+y,-z
-x,-y,-z
1/2+x,y,1/2-z
1/2-x,1/2+y,1/2+z
x,1/2-y,z
loop_
_atom_site_type_symbol
_atom_site_label
_atom_site_fract_x
_atom_site_fract_y
_atom_site_fract_z
Si Si1 0.190547 0.181606 0.563153
Si Si2 0.759778 0.576470 0.188490
Si Si3 0.922250 0.821213 0.135317
Si Si4 0.490847 0.081692 0.749643
Si Si5 0.059651 0.542804 0.755377
Si Si6 0.666425 0.992314 0.976100
Si Si7 0.648504 0.404393 0.315310
O O1 0.212836 0.250000 0.519867
O O2 0.236274 0.148095 0.731875
O O3 0.128594 0.179417 0.677142
O O4 0.187044 0.147573 0.308806
O O5 0.777700 0.530610 0.404581
O O6 0.695299 0.565642 0.112590
O O7 0.810088 0.562961 0.001967
O O8 0.934642 0.750000 0.049898
O O9 0.977044 0.852128 0.256215
O O10 0.905971 0.868279 0.917063
O O11 0.452034 0.080126 0.505291
O O12 0.533639 0.025146 0.728334
O O13 0.457976 0.077875 0.005822
O O14 0.127021 0.533419 0.737177
O O15 0.628097 0.039111 0.140989
#
# Coordination Sequence:
#
# PCOD8251276 Si02
#       7
#     8   8   8   8   8   8   8
#     4   9  19  34  53  82 110 146 188 235 293 359
#     4  10  20  33  54  81 116 145 188 234 296 342
#     4  10  21  36  58  84 114 149 192 242 301 352
#     4  10  22  39  55  87 114 155 191 246 291 354
#     4  10  23  36  60  81 120 152 198 237 296 350
#     4  11  21  34  54  87 114 157 186 245 291 363
#     4  10  19  32  54  82 117 146 185 239 294 356
#
# _framework density 19.696897
#
# number of rings (size 3 to 8) (size 9 to 14) (size 15 to 20)
#    0.000    2.000    1.429    3.000   10.000    0.571 
#    0.000    0.000    0.000    1.714    0.000    0.000 
#    0.000    0.000    0.000    0.000    0.000    0.000 
#
# Total GULP energy -693862.818565 kJ/mol
# GULP energy per Si atom -12390.407474 kJ/mol
# Density = 1.965207 g / cm^3
# Si number density = 19.696897 Si / 1000 Ang^3
#
#
#
# Elastic Constant Matrix: (Units=GPa)
#
#
# Indices 1 2 3 4 5 6 
#
# 1 64.4096 41.2568 16.0854 0.0000 0.0000 0.0000
# 2 41.2568 107.3806 28.3967 0.0000 0.0000 0.0000
# 3 16.0854 28.3967 82.6408 0.0000 0.0000 0.0000
# 4 0.0000 0.0000 0.0000 18.6236 0.0000 0.0000
# 5 0.0000 0.0000 0.0000 0.0000 24.0271 0.0000
# 6 0.0000 0.0000 0.0000 0.0000 0.0000 24.8500
#
#
#
# Elastic Compliance Matrix: (Units=1/GPa)
#
#
# Indices 1 2 3 4 5 6 
#
# 1 0.020746 -0.007593 -0.001429 0.000000 0.000000 0.000000
# 2 -0.007593 0.013022 -0.002997 0.000000 0.000000 0.000000
# 3 -0.001429 -0.002997 0.013408 0.000000 0.000000 0.000000
# 4 0.000000 0.000000 0.000000 0.053695 0.000000 0.000000
# 5 0.000000 0.000000 0.000000 0.000000 0.041620 0.000000
# 6 0.000000 0.000000 0.000000 0.000000 0.000000 0.040241
#
#
# Mechanical properties :
#
#
# Convention : Reuss Voigt Hill
#
# Bulk Modulus (GPa) = 43.21624 47.32320 45.26972
# Shear Modulus (GPa) = 23.31174 24.74629 24.02902
#
# Velocity S-wave (km/s) = 3.44397 3.54835 3.49655
# Velocity P-wave (km/s) = 6.14840 6.39262 6.27170
#
# Compressibility (1/GPa) = 0.02313945
#
# Stress axis : x y z
#
# Youngs Moduli (GPa) = 48.20185 76.79030 74.57980
#
# Poissons Ratio (x) = 0.58307 0.10657
# Poissons Ratio (y) = 0.36600 0.22350
# Poissons Ratio (z) = 0.06888 0.23013
#
# Static dielectric constant tensor:
#      x y z
#    x 3.219560 0.000000 0.000000 
#    y 0.000000 3.588440 0.000000 
#    z 0.000000 0.000000 3.817430 
# 
# 
# High freq. dielectric constant tensor:
#      x y z
#    x 1.732340 0.000000 0.000000 
#    y 0.000000 1.748660 0.000000 
#    z 0.000000 0.000000 1.778570 
# 
# From -- ./inp_files/2290.got.cif
#   From: 2010.03.12/outbox.cif.g09.slc.cpg/sg62_2_cif.got.tgz:2290.got - 2010.04.10 19:12:36.
