data_PCOD8251831
_publ_section_title
;
Structure prediction by ZEFSAII (Michael W. Deem and Ramdas Pophale) SiO2 
 PCOD8251831
Probable space group: P N M A
;
_chemical_formula_sum "Si O2"
_cell_formula_units_Z 44
_cell_length_a 4.991346
_cell_length_b 27.059368
_cell_length_c 15.899466
_cell_angle_alpha 90.000000
_cell_angle_beta 90.000000
_cell_angle_gamma 90.000000
_cell_volume 2147.424301
_symmetry_space_group_name_H-M "P N M A"
_symmetry_group_IT_number 62
_symmetry_cell_setting 'orthorhombic'
loop_
_space_group_symop_operation_xyz
x,y,z
1/2-x,-y,1/2+z
1/2+x,1/2-y,1/2-z
-x,1/2+y,-z
-x,-y,-z
1/2+x,y,1/2-z
1/2-x,1/2+y,1/2+z
x,1/2-y,z
loop_
_atom_site_type_symbol
_atom_site_label
_atom_site_fract_x
_atom_site_fract_y
_atom_site_fract_z
Si Si1 0.803217 0.641800 0.692471
Si Si2 0.192726 0.750000 0.304169
Si Si3 0.803220 0.035833 0.196808
Si Si4 0.693645 0.691894 0.524119
Si Si5 0.202500 0.929359 0.308680
Si Si6 0.799941 0.339040 0.573233
O O1 0.597737 0.648638 0.769474
O O2 0.768972 0.587087 0.649024
O O3 0.759390 0.682738 0.621572
O O4 0.382738 0.750000 0.222587
O O5 0.260286 0.798566 0.356340
O O6 0.618171 0.036110 0.281271
O O7 0.731718 0.984434 0.149776
O O8 0.701637 0.750000 0.506733
O O9 0.404182 0.669048 0.503711
O O10 0.903021 0.665315 0.462885
O O11 0.415102 0.921219 0.233944
O O12 0.241691 0.892443 0.385865
#
# Coordination Sequence:
#
# PCOD8251831 Si02
#       6
#     8   4   8   8   8   8
#     4  10  21  39  63  87 107 141 193 234 278 350
#     4  12  22  36  58  80 106 148 198 230 252 314
#     4   8  16  32  56  83 111 139 177 234 284 321
#     4  12  24  41  57  79 118 155 179 236 299 325
#     4  10  19  35  58  84 113 149 190 231 271 326
#     4  12  23  39  55  83 116 153 188 228 286 331
#
# _framework density 20.489664999999999
#
# number of rings (size 3 to 8) (size 9 to 14) (size 15 to 20)
#    0.000    1.455    1.818    4.364    0.000    0.727 
#    0.000    1.818    0.000    0.000    0.000    0.000 
#    0.000    0.000    0.000    0.000    0.000    0.000 
#
# Total GULP energy -545570.288603 kJ/mol
# GULP energy per Si atom -12399.324741 kJ/mol
# Density = 2.044303 g / cm^3
# Si number density = 20.489665 Si / 1000 Ang^3
#
#
#
# Elastic Constant Matrix: (Units=GPa)
#
#
# Indices 1 2 3 4 5 6 
#
# 1 79.8444 17.0847 4.5906 0.0000 0.0000 0.0000
# 2 17.0847 54.9219 23.7934 0.0000 0.0000 0.0000
# 3 4.5906 23.7934 53.7289 0.0000 0.0000 0.0000
# 4 0.0000 0.0000 0.0000 18.6660 0.0000 0.0000
# 5 0.0000 0.0000 0.0000 0.0000 30.7159 0.0000
# 6 0.0000 0.0000 0.0000 0.0000 0.0000 23.5025
#
#
#
# Elastic Compliance Matrix: (Units=1/GPa)
#
#
# Indices 1 2 3 4 5 6 
#
# 1 0.013450 -0.004561 0.000871 0.000000 0.000000 0.000000
# 2 -0.004561 0.024077 -0.010272 0.000000 0.000000 0.000000
# 3 0.000871 -0.010272 0.023087 0.000000 0.000000 0.000000
# 4 0.000000 0.000000 0.000000 0.053573 0.000000 0.000000
# 5 0.000000 0.000000 0.000000 0.000000 0.032556 0.000000
# 6 0.000000 0.000000 0.000000 0.000000 0.000000 0.042549
#
#
# Mechanical properties :
#
#
# Convention : Reuss Voigt Hill
#
# Bulk Modulus (GPa) = 30.59253 31.04807 30.82030
# Shear Modulus (GPa) = 21.91885 24.11198 23.01542
#
# Velocity S-wave (km/s) = 3.27425 3.43416 3.35516
# Velocity P-wave (km/s) = 5.40902 5.55972 5.48489
#
# Compressibility (1/GPa) = 0.03268772
#
# Stress axis : x y z
#
# Youngs Moduli (GPa) = 74.34788 41.53374 43.31508
#
# Poissons Ratio (x) = 0.18944 -0.03771
# Poissons Ratio (y) = 0.33912 0.44495
# Poissons Ratio (z) = -0.06474 0.42666
#
# Static dielectric constant tensor:
#      x y z
#    x 3.858810 0.000000 0.000000 
#    y 0.000000 4.033920 0.000000 
#    z 0.000000 0.000000 3.205910 
# 
# 
# High freq. dielectric constant tensor:
#      x y z
#    x 1.823560 0.000000 0.000000 
#    y 0.000000 1.815480 0.000000 
#    z 0.000000 0.000000 1.752750 
# 
# From -- ./inp_files/16214.got.cif
#   From: 2010.03.12/outbox.cif.g09.slc.cpg/sg62_9_cif.got.tgz:16214.got - 2010.04.10 19:12:36.
