data_PCOD8251485
_publ_section_title
;
Structure prediction by ZEFSAII (Michael W. Deem and Ramdas Pophale) SiO2 
 PCOD8251485
Probable space group: P N M A
;
_chemical_formula_sum "Si O2"
_cell_formula_units_Z 56
_cell_length_a 22.487852
_cell_length_b 8.720514
_cell_length_c 14.371254
_cell_angle_alpha 90.000000
_cell_angle_beta 90.000000
_cell_angle_gamma 90.000000
_cell_volume 2818.283794
_symmetry_space_group_name_H-M "P N M A"
_symmetry_group_IT_number 62
_symmetry_cell_setting 'orthorhombic'
loop_
_space_group_symop_operation_xyz
x,y,z
1/2-x,-y,1/2+z
1/2+x,1/2-y,1/2-z
-x,1/2+y,-z
-x,-y,-z
1/2+x,y,1/2-z
1/2-x,1/2+y,1/2+z
x,1/2-y,z
loop_
_atom_site_type_symbol
_atom_site_label
_atom_site_fract_x
_atom_site_fract_y
_atom_site_fract_z
Si Si1 0.217540 0.927101 0.102703
Si Si2 0.892046 0.431256 0.785159
Si Si3 0.226969 0.574537 0.894191
Si Si4 0.649805 0.928030 0.088849
Si Si5 0.504869 0.431554 0.602045
Si Si6 0.389445 0.071082 0.284963
Si Si7 0.350543 0.931422 0.104400
O O1 0.222263 0.750000 0.128455
O O2 0.166987 0.005599 0.166850
O O3 0.283414 0.996990 0.118844
O O4 0.198395 0.951859 0.995830
O O5 0.889396 0.250000 0.800632
O O6 0.893106 0.471109 0.675470
O O7 0.950911 0.496766 0.834533
O O8 0.249051 0.750000 0.885429
O O9 0.283034 0.464662 0.878762
O O10 0.177121 0.533729 0.819084
O O11 0.645462 0.750000 0.063515
O O12 0.628635 0.025157 0.999782
O O13 0.500000 0.500000 0.500000
O O14 0.502350 0.250000 0.594290
O O15 0.565841 0.480465 0.649632
O O16 0.404412 0.250000 0.290537
O O17 0.393893 0.011494 0.178966
O O18 0.354740 0.750000 0.115976
#
# Coordination Sequence:
#
# PCOD8251485 Si02
#       7
#     8   8   8   8   8   8   8
#     4   8  14  28  51  78 108 141 173 209 262 324
#     4   9  18  33  54  78 107 144 181 220 269 323
#     4   9  18  32  52  80 114 147 177 218 275 331
#     4  10  19  33  55  83 112 143 182 225 271 327
#     4  11  23  40  60  83 111 144 183 225 273 330
#     4  11  22  37  57  81 110 146 188 233 279 326
#     4  10  20  35  55  81 113 147 182 224 277 333
#
# _framework density 19.870249000000001
#
# number of rings (size 3 to 8) (size 9 to 14) (size 15 to 20)
#    0.000    2.286    0.000    4.286    0.000    4.571 
#    0.000    3.571    0.000    5.143    0.000    0.000 
#    0.000    0.000    0.000    0.000    0.000    0.000 
#
# Total GULP energy -694344.077035 kJ/mol
# GULP energy per Si atom -12399.001376 kJ/mol
# Density = 1.982502 g / cm^3
# Si number density = 19.870249 Si / 1000 Ang^3
#
#
#
# Elastic Constant Matrix: (Units=GPa)
#
#
# Indices 1 2 3 4 5 6 
#
# 1 57.8731 25.2447 55.1718 0.0000 0.0000 0.0000
# 2 25.2447 51.9136 36.6819 0.0000 0.0000 0.0000
# 3 55.1718 36.6819 142.3473 0.0000 0.0000 0.0000
# 4 0.0000 0.0000 0.0000 31.2801 0.0000 0.0000
# 5 0.0000 0.0000 0.0000 0.0000 35.7898 0.0000
# 6 0.0000 0.0000 0.0000 0.0000 0.0000 21.8813
#
#
#
# Elastic Compliance Matrix: (Units=1/GPa)
#
#
# Indices 1 2 3 4 5 6 
#
# 1 0.029739 -0.007723 -0.009536 0.000000 0.000000 0.000000
# 2 -0.007723 0.025557 -0.003592 0.000000 0.000000 0.000000
# 3 -0.009536 -0.003592 0.011647 0.000000 0.000000 0.000000
# 4 0.000000 0.000000 0.000000 0.031969 0.000000 0.000000
# 5 0.000000 0.000000 0.000000 0.000000 0.027941 0.000000
# 6 0.000000 0.000000 0.000000 0.000000 0.000000 0.045701
#
#
# Mechanical properties :
#
#
# Convention : Reuss Voigt Hill
#
# Bulk Modulus (GPa) = 39.62117 54.03676 46.82897
# Shear Modulus (GPa) = 22.45461 26.79264 24.62363
#
# Velocity S-wave (km/s) = 3.36529 3.67601 3.52408
# Velocity P-wave (km/s) = 5.92313 6.72839 6.33856
#
# Compressibility (1/GPa) = 0.02523903
#
# Stress axis : x y z
#
# Youngs Moduli (GPa) = 33.62547 39.12839 85.85972
#
# Poissons Ratio (x) = 0.30221 0.81878
# Poissons Ratio (y) = 0.25971 0.30843
# Poissons Ratio (z) = 0.32066 0.14056
#
# Static dielectric constant tensor:
#      x y z
#    x 3.597440 0.000000 0.000000 
#    y 0.000000 3.325710 0.000000 
#    z 0.000000 0.000000 3.804460 
# 
# 
# High freq. dielectric constant tensor:
#      x y z
#    x 1.753270 0.000000 0.000000 
#    y 0.000000 1.751380 0.000000 
#    z 0.000000 0.000000 1.792150 
# 
# From -- ./inp_files/20231.got.cif
#   From: 2010.03.12/outbox.cif.g09.slc.cpg/sg62_11_cif.got.tgz:20231.got - 2010.04.10 19:12:36.
