data_PCOD8251647
_publ_section_title
;
Structure prediction by ZEFSAII (Michael W. Deem and Ramdas Pophale) SiO2 
 PCOD8251647
Probable space group: P N M A
;
_chemical_formula_sum "Si O2"
_cell_formula_units_Z 48
_cell_length_a 9.404047
_cell_length_b 8.834050
_cell_length_c 30.595818
_cell_angle_alpha 90.000000
_cell_angle_beta 90.000000
_cell_angle_gamma 90.000000
_cell_volume 2541.772712
_symmetry_space_group_name_H-M "P N M A"
_symmetry_group_IT_number 62
_symmetry_cell_setting 'orthorhombic'
loop_
_space_group_symop_operation_xyz
x,y,z
1/2-x,-y,1/2+z
1/2+x,1/2-y,1/2-z
-x,1/2+y,-z
-x,-y,-z
1/2+x,y,1/2-z
1/2-x,1/2+y,1/2+z
x,1/2-y,z
loop_
_atom_site_type_symbol
_atom_site_label
_atom_site_fract_x
_atom_site_fract_y
_atom_site_fract_z
Si Si1 0.406013 0.570423 0.130776
Si Si2 0.913051 0.580097 0.962777
Si Si3 0.393580 0.569231 0.633971
Si Si4 0.090853 0.929032 0.788212
Si Si5 0.414410 0.930463 0.794945
Si Si6 0.415583 0.423144 0.038555
O O1 0.397657 0.750000 0.131407
O O2 0.257075 0.501941 0.147455
O O3 0.530765 0.512011 0.161882
O O4 0.445733 0.514457 0.082591
O O5 0.968972 0.750000 0.962135
O O6 0.939209 0.510714 0.914291
O O7 0.748438 0.569044 0.974721
O O8 0.000000 0.500000 0.000000
O O9 0.372282 0.750000 0.633851
O O10 0.512083 0.512613 0.668047
O O11 0.085448 0.750000 0.787910
O O12 0.252739 0.985788 0.787348
O O13 0.007672 0.989504 0.745819
O O14 0.423470 0.750000 0.800682
O O15 0.464826 0.250000 0.045156
O O16 0.500000 0.500000 0.000000
#
# Coordination Sequence:
#
# PCOD8251647 Si02
#       6
#     8   8   8   8   8   8
#     4  11  22  36  54  79 109 145 183 222 268 321
#     4   9  19  33  52  78 110 143 178 218 263 314
#     4   9  18  36  57  79 106 140 181 225 268 319
#     4   9  18  33  58  84 106 137 182 227 273 326
#     4  10  19  34  56  82 108 140 180 226 274 325
#     4  10  21  38  58  82 110 143 181 224 269 319
#
# _framework density 18.884459
#
# number of rings (size 3 to 8) (size 9 to 14) (size 15 to 20)
#    0.000    2.333    0.000    4.000    0.000    7.333 
#    0.000    5.833    0.000    0.000    0.000    0.000 
#    0.000    0.000    0.000    0.000    0.000    0.000 
#
# Total GULP energy -595216.803980 kJ/mol
# GULP energy per Si atom -12400.350083 kJ/mol
# Density = 1.884148 g / cm^3
# Si number density = 18.884459 Si / 1000 Ang^3
#
#
#
# Elastic Constant Matrix: (Units=GPa)
#
#
# Indices 1 2 3 4 5 6 
#
# 1 128.7785 39.6995 87.0894 0.0000 0.0000 0.0000
# 2 39.6995 69.6334 38.4261 0.0000 0.0000 0.0000
# 3 87.0894 38.4261 131.5537 0.0000 0.0000 0.0000
# 4 0.0000 0.0000 0.0000 27.5826 0.0000 0.0000
# 5 0.0000 0.0000 0.0000 0.0000 45.5553 0.0000
# 6 0.0000 0.0000 0.0000 0.0000 0.0000 23.5896
#
#
#
# Elastic Compliance Matrix: (Units=1/GPa)
#
#
# Indices 1 2 3 4 5 6 
#
# 1 0.014784 -0.003610 -0.008732 0.000000 0.000000 0.000000
# 2 -0.003610 0.018002 -0.002869 0.000000 0.000000 0.000000
# 3 -0.008732 -0.002869 0.014220 0.000000 0.000000 0.000000
# 4 0.000000 0.000000 0.000000 0.036255 0.000000 0.000000
# 5 0.000000 0.000000 0.000000 0.000000 0.021951 0.000000
# 6 0.000000 0.000000 0.000000 0.000000 0.000000 0.042392
#
#
# Mechanical properties :
#
#
# Convention : Reuss Voigt Hill
#
# Bulk Modulus (GPa) = 60.29796 73.37729 66.83763
# Shear Modulus (GPa) = 27.24009 30.32886 28.78447
#
# Velocity S-wave (km/s) = 3.80209 4.01187 3.90839
# Velocity P-wave (km/s) = 7.16057 7.77177 7.47242
#
# Compressibility (1/GPa) = 0.01658431
#
# Stress axis : x y z
#
# Youngs Moduli (GPa) = 67.64279 55.54984 70.32174
#
# Poissons Ratio (x) = 0.20051 0.61408
# Poissons Ratio (y) = 0.24416 0.20173
# Poissons Ratio (z) = 0.59069 0.15936
#
# Static dielectric constant tensor:
#      x y z
#    x 3.551800 0.000000 0.000000 
#    y 0.000000 3.265700 0.000000 
#    z 0.000000 0.000000 3.701430 
# 
# 
# High freq. dielectric constant tensor:
#      x y z
#    x 1.734150 0.000000 0.000000 
#    y 0.000000 1.709630 0.000000 
#    z 0.000000 0.000000 1.748720 
# 
# From -- ./inp_files/31918.got.cif
#   From: 2010.03.12/outbox.cif.g09.slc.cpg/sg62_16_cif.got.tgz:31918.got - 2010.04.10 19:12:36.
