data_PCOD8251465
_publ_section_title
;
Structure prediction by ZEFSAII (Michael W. Deem and Ramdas Pophale) SiO2 
 PCOD8251465
Probable space group: P N M A
;
_chemical_formula_sum "Si O2"
_cell_formula_units_Z 64
_cell_length_a 15.142135
_cell_length_b 8.964178
_cell_length_c 24.833259
_cell_angle_alpha 90.000000
_cell_angle_beta 90.000000
_cell_angle_gamma 90.000000
_cell_volume 3370.786947
_symmetry_space_group_name_H-M "P N M A"
_symmetry_group_IT_number 62
_symmetry_cell_setting 'orthorhombic'
loop_
_space_group_symop_operation_xyz
x,y,z
1/2-x,-y,1/2+z
1/2+x,1/2-y,1/2-z
-x,1/2+y,-z
-x,-y,-z
1/2+x,y,1/2-z
1/2-x,1/2+y,1/2+z
x,1/2-y,z
loop_
_atom_site_type_symbol
_atom_site_label
_atom_site_fract_x
_atom_site_fract_y
_atom_site_fract_z
Si Si1 0.687048 0.076352 0.813233
Si Si2 0.618826 0.080378 0.523972
Si Si3 0.112943 0.926601 0.193640
Si Si4 0.039575 0.422539 0.399208
Si Si5 0.813397 0.078858 0.539333
Si Si6 0.485315 0.422269 0.221327
Si Si7 0.058585 0.925509 0.077278
Si Si8 0.631575 0.075624 0.932919
O O1 0.668962 0.250000 0.803405
O O2 0.785137 0.029617 0.793904
O O3 0.679539 0.039119 0.876634
O O4 0.614142 0.987379 0.778842
O O5 0.599675 0.250000 0.506937
O O6 0.710743 0.065377 0.555646
O O7 0.541783 0.024127 0.564032
O O8 0.622835 0.986341 0.469033
O O9 0.101275 0.750000 0.195957
O O10 0.086375 0.990740 0.135093
O O11 0.047157 0.997127 0.236216
O O12 0.025652 0.250000 0.414571
O O13 0.135229 0.477679 0.417892
O O14 0.031479 0.448464 0.335863
O O15 0.969667 0.523128 0.431067
O O16 0.845740 0.250000 0.542078
O O17 0.821153 0.018725 0.478813
O O18 0.478159 0.250000 0.236535
O O19 0.070978 0.750000 0.078648
O O20 0.634982 0.250000 0.947081
#
# Coordination Sequence:
#
# PCOD8251465 Si02
#       8
#     8   8   8   8   8   8   8   8
#     4   9  19  36  58  83 107 140 183 226 274 327
#     4   9  19  34  52  78 112 144 175 215 265 317
#     4  10  20  36  60  85 109 141 184 229 273 326
#     4  10  21  37  53  72 104 143 180 222 272 321
#     4  11  21  32  49  77 110 145 181 216 263 323
#     4  10  22  39  57  79 110 144 180 231 281 325
#     4   9  18  35  57  80 108 140 177 221 265 314
#     4  10  19  33  55  80 107 138 178 224 267 318
#
# _framework density 18.986664000000001
#
# number of rings (size 3 to 8) (size 9 to 14) (size 15 to 20)
#    0.000    2.250    0.000    2.625    0.000    5.000 
#    2.250    0.000    0.000    0.000    0.000    0.000 
#    0.000    0.000    0.000    0.000    0.000    0.000 
#
# Total GULP energy -793673.767441 kJ/mol
# GULP energy per Si atom -12401.152616 kJ/mol
# Density = 1.894345 g / cm^3
# Si number density = 18.986664 Si / 1000 Ang^3
#
#
#
# Elastic Constant Matrix: (Units=GPa)
#
#
# Indices 1 2 3 4 5 6 
#
# 1 125.6155 39.7651 58.9373 0.0000 0.0000 0.0000
# 2 39.7651 54.9929 32.7764 0.0000 0.0000 0.0000
# 3 58.9373 32.7764 72.5718 0.0000 0.0000 0.0000
# 4 0.0000 0.0000 0.0000 30.2806 0.0000 0.0000
# 5 0.0000 0.0000 0.0000 0.0000 26.9371 0.0000
# 6 0.0000 0.0000 0.0000 0.0000 0.0000 24.5035
#
#
#
# Elastic Compliance Matrix: (Units=1/GPa)
#
#
# Indices 1 2 3 4 5 6 
#
# 1 0.013615 -0.004454 -0.009045 0.000000 0.000000 0.000000
# 2 -0.004454 0.026339 -0.008279 0.000000 0.000000 0.000000
# 3 -0.009045 -0.008279 0.024864 0.000000 0.000000 0.000000
# 4 0.000000 0.000000 0.000000 0.033024 0.000000 0.000000
# 5 0.000000 0.000000 0.000000 0.000000 0.037124 0.000000
# 6 0.000000 0.000000 0.000000 0.000000 0.000000 0.040810
#
#
# Mechanical properties :
#
#
# Convention : Reuss Voigt Hill
#
# Bulk Modulus (GPa) = 47.03141 57.34867 52.19004
# Shear Modulus (GPa) = 22.08292 24.45765 23.27029
#
# Velocity S-wave (km/s) = 3.41409 3.59297 3.50467
# Velocity P-wave (km/s) = 6.35341 6.89078 6.62755
#
# Compressibility (1/GPa) = 0.02126239
#
# Stress axis : x y z
#
# Youngs Moduli (GPa) = 73.45062 37.96677 40.21801
#
# Poissons Ratio (x) = 0.16909 0.36379
# Poissons Ratio (y) = 0.32711 0.33296
# Poissons Ratio (z) = 0.66439 0.31432
#
# Static dielectric constant tensor:
#      x y z
#    x 3.587830 0.000000 0.000000 
#    y 0.000000 3.483000 0.000000 
#    z 0.000000 0.000000 3.345230 
# 
# 
# High freq. dielectric constant tensor:
#      x y z
#    x 1.748340 0.000000 0.000000 
#    y 0.000000 1.738420 0.000000 
#    z 0.000000 0.000000 1.720880 
# 
# From -- ./inp_files/29786.got.cif
#   From: 2010.03.12/outbox.cif.g09.slc.cpg/sg62_15_cif.got.tgz:29786.got - 2010.04.10 19:12:36.
