data_PCOD8251385
_publ_section_title
;
Structure prediction by ZEFSAII (Michael W. Deem and Ramdas Pophale) SiO2 
 PCOD8251385
Probable space group: P N M A
;
_chemical_formula_sum "Si O2"
_cell_formula_units_Z 48
_cell_length_a 13.186195
_cell_length_b 13.583028
_cell_length_c 15.408755
_cell_angle_alpha 90.000000
_cell_angle_beta 90.000000
_cell_angle_gamma 90.000000
_cell_volume 2759.838315
_symmetry_space_group_name_H-M "P N M A"
_symmetry_group_IT_number 62
_symmetry_cell_setting 'orthorhombic'
loop_
_space_group_symop_operation_xyz
x,y,z
1/2-x,-y,1/2+z
1/2+x,1/2-y,1/2-z
-x,1/2+y,-z
-x,-y,-z
1/2+x,y,1/2-z
1/2-x,1/2+y,1/2+z
x,1/2-y,z
loop_
_atom_site_type_symbol
_atom_site_label
_atom_site_fract_x
_atom_site_fract_y
_atom_site_fract_z
Si Si1 0.384028 0.974540 0.809551
Si Si2 0.939181 0.136065 0.394799
Si Si3 0.911797 0.636140 0.016094
Si Si4 0.181370 0.636626 0.436165
Si Si5 0.680726 0.635449 0.723627
Si Si6 0.003851 0.524446 0.863341
O O1 0.458669 0.924360 0.878681
O O2 0.295804 0.898514 0.786258
O O3 0.443860 0.003510 0.723147
O O4 0.339745 0.074044 0.850231
O O5 0.969122 0.250000 0.393686
O O6 0.894416 0.104335 0.487287
O O7 0.854974 0.114271 0.321645
O O8 0.940676 0.750000 0.025833
O O9 0.793982 0.616885 0.030872
O O10 0.978310 0.576998 0.085882
O O11 0.937050 0.599960 0.919429
O O12 0.165418 0.750000 0.410707
O O13 0.673016 0.750000 0.700360
O O14 0.610683 0.576221 0.656612
#
# Coordination Sequence:
#
# PCOD8251385 Si02
#       6
#     8   8   8   8   8   8
#     4  11  20  33  53  80 108 138 172 215 265 308
#     4   9  19  33  52  78 105 137 171 209 259 312
#     4  10  20  37  58  78 104 140 179 218 265 316
#     4  10  20  35  54  76 105 142 177 208 255 319
#     4  10  19  33  53  79 108 136 173 219 262 308
#     4  10  21  35  55  82 106 137 178 224 263 309
#
# _framework density 17.392323999999999
#
# number of rings (size 3 to 8) (size 9 to 14) (size 15 to 20)
#    0.000    2.000    1.667    2.500    0.000    4.000 
#    0.000    0.000    0.000    0.000    0.000    0.000 
#    0.000    0.000    0.000    0.000    0.000    0.000 
#
# Total GULP energy -595377.404858 kJ/mol
# GULP energy per Si atom -12403.695935 kJ/mol
# Density = 1.735274 g / cm^3
# Si number density = 17.392324 Si / 1000 Ang^3
#
#
#
# Elastic Constant Matrix: (Units=GPa)
#
#
# Indices 1 2 3 4 5 6 
#
# 1 83.9023 31.3532 17.4156 0.0000 0.0000 0.0000
# 2 31.3532 79.9154 30.1330 0.0000 0.0000 0.0000
# 3 17.4156 30.1330 61.0570 0.0000 0.0000 0.0000
# 4 0.0000 0.0000 0.0000 24.9331 0.0000 0.0000
# 5 0.0000 0.0000 0.0000 0.0000 24.7854 0.0000
# 6 0.0000 0.0000 0.0000 0.0000 0.0000 27.5693
#
#
#
# Elastic Compliance Matrix: (Units=1/GPa)
#
#
# Indices 1 2 3 4 5 6 
#
# 1 0.014090 -0.004930 -0.001586 0.000000 0.000000 0.000000
# 2 -0.004930 0.017099 -0.007033 0.000000 0.000000 0.000000
# 3 -0.001586 -0.007033 0.020301 0.000000 0.000000 0.000000
# 4 0.000000 0.000000 0.000000 0.040107 0.000000 0.000000
# 5 0.000000 0.000000 0.000000 0.000000 0.040346 0.000000
# 6 0.000000 0.000000 0.000000 0.000000 0.000000 0.036272
#
#
# Mechanical properties :
#
#
# Convention : Reuss Voigt Hill
#
# Bulk Modulus (GPa) = 40.99463 42.51983 41.75723
# Shear Modulus (GPa) = 24.57673 25.18909 24.88291
#
# Velocity S-wave (km/s) = 3.76317 3.80977 3.78654
# Velocity P-wave (km/s) = 6.51948 6.62216 6.57102
#
# Compressibility (1/GPa) = 0.02439344
#
# Stress axis : x y z
#
# Youngs Moduli (GPa) = 70.97196 58.48252 49.25805
#
# Poissons Ratio (x) = 0.28832 0.07812
# Poissons Ratio (y) = 0.34989 0.34641
# Poissons Ratio (z) = 0.11256 0.41128
#
# Static dielectric constant tensor:
#      x y z
#    x 3.250550 0.000000 0.000000 
#    y 0.000000 3.175620 0.000000 
#    z 0.000000 0.000000 3.219540 
# 
# 
# High freq. dielectric constant tensor:
#      x y z
#    x 1.680380 0.000000 0.000000 
#    y 0.000000 1.670520 0.000000 
#    z 0.000000 0.000000 1.673320 
# 
# From -- ./inp_files/17962.got.cif
#   From: 2010.03.12/outbox.cif.g09.slc.cpg/sg62_9_cif.got.tgz:17962.got - 2010.04.10 19:12:36.
