data_PCOD8251294
_publ_section_title
;
Structure prediction by ZEFSAII (Michael W. Deem and Ramdas Pophale) SiO2 
 PCOD8251294
Probable space group: P N M A
;
_chemical_formula_sum "Si O2"
_cell_formula_units_Z 64
_cell_length_a 11.624744
_cell_length_b 9.089043
_cell_length_c 33.114822
_cell_angle_alpha 90.000000
_cell_angle_beta 90.000000
_cell_angle_gamma 90.000000
_cell_volume 3498.839176
_symmetry_space_group_name_H-M "P N M A"
_symmetry_group_IT_number 62
_symmetry_cell_setting 'orthorhombic'
loop_
_space_group_symop_operation_xyz
x,y,z
1/2-x,-y,1/2+z
1/2+x,1/2-y,1/2-z
-x,1/2+y,-z
-x,-y,-z
1/2+x,y,1/2-z
1/2-x,1/2+y,1/2+z
x,1/2-y,z
loop_
_atom_site_type_symbol
_atom_site_label
_atom_site_fract_x
_atom_site_fract_y
_atom_site_fract_z
Si Si1 0.772866 0.923864 0.869955
Si Si2 0.812971 0.421231 0.593862
Si Si3 0.601218 0.077904 0.450395
Si Si4 0.118981 0.079178 0.284618
Si Si5 0.342396 0.421946 0.469017
Si Si6 0.485585 0.422766 0.135075
Si Si7 0.180520 0.420275 0.824219
Si Si8 0.950229 0.923119 0.804107
O O1 0.765908 0.750000 0.871105
O O2 0.841656 0.980264 0.909165
O O3 0.643335 0.986411 0.869156
O O4 0.838646 0.974219 0.829463
O O5 0.829981 0.250000 0.584843
O O6 0.758271 0.497956 0.555135
O O7 0.936919 0.492527 0.602531
O O8 0.730149 0.450040 0.631559
O O9 0.624565 0.250000 0.458197
O O10 0.465002 0.046346 0.447890
O O11 0.658891 0.985398 0.485967
O O12 0.152571 0.250000 0.283933
O O13 0.026942 0.043111 0.319411
O O14 0.064814 0.029543 0.242256
O O15 0.236223 0.990266 0.290796
O O16 0.315057 0.250000 0.470608
O O17 0.493367 0.250000 0.125682
O O18 0.167967 0.250000 0.814233
O O19 0.057761 0.495389 0.823088
O O20 0.971535 0.750000 0.808500
#
# Coordination Sequence:
#
# PCOD8251294 Si02
#       8
#     8   8   8   8   8   8   8   8
#     4   9  18  33  54  78 106 138 174 216 264 318
#     4  10  20  35  54  76 103 139 178 216 261 313
#     4   9  18  33  52  78 110 141 169 210 266 318
#     4   9  19  33  54  78 102 135 177 223 263 306
#     4  10  19  32  55  82 107 135 173 219 264 313
#     4   9  18  34  54  76 103 137 177 220 263 309
#     4  10  21  35  51  74 107 139 172 216 263 315
#     4  10  20  33  55  81 105 136 177 223 267 314
#
# _framework density 18.291781
#
# number of rings (size 3 to 8) (size 9 to 14) (size 15 to 20)
#    0.000    2.500    0.000    1.875    1.750    3.500 
#    0.000    2.500    0.000    0.000    0.000    0.000 
#    0.000    0.000    0.000    0.000    0.000    0.000 
#
# Total GULP energy -793766.994926 kJ/mol
# GULP energy per Si atom -12402.609296 kJ/mol
# Density = 1.825015 g / cm^3
# Si number density = 18.291781 Si / 1000 Ang^3
#
#
#
# Elastic Constant Matrix: (Units=GPa)
#
#
# Indices 1 2 3 4 5 6 
#
# 1 116.9175 32.3165 47.0981 0.0000 0.0000 0.0000
# 2 32.3165 52.5828 30.1827 0.0000 0.0000 0.0000
# 3 47.0981 30.1827 94.1049 0.0000 0.0000 0.0000
# 4 0.0000 0.0000 0.0000 24.5638 0.0000 0.0000
# 5 0.0000 0.0000 0.0000 0.0000 22.5031 0.0000
# 6 0.0000 0.0000 0.0000 0.0000 0.0000 19.6753
#
#
#
# Elastic Compliance Matrix: (Units=1/GPa)
#
#
# Indices 1 2 3 4 5 6 
#
# 1 0.011569 -0.004641 -0.004301 0.000000 0.000000 0.000000
# 2 -0.004641 0.025171 -0.005750 0.000000 0.000000 0.000000
# 3 -0.004301 -0.005750 0.014624 0.000000 0.000000 0.000000
# 4 0.000000 0.000000 0.000000 0.040710 0.000000 0.000000
# 5 0.000000 0.000000 0.000000 0.000000 0.044438 0.000000
# 6 0.000000 0.000000 0.000000 0.000000 0.000000 0.050825
#
#
# Mechanical properties :
#
#
# Convention : Reuss Voigt Hill
#
# Bulk Modulus (GPa) = 45.50125 53.64441 49.57283
# Shear Modulus (GPa) = 22.31668 23.61562 22.96615
#
# Velocity S-wave (km/s) = 3.49669 3.59702 3.54721
# Velocity P-wave (km/s) = 6.42120 6.82950 6.62849
#
# Compressibility (1/GPa) = 0.02197742
#
# Stress axis : x y z
#
# Youngs Moduli (GPa) = 86.44151 39.72895 68.38262
#
# Poissons Ratio (x) = 0.18437 0.29414
# Poissons Ratio (y) = 0.40116 0.39323
# Poissons Ratio (z) = 0.37182 0.22846
#
# Static dielectric constant tensor:
#      x y z
#    x 3.435560 0.000000 0.000000 
#    y 0.000000 3.242770 0.000000 
#    z 0.000000 0.000000 3.411790 
# 
# 
# High freq. dielectric constant tensor:
#      x y z
#    x 1.709300 0.000000 0.000000 
#    y 0.000000 1.695650 0.000000 
#    z 0.000000 0.000000 1.709040 
# 
# From -- ./inp_files/32484.got.cif
#   From: 2010.03.12/outbox.cif.g09.slc.cpg/sg62_17_cif.got.tgz:32484.got - 2010.04.10 19:12:36.
