data_PCOD8251002
_publ_section_title
;
Structure prediction by ZEFSAII (Michael W. Deem and Ramdas Pophale) SiO2 
 PCOD8251002
Probable space group: P N M A
;
_chemical_formula_sum "Si O2"
_cell_formula_units_Z 64
_cell_length_a 20.238487
_cell_length_b 8.709251
_cell_length_c 19.962793
_cell_angle_alpha 90.000000
_cell_angle_beta 90.000000
_cell_angle_gamma 90.000000
_cell_volume 3518.683080
_symmetry_space_group_name_H-M "P N M A"
_symmetry_group_IT_number 62
_symmetry_cell_setting 'orthorhombic'
loop_
_space_group_symop_operation_xyz
x,y,z
1/2-x,-y,1/2+z
1/2+x,1/2-y,1/2-z
-x,1/2+y,-z
-x,-y,-z
1/2+x,y,1/2-z
1/2-x,1/2+y,1/2+z
x,1/2-y,z
loop_
_atom_site_type_symbol
_atom_site_label
_atom_site_fract_x
_atom_site_fract_y
_atom_site_fract_z
Si Si1 0.455145 0.429091 0.557302
Si Si2 0.721089 0.072039 0.174774
Si Si3 0.663380 0.075912 0.506108
Si Si4 0.353505 0.927548 0.337446
Si Si5 0.510709 0.568562 0.691284
Si Si6 0.062658 0.067045 0.463066
Si Si7 0.422354 0.568666 0.811384
Si Si8 0.805568 0.071853 0.535635
O O1 0.500000 0.500000 0.500000
O O2 0.468149 0.250000 0.559254
O O3 0.378574 0.464395 0.541378
O O4 0.474266 0.497017 0.628233
O O5 0.737488 0.250000 0.185648
O O6 0.652647 0.023215 0.211846
O O7 0.784863 0.975570 0.198971
O O8 0.707166 0.040810 0.097266
O O9 0.640354 0.250000 0.492617
O O10 0.650668 0.034316 0.583815
O O11 0.741119 0.056004 0.487813
O O12 0.366460 0.750000 0.324294
O O13 0.412845 0.022294 0.304660
O O14 0.504584 0.750000 0.686381
O O15 0.474321 0.503099 0.757633
O O16 0.065221 0.250000 0.469800
O O17 0.060512 0.008056 0.385897
O O18 0.127334 0.990369 0.498829
O O19 0.000000 0.000000 0.500000
O O20 0.427308 0.750000 0.814364
O O21 0.812183 0.250000 0.558491
#
# Coordination Sequence:
#
# PCOD8251002 Si02
#       8
#     8   8   8   8   8   8   8   8
#     4  12  23  34  50  75 107 142 181 221 264 312
#     4   9  16  30  52  76 102 132 172 216 258 309
#     4   9  18  32  50  72 104 137 174 218 261 306
#     4  10  19  31  49  77 107 134 173 219 261 308
#     4  11  21  35  55  76 103 141 181 220 266 314
#     4  10  19  34  57  84 111 137 174 218 267 323
#     4   8  18  35  55  79 105 135 175 218 261 319
#     4   9  17  30  50  78 107 134 170 215 264 310
#
# _framework density 18.188623
#
# number of rings (size 3 to 8) (size 9 to 14) (size 15 to 20)
#    0.000    2.250    1.250    4.500    0.000    2.500 
#    0.000    7.500    2.750    0.000    0.000    0.000 
#    0.000    0.000    0.000    0.000    0.000    0.000 
#
# Total GULP energy -793264.685478 kJ/mol
# GULP energy per Si atom -12394.760711 kJ/mol
# Density = 1.814723 g / cm^3
# Si number density = 18.188623 Si / 1000 Ang^3
#
#
#
# Elastic Constant Matrix: (Units=GPa)
#
#
# Indices 1 2 3 4 5 6 
#
# 1 166.0817 46.1285 53.5394 0.0000 0.0000 0.0000
# 2 46.1285 78.8024 28.0099 0.0000 0.0000 0.0000
# 3 53.5394 28.0099 64.1362 0.0000 0.0000 0.0000
# 4 0.0000 0.0000 0.0000 17.7082 0.0000 0.0000
# 5 0.0000 0.0000 0.0000 0.0000 26.0206 0.0000
# 6 0.0000 0.0000 0.0000 0.0000 0.0000 33.5969
#
#
#
# Elastic Compliance Matrix: (Units=1/GPa)
#
#
# Indices 1 2 3 4 5 6 
#
# 1 0.008802 -0.003007 -0.006034 0.000000 0.000000 0.000000
# 2 -0.003007 0.016049 -0.004499 0.000000 0.000000 0.000000
# 3 -0.006034 -0.004499 0.022593 0.000000 0.000000 0.000000
# 4 0.000000 0.000000 0.000000 0.056471 0.000000 0.000000
# 5 0.000000 0.000000 0.000000 0.000000 0.038431 0.000000
# 6 0.000000 0.000000 0.000000 0.000000 0.000000 0.029765
#
#
# Mechanical properties :
#
#
# Convention : Reuss Voigt Hill
#
# Bulk Modulus (GPa) = 49.10520 62.70845 55.90682
# Shear Modulus (GPa) = 24.27425 27.55464 25.91444
#
# Velocity S-wave (km/s) = 3.65716 3.89644 3.77870
# Velocity P-wave (km/s) = 6.69996 7.40234 7.05989
#
# Compressibility (1/GPa) = 0.02036444
#
# Stress axis : x y z
#
# Youngs Moduli (GPa) = 113.61589 62.30740 44.26053
#
# Poissons Ratio (x) = 0.18739 0.26706
# Poissons Ratio (y) = 0.34169 0.19911
# Poissons Ratio (z) = 0.68555 0.28030
#
# Static dielectric constant tensor:
#      x y z
#    x 3.921830 0.000000 0.000000 
#    y 0.000000 3.369450 0.000000 
#    z 0.000000 0.000000 3.275240 
# 
# 
# High freq. dielectric constant tensor:
#      x y z
#    x 1.728620 0.000000 0.000000 
#    y 0.000000 1.707320 0.000000 
#    z 0.000000 0.000000 1.649020 
# 
# From -- ./inp_files/24744.got.cif
#   From: 2010.03.12/outbox.cif.g09.slc.cpg/sg62_13_cif.got.tgz:24744.got - 2010.04.10 19:12:36.
