data_PCOD8251903
_publ_section_title
;
Structure prediction by ZEFSAII (Michael W. Deem and Ramdas Pophale) SiO2 
 PCOD8251903
Probable space group: P N M A
;
_chemical_formula_sum "Si O2"
_cell_formula_units_Z 64
_cell_length_a 14.086722
_cell_length_b 12.050099
_cell_length_c 18.000839
_cell_angle_alpha 90.000000
_cell_angle_beta 90.000000
_cell_angle_gamma 90.000000
_cell_volume 3055.577522
_symmetry_space_group_name_H-M "P N M A"
_symmetry_group_IT_number 62
_symmetry_cell_setting 'orthorhombic'
loop_
_space_group_symop_operation_xyz
x,y,z
1/2-x,-y,1/2+z
1/2+x,1/2-y,1/2-z
-x,1/2+y,-z
-x,-y,-z
1/2+x,y,1/2-z
1/2-x,1/2+y,1/2+z
x,1/2-y,z
loop_
_atom_site_type_symbol
_atom_site_label
_atom_site_fract_x
_atom_site_fract_y
_atom_site_fract_z
Si Si1 0.574185 0.544638 0.557497
Si Si2 0.224214 0.624432 0.058158
Si Si3 0.355253 0.465929 0.976229
Si Si4 0.517623 0.126981 0.306505
Si Si5 0.861713 0.375335 0.303758
Si Si6 0.190042 0.972656 0.213353
Si Si7 0.503921 0.123629 0.078003
Si Si8 0.286228 0.622173 0.363052
O O1 0.500000 0.500000 0.500000
O O2 0.649998 0.614044 0.509879
O O3 0.503393 0.620306 0.606207
O O4 0.623601 0.453022 0.612491
O O5 0.265410 0.750000 0.055109
O O6 0.180833 0.607665 0.141217
O O7 0.304214 0.530572 0.044424
O O8 0.395868 0.560741 0.921741
O O9 0.286670 0.385225 0.931314
O O10 0.444139 0.391323 0.002175
O O11 0.557891 0.250000 0.286385
O O12 0.410342 0.112837 0.275960
O O13 0.588393 0.032536 0.274113
O O14 0.843097 0.250000 0.329432
O O15 0.760948 0.430897 0.309165
O O16 0.939033 0.429662 0.358340
O O17 0.232071 0.912509 0.286612
O O18 0.529525 0.250000 0.093886
O O19 0.319575 0.750000 0.354351
#
# Coordination Sequence:
#
# PCOD8251903 Si02
#       8
#     8   8   8   8   8   8   8   8
#     4  11  23  45  64  94 130 164 217 275 319 389
#     4  11  23  39  62  90 124 168 210 257 320 378
#     4  10  21  38  59  88 124 157 206 254 300 379
#     4  11  23  41  67  95 128 166 210 264 327 386
#     4  10  21  38  60  91 123 157 201 253 314 376
#     4  12  22  42  64  91 130 166 213 262 315 388
#     4  10  19  35  61  88 121 157 194 251 311 365
#     4  11  25  43  65  90 127 173 214 262 321 386
#
# _framework density 20.945304
#
# number of rings (size 3 to 8) (size 9 to 14) (size 15 to 20)
#    0.000    1.250    3.750    2.625    0.000    1.000 
#    0.000    1.250    0.000    0.000    0.000    0.000 
#    0.000    0.000    0.000    0.000    0.000    0.000 
#
# Total GULP energy -792961.310948 kJ/mol
# GULP energy per Si atom -12390.020484 kJ/mol
# Density = 2.089763 g / cm^3
# Si number density = 20.945304 Si / 1000 Ang^3
#
#
#
# Elastic Constant Matrix: (Units=GPa)
#
#
# Indices 1 2 3 4 5 6 
#
# 1 62.1843 18.8388 6.9118 0.0000 0.0000 0.0000
# 2 18.8388 83.5484 30.1886 0.0000 0.0000 0.0000
# 3 6.9118 30.1886 93.9360 0.0000 0.0000 0.0000
# 4 0.0000 0.0000 0.0000 22.9622 0.0000 0.0000
# 5 0.0000 0.0000 0.0000 0.0000 41.4979 0.0000
# 6 0.0000 0.0000 0.0000 0.0000 0.0000 27.8336
#
#
#
# Elastic Compliance Matrix: (Units=1/GPa)
#
#
# Indices 1 2 3 4 5 6 
#
# 1 0.017260 -0.003884 -0.000022 0.000000 0.000000 0.000000
# 2 -0.003884 0.014416 -0.004347 0.000000 0.000000 0.000000
# 3 -0.000022 -0.004347 0.012044 0.000000 0.000000 0.000000
# 4 0.000000 0.000000 0.000000 0.043550 0.000000 0.000000
# 5 0.000000 0.000000 0.000000 0.000000 0.024098 0.000000
# 6 0.000000 0.000000 0.000000 0.000000 0.000000 0.035928
#
#
# Mechanical properties :
#
#
# Convention : Reuss Voigt Hill
#
# Bulk Modulus (GPa) = 36.74522 39.06078 37.90300
# Shear Modulus (GPa) = 28.92304 30.70737 29.81521
#
# Velocity S-wave (km/s) = 3.72006 3.83309 3.77700
# Velocity P-wave (km/s) = 6.00277 6.18704 6.09560
#
# Compressibility (1/GPa) = 0.02721442
#
# Stress axis : x y z
#
# Youngs Moduli (GPa) = 57.93631 69.36930 83.02775
#
# Poissons Ratio (x) = 0.26943 0.00181
# Poissons Ratio (y) = 0.22503 0.36092
# Poissons Ratio (z) = 0.00126 0.30155
#
# Static dielectric constant tensor:
#      x y z
#    x 4.045220 0.000000 0.000000 
#    y 0.000000 3.632500 0.000000 
#    z 0.000000 0.000000 4.898410 
# 
# 
# High freq. dielectric constant tensor:
#      x y z
#    x 1.817330 0.000000 0.000000 
#    y 0.000000 1.808330 0.000000 
#    z 0.000000 0.000000 1.832140 
# 
# From -- ./inp_files/24036.got.cif
#   From: 2010.03.12/outbox.cif.g09.slc.cpg/sg62_13_cif.got.tgz:24036.got - 2010.04.10 19:12:36.
