data_PCOD8251785
_publ_section_title
;
Structure prediction by ZEFSAII (Michael W. Deem and Ramdas Pophale) SiO2 
 PCOD8251785
Probable space group: P N M A
;
_chemical_formula_sum "Si O2"
_cell_formula_units_Z 64
_cell_length_a 19.265063
_cell_length_b 18.485088
_cell_length_c 9.701345
_cell_angle_alpha 90.000000
_cell_angle_beta 90.000000
_cell_angle_gamma 90.000000
_cell_volume 3454.807910
_symmetry_space_group_name_H-M "P N M A"
_symmetry_group_IT_number 62
_symmetry_cell_setting 'orthorhombic'
loop_
_space_group_symop_operation_xyz
x,y,z
1/2-x,-y,1/2+z
1/2+x,1/2-y,1/2-z
-x,1/2+y,-z
-x,-y,-z
1/2+x,y,1/2-z
1/2-x,1/2+y,1/2+z
x,1/2-y,z
loop_
_atom_site_type_symbol
_atom_site_label
_atom_site_fract_x
_atom_site_fract_y
_atom_site_fract_z
Si Si1 0.954157 0.964173 0.385539
Si Si2 0.176668 0.169300 0.403045
Si Si3 0.560236 0.520510 0.602967
Si Si4 0.202853 0.447190 0.610126
Si Si5 0.753475 0.334334 0.362100
Si Si6 0.405560 0.164796 0.253205
Si Si7 0.022450 0.329740 0.464095
Si Si8 0.706346 0.449355 0.571523
O O1 0.872883 0.983558 0.402270
O O2 0.970233 0.878709 0.399649
O O3 0.977775 0.992925 0.239894
O O4 0.000000 0.000000 0.500000
O O5 0.205960 0.250000 0.416008
O O6 0.199800 0.132765 0.545975
O O7 0.210369 0.133607 0.267274
O O8 0.094259 0.166834 0.379476
O O9 0.500000 0.500000 0.500000
O O10 0.582748 0.606280 0.621299
O O11 0.625404 0.469827 0.564717
O O12 0.254048 0.490116 0.512767
O O13 0.229487 0.445028 0.767912
O O14 0.739624 0.250000 0.386895
O O15 0.833448 0.350216 0.325098
O O16 0.725762 0.373250 0.500010
O O17 0.410589 0.250000 0.302892
O O18 0.463210 0.145131 0.140530
O O19 0.006411 0.250000 0.520357
#
# Coordination Sequence:
#
# PCOD8251785 Si02
#       8
#     8   8   8   8   8   8   8   8
#     4  10  19  35  57  79 110 149 195 243 289 353
#     4   9  18  34  57  83 108 142 190 234 286 350
#     4  11  24  38  55  89 121 155 194 245 307 364
#     4  10  21  35  55  80 110 151 185 238 295 344
#     4  10  21  37  60  85 114 154 198 246 298 360
#     4  10  20  38  61  84 117 157 202 247 292 357
#     4   9  18  32  57  85 108 145 196 241 284 345
#     4  11  23  38  55  82 118 147 196 242 296 356
#
# _framework density 18.524909000000001
#
# number of rings (size 3 to 8) (size 9 to 14) (size 15 to 20)
#    0.000    2.000    1.250    3.000    1.750    1.500 
#    0.000    2.500    0.000    0.000    0.000    0.000 
#    0.000    0.000    0.000    0.000    0.000    0.000 
#
# Total GULP energy -793015.466177 kJ/mol
# GULP energy per Si atom -12390.866659 kJ/mol
# Density = 1.848275 g / cm^3
# Si number density = 18.524909 Si / 1000 Ang^3
#
#
#
# Elastic Constant Matrix: (Units=GPa)
#
#
# Indices 1 2 3 4 5 6 
#
# 1 88.9342 41.4152 64.4789 0.0000 0.0000 0.0000
# 2 41.4152 97.7061 56.2304 0.0000 0.0000 0.0000
# 3 64.4789 56.2304 142.4318 0.0000 0.0000 0.0000
# 4 0.0000 0.0000 0.0000 34.8127 0.0000 0.0000
# 5 0.0000 0.0000 0.0000 0.0000 34.7356 0.0000
# 6 0.0000 0.0000 0.0000 0.0000 0.0000 25.5048
#
#
#
# Elastic Compliance Matrix: (Units=1/GPa)
#
#
# Indices 1 2 3 4 5 6 
#
# 1 0.017740 -0.003750 -0.006550 0.000000 0.000000 0.000000
# 2 -0.003750 0.014036 -0.003844 0.000000 0.000000 0.000000
# 3 -0.006550 -0.003844 0.011504 0.000000 0.000000 0.000000
# 4 0.000000 0.000000 0.000000 0.028725 0.000000 0.000000
# 5 0.000000 0.000000 0.000000 0.000000 0.028789 0.000000
# 6 0.000000 0.000000 0.000000 0.000000 0.000000 0.039208
#
#
# Mechanical properties :
#
#
# Convention : Reuss Voigt Hill
#
# Bulk Modulus (GPa) = 66.70289 72.59125 69.64707
# Shear Modulus (GPa) = 28.85381 30.14044 29.49713
#
# Velocity S-wave (km/s) = 3.95089 4.03801 3.99469
# Velocity P-wave (km/s) = 7.54307 7.81099 7.67820
#
# Compressibility (1/GPa) = 0.01499185
#
# Stress axis : x y z
#
# Youngs Moduli (GPa) = 56.37117 71.24361 86.92751
#
# Poissons Ratio (x) = 0.26713 0.56941
# Poissons Ratio (y) = 0.21137 0.33415
# Poissons Ratio (z) = 0.36926 0.27386
#
# Static dielectric constant tensor:
#      x y z
#    x 3.490590 0.000000 0.000000 
#    y 0.000000 6.094370 0.000000 
#    z 0.000000 0.000000 2.858120 
# 
# 
# High freq. dielectric constant tensor:
#      x y z
#    x 1.726920 0.000000 0.000000 
#    y 0.000000 1.731440 0.000000 
#    z 0.000000 0.000000 1.699180 
# 
# From -- ./inp_files/8858.got.cif
#   From: 2010.03.12/outbox.cif.g09.slc.cpg/sg62_5_cif.got.tgz:8858.got - 2010.04.10 19:12:36.
