data_PCOD8251362
_publ_section_title
;
Structure prediction by ZEFSAII (Michael W. Deem and Ramdas Pophale) SiO2 
 PCOD8251362
Probable space group: P N M A
;
_chemical_formula_sum "Si O2"
_cell_formula_units_Z 48
_cell_length_a 34.191829
_cell_length_b 15.295679
_cell_length_c 4.959897
_cell_angle_alpha 90.000000
_cell_angle_beta 90.000000
_cell_angle_gamma 90.000000
_cell_volume 2593.962847
_symmetry_space_group_name_H-M "P N M A"
_symmetry_group_IT_number 62
_symmetry_cell_setting 'orthorhombic'
loop_
_space_group_symop_operation_xyz
x,y,z
1/2-x,-y,1/2+z
1/2+x,1/2-y,1/2-z
-x,1/2+y,-z
-x,-y,-z
1/2+x,y,1/2-z
1/2-x,1/2+y,1/2+z
x,1/2-y,z
loop_
_atom_site_type_symbol
_atom_site_label
_atom_site_fract_x
_atom_site_fract_y
_atom_site_fract_z
Si Si1 0.835806 0.456038 0.042048
Si Si2 0.961350 0.750000 0.560782
Si Si3 0.535119 0.435722 0.949518
Si Si4 0.808644 0.350976 0.541346
Si Si5 0.411678 0.750000 0.438991
Si Si6 0.588883 0.437955 0.450166
Si Si7 0.737562 0.047946 0.436666
O O1 0.822314 0.381004 0.835499
O O2 0.880097 0.485411 0.996518
O O3 0.808418 0.543492 0.013632
O O4 0.832043 0.412773 0.334731
O O5 0.984136 0.661135 0.485088
O O6 0.951228 0.750000 0.877763
O O7 0.921579 0.750000 0.378260
O O8 0.552414 0.448811 0.652523
O O9 0.500000 0.500000 0.000000
O O10 0.571432 0.448489 0.152422
O O11 0.819242 0.250000 0.498714
O O12 0.761267 0.363041 0.505851
O O13 0.390230 0.841926 0.511787
O O14 0.758003 0.972029 0.619373
#
# Coordination Sequence:
#
# PCOD8251362 Si02
#       7
#     8   4   8   8   4   8   8
#     4  10  19  33  53  75 105 136 171 217 260 299
#     4   8  16  30  50  70  96 124 159 202 245 304
#     4  10  19  33  55  76 101 135 173 205 260 313
#     4  10  19  33  53  73 101 145 179 205 250 307
#     4   8  16  30  48  74  96 124 155 202 255 308
#     4  10  19  33  53  78 104 132 169 212 260 306
#     4   8  16  30  48  70  94 126 169 207 245 291
#
# _framework density 18.504505999999999
#
# number of rings (size 3 to 8) (size 9 to 14) (size 15 to 20)
#    0.000    2.667    0.000    2.000    0.000    0.000 
#    1.500    0.000   11.000    0.000    0.000    0.000 
#    0.000    0.000    0.000    0.000    0.000    0.000 
#
# Total GULP energy -594628.734088 kJ/mol
# GULP energy per Si atom -12388.098627 kJ/mol
# Density = 1.846239 g / cm^3
# Si number density = 18.504506 Si / 1000 Ang^3
#
#
#
# Elastic Constant Matrix: (Units=GPa)
#
#
# Indices 1 2 3 4 5 6 
#
# 1 56.3792 41.2164 1.1257 0.0000 0.0000 0.0000
# 2 41.2164 100.0758 5.3709 0.0000 0.0000 0.0000
# 3 1.1257 5.3709 71.4984 0.0000 0.0000 0.0000
# 4 0.0000 0.0000 0.0000 22.1838 0.0000 0.0000
# 5 0.0000 0.0000 0.0000 0.0000 19.6569 0.0000
# 6 0.0000 0.0000 0.0000 0.0000 0.0000 22.4603
#
#
#
# Elastic Compliance Matrix: (Units=1/GPa)
#
#
# Indices 1 2 3 4 5 6 
#
# 1 0.025389 -0.010477 0.000387 0.000000 0.000000 0.000000
# 2 -0.010477 0.014356 -0.000913 0.000000 0.000000 0.000000
# 3 0.000387 -0.000913 0.014049 0.000000 0.000000 0.000000
# 4 0.000000 0.000000 0.000000 0.045078 0.000000 0.000000
# 5 0.000000 0.000000 0.000000 0.000000 0.050873 0.000000
# 6 0.000000 0.000000 0.000000 0.000000 0.000000 0.044523
#
#
# Mechanical properties :
#
#
# Convention : Reuss Voigt Hill
#
# Bulk Modulus (GPa) = 31.45907 35.93103 33.69505
# Shear Modulus (GPa) = 22.03906 24.87624 23.45765
#
# Velocity S-wave (km/s) = 3.45485 3.67049 3.56430
# Velocity P-wave (km/s) = 5.74041 6.11743 5.93192
#
# Compressibility (1/GPa) = 0.03178734
#
# Stress axis : x y z
#
# Youngs Moduli (GPa) = 39.38764 69.65493 71.18021
#
# Poissons Ratio (x) = 0.72979 -0.02757
# Poissons Ratio (y) = 0.41267 0.06502
# Poissons Ratio (z) = -0.01526 0.06363
#
# Static dielectric constant tensor:
#      x y z
#    x 2.990730 0.000000 0.000000 
#    y 0.000000 3.373280 0.000000 
#    z 0.000000 0.000000 3.570810 
# 
# 
# High freq. dielectric constant tensor:
#      x y z
#    x 1.670340 0.000000 0.000000 
#    y 0.000000 1.703500 0.000000 
#    z 0.000000 0.000000 1.744660 
# 
# From -- ./inp_files/3207.got.cif
#   From: 2010.03.12/outbox.cif.g09.slc.cpg/sg62_2_cif.got.tgz:3207.got - 2010.04.10 19:12:36.
