data_PCOD8251656
_publ_section_title
;
Structure prediction by ZEFSAII (Michael W. Deem and Ramdas Pophale) SiO2 
 PCOD8251656
Probable space group: P N M A
;
_chemical_formula_sum "Si O2"
_cell_formula_units_Z 56
_cell_length_a 21.973747
_cell_length_b 8.912264
_cell_length_c 14.094408
_cell_angle_alpha 90.000000
_cell_angle_beta 90.000000
_cell_angle_gamma 90.000000
_cell_volume 2760.190150
_symmetry_space_group_name_H-M "P N M A"
_symmetry_group_IT_number 62
_symmetry_cell_setting 'orthorhombic'
loop_
_space_group_symop_operation_xyz
x,y,z
1/2-x,-y,1/2+z
1/2+x,1/2-y,1/2-z
-x,1/2+y,-z
-x,-y,-z
1/2+x,y,1/2-z
1/2-x,1/2+y,1/2+z
x,1/2-y,z
loop_
_atom_site_type_symbol
_atom_site_label
_atom_site_fract_x
_atom_site_fract_y
_atom_site_fract_z
Si Si1 0.924774 0.079578 0.893257
Si Si2 0.188161 0.072634 0.192214
Si Si3 0.956548 0.923829 0.217176
Si Si4 0.750425 0.429255 0.980451
Si Si5 0.661694 0.572690 0.116033
Si Si6 0.869397 0.080727 0.089297
Si Si7 0.978645 0.073452 0.596191
O O1 0.907165 0.250000 0.860697
O O2 0.992766 0.040652 0.862125
O O3 0.879626 0.964152 0.842927
O O4 0.919838 0.065766 0.006423
O O5 0.198669 0.250000 0.194644
O O6 0.237905 0.995662 0.123950
O O7 0.196893 0.004890 0.296841
O O8 0.944319 0.750000 0.228248
O O9 0.978909 0.988693 0.318404
O O10 0.893017 0.994527 0.182463
O O11 0.746159 0.250000 0.973537
O O12 0.688493 0.501129 0.019687
O O13 0.805412 0.481709 0.049947
O O14 0.672736 0.750000 0.117584
O O15 0.590662 0.531032 0.120070
O O16 0.860373 0.250000 0.122200
O O17 0.985557 0.250000 0.585781
O O18 0.000000 0.000000 0.500000
#
# Coordination Sequence:
#
# PCOD8251656 Si02
#       7
#     8   8   8   8   8   8   8
#     4   9  17  33  54  80 118 154 188 236 292 348
#     4  11  21  35  60  91 118 154 201 246 299 367
#     4  10  19  34  56  82 116 156 194 237 294 354
#     4  10  22  41  61  88 124 160 203 254 304 362
#     4  11  22  42  67  89 119 159 201 253 307 358
#     4   9  19  33  53  84 121 154 185 235 293 350
#     4  10  23  42  63  87 117 155 201 252 302 356
#
# _framework density 20.288457000000001
#
# number of rings (size 3 to 8) (size 9 to 14) (size 15 to 20)
#    0.000    2.000    1.429    3.429    0.000    5.143 
#    2.571    0.000    0.000    0.000    0.000    0.000 
#    0.000    0.000    0.000    0.000    0.000    0.000 
#
# Total GULP energy -694403.264184 kJ/mol
# GULP energy per Si atom -12400.058289 kJ/mol
# Density = 2.024228 g / cm^3
# Si number density = 20.288457 Si / 1000 Ang^3
#
#
#
# Elastic Constant Matrix: (Units=GPa)
#
#
# Indices 1 2 3 4 5 6 
#
# 1 28.5387 24.5210 27.6465 0.0000 0.0000 0.0000
# 2 24.5210 85.7739 40.6217 0.0000 0.0000 0.0000
# 3 27.6465 40.6217 99.7304 0.0000 0.0000 0.0000
# 4 0.0000 0.0000 0.0000 35.7809 0.0000 0.0000
# 5 0.0000 0.0000 0.0000 0.0000 34.4514 0.0000
# 6 0.0000 0.0000 0.0000 0.0000 0.0000 31.0581
#
#
#
# Elastic Compliance Matrix: (Units=1/GPa)
#
#
# Indices 1 2 3 4 5 6 
#
# 1 0.054541 -0.010447 -0.010864 0.000000 0.000000 0.000000
# 2 -0.010447 0.016446 -0.003803 0.000000 0.000000 0.000000
# 3 -0.010864 -0.003803 0.014588 0.000000 0.000000 0.000000
# 4 0.000000 0.000000 0.000000 0.027948 0.000000 0.000000
# 5 0.000000 0.000000 0.000000 0.000000 0.029026 0.000000
# 6 0.000000 0.000000 0.000000 0.000000 0.000000 0.032198
#
#
# Mechanical properties :
#
#
# Convention : Reuss Voigt Hill
#
# Bulk Modulus (GPa) = 28.29107 44.40240 36.34674
# Shear Modulus (GPa) = 21.11873 28.34166 24.73020
#
# Velocity S-wave (km/s) = 3.22983 3.74161 3.49510
# Velocity P-wave (km/s) = 5.28051 6.37176 5.85163
#
# Compressibility (1/GPa) = 0.03534684
#
# Stress axis : x y z
#
# Youngs Moduli (GPa) = 18.33486 60.80485 68.55121
#
# Poissons Ratio (x) = 0.63523 0.74476
# Poissons Ratio (y) = 0.19154 0.26068
# Poissons Ratio (z) = 0.19919 0.23122
#
# Static dielectric constant tensor:
#      x y z
#    x 3.358970 0.000000 0.000000 
#    y 0.000000 3.541290 0.000000 
#    z 0.000000 0.000000 3.724140 
# 
# 
# High freq. dielectric constant tensor:
#      x y z
#    x 1.778230 0.000000 0.000000 
#    y 0.000000 1.785410 0.000000 
#    z 0.000000 0.000000 1.795060 
# 
# From -- ./inp_files/20201.got.cif
#   From: 2010.03.12/outbox.cif.g09.slc.cpg/sg62_11_cif.got.tgz:20201.got - 2010.04.10 19:12:36.
