data_PCOD8251047
_publ_section_title
;
Structure prediction by ZEFSAII (Michael W. Deem and Ramdas Pophale) SiO2 
 PCOD8251047
Probable space group: P N M A
;
_chemical_formula_sum "Si O2"
_cell_formula_units_Z 64
_cell_length_a 19.570209
_cell_length_b 9.382936
_cell_length_c 19.640607
_cell_angle_alpha 90.000000
_cell_angle_beta 90.000000
_cell_angle_gamma 90.000000
_cell_volume 3606.526465
_symmetry_space_group_name_H-M "P N M A"
_symmetry_group_IT_number 62
_symmetry_cell_setting 'orthorhombic'
loop_
_space_group_symop_operation_xyz
x,y,z
1/2-x,-y,1/2+z
1/2+x,1/2-y,1/2-z
-x,1/2+y,-z
-x,-y,-z
1/2+x,y,1/2-z
1/2-x,1/2+y,1/2+z
x,1/2-y,z
loop_
_atom_site_type_symbol
_atom_site_label
_atom_site_fract_x
_atom_site_fract_y
_atom_site_fract_z
Si Si1 0.786773 0.584580 0.143560
Si Si2 0.757896 0.916115 0.296521
Si Si3 0.391352 0.413399 0.179662
Si Si4 0.969572 0.584579 0.937736
Si Si5 0.580285 0.586377 0.669739
Si Si6 0.061402 0.584169 0.533622
Si Si7 0.817787 0.582120 0.900891
Si Si8 0.708928 0.918682 0.012196
O O1 0.803467 0.750000 0.131785
O O2 0.751355 0.557069 0.215976
O O3 0.858622 0.504866 0.137992
O O4 0.734754 0.527318 0.085939
O O5 0.757181 0.750000 0.314584
O O6 0.826925 0.983508 0.326237
O O7 0.694248 0.996095 0.331031
O O8 0.364536 0.250000 0.177336
O O9 0.431510 0.445400 0.249929
O O10 0.440481 0.441558 0.115256
O O11 0.975278 0.750000 0.955560
O O12 0.891712 0.537928 0.928134
O O13 0.010531 0.547146 0.868707
O O14 0.000000 0.500000 0.000000
O O15 0.600671 0.750000 0.658557
O O16 0.052437 0.750000 0.516036
O O17 0.132921 0.523617 0.503310
O O18 0.000000 0.500000 0.500000
O O19 0.813210 0.750000 0.886114
O O20 0.762124 0.527951 0.955384
O O21 0.706747 0.750000 0.009719
#
# Coordination Sequence:
#
# PCOD8251047 Si02
#       8
#     8   8   8   8   8   8   8   8
#     4   9  18  33  54  78 104 135 172 211 255 309
#     4  10  19  31  51  79 105 128 165 218 261 297
#     4   9  17  34  57  74  99 139 175 206 252 314
#     4  10  21  35  53  78 108 141 177 217 261 311
#     4   9  18  33  53  79 108 137 173 215 255 299
#     4  10  20  35  54  75 101 134 172 215 261 308
#     4  10  19  34  55  75 100 141 180 208 251 316
#     4   9  17  33  55  74  96 133 175 207 248 309
#
# _framework density 17.745605999999999
#
# number of rings (size 3 to 8) (size 9 to 14) (size 15 to 20)
#    0.000    2.500    1.250    1.125    0.000    3.000 
#    2.250    1.250    0.000    0.000    0.000    0.000 
#    0.000    0.000    0.000    0.000    0.000    0.000 
#
# Total GULP energy -793576.908121 kJ/mol
# GULP energy per Si atom -12399.639189 kJ/mol
# Density = 1.770522 g / cm^3
# Si number density = 17.745606 Si / 1000 Ang^3
#
#
#
# Elastic Constant Matrix: (Units=GPa)
#
#
# Indices 1 2 3 4 5 6 
#
# 1 144.6317 48.3407 80.2644 0.0000 0.0000 0.0000
# 2 48.3407 54.7543 45.7390 0.0000 0.0000 0.0000
# 3 80.2644 45.7390 124.3948 0.0000 0.0000 0.0000
# 4 0.0000 0.0000 0.0000 24.3632 0.0000 0.0000
# 5 0.0000 0.0000 0.0000 0.0000 30.9619 0.0000
# 6 0.0000 0.0000 0.0000 0.0000 0.0000 28.7219
#
#
#
# Elastic Compliance Matrix: (Units=1/GPa)
#
#
# Indices 1 2 3 4 5 6 
#
# 1 0.011976 -0.005944 -0.005542 0.000000 0.000000 0.000000
# 2 -0.005944 0.029310 -0.006942 0.000000 0.000000 0.000000
# 3 -0.005542 -0.006942 0.014167 0.000000 0.000000 0.000000
# 4 0.000000 0.000000 0.000000 0.041046 0.000000 0.000000
# 5 0.000000 0.000000 0.000000 0.000000 0.032298 0.000000
# 6 0.000000 0.000000 0.000000 0.000000 0.000000 0.034817
#
#
# Mechanical properties :
#
#
# Convention : Reuss Voigt Hill
#
# Bulk Modulus (GPa) = 53.76916 74.71878 64.24397
# Shear Modulus (GPa) = 24.19334 26.77186 25.48260
#
# Velocity S-wave (km/s) = 3.69635 3.88834 3.79356
# Velocity P-wave (km/s) = 6.97016 7.89657 7.44778
#
# Compressibility (1/GPa) = 0.01859802
#
# Stress axis : x y z
#
# Youngs Moduli (GPa) = 83.49749 34.11815 70.58500
#
# Poissons Ratio (x) = 0.20280 0.39119
# Poissons Ratio (y) = 0.49631 0.48998
# Poissons Ratio (z) = 0.46275 0.23684
#
# Static dielectric constant tensor:
#      x y z
#    x 3.248830 0.000000 0.000000 
#    y 0.000000 3.190750 0.000000 
#    z 0.000000 0.000000 3.819670 
# 
# 
# High freq. dielectric constant tensor:
#      x y z
#    x 1.673110 0.000000 0.000000 
#    y 0.000000 1.671270 0.000000 
#    z 0.000000 0.000000 1.699800 
# 
# From -- ./inp_files/27685.got.cif
#   From: 2010.03.12/outbox.cif.g09.slc.cpg/sg62_14_cif.got.tgz:27685.got - 2010.04.10 19:12:36.
