data_PCOD8251393
_publ_section_title
;
Structure prediction by ZEFSAII (Michael W. Deem and Ramdas Pophale) SiO2 
 PCOD8251393
Probable space group: P N M A
;
_chemical_formula_sum "Si O2"
_cell_formula_units_Z 64
_cell_length_a 24.654409
_cell_length_b 9.653804
_cell_length_c 14.147004
_cell_angle_alpha 90.000000
_cell_angle_beta 90.000000
_cell_angle_gamma 90.000000
_cell_volume 3367.111901
_symmetry_space_group_name_H-M "P N M A"
_symmetry_group_IT_number 62
_symmetry_cell_setting 'orthorhombic'
loop_
_space_group_symop_operation_xyz
x,y,z
1/2-x,-y,1/2+z
1/2+x,1/2-y,1/2-z
-x,1/2+y,-z
-x,-y,-z
1/2+x,y,1/2-z
1/2-x,1/2+y,1/2+z
x,1/2-y,z
loop_
_atom_site_type_symbol
_atom_site_label
_atom_site_fract_x
_atom_site_fract_y
_atom_site_fract_z
Si Si1 0.804972 0.586705 0.800508
Si Si2 0.830084 0.087596 0.983894
Si Si3 0.947136 0.909224 0.478995
Si Si4 0.599840 0.090794 0.777503
Si Si5 0.304930 0.410420 0.307169
Si Si6 0.404593 0.907674 0.826268
Si Si7 0.515999 0.598910 0.268361
Si Si8 0.451092 0.097418 0.525989
O O1 0.809681 0.750000 0.822597
O O2 0.805797 0.503614 0.899049
O O3 0.750070 0.550662 0.745953
O O4 0.852398 0.534496 0.729671
O O5 0.827032 0.250000 0.955766
O O6 0.892326 0.043119 0.006286
O O7 0.797732 0.056153 0.080930
O O8 0.966441 0.750000 0.472926
O O9 0.917779 0.955363 0.382715
O O10 0.900689 0.925020 0.560423
O O11 0.000000 0.000000 0.500000
O O12 0.619341 0.250000 0.775040
O O13 0.547282 0.065655 0.710188
O O14 0.647838 0.997119 0.740538
O O15 0.319996 0.250000 0.294763
O O16 0.412994 0.750000 0.795756
O O17 0.459662 0.986400 0.800924
O O18 0.518257 0.750000 0.218063
O O19 0.551969 0.602848 0.361472
O O20 0.462562 0.250000 0.483187
O O21 0.500000 0.000000 0.500000
#
# Coordination Sequence:
#
# PCOD8251393 Si02
#       8
#     8   8   8   8   8   8   8   8
#     4  10  22  40  60  84 115 150 193 242 287 336
#     4  10  21  39  62  86 113 150 193 236 285 342
#     4  10  20  34  55  84 117 154 193 233 284 343
#     4  10  21  36  56  84 118 155 193 238 289 344
#     4  10  23  41  60  85 117 151 191 241 289 339
#     4  10  20  34  55  82 110 147 191 233 282 337
#     4  10  19  33  53  80 114 145 183 235 283 335
#     4  10  20  32  51  81 114 147 187 230 282 342
#
# _framework density 19.007389
#
# number of rings (size 3 to 8) (size 9 to 14) (size 15 to 20)
#    0.000    2.000    2.500    0.750    0.000    4.000 
#    0.000    2.500    0.000    0.000    0.000    0.000 
#    0.000    0.000    0.000    0.000    0.000    0.000 
#
# Total GULP energy -793337.765601 kJ/mol
# GULP energy per Si atom -12395.902588 kJ/mol
# Density = 1.896413 g / cm^3
# Si number density = 19.007389 Si / 1000 Ang^3
#
#
#
# Elastic Constant Matrix: (Units=GPa)
#
#
# Indices 1 2 3 4 5 6 
#
# 1 113.4857 58.3052 58.2540 0.0000 0.0000 0.0000
# 2 58.3052 69.9697 47.4477 0.0000 0.0000 0.0000
# 3 58.2540 47.4477 109.8844 0.0000 0.0000 0.0000
# 4 0.0000 0.0000 0.0000 27.9024 0.0000 0.0000
# 5 0.0000 0.0000 0.0000 0.0000 35.2115 0.0000
# 6 0.0000 0.0000 0.0000 0.0000 0.0000 30.0191
#
#
#
# Elastic Compliance Matrix: (Units=1/GPa)
#
#
# Indices 1 2 3 4 5 6 
#
# 1 0.016558 -0.011094 -0.003988 0.000000 0.000000 0.000000
# 2 -0.011094 0.027642 -0.006054 0.000000 0.000000 0.000000
# 3 -0.003988 -0.006054 0.013829 0.000000 0.000000 0.000000
# 4 0.000000 0.000000 0.000000 0.035839 0.000000 0.000000
# 5 0.000000 0.000000 0.000000 0.000000 0.028400 0.000000
# 6 0.000000 0.000000 0.000000 0.000000 0.000000 0.033312
#
#
# Mechanical properties :
#
#
# Convention : Reuss Voigt Hill
#
# Bulk Modulus (GPa) = 63.46437 69.03931 66.25184
# Shear Modulus (GPa) = 24.61786 27.24880 25.93333
#
# Velocity S-wave (km/s) = 3.60276 3.79038 3.69776
# Velocity P-wave (km/s) = 7.12519 7.45367 7.29128
#
# Compressibility (1/GPa) = 0.01575687
#
# Stress axis : x y z
#
# Youngs Moduli (GPa) = 60.39268 36.17721 72.31181
#
# Poissons Ratio (x) = 0.40133 0.28838
# Poissons Ratio (y) = 0.66997 0.43781
# Poissons Ratio (z) = 0.24085 0.21903
#
# Static dielectric constant tensor:
#      x y z
#    x 3.418820 0.000000 0.000000 
#    y 0.000000 3.491110 0.000000 
#    z 0.000000 0.000000 3.697310 
# 
# 
# High freq. dielectric constant tensor:
#      x y z
#    x 1.729590 0.000000 0.000000 
#    y 0.000000 1.734680 0.000000 
#    z 0.000000 0.000000 1.747870 
# 
# From -- ./inp_files/20999.got.cif
#   From: 2010.03.12/outbox.cif.g09.slc.cpg/sg62_11_cif.got.tgz:20999.got - 2010.04.10 19:12:36.
