data_PCOD8251600
_publ_section_title
;
Structure prediction by ZEFSAII (Michael W. Deem and Ramdas Pophale) SiO2 
 PCOD8251600
Probable space group: P N M A
;
_chemical_formula_sum "Si O2"
_cell_formula_units_Z 64
_cell_length_a 19.854533
_cell_length_b 8.847946
_cell_length_c 19.720663
_cell_angle_alpha 90.000000
_cell_angle_beta 90.000000
_cell_angle_gamma 90.000000
_cell_volume 3464.365073
_symmetry_space_group_name_H-M "P N M A"
_symmetry_group_IT_number 62
_symmetry_cell_setting 'orthorhombic'
loop_
_space_group_symop_operation_xyz
x,y,z
1/2-x,-y,1/2+z
1/2+x,1/2-y,1/2-z
-x,1/2+y,-z
-x,-y,-z
1/2+x,y,1/2-z
1/2-x,1/2+y,1/2+z
x,1/2-y,z
loop_
_atom_site_type_symbol
_atom_site_label
_atom_site_fract_x
_atom_site_fract_y
_atom_site_fract_z
Si Si1 0.323213 0.927369 0.097231
Si Si2 0.586298 0.574816 0.679220
Si Si3 0.066086 0.570607 0.969540
Si Si4 0.206692 0.923472 0.733237
Si Si5 0.987334 0.570353 0.706554
Si Si6 0.327758 0.427424 0.579140
Si Si7 0.459316 0.070244 0.061809
Si Si8 0.856732 0.573680 0.781887
O O1 0.335050 0.750000 0.087551
O O2 0.249844 0.979731 0.069275
O O3 0.325245 0.969423 0.176368
O O4 0.381867 0.015403 0.057435
O O5 0.568083 0.750000 0.673661
O O6 0.574696 0.501063 0.605751
O O7 0.664496 0.550476 0.698422
O O8 0.538710 0.503076 0.737245
O O9 0.059318 0.750000 0.969007
O O10 0.131061 0.521223 0.013116
O O11 0.000000 0.500000 0.000000
O O12 0.200092 0.750000 0.707770
O O13 0.283841 0.964699 0.749870
O O14 0.992494 0.750000 0.704395
O O15 0.912794 0.514327 0.728760
O O16 0.006811 0.509803 0.631903
O O17 0.329825 0.250000 0.590997
O O18 0.363673 0.499184 0.644545
O O19 0.461542 0.250000 0.056688
O O20 0.500000 0.000000 0.000000
O O21 0.867408 0.750000 0.793651
#
# Coordination Sequence:
#
# PCOD8251600 Si02
#       8
#     8   8   8   8   8   8   8   8
#     4  10  19  34  55  78 105 141 179 213 261 322
#     4   9  16  29  51  74  99 133 169 213 258 302
#     4  10  20  34  52  76 108 142 178 219 264 315
#     4   9  16  30  52  77 100 128 171 217 258 305
#     4   9  17  31  52  78 103 127 165 215 262 306
#     4   9  19  34  51  78 113 146 176 214 265 316
#     4  11  22  38  57  78 106 138 177 227 276 325
#     4   9  17  30  53  81 101 131 176 215 254 308
#
# _framework density 18.473804000000001
#
# number of rings (size 3 to 8) (size 9 to 14) (size 15 to 20)
#    0.000    2.500    1.250    1.500    0.000    2.000 
#    2.250    1.875    0.000    0.000    0.000    0.000 
#    0.000    0.000    0.000    0.000    0.000    0.000 
#
# Total GULP energy -793399.545589 kJ/mol
# GULP energy per Si atom -12396.867900 kJ/mol
# Density = 1.843176 g / cm^3
# Si number density = 18.473804 Si / 1000 Ang^3
#
#
#
# Elastic Constant Matrix: (Units=GPa)
#
#
# Indices 1 2 3 4 5 6 
#
# 1 143.9475 29.2922 89.5903 0.0000 0.0000 0.0000
# 2 29.2922 32.6063 27.7568 0.0000 0.0000 0.0000
# 3 89.5903 27.7568 156.7928 0.0000 0.0000 0.0000
# 4 0.0000 0.0000 0.0000 24.0552 0.0000 0.0000
# 5 0.0000 0.0000 0.0000 0.0000 32.4731 0.0000
# 6 0.0000 0.0000 0.0000 0.0000 0.0000 24.1719
#
#
#
# Elastic Compliance Matrix: (Units=1/GPa)
#
#
# Indices 1 2 3 4 5 6 
#
# 1 0.011595 -0.005624 -0.005630 0.000000 0.000000 0.000000
# 2 -0.005624 0.038839 -0.003662 0.000000 0.000000 0.000000
# 3 -0.005630 -0.003662 0.010243 0.000000 0.000000 0.000000
# 4 0.000000 0.000000 0.000000 0.041571 0.000000 0.000000
# 5 0.000000 0.000000 0.000000 0.000000 0.030795 0.000000
# 6 0.000000 0.000000 0.000000 0.000000 0.000000 0.041370
#
#
# Mechanical properties :
#
#
# Convention : Reuss Voigt Hill
#
# Bulk Modulus (GPa) = 32.42007 69.62502 51.02254
# Shear Modulus (GPa) = 23.30707 28.58720 25.94714
#
# Velocity S-wave (km/s) = 3.55579 3.93803 3.75178
# Velocity P-wave (km/s) = 5.86903 7.64511 6.81518
#
# Compressibility (1/GPa) = 0.03084509
#
# Stress axis : x y z
#
# Youngs Moduli (GPa) = 86.24113 25.74741 97.62794
#
# Poissons Ratio (x) = 0.14481 0.54963
# Poissons Ratio (y) = 0.48504 0.35751
# Poissons Ratio (z) = 0.48553 0.09428
#
# Static dielectric constant tensor:
#      x y z
#    x 3.705020 0.000000 0.000000 
#    y 0.000000 3.145090 0.000000 
#    z 0.000000 0.000000 3.467690 
# 
# 
# High freq. dielectric constant tensor:
#      x y z
#    x 1.732920 0.000000 0.000000 
#    y 0.000000 1.686090 0.000000 
#    z 0.000000 0.000000 1.705680 
# 
# From -- ./inp_files/24711.got.cif
#   From: 2010.03.12/outbox.cif.g09.slc.cpg/sg62_13_cif.got.tgz:24711.got - 2010.04.10 19:12:36.
