data_PCOD8251283
_publ_section_title
;
Structure prediction by ZEFSAII (Michael W. Deem and Ramdas Pophale) SiO2 
 PCOD8251283
Probable space group: P N M A
;
_chemical_formula_sum "Si O2"
_cell_formula_units_Z 56
_cell_length_a 21.801567
_cell_length_b 9.053520
_cell_length_c 14.345076
_cell_angle_alpha 90.000000
_cell_angle_beta 90.000000
_cell_angle_gamma 90.000000
_cell_volume 2831.444339
_symmetry_space_group_name_H-M "P N M A"
_symmetry_group_IT_number 62
_symmetry_cell_setting 'orthorhombic'
loop_
_space_group_symop_operation_xyz
x,y,z
1/2-x,-y,1/2+z
1/2+x,1/2-y,1/2-z
-x,1/2+y,-z
-x,-y,-z
1/2+x,y,1/2-z
1/2-x,1/2+y,1/2+z
x,1/2-y,z
loop_
_atom_site_type_symbol
_atom_site_label
_atom_site_fract_x
_atom_site_fract_y
_atom_site_fract_z
Si Si1 0.784036 0.581591 0.415741
Si Si2 0.713673 0.921953 0.099572
Si Si3 0.143182 0.922241 0.097703
Si Si4 0.103839 0.081286 0.711193
Si Si5 0.999726 0.423377 0.400556
Si Si6 0.883393 0.575928 0.720932
Si Si7 0.144790 0.420199 0.912036
O O1 0.786723 0.750000 0.452192
O O2 0.808602 0.477424 0.498369
O O3 0.714933 0.540390 0.387044
O O4 0.827229 0.557999 0.326748
O O5 0.698499 0.750000 0.110075
O O6 0.785063 0.957803 0.111926
O O7 0.678866 0.009366 0.179969
O O8 0.128904 0.750000 0.104736
O O9 0.104949 0.006226 0.177292
O O10 0.120802 0.979696 0.996881
O O11 0.082825 0.250000 0.693701
O O12 0.104122 0.044540 0.821095
O O13 0.058391 0.971729 0.659673
O O14 0.996449 0.250000 0.417061
O O15 0.000000 0.500000 0.500000
O O16 0.060699 0.469619 0.345562
O O17 0.876801 0.750000 0.731186
O O18 0.138876 0.250000 0.941920
#
# Coordination Sequence:
#
# PCOD8251283 Si02
#       7
#     8   8   8   8   8   8   8
#     4   9  18  33  53  82 117 146 175 218 272 323
#     4  10  19  32  54  84 114 145 182 221 265 324
#     4  10  20  35  57  84 112 143 182 225 267 322
#     4  10  20  36  58  80 108 147 184 221 270 323
#     4  11  25  42  59  81 109 141 181 227 271 319
#     4  11  23  38  55  77 109 147 183 225 277 323
#     4   9  19  36  56  82 116 147 176 219 275 326
#
# _framework density 19.777892000000001
#
# number of rings (size 3 to 8) (size 9 to 14) (size 15 to 20)
#    0.000    2.000    0.000    3.429    0.000   10.286 
#    0.000    2.143    0.000    0.000    0.000    0.000 
#    0.000    0.000    0.000    0.000    0.000    0.000 
#
# Total GULP energy -694637.492802 kJ/mol
# GULP energy per Si atom -12404.240943 kJ/mol
# Density = 1.973288 g / cm^3
# Si number density = 19.777892 Si / 1000 Ang^3
#
#
#
# Elastic Constant Matrix: (Units=GPa)
#
#
# Indices 1 2 3 4 5 6 
#
# 1 53.6217 38.6060 47.7707 0.0000 0.0000 0.0000
# 2 38.6060 78.8953 63.6348 0.0000 0.0000 0.0000
# 3 47.7707 63.6348 149.4889 0.0000 0.0000 0.0000
# 4 0.0000 0.0000 0.0000 40.5332 0.0000 0.0000
# 5 0.0000 0.0000 0.0000 0.0000 28.9855 0.0000
# 6 0.0000 0.0000 0.0000 0.0000 0.0000 27.6201
#
#
#
# Elastic Compliance Matrix: (Units=1/GPa)
#
#
# Indices 1 2 3 4 5 6 
#
# 1 0.031336 -0.011051 -0.005309 0.000000 0.000000 0.000000
# 2 -0.011051 0.023200 -0.006344 0.000000 0.000000 0.000000
# 3 -0.005309 -0.006344 0.011087 0.000000 0.000000 0.000000
# 4 0.000000 0.000000 0.000000 0.024671 0.000000 0.000000
# 5 0.000000 0.000000 0.000000 0.000000 0.034500 0.000000
# 6 0.000000 0.000000 0.000000 0.000000 0.000000 0.036206
#
#
# Mechanical properties :
#
#
# Convention : Reuss Voigt Hill
#
# Bulk Modulus (GPa) = 49.47378 64.66986 57.07182
# Shear Modulus (GPa) = 23.45808 28.22737 25.84273
#
# Velocity S-wave (km/s) = 3.44768 3.78195 3.61868
# Velocity P-wave (km/s) = 6.39669 7.20000 6.81020
#
# Compressibility (1/GPa) = 0.02021273
#
# Stress axis : x y z
#
# Youngs Moduli (GPa) = 31.91249 43.10376 90.19775
#
# Poissons Ratio (x) = 0.47635 0.47889
# Poissons Ratio (y) = 0.35267 0.57224
# Poissons Ratio (z) = 0.16943 0.27346
#
# Static dielectric constant tensor:
#      x y z
#    x 3.398210 0.000000 0.000000 
#    y 0.000000 3.623680 0.000000 
#    z 0.000000 0.000000 3.729560 
# 
# 
# High freq. dielectric constant tensor:
#      x y z
#    x 1.748200 0.000000 0.000000 
#    y 0.000000 1.773860 0.000000 
#    z 0.000000 0.000000 1.784180 
# 
# From -- ./inp_files/20191.got.cif
#   From: 2010.03.12/outbox.cif.g09.slc.cpg/sg62_11_cif.got.tgz:20191.got - 2010.04.10 19:12:36.
