data_PCOD8251847
_publ_section_title
;
Structure prediction by ZEFSAII (Michael W. Deem and Ramdas Pophale) SiO2 
 PCOD8251847
Probable space group: P N M A
;
_chemical_formula_sum "Si O2"
_cell_formula_units_Z 64
_cell_length_a 12.730533
_cell_length_b 9.032407
_cell_length_c 29.048171
_cell_angle_alpha 90.000000
_cell_angle_beta 90.000000
_cell_angle_gamma 90.000000
_cell_volume 3340.172362
_symmetry_space_group_name_H-M "P N M A"
_symmetry_group_IT_number 62
_symmetry_cell_setting 'orthorhombic'
loop_
_space_group_symop_operation_xyz
x,y,z
1/2-x,-y,1/2+z
1/2+x,1/2-y,1/2-z
-x,1/2+y,-z
-x,-y,-z
1/2+x,y,1/2-z
1/2-x,1/2+y,1/2+z
x,1/2-y,z
loop_
_atom_site_type_symbol
_atom_site_label
_atom_site_fract_x
_atom_site_fract_y
_atom_site_fract_z
Si Si1 0.072834 0.916112 0.420641
Si Si2 0.366997 0.420365 0.298718
Si Si3 0.329861 0.574277 0.565183
Si Si4 0.783642 0.574454 0.036672
Si Si5 0.551627 0.576753 0.602578
Si Si6 0.440157 0.920896 0.208609
Si Si7 0.378763 0.074507 0.115509
Si Si8 0.166216 0.586671 0.320211
O O1 0.033704 0.750000 0.432033
O O2 0.160494 0.970517 0.457355
O O3 0.132229 0.918676 0.372587
O O4 0.971490 0.021829 0.418972
O O5 0.376387 0.250000 0.284008
O O6 0.439031 0.455421 0.343007
O O7 0.397869 0.523548 0.256838
O O8 0.246995 0.455800 0.310844
O O9 0.328950 0.750000 0.565161
O O10 0.320306 0.515150 0.513006
O O11 0.438656 0.514001 0.586466
O O12 0.231911 0.517042 0.595295
O O13 0.794983 0.750000 0.041390
O O14 0.855393 0.503579 0.075813
O O15 0.562023 0.750000 0.592098
O O16 0.410441 0.750000 0.201175
O O17 0.564955 0.943784 0.211223
O O18 0.389164 0.009873 0.166519
O O19 0.383824 0.250000 0.118456
O O20 0.213799 0.750000 0.309169
#
# Coordination Sequence:
#
# PCOD8251847 Si02
#       8
#     8   8   8   8   8   8   8   8
#     4   9  18  33  55  81 110 144 186 234 278 325
#     4  11  22  34  55  85 112 143 183 232 286 340
#     4   9  20  37  56  81 117 154 185 228 284 340
#     4  10  19  35  59  83 110 150 193 230 279 337
#     4  10  21  37  55  81 116 147 186 237 284 331
#     4  10  22  39  58  81 110 145 188 233 283 339
#     4  10  20  36  57  81 112 151 190 231 287 343
#     4   9  18  35  55  76 106 144 182 228 277 326
#
# _framework density 19.160688
#
# number of rings (size 3 to 8) (size 9 to 14) (size 15 to 20)
#    0.000    2.250    1.250    2.250    0.000    5.000 
#    0.000    3.750    0.000    0.000    0.000    0.000 
#    0.000    0.000    0.000    0.000    0.000    0.000 
#
# Total GULP energy -793554.002753 kJ/mol
# GULP energy per Si atom -12399.281293 kJ/mol
# Density = 1.911708 g / cm^3
# Si number density = 19.160688 Si / 1000 Ang^3
#
#
#
# Elastic Constant Matrix: (Units=GPa)
#
#
# Indices 1 2 3 4 5 6 
#
# 1 94.4848 40.0170 35.8179 0.0000 0.0000 0.0000
# 2 40.0170 60.2101 25.0432 0.0000 0.0000 0.0000
# 3 35.8179 25.0432 59.9556 0.0000 0.0000 0.0000
# 4 0.0000 0.0000 0.0000 22.2589 0.0000 0.0000
# 5 0.0000 0.0000 0.0000 0.0000 16.2509 0.0000
# 6 0.0000 0.0000 0.0000 0.0000 0.0000 27.5608
#
#
#
# Elastic Compliance Matrix: (Units=1/GPa)
#
#
# Indices 1 2 3 4 5 6 
#
# 1 0.016538 -0.008329 -0.006401 0.000000 0.000000 0.000000
# 2 -0.008329 0.024296 -0.005172 0.000000 0.000000 0.000000
# 3 -0.006401 -0.005172 0.022663 0.000000 0.000000 0.000000
# 4 0.000000 0.000000 0.000000 0.044926 0.000000 0.000000
# 5 0.000000 0.000000 0.000000 0.000000 0.061535 0.000000
# 6 0.000000 0.000000 0.000000 0.000000 0.000000 0.036283
#
#
# Mechanical properties :
#
#
# Convention : Reuss Voigt Hill
#
# Bulk Modulus (GPa) = 42.20775 46.26741 44.23758
# Shear Modulus (GPa) = 19.68949 20.79894 20.24421
#
# Velocity S-wave (km/s) = 3.20909 3.29827 3.25399
# Velocity P-wave (km/s) = 5.98391 6.22127 6.10375
#
# Compressibility (1/GPa) = 0.02369233
#
# Stress axis : x y z
#
# Youngs Moduli (GPa) = 60.46764 41.15984 44.12426
#
# Poissons Ratio (x) = 0.34283 0.28243
# Poissons Ratio (y) = 0.50364 0.22822
# Poissons Ratio (z) = 0.38704 0.21289
#
# Static dielectric constant tensor:
#      x y z
#    x 3.784340 0.000000 0.000000 
#    y 0.000000 3.387320 0.000000 
#    z 0.000000 0.000000 3.535480 
# 
# 
# High freq. dielectric constant tensor:
#      x y z
#    x 1.750240 0.000000 0.000000 
#    y 0.000000 1.732840 0.000000 
#    z 0.000000 0.000000 1.745960 
# 
# From -- ./inp_files/32438.got.cif
#   From: 2010.03.12/outbox.cif.g09.slc.cpg/sg62_17_cif.got.tgz:32438.got - 2010.04.10 19:12:36.
