data_PCOD8251107
_publ_section_title
;
Structure prediction by ZEFSAII (Michael W. Deem and Ramdas Pophale) SiO2 
 PCOD8251107
Probable space group: P N M A
;
_chemical_formula_sum "Si O2"
_cell_formula_units_Z 64
_cell_length_a 17.732521
_cell_length_b 9.166355
_cell_length_c 22.953331
_cell_angle_alpha 90.000000
_cell_angle_beta 90.000000
_cell_angle_gamma 90.000000
_cell_volume 3730.893698
_symmetry_space_group_name_H-M "P N M A"
_symmetry_group_IT_number 62
_symmetry_cell_setting 'orthorhombic'
loop_
_space_group_symop_operation_xyz
x,y,z
1/2-x,-y,1/2+z
1/2+x,1/2-y,1/2-z
-x,1/2+y,-z
-x,-y,-z
1/2+x,y,1/2-z
1/2-x,1/2+y,1/2+z
x,1/2-y,z
loop_
_atom_site_type_symbol
_atom_site_label
_atom_site_fract_x
_atom_site_fract_y
_atom_site_fract_z
Si Si1 0.048143 0.587920 0.420444
Si Si2 0.593786 0.415728 0.471013
Si Si3 0.525809 0.577001 0.819222
Si Si4 0.679718 0.083631 0.361772
Si Si5 0.462504 0.916650 0.412040
Si Si6 0.110785 0.089416 0.516649
Si Si7 0.328021 0.577243 0.137297
Si Si8 0.519242 0.419721 0.310045
O O1 0.073523 0.750000 0.400716
O O2 0.113542 0.519392 0.461520
O O3 0.035198 0.486158 0.364459
O O4 0.972710 0.598212 0.457580
O O5 0.561812 0.250000 0.461515
O O6 0.669287 0.431873 0.432131
O O7 0.606465 0.440318 0.541037
O O8 0.536328 0.535874 0.447471
O O9 0.532898 0.750000 0.828418
O O10 0.607204 0.503362 0.826379
O O11 0.495343 0.533487 0.755883
O O12 0.699787 0.250000 0.345054
O O13 0.603630 0.032742 0.328657
O O14 0.747246 0.979674 0.340610
O O15 0.469503 0.750000 0.393032
O O16 0.456205 0.006969 0.352135
O O17 0.135321 0.250000 0.494937
O O18 0.165019 0.035923 0.568807
O O19 0.336137 0.750000 0.147215
O O20 0.508509 0.250000 0.318983
#
# Coordination Sequence:
#
# PCOD8251107 Si02
#       8
#     8   8   8   8   8   8   8   8
#     4   9  16  26  43  68  93 114 144 188 229 267
#     4   8  15  27  42  64  93 120 147 181 225 278
#     4  10  19  32  50  69  93 129 167 199 238 286
#     4   9  17  31  49  68  94 125 155 192 240 292
#     4   9  15  24  43  68  91 117 148 186 230 270
#     4   8  15  27  42  62  90 119 144 176 224 279
#     4  10  20  32  47  71  98 121 154 200 243 286
#     4   9  19  33  48  69  96 127 165 203 237 284
#
# _framework density 17.154067000000001
#
# number of rings (size 3 to 8) (size 9 to 14) (size 15 to 20)
#    0.000    3.000    0.000    3.000    0.000    7.000 
#    0.000    0.000    0.000    1.500    0.000    1.750 
#    0.000    0.000    0.000    0.000    0.000    0.000 
#
# Total GULP energy -792957.092356 kJ/mol
# GULP energy per Si atom -12389.954568 kJ/mol
# Density = 1.711502 g / cm^3
# Si number density = 17.154067 Si / 1000 Ang^3
#
#
#
# Elastic Constant Matrix: (Units=GPa)
#
#
# Indices 1 2 3 4 5 6 
#
# 1 53.0647 33.5075 39.7745 0.0000 0.0000 0.0000
# 2 33.5075 84.3532 58.2830 0.0000 0.0000 0.0000
# 3 39.7745 58.2830 122.4098 0.0000 0.0000 0.0000
# 4 0.0000 0.0000 0.0000 28.5542 0.0000 0.0000
# 5 0.0000 0.0000 0.0000 0.0000 14.8231 0.0000
# 6 0.0000 0.0000 0.0000 0.0000 0.0000 17.8189
#
#
#
# Elastic Compliance Matrix: (Units=1/GPa)
#
#
# Indices 1 2 3 4 5 6 
#
# 1 0.027480 -0.007073 -0.005561 0.000000 0.000000 0.000000
# 2 -0.007073 0.019488 -0.006980 0.000000 0.000000 0.000000
# 3 -0.005561 -0.006980 0.013300 0.000000 0.000000 0.000000
# 4 0.000000 0.000000 0.000000 0.035021 0.000000 0.000000
# 5 0.000000 0.000000 0.000000 0.000000 0.067462 0.000000
# 6 0.000000 0.000000 0.000000 0.000000 0.000000 0.056120
#
#
# Mechanical properties :
#
#
# Convention : Reuss Voigt Hill
#
# Bulk Modulus (GPa) = 47.53403 58.10642 52.82022
# Shear Modulus (GPa) = 18.85990 20.79008 19.82499
#
# Velocity S-wave (km/s) = 3.31938 3.48510 3.40325
# Velocity P-wave (km/s) = 6.51623 7.08106 6.80451
#
# Compressibility (1/GPa) = 0.02103756
#
# Stress axis : x y z
#
# Youngs Moduli (GPa) = 36.39054 51.31464 75.18920
#
# Poissons Ratio (x) = 0.36296 0.41814
# Poissons Ratio (y) = 0.25740 0.52484
# Poissons Ratio (z) = 0.20237 0.35819
#
# Static dielectric constant tensor:
#      x y z
#    x 2.864190 0.000000 0.000000 
#    y 0.000000 3.331630 0.000000 
#    z 0.000000 0.000000 3.388910 
# 
# 
# High freq. dielectric constant tensor:
#      x y z
#    x 1.609800 0.000000 0.000000 
#    y 0.000000 1.673400 0.000000 
#    z 0.000000 0.000000 1.655570 
# 
# From -- ./inp_files/30106.got.cif
#   From: 2010.03.12/outbox.cif.g09.slc.cpg/sg62_16_cif.got.tgz:30106.got - 2010.04.10 19:12:36.
