data_PCOD8251915
_publ_section_title
;
Structure prediction by ZEFSAII (Michael W. Deem and Ramdas Pophale) SiO2 
 PCOD8251915
Probable space group: P N M A
;
_chemical_formula_sum "Si O2"
_cell_formula_units_Z 32
_cell_length_a 10.809923
_cell_length_b 5.183018
_cell_length_c 29.915211
_cell_angle_alpha 90.000000
_cell_angle_beta 90.000000
_cell_angle_gamma 90.000000
_cell_volume 1676.090204
_symmetry_space_group_name_H-M "P N M A"
_symmetry_group_IT_number 62
_symmetry_cell_setting 'orthorhombic'
loop_
_space_group_symop_operation_xyz
x,y,z
1/2-x,-y,1/2+z
1/2+x,1/2-y,1/2-z
-x,1/2+y,-z
-x,-y,-z
1/2+x,y,1/2-z
1/2-x,1/2+y,1/2+z
x,1/2-y,z
loop_
_atom_site_type_symbol
_atom_site_label
_atom_site_fract_x
_atom_site_fract_y
_atom_site_fract_z
Si Si1 0.437742 0.750000 0.681190
Si Si2 0.704282 0.750000 0.638529
Si Si3 0.881278 0.750000 0.346990
Si Si4 0.334773 0.250000 0.825772
Si Si5 0.277960 0.250000 0.111305
Si Si6 0.870776 0.250000 0.036692
Si Si7 0.155784 0.250000 0.018471
Si Si8 0.666438 0.750000 0.277125
O O1 0.578415 0.750000 0.666210
O O2 0.351558 0.750000 0.637602
O O3 0.414501 0.500221 0.711439
O O4 0.782392 0.499454 0.649977
O O5 0.679961 0.750000 0.586230
O O6 0.857942 0.500303 0.377217
O O7 0.793973 0.750000 0.303939
O O8 0.018340 0.750000 0.328447
O O9 0.295031 0.250000 0.774273
O O10 0.252547 0.250000 0.058754
O O11 0.018681 0.250000 0.038722
O O12 0.819748 0.499929 0.011419
#
# Coordination Sequence:
#
# PCOD8251915 Si02
#       8
#     4   4   4   4   4   4   4   4
#     4  10  21  38  62  89 119 151 197 251 302 361
#     4  12  24  40  62  91 127 163 190 252 313 360
#     4  10  23  39  61  85 120 159 207 248 285 366
#     4  12  26  41  61  87 122 172 200 245 303 358
#     4  10  19  39  63  88 117 156 198 249 305 345
#     4  10  21  35  58  93 128 148 193 251 308 371
#     4  10  19  35  62  92 120 154 192 251 309 358
#     4  10  23  41  61  87 115 155 207 257 289 345
#
# _framework density 19.092051999999999
#
# number of rings (size 3 to 8) (size 9 to 14) (size 15 to 20)
#    0.000    1.500    1.250    3.750    3.500    0.000 
#    0.000    0.000    0.000   15.000    0.000    0.000 
#    0.000    0.000    0.000    0.000    0.000    0.000 
#
# Total GULP energy -396997.428831 kJ/mol
# GULP energy per Si atom -12406.169651 kJ/mol
# Density = 1.904860 g / cm^3
# Si number density = 19.092052 Si / 1000 Ang^3
#
#
#
# Elastic Constant Matrix: (Units=GPa)
#
#
# Indices 1 2 3 4 5 6 
#
# 1 98.0905 50.8452 46.2829 0.0000 0.0000 0.0000
# 2 50.8452 196.7047 79.2363 0.0000 0.0000 0.0000
# 3 46.2829 79.2363 169.8020 0.0000 0.0000 0.0000
# 4 0.0000 0.0000 0.0000 -15.6662 0.0000 0.0000
# 5 0.0000 0.0000 0.0000 0.0000 26.4211 0.0000
# 6 0.0000 0.0000 0.0000 0.0000 0.0000 69.8494
#
#
#
# Elastic Compliance Matrix: (Units=1/GPa)
#
#
# Indices 1 2 3 4 5 6 
#
# 1 0.012481 -0.002285 -0.002336 0.000000 0.000000 0.000000
# 2 -0.002285 0.006679 -0.002494 0.000000 0.000000 0.000000
# 3 -0.002336 -0.002494 0.007690 0.000000 0.000000 0.000000
# 4 0.000000 0.000000 0.000000 -0.063832 0.000000 0.000000
# 5 0.000000 0.000000 0.000000 0.000000 0.037849 0.000000
# 6 0.000000 0.000000 0.000000 0.000000 0.000000 0.014317
#
#
# Mechanical properties :
#
#
# Convention : Reuss Voigt Hill
#
# Bulk Modulus (GPa) = 79.23700 90.81399 85.02550
# Shear Modulus (GPa) = 148.72341 35.33638 92.02990
#
# Velocity S-wave (km/s) = 8.83556 4.30681 6.95039
# Velocity P-wave (km/s) = 12.06989 8.50889 10.44230
#
# Compressibility (1/GPa) = 0.01262037
#
# Stress axis : x y z
#
# Youngs Moduli (GPa) = 80.11968 149.72199 130.04737
#
# Poissons Ratio (x) = 0.34218 0.30373
# Poissons Ratio (y) = 0.18311 0.32431
# Poissons Ratio (z) = 0.18712 0.37337
#
# Static dielectric constant tensor:
#      x y z
#    x 3.331720 0.000000 0.000000 
#    y 0.000000 3.715610 0.000000 
#    z 0.000000 0.000000 3.442720 
# 
# 
# High freq. dielectric constant tensor:
#      x y z
#    x 1.730450 0.000000 0.000000 
#    y 0.000000 1.766900 0.000000 
#    z 0.000000 0.000000 1.748420 
# 
# From -- ./inp_files/30616.got.cif
#   From: 2010.03.12/outbox.cif.g09.slc.cpg/sg62_16_cif.got.tgz:30616.got - 2010.04.10 19:12:36.
