data_PCOD8251730
_publ_section_title
;
Structure prediction by ZEFSAII (Michael W. Deem and Ramdas Pophale) SiO2 
 PCOD8251730
Probable space group: P N M A
;
_chemical_formula_sum "Si O2"
_cell_formula_units_Z 48
_cell_length_a 20.448212
_cell_length_b 21.166255
_cell_length_c 5.113268
_cell_angle_alpha 90.000000
_cell_angle_beta 90.000000
_cell_angle_gamma 90.000000
_cell_volume 2213.084105
_symmetry_space_group_name_H-M "P N M A"
_symmetry_group_IT_number 62
_symmetry_cell_setting 'orthorhombic'
loop_
_space_group_symop_operation_xyz
x,y,z
1/2-x,-y,1/2+z
1/2+x,1/2-y,1/2-z
-x,1/2+y,-z
-x,-y,-z
1/2+x,y,1/2-z
1/2-x,1/2+y,1/2+z
x,1/2-y,z
loop_
_atom_site_type_symbol
_atom_site_label
_atom_site_fract_x
_atom_site_fract_y
_atom_site_fract_z
Si Si1 0.624248 0.981471 0.716260
Si Si2 0.655966 0.678456 0.208918
Si Si3 0.412334 0.885655 0.239085
Si Si4 0.638568 0.175938 0.261286
Si Si5 0.720668 0.871816 0.705742
Si Si6 0.441634 0.428351 0.780188
O O1 0.693275 0.943668 0.724643
O O2 0.588000 0.974294 0.439049
O O3 0.639682 0.055967 0.757353
O O4 0.574936 0.956623 0.937754
O O5 0.637309 0.750000 0.260925
O O6 0.710359 0.655828 0.416050
O O7 0.589379 0.640720 0.253940
O O8 0.683111 0.670769 0.917128
O O9 0.402593 0.838513 0.480179
O O10 0.481512 0.920786 0.252186
O O11 0.406292 0.842972 0.982647
O O12 0.657114 0.250000 0.249994
O O13 0.702651 0.131801 0.262951
#
# Coordination Sequence:
#
# PCOD8251730 Si02
#       6
#     8   8   8   8   8   8
#     4  10  21  40  66  91 116 149 200 255 300 345
#     4  10  19  34  59  84 111 151 198 248 294 344
#     4  12  24  40  63  88 121 162 195 239 300 363
#     4  12  26  41  58  84 123 165 199 236 290 359
#     4  10  22  39  60  86 115 151 200 252 297 342
#     4  10  21  38  60  91 121 152 192 246 303 351
#
# _framework density 21.689191000000001
#
# number of rings (size 3 to 8) (size 9 to 14) (size 15 to 20)
#    0.000    1.333    0.000    6.000    0.000    2.667 
#    0.000    0.000    0.000    0.000    0.000    0.000 
#    0.000    0.000    0.000    0.000    0.000    0.000 
#
# Total GULP energy -595417.195913 kJ/mol
# GULP energy per Si atom -12404.524915 kJ/mol
# Density = 2.163983 g / cm^3
# Si number density = 21.689191 Si / 1000 Ang^3
#
#
#
# Elastic Constant Matrix: (Units=GPa)
#
#
# Indices 1 2 3 4 5 6 
#
# 1 58.9586 6.5102 14.4681 0.0000 0.0000 0.0000
# 2 6.5102 88.7222 19.8855 0.0000 0.0000 0.0000
# 3 14.4681 19.8855 107.5392 0.0000 0.0000 0.0000
# 4 0.0000 0.0000 0.0000 20.7479 0.0000 0.0000
# 5 0.0000 0.0000 0.0000 0.0000 23.0181 0.0000
# 6 0.0000 0.0000 0.0000 0.0000 0.0000 18.6637
#
#
#
# Elastic Compliance Matrix: (Units=1/GPa)
#
#
# Indices 1 2 3 4 5 6 
#
# 1 0.017593 -0.000793 -0.002220 0.000000 0.000000 0.000000
# 2 -0.000793 0.011794 -0.002074 0.000000 0.000000 0.000000
# 3 -0.002220 -0.002074 0.009981 0.000000 0.000000 0.000000
# 4 0.000000 0.000000 0.000000 0.048198 0.000000 0.000000
# 5 0.000000 0.000000 0.000000 0.000000 0.043444 0.000000
# 6 0.000000 0.000000 0.000000 0.000000 0.000000 0.053580
#
#
# Mechanical properties :
#
#
# Convention : Reuss Voigt Hill
#
# Bulk Modulus (GPa) = 34.25440 37.43861 35.84651
# Shear Modulus (GPa) = 24.45018 26.77634 25.61326
#
# Velocity S-wave (km/s) = 3.36117 3.51743 3.44018
# Velocity P-wave (km/s) = 5.55795 5.81337 5.68710
#
# Compressibility (1/GPa) = 0.02919333
#
# Stress axis : x y z
#
# Youngs Moduli (GPa) = 56.83918 84.78714 100.18844
#
# Poissons Ratio (x) = 0.06726 0.22245
# Poissons Ratio (y) = 0.04509 0.20781
# Poissons Ratio (z) = 0.12620 0.17586
#
# Static dielectric constant tensor:
#      x y z
#    x 3.628780 0.000000 0.000000 
#    y 0.000000 3.947540 0.000000 
#    z 0.000000 0.000000 4.165350 
# 
# 
# High freq. dielectric constant tensor:
#      x y z
#    x 1.834270 0.000000 0.000000 
#    y 0.000000 1.856110 0.000000 
#    z 0.000000 0.000000 1.873530 
# 
# From -- ./inp_files/2208.got.cif
#   From: 2010.03.12/outbox.cif.g09.slc.cpg/sg62_2_cif.got.tgz:2208.got - 2010.04.10 19:12:36.
