data_PCOD8251020
_publ_section_title
;
Structure prediction by ZEFSAII (Michael W. Deem and Ramdas Pophale) SiO2 
 PCOD8251020
Probable space group: P N M A
;
_chemical_formula_sum "Si O2"
_cell_formula_units_Z 64
_cell_length_a 20.097380
_cell_length_b 8.930551
_cell_length_c 19.951449
_cell_angle_alpha 90.000000
_cell_angle_beta 90.000000
_cell_angle_gamma 90.000000
_cell_volume 3580.899575
_symmetry_space_group_name_H-M "P N M A"
_symmetry_group_IT_number 62
_symmetry_cell_setting 'orthorhombic'
loop_
_space_group_symop_operation_xyz
x,y,z
1/2-x,-y,1/2+z
1/2+x,1/2-y,1/2-z
-x,1/2+y,-z
-x,-y,-z
1/2+x,y,1/2-z
1/2-x,1/2+y,1/2+z
x,1/2-y,z
loop_
_atom_site_type_symbol
_atom_site_label
_atom_site_fract_x
_atom_site_fract_y
_atom_site_fract_z
Si Si1 0.454863 0.426114 0.556259
Si Si2 0.721262 0.078068 0.174690
Si Si3 0.662456 0.081677 0.504960
Si Si4 0.352329 0.922691 0.336737
Si Si5 0.512287 0.574146 0.686459
Si Si6 0.052327 0.920288 0.453487
Si Si7 0.424783 0.576157 0.813690
Si Si8 0.801430 0.081044 0.541965
O O1 0.500000 0.500000 0.500000
O O2 0.465829 0.250000 0.554857
O O3 0.378228 0.466063 0.540569
O O4 0.474503 0.486834 0.628255
O O5 0.741437 0.250000 0.185102
O O6 0.651044 0.038875 0.211237
O O7 0.783608 0.977222 0.198576
O O8 0.706984 0.047167 0.096854
O O9 0.639015 0.250000 0.487319
O O10 0.650559 0.049723 0.583595
O O11 0.741364 0.060541 0.488379
O O12 0.363783 0.750000 0.319107
O O13 0.412162 0.019217 0.306311
O O14 0.510768 0.750000 0.670870
O O15 0.474899 0.533515 0.754806
O O16 0.029963 0.750000 0.447481
O O17 0.125015 0.935322 0.489406
O O18 0.053887 0.984165 0.378716
O O19 0.000000 0.000000 0.500000
O O20 0.429197 0.750000 0.833016
O O21 0.793706 0.250000 0.573682
#
# Coordination Sequence:
#
# PCOD8251020 Si02
#       8
#     8   8   8   8   8   8   8   8
#     4  12  23  34  50  75 107 143 181 220 264 314
#     4   9  16  29  51  76 102 130 169 216 259 307
#     4   9  17  31  50  72 102 135 174 220 260 303
#     4  10  19  31  50  77 106 136 174 217 260 310
#     4  11  22  36  55  77 105 141 181 223 268 316
#     4  10  19  33  57  85 111 140 174 218 269 322
#     4   9  20  37  56  80 107 137 177 222 267 320
#     4   8  16  30  49  75 104 134 171 211 260 310
#
# _framework density 17.872603999999999
#
# number of rings (size 3 to 8) (size 9 to 14) (size 15 to 20)
#    0.000    2.250    1.250    3.375    0.000    4.000 
#    0.000    0.000    2.750    0.000    0.000    0.000 
#    0.000    0.000    0.000    0.000    0.000    0.000 
#
# Total GULP energy -793274.889867 kJ/mol
# GULP energy per Si atom -12394.920154 kJ/mol
# Density = 1.783192 g / cm^3
# Si number density = 17.872604 Si / 1000 Ang^3
#
#
#
# Elastic Constant Matrix: (Units=GPa)
#
#
# Indices 1 2 3 4 5 6 
#
# 1 155.9041 65.0757 57.1806 0.0000 0.0000 0.0000
# 2 65.0757 109.8080 48.2170 0.0000 0.0000 0.0000
# 3 57.1806 48.2170 62.3908 0.0000 0.0000 0.0000
# 4 0.0000 0.0000 0.0000 23.2781 0.0000 0.0000
# 5 0.0000 0.0000 0.0000 0.0000 24.8369 0.0000
# 6 0.0000 0.0000 0.0000 0.0000 0.0000 30.7660
#
#
#
# Elastic Compliance Matrix: (Units=1/GPa)
#
#
# Indices 1 2 3 4 5 6 
#
# 1 0.010258 -0.002953 -0.007119 0.000000 0.000000 0.000000
# 2 -0.002953 0.014635 -0.008604 0.000000 0.000000 0.000000
# 3 -0.007119 -0.008604 0.029202 0.000000 0.000000 0.000000
# 4 0.000000 0.000000 0.000000 0.042959 0.000000 0.000000
# 5 0.000000 0.000000 0.000000 0.000000 0.040263 0.000000
# 6 0.000000 0.000000 0.000000 0.000000 0.000000 0.032503
#
#
# Mechanical properties :
#
#
# Convention : Reuss Voigt Hill
#
# Bulk Modulus (GPa) = 59.72721 74.33884 67.03303
# Shear Modulus (GPa) = 23.50159 26.28482 24.89320
#
# Velocity S-wave (km/s) = 3.63016 3.83910 3.73609
# Velocity P-wave (km/s) = 7.14574 7.83171 7.49657
#
# Compressibility (1/GPa) = 0.01674279
#
# Stress axis : x y z
#
# Youngs Moduli (GPa) = 97.48576 68.33029 34.24480
#
# Poissons Ratio (x) = 0.20179 0.24379
# Poissons Ratio (y) = 0.28789 0.29463
# Poissons Ratio (z) = 0.69400 0.58788
#
# Static dielectric constant tensor:
#      x y z
#    x 3.793470 0.000000 0.000000 
#    y 0.000000 3.458790 0.000000 
#    z 0.000000 0.000000 3.465910 
# 
# 
# High freq. dielectric constant tensor:
#      x y z
#    x 1.714690 0.000000 0.000000 
#    y 0.000000 1.703180 0.000000 
#    z 0.000000 0.000000 1.633100 
# 
# From -- ./inp_files/24745.got.cif
#   From: 2010.03.12/outbox.cif.g09.slc.cpg/sg62_13_cif.got.tgz:24745.got - 2010.04.10 19:12:36.
