data_PCOD8251493
_publ_section_title
;
Structure prediction by ZEFSAII (Michael W. Deem and Ramdas Pophale) SiO2 
 PCOD8251493
Probable space group: P N M A
;
_chemical_formula_sum "Si O2"
_cell_formula_units_Z 56
_cell_length_a 14.955367
_cell_length_b 9.118444
_cell_length_c 20.858745
_cell_angle_alpha 90.000000
_cell_angle_beta 90.000000
_cell_angle_gamma 90.000000
_cell_volume 2844.500308
_symmetry_space_group_name_H-M "P N M A"
_symmetry_group_IT_number 62
_symmetry_cell_setting 'orthorhombic'
loop_
_space_group_symop_operation_xyz
x,y,z
1/2-x,-y,1/2+z
1/2+x,1/2-y,1/2-z
-x,1/2+y,-z
-x,-y,-z
1/2+x,y,1/2-z
1/2-x,1/2+y,1/2+z
x,1/2-y,z
loop_
_atom_site_type_symbol
_atom_site_label
_atom_site_fract_x
_atom_site_fract_y
_atom_site_fract_z
Si Si1 0.003535 0.909343 0.902167
Si Si2 0.218993 0.577932 0.478159
Si Si3 0.133499 0.923351 0.791208
Si Si4 0.882467 0.410161 0.976056
Si Si5 0.011485 0.418706 0.690036
Si Si6 0.931409 0.919679 0.454916
Si Si7 0.809543 0.077920 0.668126
O O1 0.969770 0.750000 0.876177
O O2 0.080496 0.970490 0.855369
O O3 0.039050 0.884465 0.973511
O O4 0.921831 0.025115 0.908792
O O5 0.206331 0.750000 0.488374
O O6 0.319435 0.529871 0.491235
O O7 0.164283 0.490995 0.532108
O O8 0.190487 0.530868 0.406541
O O9 0.146495 0.750000 0.785966
O O10 0.232158 0.994570 0.792599
O O11 0.074909 0.978926 0.731955
O O12 0.837878 0.250000 0.961648
O O13 0.025214 0.250000 0.710470
O O14 0.906686 0.462545 0.697608
O O15 0.040854 0.444260 0.617664
O O16 0.930019 0.750000 0.473341
O O17 0.000000 0.000000 0.500000
O O18 0.790374 0.250000 0.673817
#
# Coordination Sequence:
#
# PCOD8251493 Si02
#       7
#     8   8   8   8   8   8   8
#     4   9  19  35  54  82 119 154 195 246 297 354
#     4  11  21  36  60  90 121 154 196 244 299 360
#     4  11  23  40  63  92 123 159 206 256 306 360
#     4  10  19  33  55  85 118 155 197 244 298 353
#     4  10  23  44  64  88 121 160 204 249 303 369
#     4  11  22  39  63  91 122 154 195 248 305 361
#     4  10  21  40  65  89 117 159 204 244 298 366
#
# _framework density 19.687114000000001
#
# number of rings (size 3 to 8) (size 9 to 14) (size 15 to 20)
#    0.000    1.714    2.857    1.714    0.000    4.000 
#    2.571    0.000    0.000    0.000    0.000    0.000 
#    0.000    0.000    0.000    0.000    0.000    0.000 
#
# Total GULP energy -694236.400145 kJ/mol
# GULP energy per Si atom -12397.078574 kJ/mol
# Density = 1.964230 g / cm^3
# Si number density = 19.687114 Si / 1000 Ang^3
#
#
#
# Elastic Constant Matrix: (Units=GPa)
#
#
# Indices 1 2 3 4 5 6 
#
# 1 106.7340 60.6810 47.7534 0.0000 0.0000 0.0000
# 2 60.6810 101.1754 50.1562 0.0000 0.0000 0.0000
# 3 47.7534 50.1562 53.4606 0.0000 0.0000 0.0000
# 4 0.0000 0.0000 0.0000 27.4461 0.0000 0.0000
# 5 0.0000 0.0000 0.0000 0.0000 34.2773 0.0000
# 6 0.0000 0.0000 0.0000 0.0000 0.0000 37.0078
#
#
#
# Elastic Compliance Matrix: (Units=1/GPa)
#
#
# Indices 1 2 3 4 5 6 
#
# 1 0.016830 -0.004938 -0.010400 0.000000 0.000000 0.000000
# 2 -0.004938 0.019927 -0.014284 0.000000 0.000000 0.000000
# 3 -0.010400 -0.014284 0.041396 0.000000 0.000000 0.000000
# 4 0.000000 0.000000 0.000000 0.036435 0.000000 0.000000
# 5 0.000000 0.000000 0.000000 0.000000 0.029174 0.000000
# 6 0.000000 0.000000 0.000000 0.000000 0.000000 0.027021
#
#
# Mechanical properties :
#
#
# Convention : Reuss Voigt Hill
#
# Bulk Modulus (GPa) = 52.88730 64.28345 58.58537
# Shear Modulus (GPa) = 21.15690 26.59820 23.87755
#
# Velocity S-wave (km/s) = 3.28175 3.67965 3.48638
# Velocity P-wave (km/s) = 6.42512 7.12576 6.78449
#
# Compressibility (1/GPa) = 0.01890813
#
# Stress axis : x y z
#
# Youngs Moduli (GPa) = 59.41944 50.18437 24.15673
#
# Poissons Ratio (x) = 0.24781 0.25123
# Poissons Ratio (y) = 0.29341 0.34506
# Poissons Ratio (z) = 0.61797 0.71684
#
# Static dielectric constant tensor:
#      x y z
#    x 3.433740 0.000000 0.000000 
#    y 0.000000 4.173190 0.000000 
#    z 0.000000 0.000000 3.194340 
# 
# 
# High freq. dielectric constant tensor:
#      x y z
#    x 1.768890 0.000000 0.000000 
#    y 0.000000 1.777060 0.000000 
#    z 0.000000 0.000000 1.746780 
# 
# From -- ./inp_files/27269.got.cif
#   From: 2010.03.12/outbox.cif.g09.slc.cpg/sg62_14_cif.got.tgz:27269.got - 2010.04.10 19:12:36.
