data_PCOD8251086
_publ_section_title
;
Structure prediction by ZEFSAII (Michael W. Deem and Ramdas Pophale) SiO2 
 PCOD8251086
Probable space group: P N M A
;
_chemical_formula_sum "Si O2"
_cell_formula_units_Z 48
_cell_length_a 18.695842
_cell_length_b 8.965514
_cell_length_c 13.934606
_cell_angle_alpha 90.000000
_cell_angle_beta 90.000000
_cell_angle_gamma 90.000000
_cell_volume 2335.688464
_symmetry_space_group_name_H-M "P N M A"
_symmetry_group_IT_number 62
_symmetry_cell_setting 'orthorhombic'
loop_
_space_group_symop_operation_xyz
x,y,z
1/2-x,-y,1/2+z
1/2+x,1/2-y,1/2-z
-x,1/2+y,-z
-x,-y,-z
1/2+x,y,1/2-z
1/2-x,1/2+y,1/2+z
x,1/2-y,z
loop_
_atom_site_type_symbol
_atom_site_label
_atom_site_fract_x
_atom_site_fract_y
_atom_site_fract_z
Si Si1 0.904673 0.418900 0.448630
Si Si2 0.467464 0.079100 0.854292
Si Si3 0.858296 0.075063 0.146357
Si Si4 0.769864 0.422387 0.325941
Si Si5 0.980256 0.573874 0.836031
Si Si6 0.144944 0.575155 0.068418
O O1 0.930083 0.250000 0.423197
O O2 0.907942 0.445181 0.563033
O O3 0.824257 0.444489 0.414099
O O4 0.955046 0.535329 0.394871
O O5 0.470141 0.250000 0.820077
O O6 0.446209 0.974546 0.765712
O O7 0.863691 0.250000 0.165051
O O8 0.804723 0.010864 0.227758
O O9 0.938679 0.011206 0.158569
O O10 0.829014 0.037535 0.040038
O O11 0.748325 0.250000 0.313045
O O12 0.699332 0.513580 0.352237
O O13 0.976609 0.750000 0.849114
O O14 0.932907 0.498750 0.919083
O O15 0.136752 0.750000 0.083401
#
# Coordination Sequence:
#
# PCOD8251086 Si02
#       6
#     8   8   8   8   8   8
#     4   9  18  34  56  82 118 157 196 237 288 350
#     4  10  19  31  54  90 122 150 190 246 295 338
#     4   9  20  40  65  85 113 154 200 243 292 350
#     4  10  20  40  63  84 114 160 201 235 290 365
#     4  11  21  39  63  86 114 160 202 241 295 359
#     4  11  24  40  58  89 121 148 192 254 300 346
#
# _framework density 20.550687
#
# number of rings (size 3 to 8) (size 9 to 14) (size 15 to 20)
#    0.000    2.000    1.667    2.000    0.000    2.667 
#    0.000    7.500    0.000    0.000    0.000    0.000 
#    0.000    0.000    0.000    0.000    0.000    0.000 
#
# Total GULP energy -595206.853951 kJ/mol
# GULP energy per Si atom -12400.142791 kJ/mol
# Density = 2.050391 g / cm^3
# Si number density = 20.550687 Si / 1000 Ang^3
#
#
#
# Elastic Constant Matrix: (Units=GPa)
#
#
# Indices 1 2 3 4 5 6 
#
# 1 95.3338 32.5213 48.9022 0.0000 0.0000 0.0000
# 2 32.5213 71.8604 35.3171 0.0000 0.0000 0.0000
# 3 48.9022 35.3171 110.7912 0.0000 0.0000 0.0000
# 4 0.0000 0.0000 0.0000 29.3927 0.0000 0.0000
# 5 0.0000 0.0000 0.0000 0.0000 31.7661 0.0000
# 6 0.0000 0.0000 0.0000 0.0000 0.0000 27.6935
#
#
#
# Elastic Compliance Matrix: (Units=1/GPa)
#
#
# Indices 1 2 3 4 5 6 
#
# 1 0.014489 -0.004048 -0.005105 0.000000 0.000000 0.000000
# 2 -0.004048 0.017632 -0.003834 0.000000 0.000000 0.000000
# 3 -0.005105 -0.003834 0.012501 0.000000 0.000000 0.000000
# 4 0.000000 0.000000 0.000000 0.034022 0.000000 0.000000
# 5 0.000000 0.000000 0.000000 0.000000 0.031480 0.000000
# 6 0.000000 0.000000 0.000000 0.000000 0.000000 0.036110
#
#
# Mechanical properties :
#
#
# Convention : Reuss Voigt Hill
#
# Bulk Modulus (GPa) = 53.62305 56.82961 55.22633
# Shear Modulus (GPa) = 28.02309 28.52010 28.27160
#
# Velocity S-wave (km/s) = 3.69671 3.72935 3.71307
# Velocity P-wave (km/s) = 6.66113 6.80129 6.73157
#
# Compressibility (1/GPa) = 0.01864870
#
# Stress axis : x y z
#
# Youngs Moduli (GPa) = 69.01780 56.71454 79.99173
#
# Poissons Ratio (x) = 0.22960 0.40834
# Poissons Ratio (y) = 0.27941 0.30667
# Poissons Ratio (z) = 0.35232 0.21743
#
# Static dielectric constant tensor:
#      x y z
#    x 3.546470 0.000000 0.000000 
#    y 0.000000 3.526750 0.000000 
#    z 0.000000 0.000000 3.982810 
# 
# 
# High freq. dielectric constant tensor:
#      x y z
#    x 1.788160 0.000000 0.000000 
#    y 0.000000 1.785570 0.000000 
#    z 0.000000 0.000000 1.816810 
# 
# From -- ./inp_files/19546.got.cif
#   From: 2010.03.12/outbox.cif.g09.slc.cpg/sg62_10_cif.got.tgz:19546.got - 2010.04.10 19:12:36.
