data_PCOD8251659
_publ_section_title
;
Structure prediction by ZEFSAII (Michael W. Deem and Ramdas Pophale) SiO2 
 PCOD8251659
Probable space group: P N M A
;
_chemical_formula_sum "Si O2"
_cell_formula_units_Z 64
_cell_length_a 19.102825
_cell_length_b 9.055248
_cell_length_c 20.283297
_cell_angle_alpha 90.000000
_cell_angle_beta 90.000000
_cell_angle_gamma 90.000000
_cell_volume 3508.621304
_symmetry_space_group_name_H-M "P N M A"
_symmetry_group_IT_number 62
_symmetry_cell_setting 'orthorhombic'
loop_
_space_group_symop_operation_xyz
x,y,z
1/2-x,-y,1/2+z
1/2+x,1/2-y,1/2-z
-x,1/2+y,-z
-x,-y,-z
1/2+x,y,1/2-z
1/2-x,1/2+y,1/2+z
x,1/2-y,z
loop_
_atom_site_type_symbol
_atom_site_label
_atom_site_fract_x
_atom_site_fract_y
_atom_site_fract_z
Si Si1 0.818314 0.919664 0.242155
Si Si2 0.683304 0.418347 0.239068
Si Si3 0.535095 0.078830 0.686146
Si Si4 0.966505 0.580632 0.694951
Si Si5 0.316660 0.578389 0.610013
Si Si6 0.675883 0.074659 0.891328
Si Si7 0.532151 0.423449 0.436828
Si Si8 0.041301 0.922799 0.558197
O O1 0.800698 0.750000 0.250448
O O2 0.881847 0.948315 0.192372
O O3 0.834922 0.980544 0.315759
O O4 0.749549 0.993220 0.211138
O O5 0.705962 0.250000 0.235467
O O6 0.616486 0.451679 0.193500
O O7 0.665317 0.462754 0.314358
O O8 0.517987 0.250000 0.672690
O O9 0.501330 0.032229 0.754863
O O10 0.507393 0.979906 0.627457
O O11 0.980385 0.750000 0.717537
O O12 0.996350 0.548359 0.623413
O O13 0.296583 0.750000 0.602994
O O14 0.252152 0.479845 0.583949
O O15 0.385317 0.539557 0.567288
O O16 0.669663 0.250000 0.899608
O O17 0.617321 0.996919 0.935734
O O18 0.500000 0.500000 0.500000
O O19 0.519799 0.250000 0.441842
O O20 0.050557 0.750000 0.543483
O O21 0.000000 0.000000 0.500000
#
# Coordination Sequence:
#
# PCOD8251659 Si02
#       8
#     8   8   8   8   8   8   8   8
#     4   9  19  33  51  82 116 144 180 229 282 333
#     4   9  17  32  54  81 110 141 182 230 282 333
#     4  11  21  35  57  84 114 147 185 231 282 334
#     4  10  20  36  57  83 111 144 186 233 282 336
#     4   9  18  34  56  81 111 145 184 231 279 335
#     4  10  19  34  56  83 114 144 186 235 279 338
#     4  11  23  40  59  84 117 152 193 236 283 339
#     4  11  23  38  58  82 115 154 194 237 288 341
#
# _framework density 18.240781999999999
#
# number of rings (size 3 to 8) (size 9 to 14) (size 15 to 20)
#    0.000    2.000    2.500    1.500    0.000    3.500 
#    0.000    1.250    0.000    3.000    0.000    0.000 
#    0.000    0.000    0.000    0.000    0.000    0.000 
#
# Total GULP energy -793713.680298 kJ/mol
# GULP energy per Si atom -12401.776255 kJ/mol
# Density = 1.819927 g / cm^3
# Si number density = 18.240782 Si / 1000 Ang^3
#
#
#
# Elastic Constant Matrix: (Units=GPa)
#
#
# Indices 1 2 3 4 5 6 
#
# 1 141.2269 73.3523 56.5638 0.0000 0.0000 0.0000
# 2 73.3523 91.4700 47.7495 0.0000 0.0000 0.0000
# 3 56.5638 47.7495 77.8534 0.0000 0.0000 0.0000
# 4 0.0000 0.0000 0.0000 28.4723 0.0000 0.0000
# 5 0.0000 0.0000 0.0000 0.0000 26.2052 0.0000
# 6 0.0000 0.0000 0.0000 0.0000 0.0000 35.9124
#
#
#
# Elastic Compliance Matrix: (Units=1/GPa)
#
#
# Indices 1 2 3 4 5 6 
#
# 1 0.013141 -0.008170 -0.004537 0.000000 0.000000 0.000000
# 2 -0.008170 0.021161 -0.007042 0.000000 0.000000 0.000000
# 3 -0.004537 -0.007042 0.020460 0.000000 0.000000 0.000000
# 4 0.000000 0.000000 0.000000 0.035122 0.000000 0.000000
# 5 0.000000 0.000000 0.000000 0.000000 0.038160 0.000000
# 6 0.000000 0.000000 0.000000 0.000000 0.000000 0.027846
#
#
# Mechanical properties :
#
#
# Convention : Reuss Voigt Hill
#
# Bulk Modulus (GPa) = 65.51600 73.98684 69.75142
# Shear Modulus (GPa) = 24.94054 26.97695 25.95875
#
# Velocity S-wave (km/s) = 3.70171 3.84987 3.77651
# Velocity P-wave (km/s) = 7.36651 7.77247 7.57221
#
# Compressibility (1/GPa) = 0.01526345
#
# Stress axis : x y z
#
# Youngs Moduli (GPa) = 76.09550 47.25732 48.87537
#
# Poissons Ratio (x) = 0.38610 0.22174
# Poissons Ratio (y) = 0.62171 0.34420
# Poissons Ratio (z) = 0.34523 0.33281
#
# Static dielectric constant tensor:
#      x y z
#    x 3.518850 0.000000 0.000000 
#    y 0.000000 3.394200 0.000000 
#    z 0.000000 0.000000 2.771660 
# 
# 
# High freq. dielectric constant tensor:
#      x y z
#    x 1.721070 0.000000 0.000000 
#    y 0.000000 1.713980 0.000000 
#    z 0.000000 0.000000 1.675780 
# 
# From -- ./inp_files/27712.got.cif
#   From: 2010.03.12/outbox.cif.g09.slc.cpg/sg62_14_cif.got.tgz:27712.got - 2010.04.10 19:12:36.
