data_PCOD8251007
_publ_section_title
;
Structure prediction by ZEFSAII (Michael W. Deem and Ramdas Pophale) SiO2 
 PCOD8251007
Probable space group: P N M A
;
_chemical_formula_sum "Si O2"
_cell_formula_units_Z 56
_cell_length_a 11.303703
_cell_length_b 12.857291
_cell_length_c 22.923866
_cell_angle_alpha 90.000000
_cell_angle_beta 90.000000
_cell_angle_gamma 90.000000
_cell_volume 3331.640039
_symmetry_space_group_name_H-M "P N M A"
_symmetry_group_IT_number 62
_symmetry_cell_setting 'orthorhombic'
loop_
_space_group_symop_operation_xyz
x,y,z
1/2-x,-y,1/2+z
1/2+x,1/2-y,1/2-z
-x,1/2+y,-z
-x,-y,-z
1/2+x,y,1/2-z
1/2-x,1/2+y,1/2+z
x,1/2-y,z
loop_
_atom_site_type_symbol
_atom_site_label
_atom_site_fract_x
_atom_site_fract_y
_atom_site_fract_z
Si Si1 0.010947 0.551592 0.416647
Si Si2 0.350310 0.134163 0.625312
Si Si3 0.114048 0.129626 0.691713
Si Si4 0.257834 0.634406 0.428181
Si Si5 0.860254 0.628131 0.521684
Si Si6 0.138978 0.982818 0.010332
Si Si7 0.602140 0.368749 0.679427
O O1 0.116985 0.632804 0.425847
O O2 0.061229 0.435842 0.430942
O O3 0.968535 0.558789 0.349840
O O4 0.902947 0.589078 0.457727
O O5 0.345361 0.250000 0.595866
O O6 0.247865 0.120747 0.671526
O O7 0.343404 0.043357 0.577714
O O8 0.467742 0.120214 0.661626
O O9 0.069490 0.250000 0.690325
O O10 0.112936 0.079796 0.756568
O O11 0.307783 0.750000 0.428232
O O12 0.300621 0.589608 0.490279
O O13 0.315776 0.577869 0.370879
O O14 0.882695 0.750000 0.531406
O O15 0.718212 0.603253 0.526211
O O16 0.000000 0.000000 0.000000
O O17 0.643931 0.250000 0.686745
#
# Coordination Sequence:
#
# PCOD8251007 Si02
#       7
#     8   8   8   8   8   8   8
#     4  10  20  32  51  76 100 134 174 210 255 306
#     4  10  19  33  50  72 103 137 171 208 254 310
#     4  10  19  31  50  73 102 139 173 207 254 315
#     4  10  20  32  46  71 106 134 166 214 259 305
#     4  10  20  35  52  74 104 137 175 216 258 305
#     4  11  20  31  50  73 101 136 172 207 256 307
#     4   9  19  31  46  71 104 140 169 204 259 316
#
# _framework density 16.808537999999999
#
# number of rings (size 3 to 8) (size 9 to 14) (size 15 to 20)
#    0.000    2.000    2.857    1.714    2.000    0.571 
#    0.000    0.000    0.000    0.000    0.000    6.000 
#    0.000    0.000    0.000    0.000    0.000    0.000 
#
# Total GULP energy -693734.300184 kJ/mol
# GULP energy per Si atom -12388.112503 kJ/mol
# Density = 1.677028 g / cm^3
# Si number density = 16.808538 Si / 1000 Ang^3
#
#
#
# Elastic Constant Matrix: (Units=GPa)
#
#
# Indices 1 2 3 4 5 6 
#
# 1 101.4888 28.9826 33.0820 0.0000 0.0000 0.0000
# 2 28.9826 76.8773 45.5201 0.0000 0.0000 0.0000
# 3 33.0820 45.5201 121.0009 0.0000 0.0000 0.0000
# 4 0.0000 0.0000 0.0000 22.9130 0.0000 0.0000
# 5 0.0000 0.0000 0.0000 0.0000 13.9481 0.0000
# 6 0.0000 0.0000 0.0000 0.0000 0.0000 18.9107
#
#
#
# Elastic Compliance Matrix: (Units=1/GPa)
#
#
# Indices 1 2 3 4 5 6 
#
# 1 0.011381 -0.003150 -0.001927 0.000000 0.000000 0.000000
# 2 -0.003150 0.017607 -0.005763 0.000000 0.000000 0.000000
# 3 -0.001927 -0.005763 0.010959 0.000000 0.000000 0.000000
# 4 0.000000 0.000000 0.000000 0.043643 0.000000 0.000000
# 5 0.000000 0.000000 0.000000 0.000000 0.071694 0.000000
# 6 0.000000 0.000000 0.000000 0.000000 0.000000 0.052880
#
#
# Mechanical properties :
#
#
# Convention : Reuss Voigt Hill
#
# Bulk Modulus (GPa) = 54.73723 57.17071 55.95397
# Shear Modulus (GPa) = 21.19250 23.93985 22.56617
#
# Velocity S-wave (km/s) = 3.55465 3.77804 3.66805
# Velocity P-wave (km/s) = 7.03443 7.28822 7.16245
#
# Compressibility (1/GPa) = 0.01826910
#
# Stress axis : x y z
#
# Youngs Moduli (GPa) = 87.86719 56.79442 91.24890
#
# Poissons Ratio (x) = 0.17889 0.17580
# Poissons Ratio (y) = 0.27676 0.52584
# Poissons Ratio (z) = 0.16929 0.32729
#
# Static dielectric constant tensor:
#      x y z
#    x 3.425940 0.000000 0.000000 
#    y 0.000000 2.990390 0.000000 
#    z 0.000000 0.000000 3.249980 
# 
# 
# High freq. dielectric constant tensor:
#      x y z
#    x 1.671360 0.000000 0.000000 
#    y 0.000000 1.602120 0.000000 
#    z 0.000000 0.000000 1.640000 
# 
# From -- ./inp_files/29403.got.cif
#   From: 2010.03.12/outbox.cif.g09.slc.cpg/sg62_15_cif.got.tgz:29403.got - 2010.04.10 19:12:36.
