data_PCOD8251253
_publ_section_title
;
Structure prediction by ZEFSAII (Michael W. Deem and Ramdas Pophale) SiO2 
 PCOD8251253
Probable space group: P N M A
;
_chemical_formula_sum "Si O2"
_cell_formula_units_Z 56
_cell_length_a 21.817475
_cell_length_b 9.665228
_cell_length_c 14.238890
_cell_angle_alpha 90.000000
_cell_angle_beta 90.000000
_cell_angle_gamma 90.000000
_cell_volume 3002.567126
_symmetry_space_group_name_H-M "P N M A"
_symmetry_group_IT_number 62
_symmetry_cell_setting 'orthorhombic'
loop_
_space_group_symop_operation_xyz
x,y,z
1/2-x,-y,1/2+z
1/2+x,1/2-y,1/2-z
-x,1/2+y,-z
-x,-y,-z
1/2+x,y,1/2-z
1/2-x,1/2+y,1/2+z
x,1/2-y,z
loop_
_atom_site_type_symbol
_atom_site_label
_atom_site_fract_x
_atom_site_fract_y
_atom_site_fract_z
Si Si1 0.161311 0.588795 0.877914
Si Si2 0.475988 0.093525 0.416956
Si Si3 0.190989 0.589756 0.087832
Si Si4 0.046835 0.091411 0.385044
Si Si5 0.404410 0.904548 0.693453
Si Si6 0.310012 0.587457 0.203630
Si Si7 0.931648 0.910367 0.404946
O O1 0.167657 0.750000 0.851270
O O2 0.090244 0.541976 0.881676
O O3 0.195730 0.497686 0.799948
O O4 0.193930 0.556172 0.977205
O O5 0.469477 0.250000 0.455387
O O6 0.523796 0.084099 0.332105
O O7 0.500000 0.000000 0.500000
O O8 0.176999 0.750000 0.103801
O O9 0.134802 0.510812 0.134540
O O10 0.254096 0.544898 0.136210
O O11 0.024284 0.250000 0.380608
O O12 0.097994 0.062876 0.304933
O O13 0.078297 0.058006 0.484629
O O14 0.988347 0.996224 0.365652
O O15 0.379750 0.750000 0.672262
O O16 0.309245 0.750000 0.226932
O O17 0.371081 0.542464 0.149224
O O18 0.945935 0.750000 0.387398
#
# Coordination Sequence:
#
# PCOD8251253 Si02
#       7
#     8   8   8   8   8   8   8
#     4  10  21  38  59  82 109 144 184 225 274 329
#     4  10  19  32  53  82 111 142 178 221 275 328
#     4  10  22  39  56  77 108 143 182 224 266 320
#     4   9  18  33  55  81 109 138 174 221 268 320
#     4  10  20  33  53  82 112 141 179 224 271 325
#     4  10  22  38  56  79 108 144 185 226 268 322
#     4   9  18  34  54  78 107 141 178 218 269 319
#
# _framework density 18.650708000000002
#
# number of rings (size 3 to 8) (size 9 to 14) (size 15 to 20)
#    0.000    2.286    1.429    0.857    0.000    5.143 
#    0.000    2.857    0.000    0.000    0.000    0.000 
#    0.000    0.000    0.000    0.000    0.000    0.000 
#
# Total GULP energy -694473.474954 kJ/mol
# GULP energy per Si atom -12401.312053 kJ/mol
# Density = 1.860826 g / cm^3
# Si number density = 18.650708 Si / 1000 Ang^3
#
#
#
# Elastic Constant Matrix: (Units=GPa)
#
#
# Indices 1 2 3 4 5 6 
#
# 1 86.7678 41.1326 55.3678 0.0000 0.0000 0.0000
# 2 41.1326 59.2218 54.6536 0.0000 0.0000 0.0000
# 3 55.3678 54.6536 124.1959 0.0000 0.0000 0.0000
# 4 0.0000 0.0000 0.0000 33.1263 0.0000 0.0000
# 5 0.0000 0.0000 0.0000 0.0000 28.3264 0.0000
# 6 0.0000 0.0000 0.0000 0.0000 0.0000 24.7869
#
#
#
# Elastic Compliance Matrix: (Units=1/GPa)
#
#
# Indices 1 2 3 4 5 6 
#
# 1 0.018488 -0.008814 -0.004363 0.000000 0.000000 0.000000
# 2 -0.008814 0.032634 -0.010432 0.000000 0.000000 0.000000
# 3 -0.004363 -0.010432 0.014588 0.000000 0.000000 0.000000
# 4 0.000000 0.000000 0.000000 0.030187 0.000000 0.000000
# 5 0.000000 0.000000 0.000000 0.000000 0.035303 0.000000
# 6 0.000000 0.000000 0.000000 0.000000 0.000000 0.040344
#
#
# Mechanical properties :
#
#
# Convention : Reuss Voigt Hill
#
# Bulk Modulus (GPa) = 54.07822 63.61037 58.84429
# Shear Modulus (GPa) = 22.22956 25.18334 23.70645
#
# Velocity S-wave (km/s) = 3.45612 3.67858 3.56908
# Velocity P-wave (km/s) = 6.70705 7.22653 6.97163
#
# Compressibility (1/GPa) = 0.01849173
#
# Stress axis : x y z
#
# Youngs Moduli (GPa) = 54.09051 30.64243 68.55112
#
# Poissons Ratio (x) = 0.27008 0.29911
# Poissons Ratio (y) = 0.47674 0.71512
# Poissons Ratio (z) = 0.23602 0.31966
#
# Static dielectric constant tensor:
#      x y z
#    x 3.390750 0.000000 0.000000 
#    y 0.000000 3.386400 0.000000 
#    z 0.000000 0.000000 3.554640 
# 
# 
# High freq. dielectric constant tensor:
#      x y z
#    x 1.711470 0.000000 0.000000 
#    y 0.000000 1.720090 0.000000 
#    z 0.000000 0.000000 1.735110 
# 
# From -- ./inp_files/20411.got.cif
#   From: 2010.03.12/outbox.cif.g09.slc.cpg/sg62_11_cif.got.tgz:20411.got - 2010.04.10 19:12:36.
