data_PCOD8251968
_publ_section_title
;
Structure prediction by ZEFSAII (Michael W. Deem and Ramdas Pophale) SiO2 
 PCOD8251968
Probable space group: P N M A
;
_chemical_formula_sum "Si O2"
_cell_formula_units_Z 56
_cell_length_a 8.303903
_cell_length_b 18.747697
_cell_length_c 13.469572
_cell_angle_alpha 90.000000
_cell_angle_beta 90.000000
_cell_angle_gamma 90.000000
_cell_volume 2096.930272
_symmetry_space_group_name_H-M "P N M A"
_symmetry_group_IT_number 62
_symmetry_cell_setting 'orthorhombic'
loop_
_space_group_symop_operation_xyz
x,y,z
1/2-x,-y,1/2+z
1/2+x,1/2-y,1/2-z
-x,1/2+y,-z
-x,-y,-z
1/2+x,y,1/2-z
1/2-x,1/2+y,1/2+z
x,1/2-y,z
loop_
_atom_site_type_symbol
_atom_site_label
_atom_site_fract_x
_atom_site_fract_y
_atom_site_fract_z
Si Si1 0.241326 0.829262 0.498816
Si Si2 0.244301 0.401784 0.615295
Si Si3 0.172389 0.911281 0.789414
Si Si4 0.622564 0.041993 0.392907
Si Si5 0.857922 0.250000 0.892248
Si Si6 0.070390 0.629523 0.310302
Si Si7 0.136336 0.250000 0.775880
Si Si8 0.463479 0.830691 0.855295
O O1 0.295040 0.750000 0.534290
O O2 0.366616 0.889873 0.532763
O O3 0.210119 0.832062 0.378794
O O4 0.068146 0.846226 0.547205
O O5 0.327668 0.467154 0.552963
O O6 0.285194 0.323424 0.563114
O O7 0.339934 0.408959 0.720962
O O8 0.051234 0.420439 0.623820
O O9 0.253167 0.952121 0.698254
O O10 0.305855 0.879803 0.863710
O O11 0.059921 0.964013 0.853141
O O12 0.061747 0.847670 0.745485
O O13 0.824651 0.250000 0.767043
O O14 0.057857 0.250000 0.890922
O O15 0.924345 0.679799 0.277723
O O16 0.404608 0.750000 0.848757
#
# Coordination Sequence:
#
# PCOD8251968 Si02
#       8
#     8   8   8   8   4   8   4   8
#     4  10  21  37  57  85 122 159 194 246 304 359
#     4  10  20  35  60  86 112 153 197 249 292 353
#     4   9  18  32  52  78 115 156 198 246 282 351
#     4  10  20  35  56  86 119 156 205 244 301 356
#     4   8  16  28  50  80 104 134 182 234 288 328
#     4  10  19  36  59  83 117 148 199 246 299 356
#     4   8  14  28  50  76 102 136 170 234 280 340
#     4   9  17  30  53  81 110 150 199 243 292 344
#
# _framework density 26.705703
#
# number of rings (size 3 to 8) (size 9 to 14) (size 15 to 20)
#    0.000    2.571    0.714    1.286    0.000    4.571 
#    0.000    1.429    0.000    2.571    0.000    0.000 
#    0.000    0.000    0.000    0.000    0.000    0.000 
#
# Total GULP energy -693776.732966 kJ/mol
# GULP energy per Si atom -12388.870232 kJ/mol
# Density = 2.664492 g / cm^3
# Si number density = 26.705703 Si / 1000 Ang^3
#
#
#
# Elastic Constant Matrix: (Units=GPa)
#
#
# Indices 1 2 3 4 5 6 
#
# 1 107.5895 19.1139 -4.7147 0.0000 0.0000 0.0000
# 2 19.1139 136.9061 16.6669 0.0000 0.0000 0.0000
# 3 -4.7147 16.6669 43.7088 0.0000 0.0000 0.0000
# 4 0.0000 0.0000 0.0000 12.2861 0.0000 0.0000
# 5 0.0000 0.0000 0.0000 0.0000 20.4448 0.0000
# 6 0.0000 0.0000 0.0000 0.0000 0.0000 28.3535
#
#
#
# Elastic Compliance Matrix: (Units=1/GPa)
#
#
# Indices 1 2 3 4 5 6 
#
# 1 0.009640 -0.001544 0.001629 0.000000 0.000000 0.000000
# 2 -0.001544 0.007907 -0.003182 0.000000 0.000000 0.000000
# 3 0.001629 -0.003182 0.024268 0.000000 0.000000 0.000000
# 4 0.000000 0.000000 0.000000 0.081393 0.000000 0.000000
# 5 0.000000 0.000000 0.000000 0.000000 0.048912 0.000000
# 6 0.000000 0.000000 0.000000 0.000000 0.000000 0.035269
#
#
# Mechanical properties :
#
#
# Convention : Reuss Voigt Hill
#
# Bulk Modulus (GPa) = 28.07357 38.92628 33.49993
# Shear Modulus (GPa) = 22.17718 29.35942 25.76830
#
# Velocity S-wave (km/s) = 2.88484 3.31927 3.10965
# Velocity P-wave (km/s) = 4.65096 5.41274 5.04625
#
# Compressibility (1/GPa) = 0.03562069
#
# Stress axis : x y z
#
# Youngs Moduli (GPa) = 103.73127 126.46691 41.20718
#
# Poissons Ratio (x) = 0.19529 -0.06711
# Poissons Ratio (y) = 0.16018 0.13111
# Poissons Ratio (z) = -0.16895 0.40238
#
# Static dielectric constant tensor:
#      x y z
#    x 5.137240 0.000000 0.000000 
#    y 0.000000 4.921450 0.000000 
#    z 0.000000 0.000000 4.490300 
# 
# 
# High freq. dielectric constant tensor:
#      x y z
#    x 2.099530 0.000000 0.000000 
#    y 0.000000 2.068550 0.000000 
#    z 0.000000 0.000000 2.040290 
# 
# From -- ./inp_files/17261.got.cif
#   From: 2010.03.12/outbox.cif.g09.slc.cpg/sg62_9_cif.got.tgz:17261.got - 2010.04.10 19:12:36.
