data_PCOD8251038
_publ_section_title
;
Structure prediction by ZEFSAII (Michael W. Deem and Ramdas Pophale) SiO2 
 PCOD8251038
Probable space group: P N M A
;
_chemical_formula_sum "Si O2"
_cell_formula_units_Z 48
_cell_length_a 31.004812
_cell_length_b 8.880727
_cell_length_c 9.765104
_cell_angle_alpha 90.000000
_cell_angle_beta 90.000000
_cell_angle_gamma 90.000000
_cell_volume 2688.775208
_symmetry_space_group_name_H-M "P N M A"
_symmetry_group_IT_number 62
_symmetry_cell_setting 'orthorhombic'
loop_
_space_group_symop_operation_xyz
x,y,z
1/2-x,-y,1/2+z
1/2+x,1/2-y,1/2-z
-x,1/2+y,-z
-x,-y,-z
1/2+x,y,1/2-z
1/2-x,1/2+y,1/2+z
x,1/2-y,z
loop_
_atom_site_type_symbol
_atom_site_label
_atom_site_fract_x
_atom_site_fract_y
_atom_site_fract_z
Si Si1 0.713313 0.073093 0.117560
Si Si2 0.880107 0.083673 0.919231
Si Si3 0.965667 0.928117 0.899634
Si Si4 0.466312 0.429284 0.896979
Si Si5 0.213891 0.928002 0.089819
Si Si6 0.871653 0.084748 0.595509
O O1 0.714780 0.250000 0.133472
O O2 0.722540 0.002430 0.264301
O O3 0.666729 0.027802 0.054309
O O4 0.750095 0.013884 0.015047
O O5 0.891429 0.250000 0.978390
O O6 0.833229 0.027247 0.972698
O O7 0.875483 0.095406 0.757480
O O8 0.917980 0.967928 0.958185
O O9 0.971186 0.750000 0.893667
O O10 0.973402 0.997433 0.750701
O O11 0.000000 0.000000 0.000000
O O12 0.472216 0.250000 0.883935
O O13 0.418667 0.469469 0.957236
O O14 0.500000 0.500000 0.000000
O O15 0.215933 0.750000 0.112300
O O16 0.860644 0.250000 0.535419
#
# Coordination Sequence:
#
# PCOD8251038 Si02
#       6
#     8   8   8   8   8   8
#     4  10  19  31  51  76  98 128 169 205 241 291
#     4   8  15  31  51  69  95 131 167 203 245 294
#     4  11  21  34  53  77 103 132 168 209 252 299
#     4  10  20  35  54  77 103 133 169 207 251 300
#     4   9  19  34  50  72 102 131 161 203 250 292
#     4   8  16  31  50  71  99 133 163 197 245 296
#
# _framework density 17.851994000000001
#
# number of rings (size 3 to 8) (size 9 to 14) (size 15 to 20)
#    0.000    2.667    0.000    4.500    0.000    8.000 
#    0.000    1.667    0.000    6.000    0.000    0.000 
#    0.000    0.000    0.000    0.000    0.000    0.000 
#
# Total GULP energy -594912.001032 kJ/mol
# GULP energy per Si atom -12394.000021 kJ/mol
# Density = 1.781136 g / cm^3
# Si number density = 17.851994 Si / 1000 Ang^3
#
#
#
# Elastic Constant Matrix: (Units=GPa)
#
#
# Indices 1 2 3 4 5 6 
#
# 1 176.2710 69.4038 70.7489 0.0000 0.0000 0.0000
# 2 69.4038 98.0259 45.8340 0.0000 0.0000 0.0000
# 3 70.7489 45.8340 66.7489 0.0000 0.0000 0.0000
# 4 0.0000 0.0000 0.0000 25.0873 0.0000 0.0000
# 5 0.0000 0.0000 0.0000 0.0000 32.4177 0.0000
# 6 0.0000 0.0000 0.0000 0.0000 0.0000 32.9149
#
#
#
# Elastic Compliance Matrix: (Units=1/GPa)
#
#
# Indices 1 2 3 4 5 6 
#
# 1 0.010552 -0.003302 -0.008917 0.000000 0.000000 0.000000
# 2 -0.003302 0.016059 -0.007527 0.000000 0.000000 0.000000
# 3 -0.008917 -0.007527 0.029602 0.000000 0.000000 0.000000
# 4 0.000000 0.000000 0.000000 0.039861 0.000000 0.000000
# 5 0.000000 0.000000 0.000000 0.000000 0.030847 0.000000
# 6 0.000000 0.000000 0.000000 0.000000 0.000000 0.030381
#
#
# Mechanical properties :
#
#
# Convention : Reuss Voigt Hill
#
# Bulk Modulus (GPa) = 59.80853 79.22435 69.51644
# Shear Modulus (GPa) = 24.70740 28.42126 26.56433
#
# Velocity S-wave (km/s) = 3.72427 3.99438 3.86169
# Velocity P-wave (km/s) = 7.21587 8.10853 7.67518
#
# Compressibility (1/GPa) = 0.01672002
#
# Stress axis : x y z
#
# Youngs Moduli (GPa) = 94.76733 62.27226 33.78134
#
# Poissons Ratio (x) = 0.20559 0.30124
# Poissons Ratio (y) = 0.31288 0.25429
# Poissons Ratio (z) = 0.84508 0.46875
#
# Static dielectric constant tensor:
#      x y z
#    x 4.187280 0.000000 0.000000 
#    y 0.000000 3.340080 0.000000 
#    z 0.000000 0.000000 2.945950 
# 
# 
# High freq. dielectric constant tensor:
#      x y z
#    x 1.712100 0.000000 0.000000 
#    y 0.000000 1.693420 0.000000 
#    z 0.000000 0.000000 1.648290 
# 
# From -- ./inp_files/15151.got.cif
#   From: 2010.03.12/outbox.cif.g09.slc.cpg/sg62_8_cif.got.tgz:15151.got - 2010.04.10 19:12:36.
