data_PCOD8251119
_publ_section_title
;
Structure prediction by ZEFSAII (Michael W. Deem and Ramdas Pophale) SiO2 
 PCOD8251119
Probable space group: P N M A
;
_chemical_formula_sum "Si O2"
_cell_formula_units_Z 56
_cell_length_a 19.157069
_cell_length_b 8.806489
_cell_length_c 19.287289
_cell_angle_alpha 90.000000
_cell_angle_beta 90.000000
_cell_angle_gamma 90.000000
_cell_volume 3253.891358
_symmetry_space_group_name_H-M "P N M A"
_symmetry_group_IT_number 62
_symmetry_cell_setting 'orthorhombic'
loop_
_space_group_symop_operation_xyz
x,y,z
1/2-x,-y,1/2+z
1/2+x,1/2-y,1/2-z
-x,1/2+y,-z
-x,-y,-z
1/2+x,y,1/2-z
1/2-x,1/2+y,1/2+z
x,1/2-y,z
loop_
_atom_site_type_symbol
_atom_site_label
_atom_site_fract_x
_atom_site_fract_y
_atom_site_fract_z
Si Si1 0.945574 0.070436 0.446702
Si Si2 0.248472 0.924649 0.170623
Si Si3 0.979488 0.929526 0.298709
Si Si4 0.854712 0.072222 0.231597
Si Si5 0.800079 0.574867 0.475865
Si Si6 0.634828 0.926691 0.223552
Si Si7 0.242488 0.072890 0.374657
O O1 0.954682 0.250000 0.446388
O O2 0.958922 0.007601 0.370340
O O3 0.867893 0.029333 0.470873
O O4 0.000000 0.000000 0.500000
O O5 0.268328 0.750000 0.187873
O O6 0.247330 0.952718 0.088240
O O7 0.173040 0.965410 0.203468
O O8 0.307046 0.033851 0.202141
O O9 0.975365 0.750000 0.308809
O O10 0.055696 0.986286 0.274401
O O11 0.927039 0.981421 0.237852
O O12 0.871128 0.250000 0.230742
O O13 0.814043 0.016609 0.162120
O O14 0.824839 0.750000 0.478733
O O15 0.756087 0.530824 0.544273
O O16 0.634850 0.750000 0.208593
O O17 0.674347 0.000164 0.159121
O O18 0.235574 0.250000 0.361244
#
# Coordination Sequence:
#
# PCOD8251119 Si02
#       7
#     8   8   8   8   8   8   8
#     4  12  24  35  49  73 107 139 170 204 251 310
#     4   9  17  32  53  73  96 128 169 211 254 302
#     4  11  21  34  51  73 102 135 172 211 255 304
#     4  10  19  32  50  73 100 131 170 209 251 301
#     4  10  19  33  53  75 101 133 168 206 256 306
#     4   9  19  33  50  73  98 129 169 212 252 297
#     4   9  19  33  50  74 102 131 165 207 251 303
#
# _framework density 17.210163000000001
#
# number of rings (size 3 to 8) (size 9 to 14) (size 15 to 20)
#    0.000    2.000    1.429    3.000    0.000    4.571 
#    0.000    0.000    0.000    0.857    0.000    0.000 
#    0.000    0.000    0.000    0.000    0.000    0.571 
#
# Total GULP energy -694365.774787 kJ/mol
# GULP energy per Si atom -12399.388835 kJ/mol
# Density = 1.717099 g / cm^3
# Si number density = 17.210163 Si / 1000 Ang^3
#
#
#
# Elastic Constant Matrix: (Units=GPa)
#
#
# Indices 1 2 3 4 5 6 
#
# 1 86.0524 22.3195 51.4263 0.0000 0.0000 0.0000
# 2 22.3195 55.9160 24.5631 0.0000 0.0000 0.0000
# 3 51.4263 24.5631 117.9678 0.0000 0.0000 0.0000
# 4 0.0000 0.0000 0.0000 18.9056 0.0000 0.0000
# 5 0.0000 0.0000 0.0000 0.0000 25.2622 0.0000
# 6 0.0000 0.0000 0.0000 0.0000 0.0000 23.2469
#
#
#
# Elastic Compliance Matrix: (Units=1/GPa)
#
#
# Indices 1 2 3 4 5 6 
#
# 1 0.016399 -0.003748 -0.006368 0.000000 0.000000 0.000000
# 2 -0.003748 0.020541 -0.002643 0.000000 0.000000 0.000000
# 3 -0.006368 -0.002643 0.011803 0.000000 0.000000 0.000000
# 4 0.000000 0.000000 0.000000 0.052894 0.000000 0.000000
# 5 0.000000 0.000000 0.000000 0.000000 0.039585 0.000000
# 6 0.000000 0.000000 0.000000 0.000000 0.000000 0.043016
#
#
# Mechanical properties :
#
#
# Convention : Reuss Voigt Hill
#
# Bulk Modulus (GPa) = 43.05875 50.72821 46.89348
# Shear Modulus (GPa) = 22.98851 24.25809 23.62330
#
# Velocity S-wave (km/s) = 3.65876 3.75843 3.70893
# Velocity P-wave (km/s) = 6.55152 6.95515 6.75635
#
# Compressibility (1/GPa) = 0.02322408
#
# Stress axis : x y z
#
# Youngs Moduli (GPa) = 60.97982 48.68267 84.72113
#
# Poissons Ratio (x) = 0.18247 0.53954
# Poissons Ratio (y) = 0.22857 0.22392
# Poissons Ratio (z) = 0.38834 0.12867
#
# Static dielectric constant tensor:
#      x y z
#    x 3.447920 0.000000 0.000000 
#    y 0.000000 3.248800 0.000000 
#    z 0.000000 0.000000 3.513800 
# 
# 
# High freq. dielectric constant tensor:
#      x y z
#    x 1.655270 0.000000 0.000000 
#    y 0.000000 1.667850 0.000000 
#    z 0.000000 0.000000 1.657990 
# 
# From -- ./inp_files/24635.got.cif
#   From: 2010.03.12/outbox.cif.g09.slc.cpg/sg62_13_cif.got.tgz:24635.got - 2010.04.10 19:12:36.
