data_PCOD8251408
_publ_section_title
;
Structure prediction by ZEFSAII (Michael W. Deem and Ramdas Pophale) SiO2 
 PCOD8251408
Probable space group: P N M A
;
_chemical_formula_sum "Si O2"
_cell_formula_units_Z 48
_cell_length_a 18.317140
_cell_length_b 9.032965
_cell_length_c 16.528490
_cell_angle_alpha 90.000000
_cell_angle_beta 90.000000
_cell_angle_gamma 90.000000
_cell_volume 2734.772295
_symmetry_space_group_name_H-M "P N M A"
_symmetry_group_IT_number 62
_symmetry_cell_setting 'orthorhombic'
loop_
_space_group_symop_operation_xyz
x,y,z
1/2-x,-y,1/2+z
1/2+x,1/2-y,1/2-z
-x,1/2+y,-z
-x,-y,-z
1/2+x,y,1/2-z
1/2-x,1/2+y,1/2+z
x,1/2-y,z
loop_
_atom_site_type_symbol
_atom_site_label
_atom_site_fract_x
_atom_site_fract_y
_atom_site_fract_z
Si Si1 0.329417 0.076158 0.332287
Si Si2 0.216254 0.583323 0.062729
Si Si3 0.424381 0.423914 0.019682
Si Si4 0.425625 0.417462 0.485855
Si Si5 0.212366 0.580735 0.422432
Si Si6 0.345016 0.920123 0.168293
O O1 0.326811 0.250000 0.318217
O O2 0.382575 0.028344 0.405766
O O3 0.246804 0.019861 0.351302
O O4 0.360858 0.999721 0.252491
O O5 0.231293 0.750000 0.026447
O O6 0.257428 0.569469 0.148749
O O7 0.128174 0.561854 0.064242
O O8 0.248060 0.456275 0.006267
O O9 0.434142 0.250000 0.037799
O O10 0.391081 0.501550 0.098454
O O11 0.500000 0.500000 0.000000
O O12 0.373396 0.447958 0.939953
O O13 0.500000 0.500000 0.500000
O O14 0.448998 0.250000 0.473588
O O15 0.227411 0.750000 0.398923
O O16 0.370131 0.750000 0.174307
#
# Coordination Sequence:
#
# PCOD8251408 Si02
#       6
#     8   8   8   8   8   8
#     4  10  20  34  51  73 102 133 166 209 258 302
#     4   8  16  31  49  70  96 125 158 198 244 291
#     4  10  20  34  53  77 105 136 170 208 253 308
#     4   9  18  32  50  72  99 131 164 200 244 296
#     4   9  17  30  50  74  96 124 165 205 241 291
#     4  10  19  33  54  76  99 131 170 212 256 300
#
# _framework density 17.551735000000001
#
# number of rings (size 3 to 8) (size 9 to 14) (size 15 to 20)
#    0.000    2.667    0.000    3.000    0.000    6.000 
#    0.000    1.667    0.000    6.000    0.000    0.000 
#    0.000    0.000    0.000    0.000    0.000    0.000 
#
# Total GULP energy -594718.294320 kJ/mol
# GULP energy per Si atom -12389.964465 kJ/mol
# Density = 1.751179 g / cm^3
# Si number density = 17.551735 Si / 1000 Ang^3
#
#
#
# Elastic Constant Matrix: (Units=GPa)
#
#
# Indices 1 2 3 4 5 6 
#
# 1 127.4135 61.4510 45.1017 0.0000 0.0000 0.0000
# 2 61.4510 106.9423 47.8337 0.0000 0.0000 0.0000
# 3 45.1017 47.8337 79.4823 0.0000 0.0000 0.0000
# 4 0.0000 0.0000 0.0000 30.0771 0.0000 0.0000
# 5 0.0000 0.0000 0.0000 0.0000 18.1213 0.0000
# 6 0.0000 0.0000 0.0000 0.0000 0.0000 31.2549
#
#
#
# Elastic Compliance Matrix: (Units=1/GPa)
#
#
# Indices 1 2 3 4 5 6 
#
# 1 0.011526 -0.005060 -0.003495 0.000000 0.000000 0.000000
# 2 -0.005060 0.015016 -0.006166 0.000000 0.000000 0.000000
# 3 -0.003495 -0.006166 0.018276 0.000000 0.000000 0.000000
# 4 0.000000 0.000000 0.000000 0.033248 0.000000 0.000000
# 5 0.000000 0.000000 0.000000 0.000000 0.055184 0.000000
# 6 0.000000 0.000000 0.000000 0.000000 0.000000 0.031995
#
#
# Mechanical properties :
#
#
# Convention : Reuss Voigt Hill
#
# Bulk Modulus (GPa) = 65.03685 69.17899 67.10792
# Shear Modulus (GPa) = 25.02363 26.52078 25.77220
#
# Velocity S-wave (km/s) = 3.77995 3.89138 3.83607
# Velocity P-wave (km/s) = 7.49570 7.72595 7.61170
#
# Compressibility (1/GPa) = 0.01537590
#
# Stress axis : x y z
#
# Youngs Moduli (GPa) = 86.76054 66.59521 54.71781
#
# Poissons Ratio (x) = 0.33695 0.19126
# Poissons Ratio (y) = 0.43897 0.33738
# Poissons Ratio (z) = 0.30326 0.41062
#
# Static dielectric constant tensor:
#      x y z
#    x 3.349180 0.000000 0.000000 
#    y 0.000000 3.409340 0.000000 
#    z 0.000000 0.000000 3.112860 
# 
# 
# High freq. dielectric constant tensor:
#      x y z
#    x 1.670490 0.000000 0.000000 
#    y 0.000000 1.693150 0.000000 
#    z 0.000000 0.000000 1.651220 
# 
# From -- ./inp_files/19660.got.cif
#   From: 2010.03.12/outbox.cif.g09.slc.cpg/sg62_10_cif.got.tgz:19660.got - 2010.04.10 19:12:36.
