data_PCOD8251437
_publ_section_title
;
Structure prediction by ZEFSAII (Michael W. Deem and Ramdas Pophale) SiO2 
 PCOD8251437
Probable space group: P N M A
;
_chemical_formula_sum "Si O2"
_cell_formula_units_Z 64
_cell_length_a 23.998452
_cell_length_b 8.925421
_cell_length_c 15.529948
_cell_angle_alpha 90.000000
_cell_angle_beta 90.000000
_cell_angle_gamma 90.000000
_cell_volume 3326.457206
_symmetry_space_group_name_H-M "P N M A"
_symmetry_group_IT_number 62
_symmetry_cell_setting 'orthorhombic'
loop_
_space_group_symop_operation_xyz
x,y,z
1/2-x,-y,1/2+z
1/2+x,1/2-y,1/2-z
-x,1/2+y,-z
-x,-y,-z
1/2+x,y,1/2-z
1/2-x,1/2+y,1/2+z
x,1/2-y,z
loop_
_atom_site_type_symbol
_atom_site_label
_atom_site_fract_x
_atom_site_fract_y
_atom_site_fract_z
Si Si1 0.617723 0.927037 0.335166
Si Si2 0.380201 0.574980 0.347495
Si Si3 0.996842 0.428270 0.593119
Si Si4 0.501099 0.923746 0.408748
Si Si5 0.884103 0.572762 0.343114
Si Si6 0.386570 0.572359 0.839736
Si Si7 0.186933 0.927277 0.999116
Si Si8 0.812246 0.572002 0.499946
O O1 0.623324 0.750000 0.319088
O O2 0.554230 0.977103 0.353781
O O3 0.655866 0.981111 0.414619
O O4 0.638399 0.015677 0.250850
O O5 0.369215 0.750000 0.362054
O O6 0.445464 0.537015 0.356811
O O7 0.363061 0.522378 0.251339
O O8 0.343981 0.485162 0.415018
O O9 0.991563 0.250000 0.585322
O O10 0.945376 0.492268 0.646273
O O11 0.000000 0.500000 0.500000
O O12 0.052420 0.478539 0.643072
O O13 0.507271 0.750000 0.427828
O O14 0.500000 0.000000 0.500000
O O15 0.881982 0.750000 0.349949
O O16 0.844141 0.503708 0.416779
O O17 0.394819 0.750000 0.839932
O O18 0.343856 0.520519 0.913865
O O19 0.186727 0.750000 0.994012
O O20 0.249598 0.992100 0.999550
O O21 0.811118 0.750000 0.494178
#
# Coordination Sequence:
#
# PCOD8251437 Si02
#       8
#     8   8   8   8   8   8   8   8
#     4  10  21  37  57  84 113 145 187 234 283 333
#     4  10  20  34  57  84 110 142 182 227 278 330
#     4  11  20  35  60  87 117 149 186 230 280 339
#     4  10  19  33  54  82 113 144 179 224 281 338
#     4   9  18  35  58  81 110 147 182 221 273 335
#     4  11  22  37  58  85 115 151 189 229 285 343
#     4  10  21  38  59  79 108 148 190 235 279 330
#     4   9  19  37  58  80 108 148 191 228 279 337
#
# _framework density 19.239687
#
# number of rings (size 3 to 8) (size 9 to 14) (size 15 to 20)
#    0.000    2.000    2.500    1.500    0.000    4.000 
#    0.000    5.000    0.000    0.000    0.000    0.000 
#    0.000    0.000    0.000    0.000    0.000    0.000 
#
# Total GULP energy -793629.530410 kJ/mol
# GULP energy per Si atom -12400.461413 kJ/mol
# Density = 1.919590 g / cm^3
# Si number density = 19.239687 Si / 1000 Ang^3
#
#
#
# Elastic Constant Matrix: (Units=GPa)
#
#
# Indices 1 2 3 4 5 6 
#
# 1 148.2131 28.5854 75.0526 0.0000 0.0000 0.0000
# 2 28.5854 34.1814 33.4481 0.0000 0.0000 0.0000
# 3 75.0526 33.4481 175.5727 0.0000 0.0000 0.0000
# 4 0.0000 0.0000 0.0000 32.4937 0.0000 0.0000
# 5 0.0000 0.0000 0.0000 0.0000 7.3944 0.0000
# 6 0.0000 0.0000 0.0000 0.0000 0.0000 21.5535
#
#
#
# Elastic Compliance Matrix: (Units=1/GPa)
#
#
# Indices 1 2 3 4 5 6 
#
# 1 0.009192 -0.004722 -0.003030 0.000000 0.000000 0.000000
# 2 -0.004722 0.038386 -0.005294 0.000000 0.000000 0.000000
# 3 -0.003030 -0.005294 0.007999 0.000000 0.000000 0.000000
# 4 0.000000 0.000000 0.000000 0.030775 0.000000 0.000000
# 5 0.000000 0.000000 0.000000 0.000000 0.135237 0.000000
# 6 0.000000 0.000000 0.000000 0.000000 0.000000 0.046396
#
#
# Mechanical properties :
#
#
# Convention : Reuss Voigt Hill
#
# Bulk Modulus (GPa) = 33.91615 70.23769 52.07692
# Shear Modulus (GPa) = 16.45246 27.01373 21.73309
#
# Velocity S-wave (km/s) = 2.92744 3.75115 3.36459
# Velocity P-wave (km/s) = 5.39379 7.43958 6.49771
#
# Compressibility (1/GPa) = 0.02948447
#
# Stress axis : x y z
#
# Youngs Moduli (GPa) = 108.78990 26.05150 125.01081
#
# Poissons Ratio (x) = 0.12303 0.37874
# Poissons Ratio (y) = 0.51376 0.66181
# Poissons Ratio (z) = 0.32960 0.13792
#
# Static dielectric constant tensor:
#      x y z
#    x 3.872910 0.000000 0.000000 
#    y 0.000000 3.230600 0.000000 
#    z 0.000000 0.000000 3.338260 
# 
# 
# High freq. dielectric constant tensor:
#      x y z
#    x 1.750540 0.000000 0.000000 
#    y 0.000000 1.717270 0.000000 
#    z 0.000000 0.000000 1.766250 
# 
# From -- ./inp_files/24703.got.cif
#   From: 2010.03.12/outbox.cif.g09.slc.cpg/sg62_13_cif.got.tgz:24703.got - 2010.04.10 19:12:36.
