data_PCOD8251538
_publ_section_title
;
Structure prediction by ZEFSAII (Michael W. Deem and Ramdas Pophale) SiO2 
 PCOD8251538
Probable space group: P N M A
;
_chemical_formula_sum "Si O2"
_cell_formula_units_Z 56
_cell_length_a 20.209261
_cell_length_b 8.822973
_cell_length_c 16.531660
_cell_angle_alpha 90.000000
_cell_angle_beta 90.000000
_cell_angle_gamma 90.000000
_cell_volume 2947.690269
_symmetry_space_group_name_H-M "P N M A"
_symmetry_group_IT_number 62
_symmetry_cell_setting 'orthorhombic'
loop_
_space_group_symop_operation_xyz
x,y,z
1/2-x,-y,1/2+z
1/2+x,1/2-y,1/2-z
-x,1/2+y,-z
-x,-y,-z
1/2+x,y,1/2-z
1/2-x,1/2+y,1/2+z
x,1/2-y,z
loop_
_atom_site_type_symbol
_atom_site_label
_atom_site_fract_x
_atom_site_fract_y
_atom_site_fract_z
Si Si1 0.814944 0.073165 0.986525
Si Si2 0.528462 0.569719 0.746161
Si Si3 0.214958 0.428980 0.178129
Si Si4 0.853035 0.569936 0.345890
Si Si5 0.888608 0.930304 0.688537
Si Si6 0.669739 0.072004 0.024805
Si Si7 0.548464 0.927381 0.564342
O O1 0.815093 0.250000 0.962136
O O2 0.820153 0.975264 0.905328
O O3 0.747449 0.031281 0.033673
O O4 0.875810 0.030344 0.044204
O O5 0.534698 0.750000 0.750031
O O6 0.586822 0.498068 0.797147
O O7 0.460014 0.508846 0.783873
O O8 0.532675 0.511257 0.653887
O O9 0.226420 0.250000 0.180008
O O10 0.284661 0.511322 0.191883
O O11 0.167068 0.485491 0.249250
O O12 0.853952 0.750000 0.341080
O O13 0.858028 0.511790 0.439040
O O14 0.889999 0.750000 0.686941
O O15 0.870764 0.999196 0.600023
O O16 0.660114 0.250000 0.028016
O O17 0.536393 0.750000 0.560399
O O18 0.500000 0.000000 0.500000
#
# Coordination Sequence:
#
# PCOD8251538 Si02
#       7
#     8   8   8   8   8   8   8
#     4   9  18  33  53  75 104 143 180 216 271 336
#     4  10  21  36  55  82 111 142 185 230 273 325
#     4  10  19  33  58  84 108 138 178 231 278 322
#     4  10  21  37  55  78 110 147 183 223 275 332
#     4   9  18  32  54  81 106 138 180 225 273 324
#     4   8  16  32  53  75 101 137 179 217 265 326
#     4  10  21  35  54  79 111 149 183 226 280 338
#
# _framework density 18.997924999999999
#
# number of rings (size 3 to 8) (size 9 to 14) (size 15 to 20)
#    0.000    2.571    0.000    2.571    2.000    2.857 
#    0.000    1.429    0.000    6.000    0.000    0.000 
#    0.000    0.000    0.000    0.000    0.000    0.000 
#
# Total GULP energy -694342.900227 kJ/mol
# GULP energy per Si atom -12398.980361 kJ/mol
# Density = 1.895468 g / cm^3
# Si number density = 18.997925 Si / 1000 Ang^3
#
#
#
# Elastic Constant Matrix: (Units=GPa)
#
#
# Indices 1 2 3 4 5 6 
#
# 1 164.7550 30.5209 116.6845 0.0000 0.0000 0.0000
# 2 30.5209 25.6009 34.5146 0.0000 0.0000 0.0000
# 3 116.6845 34.5146 151.5177 0.0000 0.0000 0.0000
# 4 0.0000 0.0000 0.0000 24.6034 0.0000 0.0000
# 5 0.0000 0.0000 0.0000 0.0000 40.0422 0.0000
# 6 0.0000 0.0000 0.0000 0.0000 0.0000 26.6609
#
#
#
# Elastic Compliance Matrix: (Units=1/GPa)
#
#
# Indices 1 2 3 4 5 6 
#
# 1 0.013510 -0.003001 -0.009720 0.000000 0.000000 0.000000
# 2 -0.003001 0.057041 -0.010682 0.000000 0.000000 0.000000
# 3 -0.009720 -0.010682 0.016519 0.000000 0.000000 0.000000
# 4 0.000000 0.000000 0.000000 0.040645 0.000000 0.000000
# 5 0.000000 0.000000 0.000000 0.000000 0.024974 0.000000
# 6 0.000000 0.000000 0.000000 0.000000 0.000000 0.037508
#
#
# Mechanical properties :
#
#
# Convention : Reuss Voigt Hill
#
# Bulk Modulus (GPa) = 24.83739 78.36816 51.60278
# Shear Modulus (GPa) = 19.96613 28.93820 24.45217
#
# Velocity S-wave (km/s) = 3.24537 3.90709 3.59151
# Velocity P-wave (km/s) = 5.21012 7.85457 6.66482
#
# Compressibility (1/GPa) = 0.04026187
#
# Stress axis : x y z
#
# Youngs Moduli (GPa) = 74.02023 17.53132 60.53707
#
# Poissons Ratio (x) = 0.05262 0.58844
# Poissons Ratio (y) = 0.22217 0.64666
# Poissons Ratio (z) = 0.71950 0.18727
#
# Static dielectric constant tensor:
#      x y z
#    x 3.740020 0.000000 0.000000 
#    y 0.000000 3.173840 0.000000 
#    z 0.000000 0.000000 3.831340 
# 
# 
# High freq. dielectric constant tensor:
#      x y z
#    x 1.748630 0.000000 0.000000 
#    y 0.000000 1.707030 0.000000 
#    z 0.000000 0.000000 1.747410 
# 
# From -- ./inp_files/20202.got.cif
#   From: 2010.03.12/outbox.cif.g09.slc.cpg/sg62_11_cif.got.tgz:20202.got - 2010.04.10 19:12:36.
