data_PCOD8251654
_publ_section_title
;
Structure prediction by ZEFSAII (Michael W. Deem and Ramdas Pophale) SiO2 
 PCOD8251654
Probable space group: P N M A
;
_chemical_formula_sum "Si O2"
_cell_formula_units_Z 64
_cell_length_a 33.003229
_cell_length_b 8.874739
_cell_length_c 10.359827
_cell_angle_alpha 90.000000
_cell_angle_beta 90.000000
_cell_angle_gamma 90.000000
_cell_volume 3034.341980
_symmetry_space_group_name_H-M "P N M A"
_symmetry_group_IT_number 62
_symmetry_cell_setting 'orthorhombic'
loop_
_space_group_symop_operation_xyz
x,y,z
1/2-x,-y,1/2+z
1/2+x,1/2-y,1/2-z
-x,1/2+y,-z
-x,-y,-z
1/2+x,y,1/2-z
1/2-x,1/2+y,1/2+z
x,1/2-y,z
loop_
_atom_site_type_symbol
_atom_site_label
_atom_site_fract_x
_atom_site_fract_y
_atom_site_fract_z
Si Si1 0.532364 0.425819 0.265293
Si Si2 0.713954 0.927222 0.708873
Si Si3 0.731363 0.928312 0.994797
Si Si4 0.453521 0.927756 0.254166
Si Si5 0.352017 0.073088 0.891410
Si Si6 0.618993 0.078310 0.356701
Si Si7 0.633119 0.425578 0.646960
Si Si8 0.562210 0.571868 0.010077
O O1 0.527713 0.250000 0.232254
O O2 0.490844 0.490016 0.328942
O O3 0.570605 0.455299 0.359274
O O4 0.538327 0.523037 0.136621
O O5 0.714549 0.750000 0.689641
O O6 0.733732 0.001998 0.583200
O O7 0.667515 0.981174 0.720973
O O8 0.736588 0.971968 0.843220
O O9 0.733599 0.750000 0.011233
O O10 0.688370 0.994270 0.043988
O O11 0.458094 0.750000 0.271472
O O12 0.410867 0.985291 0.310332
O O13 0.456447 0.977224 0.105894
O O14 0.348814 0.250000 0.887553
O O15 0.390724 0.023052 0.975282
O O16 0.356201 0.020117 0.744420
O O17 0.625953 0.250000 0.315499
O O18 0.637750 0.043757 0.495175
O O19 0.638076 0.250000 0.680443
O O20 0.557195 0.750000 0.987120
#
# Coordination Sequence:
#
# PCOD8251654 Si02
#       8
#     8   8   8   8   8   8   8   8
#     4  10  20  35  55  82 114 150 196 246 296 357
#     4  11  25  43  66  95 125 162 206 250 303 367
#     4  10  23  43  64  92 130 162 198 252 305 362
#     4  11  22  35  54  80 113 154 196 242 300 358
#     4   9  19  36  60  86 115 151 193 243 298 353
#     4   9  20  38  59  84 116 155 198 246 299 355
#     4  10  23  42  61  83 118 158 197 249 305 360
#     4  10  19  34  56  82 114 150 191 244 299 355
#
# _framework density 21.091887
#
# number of rings (size 3 to 8) (size 9 to 14) (size 15 to 20)
#    0.000    2.000    0.000    2.625    1.750    5.500 
#    0.000    0.000    0.000    0.000    0.000    0.000 
#    0.000    0.000    0.000    0.000    0.000    0.000 
#
# Total GULP energy -793621.774904 kJ/mol
# GULP energy per Si atom -12400.340233 kJ/mol
# Density = 2.104388 g / cm^3
# Si number density = 21.091887 Si / 1000 Ang^3
#
#
#
# Elastic Constant Matrix: (Units=GPa)
#
#
# Indices 1 2 3 4 5 6 
#
# 1 100.5404 26.7678 28.6181 0.0000 0.0000 0.0000
# 2 26.7678 34.9811 18.4680 0.0000 0.0000 0.0000
# 3 28.6181 18.4680 62.6358 0.0000 0.0000 0.0000
# 4 0.0000 0.0000 0.0000 26.9649 0.0000 0.0000
# 5 0.0000 0.0000 0.0000 0.0000 27.5013 0.0000
# 6 0.0000 0.0000 0.0000 0.0000 0.0000 32.3146
#
#
#
# Elastic Compliance Matrix: (Units=1/GPa)
#
#
# Indices 1 2 3 4 5 6 
#
# 1 0.013142 -0.008156 -0.003600 0.000000 0.000000 0.000000
# 2 -0.008156 0.038919 -0.007749 0.000000 0.000000 0.000000
# 3 -0.003600 -0.007749 0.019895 0.000000 0.000000 0.000000
# 4 0.000000 0.000000 0.000000 0.037085 0.000000 0.000000
# 5 0.000000 0.000000 0.000000 0.000000 0.036362 0.000000
# 6 0.000000 0.000000 0.000000 0.000000 0.000000 0.030946
#
#
# Mechanical properties :
#
#
# Convention : Reuss Voigt Hill
#
# Bulk Modulus (GPa) = 30.35208 38.42948 34.39078
# Shear Modulus (GPa) = 22.09062 25.64305 23.86684
#
# Velocity S-wave (km/s) = 3.23979 3.49058 3.36752
# Velocity P-wave (km/s) = 5.33073 5.87411 5.60900
#
# Compressibility (1/GPa) = 0.03294667
#
# Stress axis : x y z
#
# Youngs Moduli (GPa) = 76.08943 25.69453 50.26448
#
# Poissons Ratio (x) = 0.20957 0.18095
# Poissons Ratio (y) = 0.62060 0.38948
# Poissons Ratio (z) = 0.27392 0.19910
#
# Static dielectric constant tensor:
#      x y z
#    x 4.253870 0.000000 0.000000 
#    y 0.000000 3.646260 0.000000 
#    z 0.000000 0.000000 3.726890 
# 
# 
# High freq. dielectric constant tensor:
#      x y z
#    x 1.841790 0.000000 0.000000 
#    y 0.000000 1.817050 0.000000 
#    z 0.000000 0.000000 1.818900 
# 
# From -- ./inp_files/15854.got.cif
#   From: 2010.03.12/outbox.cif.g09.slc.cpg/sg62_8_cif.got.tgz:15854.got - 2010.04.10 19:12:36.
