data_PCOD8251570
_publ_section_title
;
Structure prediction by ZEFSAII (Michael W. Deem and Ramdas Pophale) SiO2 
 PCOD8251570
Probable space group: P N M A
;
_chemical_formula_sum "Si O2"
_cell_formula_units_Z 56
_cell_length_a 19.008584
_cell_length_b 8.907032
_cell_length_c 19.141551
_cell_angle_alpha 90.000000
_cell_angle_beta 90.000000
_cell_angle_gamma 90.000000
_cell_volume 3240.857262
_symmetry_space_group_name_H-M "P N M A"
_symmetry_group_IT_number 62
_symmetry_cell_setting 'orthorhombic'
loop_
_space_group_symop_operation_xyz
x,y,z
1/2-x,-y,1/2+z
1/2+x,1/2-y,1/2-z
-x,1/2+y,-z
-x,-y,-z
1/2+x,y,1/2-z
1/2-x,1/2+y,1/2+z
x,1/2-y,z
loop_
_atom_site_type_symbol
_atom_site_label
_atom_site_fract_x
_atom_site_fract_y
_atom_site_fract_z
Si Si1 0.637803 0.924209 0.761933
Si Si2 0.264161 0.925114 0.342229
Si Si3 0.849635 0.074225 0.772967
Si Si4 0.555010 0.427077 0.051454
Si Si5 0.712579 0.072285 0.021739
Si Si6 0.022175 0.073890 0.292407
Si Si7 0.250405 0.074162 0.122282
O O1 0.647544 0.750000 0.743202
O O2 0.557398 0.967922 0.774085
O O3 0.680456 0.963886 0.832263
O O4 0.665642 0.021864 0.697408
O O5 0.269650 0.750000 0.357985
O O6 0.196440 0.965030 0.295249
O O7 0.259391 0.013003 0.414603
O O8 0.849387 0.250000 0.789215
O O9 0.928460 0.016351 0.760794
O O10 0.818809 0.987591 0.839503
O O11 0.547767 0.250000 0.045118
O O12 0.632536 0.483496 0.030967
O O13 0.537895 0.481604 0.129414
O O14 0.500000 0.500000 0.000000
O O15 0.717037 0.250000 0.020291
O O16 0.743930 0.007575 0.951113
O O17 0.037418 0.250000 0.284536
O O18 0.241879 0.250000 0.109599
#
# Coordination Sequence:
#
# PCOD8251570 Si02
#       7
#     8   8   8   8   8   8   8
#     4   9  19  34  54  77 105 140 178 220 263 315
#     4  10  20  34  53  76 104 138 180 223 264 315
#     4  10  20  34  53  78 105 137 180 224 264 313
#     4  10  21  33  49  75 110 146 178 213 258 318
#     4  11  21  34  53  77 107 141 178 220 265 314
#     4  10  19  34  53  76 106 142 179 215 264 319
#     4  10  20  35  55  77 106 141 178 221 266 315
#
# _framework density 17.279378999999999
#
# number of rings (size 3 to 8) (size 9 to 14) (size 15 to 20)
#    0.000    2.000    1.429    2.571    0.000    5.143 
#    0.000    0.000    0.000    0.857    0.000    0.000 
#    0.000    0.000    0.000    0.000    0.000    0.000 
#
# Total GULP energy -694683.738406 kJ/mol
# GULP energy per Si atom -12405.066757 kJ/mol
# Density = 1.724005 g / cm^3
# Si number density = 17.279379 Si / 1000 Ang^3
#
#
#
# Elastic Constant Matrix: (Units=GPa)
#
#
# Indices 1 2 3 4 5 6 
#
# 1 77.2657 33.5697 57.7329 0.0000 0.0000 0.0000
# 2 33.5697 65.4793 52.2915 0.0000 0.0000 0.0000
# 3 57.7329 52.2915 128.6541 0.0000 0.0000 0.0000
# 4 0.0000 0.0000 0.0000 32.1582 0.0000 0.0000
# 5 0.0000 0.0000 0.0000 0.0000 21.9396 0.0000
# 6 0.0000 0.0000 0.0000 0.0000 0.0000 29.2460
#
#
#
# Elastic Compliance Matrix: (Units=1/GPa)
#
#
# Indices 1 2 3 4 5 6 
#
# 1 0.020387 -0.004658 -0.007256 0.000000 0.000000 0.000000
# 2 -0.004658 0.023676 -0.007533 0.000000 0.000000 0.000000
# 3 -0.007256 -0.007533 0.014090 0.000000 0.000000 0.000000
# 4 0.000000 0.000000 0.000000 0.031096 0.000000 0.000000
# 5 0.000000 0.000000 0.000000 0.000000 0.045580 0.000000
# 6 0.000000 0.000000 0.000000 0.000000 0.000000 0.034193
#
#
# Mechanical properties :
#
#
# Convention : Reuss Voigt Hill
#
# Bulk Modulus (GPa) = 51.91835 62.06524 56.99180
# Shear Modulus (GPa) = 23.32797 25.18908 24.25853
#
# Velocity S-wave (km/s) = 3.67828 3.82220 3.75093
# Velocity P-wave (km/s) = 6.93912 7.44819 7.19816
#
# Compressibility (1/GPa) = 0.01926101
#
# Stress axis : x y z
#
# Youngs Moduli (GPa) = 49.04984 42.23747 70.97043
#
# Poissons Ratio (x) = 0.19674 0.51493
# Poissons Ratio (y) = 0.22847 0.53460
# Poissons Ratio (z) = 0.35588 0.31817
#
# Static dielectric constant tensor:
#      x y z
#    x 3.179780 0.000000 0.000000 
#    y 0.000000 3.219260 0.000000 
#    z 0.000000 0.000000 3.154330 
# 
# 
# High freq. dielectric constant tensor:
#      x y z
#    x 1.658600 0.000000 0.000000 
#    y 0.000000 1.674520 0.000000 
#    z 0.000000 0.000000 1.661930 
# 
# From -- ./inp_files/24603.got.cif
#   From: 2010.03.12/outbox.cif.g09.slc.cpg/sg62_13_cif.got.tgz:24603.got - 2010.04.10 19:12:36.
