data_PCOD8251611
_publ_section_title
;
Structure prediction by ZEFSAII (Michael W. Deem and Ramdas Pophale) SiO2 
 PCOD8251611
Probable space group: P N M A
;
_chemical_formula_sum "Si O2"
_cell_formula_units_Z 48
_cell_length_a 20.264478
_cell_length_b 9.130388
_cell_length_c 14.098256
_cell_angle_alpha 90.000000
_cell_angle_beta 90.000000
_cell_angle_gamma 90.000000
_cell_volume 2608.495230
_symmetry_space_group_name_H-M "P N M A"
_symmetry_group_IT_number 62
_symmetry_cell_setting 'orthorhombic'
loop_
_space_group_symop_operation_xyz
x,y,z
1/2-x,-y,1/2+z
1/2+x,1/2-y,1/2-z
-x,1/2+y,-z
-x,-y,-z
1/2+x,y,1/2-z
1/2-x,1/2+y,1/2+z
x,1/2-y,z
loop_
_atom_site_type_symbol
_atom_site_label
_atom_site_fract_x
_atom_site_fract_y
_atom_site_fract_z
Si Si1 0.058984 0.078047 0.949480
Si Si2 0.677980 0.579725 0.042772
Si Si3 0.491978 0.921598 0.251765
Si Si4 0.186658 0.078601 0.060735
Si Si5 0.858591 0.077607 0.755418
Si Si6 0.558818 0.423498 0.946959
O O1 0.050340 0.250000 0.962473
O O2 0.053844 0.031882 0.839620
O O3 0.127251 0.023079 0.993877
O O4 0.000000 0.000000 0.000000
O O5 0.659787 0.750000 0.028638
O O6 0.675316 0.540352 0.154440
O O7 0.748626 0.540056 0.999298
O O8 0.627797 0.480767 0.984665
O O9 0.503477 0.750000 0.246652
O O10 0.566481 0.987819 0.256306
O O11 0.450216 0.973547 0.161635
O O12 0.181752 0.250000 0.081863
O O13 0.184498 0.997197 0.161787
O O14 0.857806 0.250000 0.774954
O O15 0.554725 0.250000 0.960585
O O16 0.500000 0.500000 0.000000
#
# Coordination Sequence:
#
# PCOD8251611 Si02
#       6
#     8   8   8   8   8   8
#     4  10  19  34  55  80 108 141 183 229 277 328
#     4  10  22  40  57  80 117 154 187 231 286 340
#     4   9  18  33  56  84 111 142 184 229 273 334
#     4  10  22  37  56  83 115 147 184 236 288 332
#     4  10  19  36  60  81 109 151 189 226 281 344
#     4  11  21  36  59  86 113 146 190 235 280 335
#
# _framework density 18.401415
#
# number of rings (size 3 to 8) (size 9 to 14) (size 15 to 20)
#    0.000    2.000    3.333    0.500    0.000    2.667 
#    0.000    5.000    0.000    0.000    0.000    0.000 
#    0.000    0.000    0.000    0.000    0.000    0.000 
#
# Total GULP energy -595117.834299 kJ/mol
# GULP energy per Si atom -12398.288215 kJ/mol
# Density = 1.835953 g / cm^3
# Si number density = 18.401415 Si / 1000 Ang^3
#
#
#
# Elastic Constant Matrix: (Units=GPa)
#
#
# Indices 1 2 3 4 5 6 
#
# 1 139.1244 47.2007 84.5798 0.0000 0.0000 0.0000
# 2 47.2007 46.6239 53.1730 0.0000 0.0000 0.0000
# 3 84.5798 53.1730 181.6382 0.0000 0.0000 0.0000
# 4 0.0000 0.0000 0.0000 28.7164 0.0000 0.0000
# 5 0.0000 0.0000 0.0000 0.0000 37.5730 0.0000
# 6 0.0000 0.0000 0.0000 0.0000 0.0000 28.5501
#
#
#
# Elastic Compliance Matrix: (Units=1/GPa)
#
#
# Indices 1 2 3 4 5 6 
#
# 1 0.011972 -0.008651 -0.003043 0.000000 0.000000 0.000000
# 2 -0.008651 0.038448 -0.007227 0.000000 0.000000 0.000000
# 3 -0.003043 -0.007227 0.009038 0.000000 0.000000 0.000000
# 4 0.000000 0.000000 0.000000 0.034823 0.000000 0.000000
# 5 0.000000 0.000000 0.000000 0.000000 0.026615 0.000000
# 6 0.000000 0.000000 0.000000 0.000000 0.000000 0.035026
#
#
# Mechanical properties :
#
#
# Convention : Reuss Voigt Hill
#
# Bulk Modulus (GPa) = 46.25817 81.92151 64.08984
# Shear Modulus (GPa) = 24.87940 31.13011 28.00475
#
# Velocity S-wave (km/s) = 3.68100 4.11752 3.90536
# Velocity P-wave (km/s) = 6.57718 8.19885 7.43237
#
# Compressibility (1/GPa) = 0.02161780
#
# Stress axis : x y z
#
# Youngs Moduli (GPa) = 83.52552 26.00900 110.64460
#
# Poissons Ratio (x) = 0.22499 0.33664
# Poissons Ratio (y) = 0.72254 0.79966
# Poissons Ratio (z) = 0.25413 0.18797
#
# Static dielectric constant tensor:
#      x y z
#    x 3.398530 0.000000 0.000000 
#    y 0.000000 3.142250 0.000000 
#    z 0.000000 0.000000 3.590000 
# 
# 
# High freq. dielectric constant tensor:
#      x y z
#    x 1.713210 0.000000 0.000000 
#    y 0.000000 1.693600 0.000000 
#    z 0.000000 0.000000 1.731210 
# 
# From -- ./inp_files/19538.got.cif
#   From: 2010.03.12/outbox.cif.g09.slc.cpg/sg62_10_cif.got.tgz:19538.got - 2010.04.10 19:12:36.
