data_PCOD8251660
_publ_section_title
;
Structure prediction by ZEFSAII (Michael W. Deem and Ramdas Pophale) SiO2 
 PCOD8251660
Probable space group: P N M A
;
_chemical_formula_sum "Si O2"
_cell_formula_units_Z 56
_cell_length_a 14.393441
_cell_length_b 8.608491
_cell_length_c 22.540407
_cell_angle_alpha 90.000000
_cell_angle_beta 90.000000
_cell_angle_gamma 90.000000
_cell_volume 2792.887326
_symmetry_space_group_name_H-M "P N M A"
_symmetry_group_IT_number 62
_symmetry_cell_setting 'orthorhombic'
loop_
_space_group_symop_operation_xyz
x,y,z
1/2-x,-y,1/2+z
1/2+x,1/2-y,1/2-z
-x,1/2+y,-z
-x,-y,-z
1/2+x,y,1/2-z
1/2-x,1/2+y,1/2+z
x,1/2-y,z
loop_
_atom_site_type_symbol
_atom_site_label
_atom_site_fract_x
_atom_site_fract_y
_atom_site_fract_z
Si Si1 0.102653 0.433489 0.002334
Si Si2 0.393045 0.431245 0.723760
Si Si3 0.404423 0.932090 0.850673
Si Si4 0.601467 0.434208 0.850726
Si Si5 0.600560 0.068234 0.717382
Si Si6 0.215229 0.067028 0.116867
Si Si7 0.721161 0.435295 0.609712
O O1 0.095394 0.250000 0.001227
O O2 0.154886 0.491883 0.061362
O O3 0.161724 0.493089 0.946350
O O4 0.000000 0.500000 0.000000
O O5 0.382265 0.250000 0.739114
O O6 0.375005 0.524072 0.783998
O O7 0.495016 0.470003 0.698078
O O8 0.318070 0.479748 0.675665
O O9 0.419226 0.750000 0.856564
O O10 0.498774 0.016703 0.871185
O O11 0.322865 0.989061 0.894453
O O12 0.610532 0.250000 0.855470
O O13 0.618574 0.496710 0.783417
O O14 0.677517 0.517038 0.892650
O O15 0.616913 0.250000 0.719015
O O16 0.669936 0.997270 0.668648
O O17 0.206238 0.250000 0.125118
O O18 0.729920 0.250000 0.610703
#
# Coordination Sequence:
#
# PCOD8251660 Si02
#       7
#     8   8   8   8   8   8   8
#     4  10  23  40  60  85 116 149 186 231 278 327
#     4  10  19  34  56  83 114 153 193 227 272 342
#     4  11  22  36  55  84 117 146 180 236 292 332
#     4  10  20  36  57  82 110 147 188 228 278 345
#     4   8  16  30  53  81 107 137 183 230 266 316
#     4  11  22  36  54  83 117 148 185 237 289 328
#     4  10  19  36  58  80 109 150 192 229 273 336
#
# _framework density 20.050934000000002
#
# number of rings (size 3 to 8) (size 9 to 14) (size 15 to 20)
#    0.000    2.000    0.000    5.143    0.000    4.000 
#    0.000    4.286    0.000    0.000    0.000    0.000 
#    0.000    0.000    0.000    0.000    0.000    0.000 
#
# Total GULP energy -694475.659289 kJ/mol
# GULP energy per Si atom -12401.351059 kJ/mol
# Density = 2.000530 g / cm^3
# Si number density = 20.050934 Si / 1000 Ang^3
#
#
#
# Elastic Constant Matrix: (Units=GPa)
#
#
# Indices 1 2 3 4 5 6 
#
# 1 157.5827 21.3937 63.2329 0.0000 0.0000 0.0000
# 2 21.3937 48.5830 19.7615 0.0000 0.0000 0.0000
# 3 63.2329 19.7615 68.2069 0.0000 0.0000 0.0000
# 4 0.0000 0.0000 0.0000 18.3776 0.0000 0.0000
# 5 0.0000 0.0000 0.0000 0.0000 35.8986 0.0000
# 6 0.0000 0.0000 0.0000 0.0000 0.0000 35.1405
#
#
#
# Elastic Compliance Matrix: (Units=1/GPa)
#
#
# Indices 1 2 3 4 5 6 
#
# 1 0.010128 -0.000726 -0.009179 0.000000 0.000000 0.000000
# 2 -0.000726 0.023385 -0.006102 0.000000 0.000000 0.000000
# 3 -0.009179 -0.006102 0.024939 0.000000 0.000000 0.000000
# 4 0.000000 0.000000 0.000000 0.054414 0.000000 0.000000
# 5 0.000000 0.000000 0.000000 0.000000 0.027856 0.000000
# 6 0.000000 0.000000 0.000000 0.000000 0.000000 0.028457
#
#
# Mechanical properties :
#
#
# Convention : Reuss Voigt Hill
#
# Bulk Modulus (GPa) = 37.82524 53.68321 45.75422
# Shear Modulus (GPa) = 23.80896 29.21565 26.51231
#
# Velocity S-wave (km/s) = 3.44964 3.82130 3.64022
# Velocity P-wave (km/s) = 5.89680 6.80451 6.36685
#
# Compressibility (1/GPa) = 0.02643737
#
# Stress axis : x y z
#
# Youngs Moduli (GPa) = 98.74057 42.76208 40.09864
#
# Poissons Ratio (x) = 0.03105 0.36805
# Poissons Ratio (y) = 0.07171 0.24469
# Poissons Ratio (z) = 0.90630 0.26094
#
# Static dielectric constant tensor:
#      x y z
#    x 3.966050 0.000000 0.000000 
#    y 0.000000 3.394700 0.000000 
#    z 0.000000 0.000000 3.663770 
# 
# 
# High freq. dielectric constant tensor:
#      x y z
#    x 1.803420 0.000000 0.000000 
#    y 0.000000 1.766330 0.000000 
#    z 0.000000 0.000000 1.760440 
# 
# From -- ./inp_files/27179.got.cif
#   From: 2010.03.12/outbox.cif.g09.slc.cpg/sg62_14_cif.got.tgz:27179.got - 2010.04.10 19:12:36.
