data_PCOD8251130
_publ_section_title
;
Structure prediction by ZEFSAII (Michael W. Deem and Ramdas Pophale) SiO2 
 PCOD8251130
Probable space group: P N M A
;
_chemical_formula_sum "Si O2"
_cell_formula_units_Z 64
_cell_length_a 20.584401
_cell_length_b 8.776168
_cell_length_c 19.632112
_cell_angle_alpha 90.000000
_cell_angle_beta 90.000000
_cell_angle_gamma 90.000000
_cell_volume 3546.583465
_symmetry_space_group_name_H-M "P N M A"
_symmetry_group_IT_number 62
_symmetry_cell_setting 'orthorhombic'
loop_
_space_group_symop_operation_xyz
x,y,z
1/2-x,-y,1/2+z
1/2+x,1/2-y,1/2-z
-x,1/2+y,-z
-x,-y,-z
1/2+x,y,1/2-z
1/2-x,1/2+y,1/2+z
x,1/2-y,z
loop_
_atom_site_type_symbol
_atom_site_label
_atom_site_fract_x
_atom_site_fract_y
_atom_site_fract_z
Si Si1 0.317615 0.570129 0.198864
Si Si2 0.199598 0.429594 0.281512
Si Si3 0.764458 0.429305 0.430864
Si Si4 0.375186 0.430772 0.570340
Si Si5 0.929827 0.071487 0.218158
Si Si6 0.074227 0.425995 0.198586
Si Si7 0.730510 0.077491 0.070303
Si Si8 0.117540 0.922357 0.922862
O O1 0.314432 0.750000 0.192302
O O2 0.259087 0.515884 0.246851
O O3 0.314240 0.496388 0.124089
O O4 0.387075 0.520931 0.228497
O O5 0.212646 0.250000 0.273639
O O6 0.131840 0.481047 0.247875
O O7 0.193295 0.474389 0.361224
O O8 0.761139 0.250000 0.423021
O O9 0.694340 0.497213 0.412822
O O10 0.788766 0.471529 0.506738
O O11 0.365611 0.250000 0.566729
O O12 0.425391 0.478340 0.628583
O O13 0.400550 0.494358 0.496817
O O14 0.910382 0.250000 0.221071
O O15 0.917223 0.001295 0.142196
O O16 0.005580 0.046071 0.236003
O O17 0.082854 0.250000 0.178931
O O18 0.712452 0.250000 0.050066
O O19 0.805912 0.063651 0.087956
O O20 0.093238 0.750000 0.924147
#
# Coordination Sequence:
#
# PCOD8251130 Si02
#       8
#     8   8   8   8   8   8   8   8
#     4  12  23  35  55  83 108 141 186 228 273 322
#     4  10  19  35  57  81 110 145 179 223 275 324
#     4  11  21  34  54  80 109 138 176 226 277 322
#     4  10  19  32  50  75 107 146 185 220 265 318
#     4  10  20  37  55  76 109 150 188 225 270 324
#     4  10  21  34  54  81 109 147 189 222 267 328
#     4   9  17  32  54  78 107 139 175 218 274 326
#     4   8  15  29  49  72 103 145 181 214 262 313
#
# _framework density 18.045535999999998
#
# number of rings (size 3 to 8) (size 9 to 14) (size 15 to 20)
#    0.000    2.000    2.500    3.375    0.000    1.500 
#    0.000    0.625    0.000    0.750    0.000    0.000 
#    0.000    0.000    0.000    0.000    0.000    0.000 
#
# Total GULP energy -793464.678552 kJ/mol
# GULP energy per Si atom -12397.885602 kJ/mol
# Density = 1.800446 g / cm^3
# Si number density = 18.045536 Si / 1000 Ang^3
#
#
#
# Elastic Constant Matrix: (Units=GPa)
#
#
# Indices 1 2 3 4 5 6 
#
# 1 68.2546 20.1522 38.4490 0.0000 0.0000 0.0000
# 2 20.1522 76.3879 33.0897 0.0000 0.0000 0.0000
# 3 38.4490 33.0897 103.1978 0.0000 0.0000 0.0000
# 4 0.0000 0.0000 0.0000 27.2352 0.0000 0.0000
# 5 0.0000 0.0000 0.0000 0.0000 21.4459 0.0000
# 6 0.0000 0.0000 0.0000 0.0000 0.0000 17.3814
#
#
#
# Elastic Compliance Matrix: (Units=1/GPa)
#
#
# Indices 1 2 3 4 5 6 
#
# 1 0.018868 -0.002244 -0.006310 0.000000 0.000000 0.000000
# 2 -0.002244 0.015470 -0.004124 0.000000 0.000000 0.000000
# 3 -0.006310 -0.004124 0.013364 0.000000 0.000000 0.000000
# 4 0.000000 0.000000 0.000000 0.036717 0.000000 0.000000
# 5 0.000000 0.000000 0.000000 0.000000 0.046629 0.000000
# 6 0.000000 0.000000 0.000000 0.000000 0.000000 0.057533
#
#
# Mechanical properties :
#
#
# Convention : Reuss Voigt Hill
#
# Bulk Modulus (GPa) = 44.75418 47.91357 46.33388
# Shear Modulus (GPa) = 22.58499 23.62244 23.10371
#
# Velocity S-wave (km/s) = 3.54157 3.62200 3.58201
# Velocity P-wave (km/s) = 6.44811 6.64086 6.54519
#
# Compressibility (1/GPa) = 0.02234428
#
# Stress axis : x y z
#
# Youngs Moduli (GPa) = 52.99885 64.64282 74.83049
#
# Poissons Ratio (x) = 0.14508 0.47220
# Poissons Ratio (y) = 0.11894 0.30861
# Poissons Ratio (z) = 0.33444 0.26659
#
# Static dielectric constant tensor:
#      x y z
#    x 3.136620 0.000000 0.000000 
#    y 0.000000 3.202360 0.000000 
#    z 0.000000 0.000000 3.612900 
# 
# 
# High freq. dielectric constant tensor:
#      x y z
#    x 1.670470 0.000000 0.000000 
#    y 0.000000 1.684070 0.000000 
#    z 0.000000 0.000000 1.708680 
# 
# From -- ./inp_files/27888.got.cif
#   From: 2010.03.12/outbox.cif.g09.slc.cpg/sg62_14_cif.got.tgz:27888.got - 2010.04.10 19:12:36.
