data_PCOD8251936
_publ_section_title
;
Structure prediction by ZEFSAII (Michael W. Deem and Ramdas Pophale) SiO2 
 PCOD8251936
Probable space group: P N M A
;
_chemical_formula_sum "Si O2"
_cell_formula_units_Z 64
_cell_length_a 18.184797
_cell_length_b 20.644857
_cell_length_c 8.639679
_cell_angle_alpha 90.000000
_cell_angle_beta 90.000000
_cell_angle_gamma 90.000000
_cell_volume 3243.530180
_symmetry_space_group_name_H-M "P N M A"
_symmetry_group_IT_number 62
_symmetry_cell_setting 'orthorhombic'
loop_
_space_group_symop_operation_xyz
x,y,z
1/2-x,-y,1/2+z
1/2+x,1/2-y,1/2-z
-x,1/2+y,-z
-x,-y,-z
1/2+x,y,1/2-z
1/2-x,1/2+y,1/2+z
x,1/2-y,z
loop_
_atom_site_type_symbol
_atom_site_label
_atom_site_fract_x
_atom_site_fract_y
_atom_site_fract_z
Si Si1 0.647415 0.321976 0.170549
Si Si2 0.130212 0.823283 0.040166
Si Si3 0.519247 0.322539 0.696926
Si Si4 0.822957 0.992227 0.156401
Si Si5 0.995068 0.321309 0.469657
Si Si6 0.594412 0.097982 0.435544
Si Si7 0.440663 0.095727 0.279073
Si Si8 0.236124 0.086555 0.548909
O O1 0.684781 0.250000 0.180613
O O2 0.561044 0.311940 0.149799
O O3 0.652153 0.360308 0.333187
O O4 0.679468 0.363446 0.028797
O O5 0.159799 0.750000 0.016869
O O6 0.193319 0.871444 0.097827
O O7 0.067620 0.825931 0.168635
O O8 0.094088 0.847250 0.881160
O O9 0.549485 0.250000 0.682206
O O10 0.569208 0.363478 0.585373
O O11 0.527853 0.349139 0.870681
O O12 0.857761 0.960387 0.002797
O O13 0.794784 0.944765 0.292488
O O14 0.887581 0.034579 0.231955
O O15 0.756135 0.034383 0.085012
O O16 0.957726 0.250000 0.495940
O O17 0.941490 0.374337 0.393918
O O18 0.522036 0.074248 0.340185
#
# Coordination Sequence:
#
# PCOD8251936 Si02
#       8
#     8   8   8   8   8   8   8   8
#     4  10  20  36  58  81 106 137 176 223 273 323
#     4   9  18  34  55  76 102 138 176 217 266 316
#     4   9  17  31  54  83 109 132 167 223 283 326
#     4  11  23  38  54  76 110 150 187 220 260 319
#     4   9  17  31  54  84 110 131 167 224 281 322
#     4  10  19  36  57  81 107 138 178 225 276 325
#     4   9  19  34  56  80 105 138 178 222 269 319
#     4  11  23  38  54  75 107 148 186 220 258 318
#
# _framework density 19.731586
#
# number of rings (size 3 to 8) (size 9 to 14) (size 15 to 20)
#    0.000    2.250    0.000    3.000    0.000    4.000 
#    0.000    8.750    0.000    3.000    0.000    0.000 
#    0.000    0.000    0.000    0.000    0.000    0.000 
#
# Total GULP energy -793175.194888 kJ/mol
# GULP energy per Si atom -12393.362420 kJ/mol
# Density = 1.968668 g / cm^3
# Si number density = 19.731586 Si / 1000 Ang^3
#
#
#
# Elastic Constant Matrix: (Units=GPa)
#
#
# Indices 1 2 3 4 5 6 
#
# 1 50.5647 28.5131 10.6416 0.0000 0.0000 0.0000
# 2 28.5131 95.4373 30.3379 0.0000 0.0000 0.0000
# 3 10.6416 30.3379 75.8003 0.0000 0.0000 0.0000
# 4 0.0000 0.0000 0.0000 36.2772 0.0000 0.0000
# 5 0.0000 0.0000 0.0000 0.0000 19.3621 0.0000
# 6 0.0000 0.0000 0.0000 0.0000 0.0000 29.3842
#
#
#
# Elastic Compliance Matrix: (Units=1/GPa)
#
#
# Indices 1 2 3 4 5 6 
#
# 1 0.023805 -0.006931 -0.000568 0.000000 0.000000 0.000000
# 2 -0.006931 0.014024 -0.004640 0.000000 0.000000 0.000000
# 3 -0.000568 -0.004640 0.015129 0.000000 0.000000 0.000000
# 4 0.000000 0.000000 0.000000 0.027565 0.000000 0.000000
# 5 0.000000 0.000000 0.000000 0.000000 0.051647 0.000000
# 6 0.000000 0.000000 0.000000 0.000000 0.000000 0.034032
#
#
# Mechanical properties :
#
#
# Convention : Reuss Voigt Hill
#
# Bulk Modulus (GPa) = 34.86754 40.08748 37.47751
# Shear Modulus (GPa) = 24.99496 27.15869 26.07682
#
# Velocity S-wave (km/s) = 3.56300 3.71402 3.63929
# Velocity P-wave (km/s) = 5.88523 6.22515 6.05757
#
# Compressibility (1/GPa) = 0.02867997
#
# Stress axis : x y z
#
# Youngs Moduli (GPa) = 42.00841 71.30717 66.09721
#
# Poissons Ratio (x) = 0.49427 0.03753
# Poissons Ratio (y) = 0.29118 0.30667
# Poissons Ratio (z) = 0.02385 0.33084
#
# Static dielectric constant tensor:
#      x y z
#    x 3.506460 0.000000 0.000000 
#    y 0.000000 3.765950 0.000000 
#    z 0.000000 0.000000 3.513130 
# 
# 
# High freq. dielectric constant tensor:
#      x y z
#    x 1.752180 0.000000 0.000000 
#    y 0.000000 1.774270 0.000000 
#    z 0.000000 0.000000 1.769920 
# 
# From -- ./inp_files/8151.got.cif
#   From: 2010.03.12/outbox.cif.g09.slc.cpg/sg62_5_cif.got.tgz:8151.got - 2010.04.10 19:12:36.
