data_PCOD8251298
_publ_section_title
;
Structure prediction by ZEFSAII (Michael W. Deem and Ramdas Pophale) SiO2 
 PCOD8251298
Probable space group: P N M A
;
_chemical_formula_sum "Si O2"
_cell_formula_units_Z 56
_cell_length_a 19.798981
_cell_length_b 8.739572
_cell_length_c 16.385082
_cell_angle_alpha 90.000000
_cell_angle_beta 90.000000
_cell_angle_gamma 90.000000
_cell_volume 2835.186437
_symmetry_space_group_name_H-M "P N M A"
_symmetry_group_IT_number 62
_symmetry_cell_setting 'orthorhombic'
loop_
_space_group_symop_operation_xyz
x,y,z
1/2-x,-y,1/2+z
1/2+x,1/2-y,1/2-z
-x,1/2+y,-z
-x,-y,-z
1/2+x,y,1/2-z
1/2-x,1/2+y,1/2+z
x,1/2-y,z
loop_
_atom_site_type_symbol
_atom_site_label
_atom_site_fract_x
_atom_site_fract_y
_atom_site_fract_z
Si Si1 0.808360 0.429947 0.071922
Si Si2 0.128815 0.430090 0.295176
Si Si3 0.265152 0.574893 0.265460
Si Si4 0.662726 0.430895 0.026344
Si Si5 0.117276 0.073666 0.645122
Si Si6 0.946296 0.570341 0.060614
Si Si7 0.482858 0.428942 0.268387
O O1 0.819997 0.250000 0.063992
O O2 0.802014 0.471455 0.167178
O O3 0.740677 0.487011 0.026153
O O4 0.872293 0.515095 0.032594
O O5 0.143122 0.250000 0.291132
O O6 0.189257 0.516173 0.248273
O O7 0.126462 0.484385 0.390100
O O8 0.059462 0.475532 0.252016
O O9 0.263183 0.750000 0.295929
O O10 0.307997 0.559118 0.183044
O O11 0.663618 0.250000 0.020516
O O12 0.622865 0.492994 0.947204
O O13 0.092952 0.250000 0.647453
O O14 0.063098 0.970412 0.691296
O O15 0.950368 0.750000 0.053309
O O16 0.959679 0.522569 0.153365
O O17 0.000000 0.500000 0.000000
O O18 0.476419 0.250000 0.287225
#
# Coordination Sequence:
#
# PCOD8251298 Si02
#       7
#     8   8   8   8   8   8   8
#     4  10  19  36  60  83 114 153 190 238 294 350
#     4   9  20  38  58  81 115 157 201 249 298 349
#     4  10  19  32  55  84 112 150 198 245 293 353
#     4   8  17  35  58  84 115 153 195 241 293 344
#     4  10  20  35  57  85 117 154 196 241 292 355
#     4  12  25  41  61  87 118 154 195 244 300 363
#     4  11  23  39  59  86 119 158 200 245 299 358
#
# _framework density 19.751788000000001
#
# number of rings (size 3 to 8) (size 9 to 14) (size 15 to 20)
#    0.000    2.000    1.429    3.429    0.000    3.429 
#    0.000    5.000    0.000    0.000    0.000    0.000 
#    0.000    0.000    0.000    0.000    0.000    0.000 
#
# Total GULP energy -694437.395300 kJ/mol
# GULP energy per Si atom -12400.667773 kJ/mol
# Density = 1.970683 g / cm^3
# Si number density = 19.751788 Si / 1000 Ang^3
#
#
#
# Elastic Constant Matrix: (Units=GPa)
#
#
# Indices 1 2 3 4 5 6 
#
# 1 91.0501 34.0197 4.4755 0.0000 0.0000 0.0000
# 2 34.0197 82.0029 12.0993 0.0000 0.0000 0.0000
# 3 4.4755 12.0993 33.7123 0.0000 0.0000 0.0000
# 4 0.0000 0.0000 0.0000 22.7629 0.0000 0.0000
# 5 0.0000 0.0000 0.0000 0.0000 30.5056 0.0000
# 6 0.0000 0.0000 0.0000 0.0000 0.0000 33.1738
#
#
#
# Elastic Compliance Matrix: (Units=1/GPa)
#
#
# Indices 1 2 3 4 5 6 
#
# 1 0.012999 -0.005426 0.000222 0.000000 0.000000 0.000000
# 2 -0.005426 0.015141 -0.004714 0.000000 0.000000 0.000000
# 3 0.000222 -0.004714 0.031325 0.000000 0.000000 0.000000
# 4 0.000000 0.000000 0.000000 0.043931 0.000000 0.000000
# 5 0.000000 0.000000 0.000000 0.000000 0.032781 0.000000
# 6 0.000000 0.000000 0.000000 0.000000 0.000000 0.030144
#
#
# Mechanical properties :
#
#
# Convention : Reuss Voigt Hill
#
# Bulk Modulus (GPa) = 25.23361 34.21715 29.72538
# Shear Modulus (GPa) = 25.07932 27.69985 26.38958
#
# Velocity S-wave (km/s) = 3.56718 3.74892 3.65918
# Velocity P-wave (km/s) = 5.45614 6.00836 5.73890
#
# Compressibility (1/GPa) = 0.03962968
#
# Stress axis : x y z
#
# Youngs Moduli (GPa) = 76.92744 66.04560 31.92325
#
# Poissons Ratio (x) = 0.35833 -0.00707
# Poissons Ratio (y) = 0.41737 0.15048
# Poissons Ratio (z) = -0.01704 0.31133
#
# Static dielectric constant tensor:
#      x y z
#    x 3.785300 0.000000 0.000000 
#    y 0.000000 3.545060 0.000000 
#    z 0.000000 0.000000 3.746270 
# 
# 
# High freq. dielectric constant tensor:
#      x y z
#    x 1.778880 0.000000 0.000000 
#    y 0.000000 1.760680 0.000000 
#    z 0.000000 0.000000 1.761420 
# 
# From -- ./inp_files/20303.got.cif
#   From: 2010.03.12/outbox.cif.g09.slc.cpg/sg62_11_cif.got.tgz:20303.got - 2010.04.10 19:12:36.
