data_PCOD8251372
_publ_section_title
;
Structure prediction by ZEFSAII (Michael W. Deem and Ramdas Pophale) SiO2 
 PCOD8251372
Probable space group: P N M A
;
_chemical_formula_sum "Si O2"
_cell_formula_units_Z 48
_cell_length_a 30.968012
_cell_length_b 9.079981
_cell_length_c 9.681755
_cell_angle_alpha 90.000000
_cell_angle_beta 90.000000
_cell_angle_gamma 90.000000
_cell_volume 2722.402625
_symmetry_space_group_name_H-M "P N M A"
_symmetry_group_IT_number 62
_symmetry_cell_setting 'orthorhombic'
loop_
_space_group_symop_operation_xyz
x,y,z
1/2-x,-y,1/2+z
1/2+x,1/2-y,1/2-z
-x,1/2+y,-z
-x,-y,-z
1/2+x,y,1/2-z
1/2-x,1/2+y,1/2+z
x,1/2-y,z
loop_
_atom_site_type_symbol
_atom_site_label
_atom_site_fract_x
_atom_site_fract_y
_atom_site_fract_z
Si Si1 0.469090 0.419511 0.105147
Si Si2 0.874855 0.085037 0.371021
Si Si3 0.466943 0.576634 0.398708
Si Si4 0.371019 0.918333 0.402662
Si Si5 0.718343 0.583327 0.905314
Si Si6 0.712437 0.921382 0.583624
O O1 0.483500 0.250000 0.121437
O O2 0.419792 0.429603 0.044971
O O3 0.471791 0.498409 0.251883
O O4 0.500000 0.500000 0.000000
O O5 0.873000 0.250000 0.301904
O O6 0.831224 0.066900 0.461923
O O7 0.874263 0.958537 0.257651
O O8 0.500000 0.500000 0.500000
O O9 0.476889 0.750000 0.381920
O O10 0.418942 0.552599 0.464080
O O11 0.357478 0.750000 0.418201
O O12 0.332757 0.011812 0.473783
O O13 0.734953 0.750000 0.923288
O O14 0.719613 0.536910 0.743985
O O15 0.747822 0.477845 0.994378
O O16 0.709389 0.750000 0.560802
#
# Coordination Sequence:
#
# PCOD8251372 Si02
#       6
#     8   8   8   8   8   8
#     4  10  19  33  53  76 103 135 170 208 250 297
#     4   8  16  31  50  71  97 130 166 202 242 292
#     4  10  20  34  53  77 102 131 168 208 252 300
#     4   9  17  30  50  73  97 128 165 202 241 291
#     4   9  18  33  51  72  98 127 163 205 244 288
#     4  10  20  33  51  75 100 129 164 201 245 294
#
# _framework density 17.631484
#
# number of rings (size 3 to 8) (size 9 to 14) (size 15 to 20)
#    0.000    2.667    0.000    3.000    0.000    6.000 
#    0.000    1.667    0.000    4.000    0.000    0.000 
#    0.000    0.000    0.000    0.000    0.000    0.000 
#
# Total GULP energy -594751.326189 kJ/mol
# GULP energy per Si atom -12390.652629 kJ/mol
# Density = 1.759135 g / cm^3
# Si number density = 17.631484 Si / 1000 Ang^3
#
#
#
# Elastic Constant Matrix: (Units=GPa)
#
#
# Indices 1 2 3 4 5 6 
#
# 1 166.5086 86.2060 61.0073 0.0000 0.0000 0.0000
# 2 86.2060 119.2298 48.8776 0.0000 0.0000 0.0000
# 3 61.0073 48.8776 56.1791 0.0000 0.0000 0.0000
# 4 0.0000 0.0000 0.0000 29.0353 0.0000 0.0000
# 5 0.0000 0.0000 0.0000 0.0000 29.3314 0.0000
# 6 0.0000 0.0000 0.0000 0.0000 0.0000 32.1367
#
#
#
# Elastic Compliance Matrix: (Units=1/GPa)
#
#
# Indices 1 2 3 4 5 6 
#
# 1 0.011635 -0.005025 -0.008263 0.000000 0.000000 0.000000
# 2 -0.005025 0.015207 -0.007774 0.000000 0.000000 0.000000
# 3 -0.008263 -0.007774 0.033537 0.000000 0.000000 0.000000
# 4 0.000000 0.000000 0.000000 0.034441 0.000000 0.000000
# 5 0.000000 0.000000 0.000000 0.000000 0.034093 0.000000
# 6 0.000000 0.000000 0.000000 0.000000 0.000000 0.031117
#
#
# Mechanical properties :
#
#
# Convention : Reuss Voigt Hill
#
# Bulk Modulus (GPa) = 54.77872 81.56662 68.17267
# Shear Modulus (GPa) = 24.01101 27.82245 25.91673
#
# Velocity S-wave (km/s) = 3.69430 3.97671 3.83810
# Velocity P-wave (km/s) = 7.02376 8.21267 7.64138
#
# Compressibility (1/GPa) = 0.01825526
#
# Stress axis : x y z
#
# Youngs Moduli (GPa) = 85.95078 65.75859 29.81805
#
# Poissons Ratio (x) = 0.33042 0.24638
# Poissons Ratio (y) = 0.43189 0.23181
# Poissons Ratio (z) = 0.71019 0.51121
#
# Static dielectric constant tensor:
#      x y z
#    x 3.747400 0.000000 0.000000 
#    y 0.000000 3.414320 0.000000 
#    z 0.000000 0.000000 2.783050 
# 
# 
# High freq. dielectric constant tensor:
#      x y z
#    x 1.705440 0.000000 0.000000 
#    y 0.000000 1.698200 0.000000 
#    z 0.000000 0.000000 1.625080 
# 
# From -- ./inp_files/10142.got.cif
#   From: 2010.03.12/outbox.cif.g09.slc.cpg/sg62_6_cif.got.tgz:10142.got - 2010.04.10 19:12:36.
