data_PCOD8251743
_publ_section_title
;
Structure prediction by ZEFSAII (Michael W. Deem and Ramdas Pophale) SiO2 
 PCOD8251743
Probable space group: P N M A
;
_chemical_formula_sum "Si O2"
_cell_formula_units_Z 56
_cell_length_a 14.972196
_cell_length_b 14.386418
_cell_length_c 13.084158
_cell_angle_alpha 90.000000
_cell_angle_beta 90.000000
_cell_angle_gamma 90.000000
_cell_volume 2818.278830
_symmetry_space_group_name_H-M "P N M A"
_symmetry_group_IT_number 62
_symmetry_cell_setting 'orthorhombic'
loop_
_space_group_symop_operation_xyz
x,y,z
1/2-x,-y,1/2+z
1/2+x,1/2-y,1/2-z
-x,1/2+y,-z
-x,-y,-z
1/2+x,y,1/2-z
1/2-x,1/2+y,1/2+z
x,1/2-y,z
loop_
_atom_site_type_symbol
_atom_site_label
_atom_site_fract_x
_atom_site_fract_y
_atom_site_fract_z
Si Si1 0.555592 0.543184 0.770083
Si Si2 0.151890 0.147122 0.723266
Si Si3 0.164278 0.646711 0.136402
Si Si4 0.259492 0.917510 0.423575
Si Si5 0.643284 0.478455 0.228583
Si Si6 0.087233 0.548975 0.959761
Si Si7 0.782487 0.144128 0.359813
O O1 0.577050 0.432715 0.782575
O O2 0.452796 0.567043 0.797345
O O3 0.575956 0.579393 0.656522
O O4 0.619434 0.602519 0.841919
O O5 0.108229 0.250000 0.710385
O O6 0.227842 0.129905 0.636239
O O7 0.203797 0.145926 0.831729
O O8 0.143900 0.750000 0.178041
O O9 0.117563 0.570924 0.208271
O O10 0.119211 0.638405 0.024656
O O11 0.223520 0.856258 0.516931
O O12 0.189229 0.992476 0.377815
O O13 0.337751 0.973032 0.477286
O O14 0.707390 0.412569 0.296305
O O15 0.000000 0.500000 0.000000
O O16 0.776054 0.250000 0.321896
#
# Coordination Sequence:
#
# PCOD8251743 Si02
#       7
#     8   8   8   8   8   8   8
#     4  11  22  38  62  88 125 164 205 255 309 379
#     4   9  18  35  59  89 120 159 206 257 311 370
#     4  10  19  34  60  89 118 155 201 257 318 371
#     4  10  20  39  62  86 119 165 205 253 309 369
#     4  11  22  42  64  89 128 165 204 262 317 373
#     4  11  18  35  60  88 124 159 201 254 316 365
#     4  12  24  42  64  89 125 168 213 259 312 377
#
# _framework density 19.870284000000002
#
# number of rings (size 3 to 8) (size 9 to 14) (size 15 to 20)
#    0.000    1.429    7.143    0.429    0.000    2.857 
#    0.000    2.143    0.000    1.714    0.000    0.000 
#    0.000    0.000    0.000    0.000    0.000    0.000 
#
# Total GULP energy -694053.458642 kJ/mol
# GULP energy per Si atom -12393.811761 kJ/mol
# Density = 1.982506 g / cm^3
# Si number density = 19.870284 Si / 1000 Ang^3
#
#
#
# Elastic Constant Matrix: (Units=GPa)
#
#
# Indices 1 2 3 4 5 6 
#
# 1 120.0589 44.3779 32.7965 0.0000 0.0000 0.0000
# 2 44.3779 107.8528 30.6538 0.0000 0.0000 0.0000
# 3 32.7965 30.6538 58.8528 0.0000 0.0000 0.0000
# 4 0.0000 0.0000 0.0000 19.6082 0.0000 0.0000
# 5 0.0000 0.0000 0.0000 0.0000 28.0352 0.0000
# 6 0.0000 0.0000 0.0000 0.0000 0.0000 12.4447
#
#
#
# Elastic Compliance Matrix: (Units=1/GPa)
#
#
# Indices 1 2 3 4 5 6 
#
# 1 0.010675 -0.003171 -0.004297 0.000000 0.000000 0.000000
# 2 -0.003171 0.011825 -0.004392 0.000000 0.000000 0.000000
# 3 -0.004297 -0.004392 0.021674 0.000000 0.000000 0.000000
# 4 0.000000 0.000000 0.000000 0.050999 0.000000 0.000000
# 5 0.000000 0.000000 0.000000 0.000000 0.035669 0.000000
# 6 0.000000 0.000000 0.000000 0.000000 0.000000 0.080356
#
#
# Mechanical properties :
#
#
# Convention : Reuss Voigt Hill
#
# Bulk Modulus (GPa) = 48.89158 55.82453 52.35806
# Shear Modulus (GPa) = 20.68364 23.94670 22.31517
#
# Velocity S-wave (km/s) = 3.22985 3.47530 3.35482
# Velocity P-wave (km/s) = 6.21032 6.65275 6.43534
#
# Compressibility (1/GPa) = 0.02045342
#
# Stress axis : x y z
#
# Youngs Moduli (GPa) = 93.67430 84.56659 46.13871
#
# Poissons Ratio (x) = 0.26818 0.19827
# Poissons Ratio (y) = 0.29706 0.20264
# Poissons Ratio (z) = 0.40254 0.37141
#
# Static dielectric constant tensor:
#      x y z
#    x 3.666010 0.000000 0.000000 
#    y 0.000000 3.438760 0.000000 
#    z 0.000000 0.000000 3.516210 
# 
# 
# High freq. dielectric constant tensor:
#      x y z
#    x 1.771790 0.000000 0.000000 
#    y 0.000000 1.762050 0.000000 
#    z 0.000000 0.000000 1.766170 
# 
# From -- ./inp_files/13374.got.cif
#   From: 2010.03.12/outbox.cif.g09.slc.cpg/sg62_7_cif.got.tgz:13374.got - 2010.04.10 19:12:36.
