data_PCOD8251959
_publ_section_title
;
Structure prediction by ZEFSAII (Michael W. Deem and Ramdas Pophale) SiO2 
 PCOD8251959
Probable space group: P N M A
;
_chemical_formula_sum "Si O2"
_cell_formula_units_Z 48
_cell_length_a 20.434227
_cell_length_b 9.224998
_cell_length_c 13.862947
_cell_angle_alpha 90.000000
_cell_angle_beta 90.000000
_cell_angle_gamma 90.000000
_cell_volume 2613.244573
_symmetry_space_group_name_H-M "P N M A"
_symmetry_group_IT_number 62
_symmetry_cell_setting 'orthorhombic'
loop_
_space_group_symop_operation_xyz
x,y,z
1/2-x,-y,1/2+z
1/2+x,1/2-y,1/2-z
-x,1/2+y,-z
-x,-y,-z
1/2+x,y,1/2-z
1/2-x,1/2+y,1/2+z
x,1/2-y,z
loop_
_atom_site_type_symbol
_atom_site_label
_atom_site_fract_x
_atom_site_fract_y
_atom_site_fract_z
Si Si1 0.057766 0.086554 0.953456
Si Si2 0.681979 0.578997 0.044890
Si Si3 0.490410 0.914478 0.244357
Si Si4 0.187522 0.077607 0.057222
Si Si5 0.858174 0.078747 0.755949
Si Si6 0.552783 0.578724 0.935805
O O1 0.048723 0.250000 0.988773
O O2 0.054050 0.074475 0.838787
O O3 0.127261 0.027597 0.990136
O O4 0.000000 0.000000 0.000000
O O5 0.685909 0.750000 0.052061
O O6 0.669421 0.520859 0.153383
O O7 0.748525 0.517561 0.998338
O O8 0.623470 0.531426 0.974706
O O9 0.490551 0.750000 0.203009
O O10 0.565128 0.962130 0.264380
O O11 0.455118 0.024445 0.172718
O O12 0.190891 0.250000 0.071826
O O13 0.182158 0.003381 0.161479
O O14 0.848006 0.250000 0.768970
O O15 0.542278 0.750000 0.941362
O O16 0.500000 0.500000 0.000000
#
# Coordination Sequence:
#
# PCOD8251959 Si02
#       6
#     8   8   8   8   8   8
#     4  10  20  34  55  81 110 142 182 229 275 323
#     4   9  20  38  56  77 112 150 180 221 283 335
#     4  10  20  35  56  85 115 145 184 232 277 329
#     4  10  21  37  57  82 111 146 187 230 276 334
#     4  10  19  36  59  80 110 150 182 223 285 336
#     4  11  21  36  58  83 110 146 187 231 279 330
#
# _framework density 18.367971000000001
#
# number of rings (size 3 to 8) (size 9 to 14) (size 15 to 20)
#    0.000    2.000    3.333    0.500    0.000    2.667 
#    0.000    4.167    0.000    0.000    0.000    0.000 
#    0.000    0.000    0.000    0.000    0.000    0.000 
#
# Total GULP energy -595228.136680 kJ/mol
# GULP energy per Si atom -12400.586181 kJ/mol
# Density = 1.832616 g / cm^3
# Si number density = 18.367971 Si / 1000 Ang^3
#
#
#
# Elastic Constant Matrix: (Units=GPa)
#
#
# Indices 1 2 3 4 5 6 
#
# 1 151.4806 42.9543 70.4106 0.0000 0.0000 0.0000
# 2 42.9543 49.2707 40.5772 0.0000 0.0000 0.0000
# 3 70.4106 40.5772 121.3087 0.0000 0.0000 0.0000
# 4 0.0000 0.0000 0.0000 34.9532 0.0000 0.0000
# 5 0.0000 0.0000 0.0000 0.0000 37.0265 0.0000
# 6 0.0000 0.0000 0.0000 0.0000 0.0000 21.5400
#
#
#
# Elastic Compliance Matrix: (Units=1/GPa)
#
#
# Indices 1 2 3 4 5 6 
#
# 1 0.009993 -0.005431 -0.003984 0.000000 0.000000 0.000000
# 2 -0.005431 0.030965 -0.007205 0.000000 0.000000 0.000000
# 3 -0.003984 -0.007205 0.012966 0.000000 0.000000 0.000000
# 4 0.000000 0.000000 0.000000 0.028610 0.000000 0.000000
# 5 0.000000 0.000000 0.000000 0.000000 0.027008 0.000000
# 6 0.000000 0.000000 0.000000 0.000000 0.000000 0.046425
#
#
# Mechanical properties :
#
#
# Convention : Reuss Voigt Hill
#
# Bulk Modulus (GPa) = 48.34720 69.99380 59.17050
# Shear Modulus (GPa) = 25.49699 29.91179 27.70439
#
# Velocity S-wave (km/s) = 3.72979 4.03981 3.88790
# Velocity P-wave (km/s) = 6.70277 7.74269 7.24142
#
# Compressibility (1/GPa) = 0.02068372
#
# Stress axis : x y z
#
# Youngs Moduli (GPa) = 100.06715 32.29446 77.12679
#
# Poissons Ratio (x) = 0.17541 0.30724
# Poissons Ratio (y) = 0.54351 0.55571
# Poissons Ratio (z) = 0.39862 0.23269
#
# Static dielectric constant tensor:
#      x y z
#    x 3.466450 0.000000 0.000000 
#    y 0.000000 3.288860 0.000000 
#    z 0.000000 0.000000 3.510390 
# 
# 
# High freq. dielectric constant tensor:
#      x y z
#    x 1.714420 0.000000 0.000000 
#    y 0.000000 1.692330 0.000000 
#    z 0.000000 0.000000 1.724200 
# 
# From -- ./inp_files/15159.got.cif
#   From: 2010.03.12/outbox.cif.g09.slc.cpg/sg62_8_cif.got.tgz:15159.got - 2010.04.10 19:12:36.
