data_PCOD8251213
_publ_section_title
;
Structure prediction by ZEFSAII (Michael W. Deem and Ramdas Pophale) SiO2 
 PCOD8251213
Probable space group: P N M A
;
_chemical_formula_sum "Si O2"
_cell_formula_units_Z 64
_cell_length_a 33.167059
_cell_length_b 8.864761
_cell_length_c 10.514129
_cell_angle_alpha 90.000000
_cell_angle_beta 90.000000
_cell_angle_gamma 90.000000
_cell_volume 3091.343718
_symmetry_space_group_name_H-M "P N M A"
_symmetry_group_IT_number 62
_symmetry_cell_setting 'orthorhombic'
loop_
_space_group_symop_operation_xyz
x,y,z
1/2-x,-y,1/2+z
1/2+x,1/2-y,1/2-z
-x,1/2+y,-z
-x,-y,-z
1/2+x,y,1/2-z
1/2-x,1/2+y,1/2+z
x,1/2-y,z
loop_
_atom_site_type_symbol
_atom_site_label
_atom_site_fract_x
_atom_site_fract_y
_atom_site_fract_z
Si Si1 0.530960 0.427318 0.255615
Si Si2 0.718534 0.071159 0.731084
Si Si3 0.726385 0.927859 0.995709
Si Si4 0.443399 0.082301 0.260492
Si Si5 0.353091 0.927436 0.901130
Si Si6 0.614017 0.071986 0.364988
Si Si7 0.633308 0.427797 0.637186
Si Si8 0.567877 0.580268 0.027401
O O1 0.534966 0.250000 0.224859
O O2 0.487241 0.462616 0.319651
O O3 0.567408 0.480656 0.348146
O O4 0.534639 0.518951 0.124687
O O5 0.720654 0.250000 0.747298
O O6 0.742703 0.018410 0.605301
O O7 0.672433 0.011850 0.712972
O O8 0.737553 0.998412 0.858250
O O9 0.727978 0.750000 0.979429
O O10 0.682355 0.979096 0.036295
O O11 0.430394 0.250000 0.305443
O O12 0.408322 0.967038 0.294401
O O13 0.451791 0.079738 0.110702
O O14 0.344572 0.750000 0.916329
O O15 0.358324 0.977753 0.753800
O O16 0.393587 0.969966 0.975157
O O17 0.614622 0.250000 0.374731
O O18 0.632126 0.001991 0.494457
O O19 0.637060 0.250000 0.628867
O O20 0.581073 0.750000 0.066034
#
# Coordination Sequence:
#
# PCOD8251213 Si02
#       8
#     8   8   8   8   8   8   8   8
#     4   9  18  34  53  77 110 147 191 238 292 354
#     4  10  24  43  63  90 123 158 198 244 301 363
#     4  11  24  41  64  94 125 156 198 252 299 357
#     4  10  21  34  50  76 112 150 186 236 296 348
#     4  10  20  36  61  85 114 154 194 237 298 362
#     4   8  17  34  57  81 107 148 195 239 285 343
#     4  10  21  38  58  79 108 148 195 238 285 354
#     4  10  19  32  52  80 113 145 187 241 292 348
#
# _framework density 20.702970000000001
#
# number of rings (size 3 to 8) (size 9 to 14) (size 15 to 20)
#    0.000    2.250    0.000    3.000    1.750    5.500 
#    0.000    3.125    0.000    0.000    0.000    0.000 
#    0.000    0.000    0.000    0.000    0.000    0.000 
#
# Total GULP energy -793368.532509 kJ/mol
# GULP energy per Si atom -12396.383320 kJ/mol
# Density = 2.065585 g / cm^3
# Si number density = 20.702970 Si / 1000 Ang^3
#
#
#
# Elastic Constant Matrix: (Units=GPa)
#
#
# Indices 1 2 3 4 5 6 
#
# 1 89.7666 18.3598 45.6313 0.0000 0.0000 0.0000
# 2 18.3598 36.2154 33.5340 0.0000 0.0000 0.0000
# 3 45.6313 33.5340 116.3404 0.0000 0.0000 0.0000
# 4 0.0000 0.0000 0.0000 26.1275 0.0000 0.0000
# 5 0.0000 0.0000 0.0000 0.0000 25.5960 0.0000
# 6 0.0000 0.0000 0.0000 0.0000 0.0000 25.1922
#
#
#
# Elastic Compliance Matrix: (Units=1/GPa)
#
#
# Indices 1 2 3 4 5 6 
#
# 1 0.014115 -0.002768 -0.004738 0.000000 0.000000 0.000000
# 2 -0.002768 0.038208 -0.009927 0.000000 0.000000 0.000000
# 3 -0.004738 -0.009927 0.013315 0.000000 0.000000 0.000000
# 4 0.000000 0.000000 0.000000 0.038274 0.000000 0.000000
# 5 0.000000 0.000000 0.000000 0.000000 0.039069 0.000000
# 6 0.000000 0.000000 0.000000 0.000000 0.000000 0.039695
#
#
# Mechanical properties :
#
#
# Convention : Reuss Voigt Hill
#
# Bulk Modulus (GPa) = 32.49838 48.59696 40.54767
# Shear Modulus (GPa) = 21.94901 25.03627 23.49264
#
# Velocity S-wave (km/s) = 3.25958 3.48128 3.37226
# Velocity P-wave (km/s) = 5.46791 6.29948 5.89837
#
# Compressibility (1/GPa) = 0.03077077
#
# Stress axis : x y z
#
# Youngs Moduli (GPa) = 70.84770 26.17227 75.10113
#
# Poissons Ratio (x) = 0.07245 0.35585
# Poissons Ratio (y) = 0.19613 0.74556
# Poissons Ratio (z) = 0.33569 0.25982
#
# Static dielectric constant tensor:
#      x y z
#    x 3.841150 0.000000 0.000000 
#    y 0.000000 3.571350 0.000000 
#    z 0.000000 0.000000 4.039000 
# 
# 
# High freq. dielectric constant tensor:
#      x y z
#    x 1.814500 0.000000 0.000000 
#    y 0.000000 1.788910 0.000000 
#    z 0.000000 0.000000 1.810070 
# 
# From -- ./inp_files/15851.got.cif
#   From: 2010.03.12/outbox.cif.g09.slc.cpg/sg62_8_cif.got.tgz:15851.got - 2010.04.10 19:12:36.
