data_PCOD8251197
_publ_section_title
;
Structure prediction by ZEFSAII (Michael W. Deem and Ramdas Pophale) SiO2 
 PCOD8251197
Probable space group: P N M A
;
_chemical_formula_sum "Si O2"
_cell_formula_units_Z 64
_cell_length_a 19.819397
_cell_length_b 8.955723
_cell_length_c 20.173210
_cell_angle_alpha 90.000000
_cell_angle_beta 90.000000
_cell_angle_gamma 90.000000
_cell_volume 3580.684852
_symmetry_space_group_name_H-M "P N M A"
_symmetry_group_IT_number 62
_symmetry_cell_setting 'orthorhombic'
loop_
_space_group_symop_operation_xyz
x,y,z
1/2-x,-y,1/2+z
1/2+x,1/2-y,1/2-z
-x,1/2+y,-z
-x,-y,-z
1/2+x,y,1/2-z
1/2-x,1/2+y,1/2+z
x,1/2-y,z
loop_
_atom_site_type_symbol
_atom_site_label
_atom_site_fract_x
_atom_site_fract_y
_atom_site_fract_z
Si Si1 0.173870 0.073312 0.088118
Si Si2 0.173568 0.573347 0.581115
Si Si3 0.068538 0.074736 0.978182
Si Si4 0.567900 0.928158 0.027624
Si Si5 0.437426 0.574961 0.834527
Si Si6 0.557711 0.076253 0.668932
Si Si7 0.409584 0.423198 0.203005
Si Si8 0.406483 0.073593 0.702606
O O1 0.169045 0.250000 0.100500
O O2 0.249707 0.019979 0.072505
O O3 0.129440 0.023075 0.025158
O O4 0.150061 0.988531 0.153579
O O5 0.168922 0.750000 0.584950
O O6 0.129385 0.518744 0.519077
O O7 0.143072 0.508869 0.649932
O O8 0.056304 0.250000 0.982216
O O9 0.086091 0.027379 0.902790
O O10 0.000000 0.000000 0.000000
O O11 0.559563 0.750000 0.029205
O O12 0.586267 0.990438 0.099704
O O13 0.500000 0.000000 0.000000
O O14 0.421727 0.750000 0.840331
O O15 0.516348 0.543076 0.824966
O O16 0.395874 0.505454 0.773429
O O17 0.565365 0.250000 0.681223
O O18 0.479321 0.028570 0.673103
O O19 0.601895 0.997934 0.725595
O O20 0.397558 0.250000 0.213984
O O21 0.398313 0.250000 0.710969
#
# Coordination Sequence:
#
# PCOD8251197 Si02
#       8
#     8   8   8   8   8   8   8   8
#     4  10  20  35  56  77 104 146 185 218 268 329
#     4   9  19  36  54  76 108 144 180 220 268 324
#     4  10  19  32  52  78 105 137 174 217 265 315
#     4  11  20  34  55  80 110 145 183 229 278 325
#     4  10  19  33  54  81 108 136 177 224 270 324
#     4   9  18  31  48  75 107 132 166 219 266 306
#     4   9  17  32  52  74 101 135 174 214 261 317
#     4  10  19  33  52  77 109 139 171 221 273 317
#
# _framework density 17.873674999999999
#
# number of rings (size 3 to 8) (size 9 to 14) (size 15 to 20)
#    0.000    2.250    2.500    1.125    0.000    1.500 
#    0.000    3.125    0.000    1.500    0.000    0.000 
#    0.000    0.000    0.000    0.000    0.000    0.000 
#
# Total GULP energy -793632.161906 kJ/mol
# GULP energy per Si atom -12400.502530 kJ/mol
# Density = 1.783299 g / cm^3
# Si number density = 17.873675 Si / 1000 Ang^3
#
#
#
# Elastic Constant Matrix: (Units=GPa)
#
#
# Indices 1 2 3 4 5 6 
#
# 1 113.2238 38.5509 81.7536 0.0000 0.0000 0.0000
# 2 38.5509 53.2305 53.6970 0.0000 0.0000 0.0000
# 3 81.7536 53.6970 184.9968 0.0000 0.0000 0.0000
# 4 0.0000 0.0000 0.0000 34.6635 0.0000 0.0000
# 5 0.0000 0.0000 0.0000 0.0000 28.8383 0.0000
# 6 0.0000 0.0000 0.0000 0.0000 0.0000 17.8640
#
#
#
# Elastic Compliance Matrix: (Units=1/GPa)
#
#
# Indices 1 2 3 4 5 6 
#
# 1 0.014033 -0.005525 -0.004598 0.000000 0.000000 0.000000
# 2 -0.005525 0.028740 -0.005900 0.000000 0.000000 0.000000
# 3 -0.004598 -0.005900 0.009150 0.000000 0.000000 0.000000
# 4 0.000000 0.000000 0.000000 0.028849 0.000000 0.000000
# 5 0.000000 0.000000 0.000000 0.000000 0.034676 0.000000
# 6 0.000000 0.000000 0.000000 0.000000 0.000000 0.055979
#
#
# Mechanical properties :
#
#
# Convention : Reuss Voigt Hill
#
# Bulk Modulus (GPa) = 50.31095 77.71714 64.01404
# Shear Modulus (GPa) = 23.79841 28.10312 25.95077
#
# Velocity S-wave (km/s) = 3.65290 3.96955 3.81451
# Velocity P-wave (km/s) = 6.78239 8.03651 7.43594
#
# Compressibility (1/GPa) = 0.01987639
#
# Stress axis : x y z
#
# Youngs Moduli (GPa) = 71.25995 34.79513 109.28975
#
# Poissons Ratio (x) = 0.19224 0.50249
# Poissons Ratio (y) = 0.39371 0.64485
# Poissons Ratio (z) = 0.32764 0.20530
#
# Static dielectric constant tensor:
#      x y z
#    x 3.122070 0.000000 0.000000 
#    y 0.000000 3.210430 0.000000 
#    z 0.000000 0.000000 3.372010 
# 
# 
# High freq. dielectric constant tensor:
#      x y z
#    x 1.663660 0.000000 0.000000 
#    y 0.000000 1.682180 0.000000 
#    z 0.000000 0.000000 1.709830 
# 
# From -- ./inp_files/27655.got.cif
#   From: 2010.03.12/outbox.cif.g09.slc.cpg/sg62_14_cif.got.tgz:27655.got - 2010.04.10 19:12:36.
