data_PCOD8251370
_publ_section_title
;
Structure prediction by ZEFSAII (Michael W. Deem and Ramdas Pophale) SiO2 
 PCOD8251370
Probable space group: P N M A
;
_chemical_formula_sum "Si O2"
_cell_formula_units_Z 60
_cell_length_a 5.205378
_cell_length_b 16.837900
_cell_length_c 34.710551
_cell_angle_alpha 90.000000
_cell_angle_beta 90.000000
_cell_angle_gamma 90.000000
_cell_volume 3042.297678
_symmetry_space_group_name_H-M "P N M A"
_symmetry_group_IT_number 62
_symmetry_cell_setting 'orthorhombic'
loop_
_space_group_symop_operation_xyz
x,y,z
1/2-x,-y,1/2+z
1/2+x,1/2-y,1/2-z
-x,1/2+y,-z
-x,-y,-z
1/2+x,y,1/2-z
1/2-x,1/2+y,1/2+z
x,1/2-y,z
loop_
_atom_site_type_symbol
_atom_site_label
_atom_site_fract_x
_atom_site_fract_y
_atom_site_fract_z
Si Si1 0.250000 0.621564 0.106330
Si Si2 0.750000 0.566805 0.890573
Si Si3 0.750000 0.399557 0.980043
Si Si4 0.750000 0.942308 0.653720
Si Si5 0.249999 0.162879 0.275064
Si Si6 0.250001 0.750000 0.277596
Si Si7 0.750000 0.089114 0.475915
Si Si8 0.750000 0.130538 0.652674
O O1 0.250000 0.527335 0.105612
O O2 0.250000 0.645585 0.061217
O O3 0.499562 0.656213 0.128156
O O4 0.000438 0.656213 0.128156
O O5 0.496328 0.592408 0.868074
O O6 0.750000 0.612809 0.931130
O O7 0.003672 0.592408 0.868073
O O8 0.750000 0.494216 0.976950
O O9 0.497641 0.373307 0.003372
O O10 0.002359 0.373307 0.003372
O O11 0.750001 0.908900 0.695938
O O12 0.750000 0.036662 0.658633
O O13 0.499999 0.152341 0.250000
O O14 0.249999 0.250000 0.295087
O O15 0.500001 0.750000 0.250000
O O16 0.250000 0.672807 0.305537
#
# Coordination Sequence:
#
# PCOD8251370 Si02
#       8
#     8   8   8   8   8   4   8   8
#     4   9  17  31  49  72 102 135 170 212 254 301
#     4   9  17  28  45  72 107 139 170 208 245 295
#     4   9  15  23  40  65  99 136 165 200 249 295
#     4  10  19  33  53  75 103 139 171 206 255 312
#     4  10  21  36  54  77 104 128 161 211 251 295
#     4  12  26  42  58  78 104 132 172 226 276 330
#     4   9  15  23  37  65 104 137 162 200 249 286
#     4  10  21  36  54  75 103 133 170 216 260 310
#
# _framework density 19.721935999999999
#
# number of rings (size 3 to 8) (size 9 to 14) (size 15 to 20)
#    0.000    2.400    0.000    3.200    0.000    7.467 
#    0.000    0.000    0.000    0.000    0.000    0.000 
#   40.000    0.000    0.000    0.000    0.000    0.000 
#
# Total GULP energy -743801.470352 kJ/mol
# GULP energy per Si atom -12396.691173 kJ/mol
# Density = 1.967705 g / cm^3
# Si number density = 19.721936 Si / 1000 Ang^3
#
#
#
# Elastic Constant Matrix: (Units=GPa)
#
#
# Indices 1 2 3 4 5 6 
#
# 1 212.9714 27.9904 95.3508 0.0000 0.0000 0.0000
# 2 27.9904 36.2708 42.1029 0.0000 0.0000 0.0000
# 3 95.3508 42.1029 166.5156 0.0000 0.0000 0.0000
# 4 0.0000 0.0000 0.0000 9.1805 0.0000 0.0000
# 5 0.0000 0.0000 0.0000 0.0000 -2.5377 0.0000
# 6 0.0000 0.0000 0.0000 0.0000 0.0000 12.5150
#
#
#
# Elastic Compliance Matrix: (Units=1/GPa)
#
#
# Indices 1 2 3 4 5 6 
#
# 1 0.006338 -0.000960 -0.003386 0.000000 0.000000 0.000000
# 2 -0.000960 0.039169 -0.009354 0.000000 0.000000 0.000000
# 3 -0.003386 -0.009354 0.010310 0.000000 0.000000 0.000000
# 4 0.000000 0.000000 0.000000 0.108927 0.000000 0.000000
# 5 0.000000 0.000000 0.000000 0.000000 -0.394054 0.000000
# 6 0.000000 0.000000 0.000000 0.000000 0.000000 0.079904
#
#
# Mechanical properties :
#
#
# Convention : Reuss Voigt Hill
#
# Bulk Modulus (GPa) = 35.19158 82.96066 59.07612
# Shear Modulus (GPa) = -44.43128 20.51913 -11.95607
#
# Velocity S-wave (km/s) = -4.75161 3.22906 -2.46485
# Velocity P-wave (km/s) = 3.49587 7.48725 4.68176
#
# Compressibility (1/GPa) = 0.02841589
#
# Stress axis : x y z
#
# Youngs Moduli (GPa) = 157.78339 25.53009 96.99523
#
# Poissons Ratio (x) = 0.02451 0.32847
# Poissons Ratio (y) = 0.15146 0.90731
# Poissons Ratio (z) = 0.53433 0.23881
#
# Static dielectric constant tensor:
#      x y z
#    x 3.877390 0.000000 0.000000 
#    y 0.000000 3.108850 0.000000 
#    z 0.000000 0.000000 3.697950 
# 
# 
# High freq. dielectric constant tensor:
#      x y z
#    x 1.792870 0.000000 0.000000 
#    y 0.000000 1.721170 0.000000 
#    z 0.000000 0.000000 1.775760 
# 
# From -- ./inp_files/30504.got.cif
#   From: 2010.03.12/outbox.cif.g09.slc.cpg/sg62_16_cif.got.tgz:30504.got - 2010.04.10 19:12:36.
