data_PCOD8251796
_publ_section_title
;
Structure prediction by ZEFSAII (Michael W. Deem and Ramdas Pophale) SiO2 
 PCOD8251796
Probable space group: P N M A
;
_chemical_formula_sum "Si O2"
_cell_formula_units_Z 40
_cell_length_a 16.697253
_cell_length_b 9.143334
_cell_length_c 14.273567
_cell_angle_alpha 90.000000
_cell_angle_beta 90.000000
_cell_angle_gamma 90.000000
_cell_volume 2179.124935
_symmetry_space_group_name_H-M "P N M A"
_symmetry_group_IT_number 62
_symmetry_cell_setting 'orthorhombic'
loop_
_space_group_symop_operation_xyz
x,y,z
1/2-x,-y,1/2+z
1/2+x,1/2-y,1/2-z
-x,1/2+y,-z
-x,-y,-z
1/2+x,y,1/2-z
1/2-x,1/2+y,1/2+z
x,1/2-y,z
loop_
_atom_site_type_symbol
_atom_site_label
_atom_site_fract_x
_atom_site_fract_y
_atom_site_fract_z
Si Si1 0.061113 0.579205 0.932868
Si Si2 0.485879 0.077857 0.223921
Si Si3 0.638053 0.914622 0.929644
Si Si4 0.127904 0.585091 0.364447
Si Si5 0.257424 0.422825 0.460453
O O1 0.049834 0.750000 0.947925
O O2 0.044299 0.534887 0.826219
O O3 0.150444 0.529456 0.959242
O O4 0.000000 0.500000 0.000000
O O5 0.500167 0.250000 0.210925
O O6 0.419260 0.020947 0.150488
O O7 0.569051 0.995740 0.206666
O O8 0.665689 0.750000 0.902871
O O9 0.590915 0.912725 0.029722
O O10 0.717244 0.016545 0.942767
O O11 0.142935 0.750000 0.327938
O O12 0.212696 0.497751 0.370978
O O13 0.246642 0.250000 0.453287
#
# Coordination Sequence:
#
# PCOD8251796 Si02
#       5
#     8   8   8   8   8
#     4  10  23  41  59  78 109 151 192 230 271 325
#     4  10  19  35  57  82 109 146 187 226 274 330
#     4   8  17  32  54  82 112 138 177 229 277 328
#     4   9  18  32  53  85 116 141 175 227 281 325
#     4   9  18  35  55  77 110 146 182 226 273 324
#
# _framework density 18.355992000000001
#
# number of rings (size 3 to 8) (size 9 to 14) (size 15 to 20)
#    1.200    1.600    0.000    1.200    0.000    3.200 
#    3.600    0.000    0.000    0.000    0.000    0.000 
#    0.000    0.000    0.000    0.000    0.000    0.000 
#
# Total GULP energy -495676.150210 kJ/mol
# GULP energy per Si atom -12391.903755 kJ/mol
# Density = 1.831421 g / cm^3
# Si number density = 18.355992 Si / 1000 Ang^3
#
#
#
# Elastic Constant Matrix: (Units=GPa)
#
#
# Indices 1 2 3 4 5 6 
#
# 1 148.5443 66.0102 45.5100 0.0000 0.0000 0.0000
# 2 66.0102 81.3164 30.5152 0.0000 0.0000 0.0000
# 3 45.5100 30.5152 60.0057 0.0000 0.0000 0.0000
# 4 0.0000 0.0000 0.0000 25.6922 0.0000 0.0000
# 5 0.0000 0.0000 0.0000 0.0000 12.0539 0.0000
# 6 0.0000 0.0000 0.0000 0.0000 0.0000 33.0013
#
#
#
# Elastic Compliance Matrix: (Units=1/GPa)
#
#
# Indices 1 2 3 4 5 6 
#
# 1 0.011614 -0.007567 -0.004961 0.000000 0.000000 0.000000
# 2 -0.007567 0.020127 -0.004497 0.000000 0.000000 0.000000
# 3 -0.004961 -0.004497 0.022714 0.000000 0.000000 0.000000
# 4 0.000000 0.000000 0.000000 0.038922 0.000000 0.000000
# 5 0.000000 0.000000 0.000000 0.000000 0.082961 0.000000
# 6 0.000000 0.000000 0.000000 0.000000 0.000000 0.030302
#
#
# Mechanical properties :
#
#
# Convention : Reuss Voigt Hill
#
# Bulk Modulus (GPa) = 49.00110 63.77079 56.38594
# Shear Modulus (GPa) = 20.20269 24.00487 22.10378
#
# Velocity S-wave (km/s) = 3.32114 3.62019 3.47388
# Velocity P-wave (km/s) = 6.43890 7.23125 6.84655
#
# Compressibility (1/GPa) = 0.02040771
#
# Stress axis : x y z
#
# Youngs Moduli (GPa) = 86.10114 49.68337 44.02515
#
# Poissons Ratio (x) = 0.37593 0.21840
# Poissons Ratio (y) = 0.65149 0.19798
# Poissons Ratio (z) = 0.42712 0.22342
#
# Static dielectric constant tensor:
#      x y z
#    x 3.271370 0.000000 0.000000 
#    y 0.000000 3.331630 0.000000 
#    z 0.000000 0.000000 3.185860 
# 
# 
# High freq. dielectric constant tensor:
#      x y z
#    x 1.702480 0.000000 0.000000 
#    y 0.000000 1.712820 0.000000 
#    z 0.000000 0.000000 1.689580 
# 
# From -- ./inp_files/18626.got.cif
#   From: 2010.03.12/outbox.cif.g09.slc.cpg/sg62_10_cif.got.tgz:18626.got - 2010.04.10 19:12:36.
