data_PCOD8251554
_publ_section_title
;
Structure prediction by ZEFSAII (Michael W. Deem and Ramdas Pophale) SiO2 
 PCOD8251554
Probable space group: P N M A
;
_chemical_formula_sum "Si O2"
_cell_formula_units_Z 28
_cell_length_a 11.979601
_cell_length_b 7.228211
_cell_length_c 19.336125
_cell_angle_alpha 90.000000
_cell_angle_beta 90.000000
_cell_angle_gamma 90.000000
_cell_volume 1674.336019
_symmetry_space_group_name_H-M "P N M A"
_symmetry_group_IT_number 62
_symmetry_cell_setting 'orthorhombic'
loop_
_space_group_symop_operation_xyz
x,y,z
1/2-x,-y,1/2+z
1/2+x,1/2-y,1/2-z
-x,1/2+y,-z
-x,-y,-z
1/2+x,y,1/2-z
1/2-x,1/2+y,1/2+z
x,1/2-y,z
loop_
_atom_site_type_symbol
_atom_site_label
_atom_site_fract_x
_atom_site_fract_y
_atom_site_fract_z
Si Si1 0.181979 0.750000 0.142131
Si Si2 0.841524 0.467853 0.188507
Si Si3 0.089001 0.250000 0.698913
Si Si4 0.843254 0.250000 0.696444
Si Si5 0.471500 0.540677 0.578503
O O1 0.316999 0.750000 0.138912
O O2 0.140671 0.750000 0.220983
O O3 0.136088 0.571688 0.102689
O O4 0.824452 0.250000 0.202387
O O5 0.896116 0.564427 0.255410
O O6 0.722433 0.565001 0.172963
O O7 0.919637 0.508729 0.123105
O O8 0.967009 0.250000 0.663476
O O9 0.500000 0.500000 0.500000
O O10 0.436113 0.750000 0.589705
#
# Coordination Sequence:
#
# PCOD8251554 Si02
#       5
#     4   8   4   4   8
#     4  10  19  34  49  82 106 135 178 211 278 299
#     4   9  19  32  50  81 104 137 180 214 272 314
#     4  10  20  34  54  72 116 140 174 221 259 331
#     4  10  19  34  55  72 116 143 170 222 257 336
#     4  11  20  32  55  80 108 136 174 225 263 319
#
# _framework density 16.723046
#
# number of rings (size 3 to 8) (size 9 to 14) (size 15 to 20)
#    0.000    2.286    4.286    0.857    0.000    5.714 
#    0.000    0.000    0.000    1.714    0.000    0.000 
#    0.000    0.000    0.000    0.000    0.000    0.000 
#
# Total GULP energy -347123.649290 kJ/mol
# GULP energy per Si atom -12397.273189 kJ/mol
# Density = 1.668498 g / cm^3
# Si number density = 16.723046 Si / 1000 Ang^3
#
#
#
# Elastic Constant Matrix: (Units=GPa)
#
#
# Indices 1 2 3 4 5 6 
#
# 1 156.7924 67.9400 35.1025 0.0000 0.0000 0.0000
# 2 67.9400 138.3949 33.9601 0.0000 0.0000 0.0000
# 3 35.1025 33.9601 65.4023 0.0000 0.0000 0.0000
# 4 0.0000 0.0000 0.0000 23.0947 0.0000 0.0000
# 5 0.0000 0.0000 0.0000 0.0000 25.4473 0.0000
# 6 0.0000 0.0000 0.0000 0.0000 0.0000 24.9273
#
#
#
# Elastic Compliance Matrix: (Units=1/GPa)
#
#
# Indices 1 2 3 4 5 6 
#
# 1 0.008512 -0.003504 -0.002749 0.000000 0.000000 0.000000
# 2 -0.003504 0.009723 -0.003168 0.000000 0.000000 0.000000
# 3 -0.002749 -0.003168 0.018410 0.000000 0.000000 0.000000
# 4 0.000000 0.000000 0.000000 0.043300 0.000000 0.000000
# 5 0.000000 0.000000 0.000000 0.000000 0.039297 0.000000
# 6 0.000000 0.000000 0.000000 0.000000 0.000000 0.040117
#
#
# Mechanical properties :
#
#
# Convention : Reuss Voigt Hill
#
# Bulk Modulus (GPa) = 56.16946 70.51054 63.34000
# Shear Modulus (GPa) = 27.15397 29.59967 28.37682
#
# Velocity S-wave (km/s) = 4.03394 4.21169 4.12378
# Velocity P-wave (km/s) = 7.44029 8.11827 7.78666
#
# Compressibility (1/GPa) = 0.01780327
#
# Stress axis : x y z
#
# Youngs Moduli (GPa) = 117.48726 102.84638 54.31707
#
# Poissons Ratio (x) = 0.36036 0.14931
# Poissons Ratio (y) = 0.41166 0.17209
# Poissons Ratio (z) = 0.32296 0.32584
#
# Static dielectric constant tensor:
#      x y z
#    x 3.229700 0.000000 0.000000 
#    y 0.000000 3.392230 0.000000 
#    z 0.000000 0.000000 2.947960 
# 
# 
# High freq. dielectric constant tensor:
#      x y z
#    x 1.641970 0.000000 0.000000 
#    y 0.000000 1.660390 0.000000 
#    z 0.000000 0.000000 1.613500 
# 
# From -- ./inp_files/22725.got.cif
#   From: 2010.03.12/outbox.cif.g09.slc.cpg/sg62_12_cif.got.tgz:22725.got - 2010.04.10 19:12:36.
