data_PCOD8251821
_publ_section_title
;
Structure prediction by ZEFSAII (Michael W. Deem and Ramdas Pophale) SiO2 
 PCOD8251821
Probable space group: P N M A
;
_chemical_formula_sum "Si O2"
_cell_formula_units_Z 48
_cell_length_a 19.177326
_cell_length_b 8.835938
_cell_length_c 15.117746
_cell_angle_alpha 90.000000
_cell_angle_beta 90.000000
_cell_angle_gamma 90.000000
_cell_volume 2561.696973
_symmetry_space_group_name_H-M "P N M A"
_symmetry_group_IT_number 62
_symmetry_cell_setting 'orthorhombic'
loop_
_space_group_symop_operation_xyz
x,y,z
1/2-x,-y,1/2+z
1/2+x,1/2-y,1/2-z
-x,1/2+y,-z
-x,-y,-z
1/2+x,y,1/2-z
1/2-x,1/2+y,1/2+z
x,1/2-y,z
loop_
_atom_site_type_symbol
_atom_site_label
_atom_site_fract_x
_atom_site_fract_y
_atom_site_fract_z
Si Si1 0.075316 0.427647 0.215551
Si Si2 0.670191 0.072011 0.119708
Si Si3 0.425100 0.070673 0.222100
Si Si4 0.926591 0.071108 0.476162
Si Si5 0.072218 0.928862 0.030590
Si Si6 0.172489 0.929334 0.874997
O O1 0.071984 0.250000 0.195078
O O2 0.133741 0.466724 0.287669
O O3 0.095595 0.514264 0.126470
O O4 0.001454 0.490031 0.250986
O O5 0.666337 0.250000 0.099841
O O6 0.748835 0.008879 0.124047
O O7 0.633493 0.985812 0.040075
O O8 0.426931 0.250000 0.228738
O O9 0.406269 0.019196 0.123026
O O10 0.367708 0.003280 0.289409
O O11 0.934200 0.250000 0.482864
O O12 0.000000 0.000000 0.500000
O O13 0.063198 0.750000 0.030284
O O14 0.132614 0.981294 0.963290
O O15 0.000000 0.000000 0.000000
O O16 0.174164 0.750000 0.867710
#
# Coordination Sequence:
#
# PCOD8251821 Si02
#       6
#     8   8   8   8   8   8
#     4  10  19  35  58  82 109 143 188 233 276 337
#     4  10  21  38  58  81 111 151 188 229 289 344
#     4   9  17  33  56  81 106 142 186 226 272 332
#     4  11  21  35  59  87 114 146 189 236 279 331
#     4  11  21  35  58  86 113 148 190 234 282 336
#     4   9  19  36  57  79 111 149 186 229 286 345
#
# _framework density 18.737580000000001
#
# number of rings (size 3 to 8) (size 9 to 14) (size 15 to 20)
#    0.000    2.000    3.333    1.000    0.000    2.000 
#    0.000    3.333    0.000    0.000    0.000    0.000 
#    0.000    0.000    0.000    0.000    0.000    0.000 
#
# Total GULP energy -595256.419793 kJ/mol
# GULP energy per Si atom -12401.175412 kJ/mol
# Density = 1.869493 g / cm^3
# Si number density = 18.737580 Si / 1000 Ang^3
#
#
#
# Elastic Constant Matrix: (Units=GPa)
#
#
# Indices 1 2 3 4 5 6 
#
# 1 180.2993 37.1788 97.5266 0.0000 0.0000 0.0000
# 2 37.1788 44.1250 52.1332 0.0000 0.0000 0.0000
# 3 97.5266 52.1332 192.4045 0.0000 0.0000 0.0000
# 4 0.0000 0.0000 0.0000 32.8788 0.0000 0.0000
# 5 0.0000 0.0000 0.0000 0.0000 36.0674 0.0000
# 6 0.0000 0.0000 0.0000 0.0000 0.0000 19.8900
#
#
#
# Elastic Compliance Matrix: (Units=1/GPa)
#
#
# Indices 1 2 3 4 5 6 
#
# 1 0.007873 -0.002822 -0.003226 0.000000 0.000000 0.000000
# 2 -0.002822 0.034346 -0.007876 0.000000 0.000000 0.000000
# 3 -0.003226 -0.007876 0.008967 0.000000 0.000000 0.000000
# 4 0.000000 0.000000 0.000000 0.030415 0.000000 0.000000
# 5 0.000000 0.000000 0.000000 0.000000 0.027726 0.000000
# 6 0.000000 0.000000 0.000000 0.000000 0.000000 0.050277
#
#
# Mechanical properties :
#
#
# Convention : Reuss Voigt Hill
#
# Bulk Modulus (GPa) = 42.84911 87.83398 65.34154
# Shear Modulus (GPa) = 25.61073 33.09991 29.35532
#
# Velocity S-wave (km/s) = 3.70105 4.20753 3.96239
# Velocity P-wave (km/s) = 6.41727 8.40131 7.47541
#
# Compressibility (1/GPa) = 0.02333771
#
# Stress axis : x y z
#
# Youngs Moduli (GPa) = 127.01009 29.11554 111.52444
#
# Poissons Ratio (x) = 0.08217 0.35980
# Poissons Ratio (y) = 0.35846 0.87833
# Poissons Ratio (z) = 0.40976 0.22930
#
# Static dielectric constant tensor:
#      x y z
#    x 3.738120 0.000000 0.000000 
#    y 0.000000 3.144980 0.000000 
#    z 0.000000 0.000000 3.349140 
# 
# 
# High freq. dielectric constant tensor:
#      x y z
#    x 1.730030 0.000000 0.000000 
#    y 0.000000 1.695670 0.000000 
#    z 0.000000 0.000000 1.746160 
# 
# From -- ./inp_files/19630.got.cif
#   From: 2010.03.12/outbox.cif.g09.slc.cpg/sg62_10_cif.got.tgz:19630.got - 2010.04.10 19:12:36.
