data_PCOD8251331
_publ_section_title
;
Structure prediction by ZEFSAII (Michael W. Deem and Ramdas Pophale) SiO2 
 PCOD8251331
Probable space group: P N M A
;
_chemical_formula_sum "Si O2"
_cell_formula_units_Z 64
_cell_length_a 18.906427
_cell_length_b 8.989033
_cell_length_c 23.027656
_cell_angle_alpha 90.000000
_cell_angle_beta 90.000000
_cell_angle_gamma 90.000000
_cell_volume 3913.561564
_symmetry_space_group_name_H-M "P N M A"
_symmetry_group_IT_number 62
_symmetry_cell_setting 'orthorhombic'
loop_
_space_group_symop_operation_xyz
x,y,z
1/2-x,-y,1/2+z
1/2+x,1/2-y,1/2-z
-x,1/2+y,-z
-x,-y,-z
1/2+x,y,1/2-z
1/2-x,1/2+y,1/2+z
x,1/2-y,z
loop_
_atom_site_type_symbol
_atom_site_label
_atom_site_fract_x
_atom_site_fract_y
_atom_site_fract_z
Si Si1 0.253414 0.926026 0.346323
Si Si2 0.721175 0.076625 0.329037
Si Si3 0.346161 0.424549 0.438369
Si Si4 0.007591 0.921872 0.878011
Si Si5 0.496975 0.925579 0.256232
Si Si6 0.632359 0.425438 0.216894
Si Si7 0.364015 0.577564 0.558411
Si Si8 0.339032 0.923767 0.233534
O O1 0.245068 0.750000 0.350896
O O2 0.306984 0.975511 0.295228
O O3 0.283130 0.989582 0.406328
O O4 0.177043 0.999107 0.334660
O O5 0.735171 0.250000 0.326961
O O6 0.666430 0.030411 0.278691
O O7 0.688429 0.027528 0.390118
O O8 0.796817 0.998857 0.319423
O O9 0.332220 0.250000 0.434229
O O10 0.420598 0.469003 0.409714
O O11 0.345589 0.473698 0.504785
O O12 0.007908 0.750000 0.857671
O O13 0.944625 0.950962 0.923046
O O14 0.996067 0.024297 0.822543
O O15 0.509037 0.750000 0.253552
O O16 0.420567 0.972031 0.231143
O O17 0.553685 0.007774 0.215636
O O18 0.629482 0.250000 0.206845
O O19 0.352671 0.750000 0.542047
O O20 0.329693 0.750000 0.226208
#
# Coordination Sequence:
#
# PCOD8251331 Si02
#       8
#     8   8   8   8   8   8   8   8
#     4  10  19  34  51  71  98 132 167 207 252 295
#     4   9  18  32  50  70  94 128 166 203 249 294
#     4  11  22  33  49  73  98 134 176 211 249 293
#     4  10  20  34  48  67 100 137 174 209 244 288
#     4  11  20  31  49  75 102 133 167 201 249 302
#     4  10  19  33  51  73 100 129 164 208 251 297
#     4  10  20  35  50  68  98 135 172 210 249 292
#     4   9  19  32  48  71  99 127 162 204 248 294
#
# _framework density 16.353390999999998
#
# number of rings (size 3 to 8) (size 9 to 14) (size 15 to 20)
#    0.000    2.000    2.500    1.875    0.000    3.500 
#    0.000    0.000    0.000    0.000    0.000    0.875 
#    0.000    0.000    0.000    0.000    0.000    0.000 
#
# Total GULP energy -793818.812572 kJ/mol
# GULP energy per Si atom -12403.418946 kJ/mol
# Density = 1.631617 g / cm^3
# Si number density = 16.353391 Si / 1000 Ang^3
#
#
#
# Elastic Constant Matrix: (Units=GPa)
#
#
# Indices 1 2 3 4 5 6 
#
# 1 92.9765 33.7088 31.4917 0.0000 0.0000 0.0000
# 2 33.7088 53.9544 19.9398 0.0000 0.0000 0.0000
# 3 31.4917 19.9398 50.4409 0.0000 0.0000 0.0000
# 4 0.0000 0.0000 0.0000 29.0920 0.0000 0.0000
# 5 0.0000 0.0000 0.0000 0.0000 23.5431 0.0000
# 6 0.0000 0.0000 0.0000 0.0000 0.0000 29.4092
#
#
#
# Elastic Compliance Matrix: (Units=1/GPa)
#
#
# Indices 1 2 3 4 5 6 
#
# 1 0.015747 -0.007266 -0.006959 0.000000 0.000000 0.000000
# 2 -0.007266 0.025058 -0.005369 0.000000 0.000000 0.000000
# 3 -0.006959 -0.005369 0.026292 0.000000 0.000000 0.000000
# 4 0.000000 0.000000 0.000000 0.034374 0.000000 0.000000
# 5 0.000000 0.000000 0.000000 0.000000 0.042475 0.000000
# 6 0.000000 0.000000 0.000000 0.000000 0.000000 0.034003
#
#
# Mechanical properties :
#
#
# Convention : Reuss Voigt Hill
#
# Bulk Modulus (GPa) = 35.83111 40.85029 38.34070
# Shear Modulus (GPa) = 22.08085 23.89094 22.98590
#
# Velocity S-wave (km/s) = 3.67853 3.82634 3.75317
# Velocity P-wave (km/s) = 6.32457 6.67496 6.50213
#
# Compressibility (1/GPa) = 0.02790871
#
# Stress axis : x y z
#
# Youngs Moduli (GPa) = 63.50501 39.90712 38.03411
#
# Poissons Ratio (x) = 0.28998 0.26467
# Poissons Ratio (y) = 0.46145 0.20421
# Poissons Ratio (z) = 0.44191 0.21427
#
# Static dielectric constant tensor:
#      x y z
#    x 3.243600 0.000000 0.000000 
#    y 0.000000 3.082900 0.000000 
#    z 0.000000 0.000000 2.875430 
# 
# 
# High freq. dielectric constant tensor:
#      x y z
#    x 1.627620 0.000000 0.000000 
#    y 0.000000 1.637660 0.000000 
#    z 0.000000 0.000000 1.600150 
# 
# From -- ./inp_files/27644.got.cif
#   From: 2010.03.12/outbox.cif.g09.slc.cpg/sg62_14_cif.got.tgz:27644.got - 2010.04.10 19:12:36.
