data_PCOD8251962
_publ_section_title
;
Structure prediction by ZEFSAII (Michael W. Deem and Ramdas Pophale) SiO2 
 PCOD8251962
Probable space group: P N M A
;
_chemical_formula_sum "Si O2"
_cell_formula_units_Z 64
_cell_length_a 12.845649
_cell_length_b 8.999590
_cell_length_c 28.492020
_cell_angle_alpha 90.000000
_cell_angle_beta 90.000000
_cell_angle_gamma 90.000000
_cell_volume 3293.836335
_symmetry_space_group_name_H-M "P N M A"
_symmetry_group_IT_number 62
_symmetry_cell_setting 'orthorhombic'
loop_
_space_group_symop_operation_xyz
x,y,z
1/2-x,-y,1/2+z
1/2+x,1/2-y,1/2-z
-x,1/2+y,-z
-x,-y,-z
1/2+x,y,1/2-z
1/2-x,1/2+y,1/2+z
x,1/2-y,z
loop_
_atom_site_type_symbol
_atom_site_label
_atom_site_fract_x
_atom_site_fract_y
_atom_site_fract_z
Si Si1 0.704536 0.425920 0.541788
Si Si2 0.619338 0.575294 0.896163
Si Si3 0.455098 0.427088 0.388686
Si Si4 0.051673 0.923684 0.707550
Si Si5 0.665674 0.425735 0.437006
Si Si6 0.876563 0.575153 0.200470
Si Si7 0.423546 0.415183 0.925601
Si Si8 0.142858 0.915721 0.318994
O O1 0.693822 0.250000 0.551577
O O2 0.641301 0.512704 0.581334
O O3 0.659990 0.473844 0.491315
O O4 0.826969 0.472270 0.542610
O O5 0.616597 0.750000 0.902305
O O6 0.602801 0.529336 0.842040
O O7 0.730124 0.508397 0.912712
O O8 0.526632 0.515389 0.929587
O O9 0.450265 0.250000 0.387283
O O10 0.562962 0.486240 0.411187
O O11 0.451936 0.490909 0.335963
O O12 0.063586 0.750000 0.717770
O O13 0.930221 0.967529 0.707932
O O14 0.108018 0.018211 0.747075
O O15 0.670268 0.250000 0.432972
O O16 0.897902 0.750000 0.197278
O O17 0.759809 0.531086 0.187571
O O18 0.456197 0.250000 0.941157
O O19 0.380067 0.416555 0.873466
O O20 0.125606 0.750000 0.298115
#
# Coordination Sequence:
#
# PCOD8251962 Si02
#       8
#     8   8   8   8   8   8   8   8
#     4  10  19  36  59  82 112 153 191 230 284 340
#     4   9  19  37  56  78 112 151 187 230 286 340
#     4  11  22  36  56  84 115 148 192 242 286 335
#     4  10  21  35  55  84 113 145 184 234 291 342
#     4   9  20  37  57  81 116 156 188 226 284 346
#     4  11  22  38  59  83 110 147 192 234 284 345
#     4   9  17  32  55  81 108 142 186 231 275 326
#     4   9  18  35  55  76 106 145 185 228 276 332
#
# _framework density 19.430230000000002
#
# number of rings (size 3 to 8) (size 9 to 14) (size 15 to 20)
#    0.000    2.250    1.250    1.500    0.000    3.500 
#    0.000    3.750    0.000    0.000    0.000    0.000 
#    0.000    0.000    0.000    0.000    0.000    0.000 
#
# Total GULP energy -793589.737513 kJ/mol
# GULP energy per Si atom -12399.839649 kJ/mol
# Density = 1.938601 g / cm^3
# Si number density = 19.430230 Si / 1000 Ang^3
#
#
#
# Elastic Constant Matrix: (Units=GPa)
#
#
# Indices 1 2 3 4 5 6 
#
# 1 95.4572 31.8528 22.9253 0.0000 0.0000 0.0000
# 2 31.8528 54.2545 25.8987 0.0000 0.0000 0.0000
# 3 22.9253 25.8987 46.5224 0.0000 0.0000 0.0000
# 4 0.0000 0.0000 0.0000 23.2527 0.0000 0.0000
# 5 0.0000 0.0000 0.0000 0.0000 22.7222 0.0000
# 6 0.0000 0.0000 0.0000 0.0000 0.0000 30.0442
#
#
#
# Elastic Compliance Matrix: (Units=1/GPa)
#
#
# Indices 1 2 3 4 5 6 
#
# 1 0.013331 -0.006389 -0.003013 0.000000 0.000000 0.000000
# 2 -0.006389 0.028164 -0.012531 0.000000 0.000000 0.000000
# 3 -0.003013 -0.012531 0.029955 0.000000 0.000000 0.000000
# 4 0.000000 0.000000 0.000000 0.043006 0.000000 0.000000
# 5 0.000000 0.000000 0.000000 0.000000 0.044010 0.000000
# 6 0.000000 0.000000 0.000000 0.000000 0.000000 0.033284
#
#
# Mechanical properties :
#
#
# Convention : Reuss Voigt Hill
#
# Bulk Modulus (GPa) = 36.24949 39.73197 37.99073
# Shear Modulus (GPa) = 20.42402 22.90765 21.66583
#
# Velocity S-wave (km/s) = 3.24566 3.43734 3.34287
# Velocity P-wave (km/s) = 5.72210 6.02052 5.87321
#
# Compressibility (1/GPa) = 0.02758659
#
# Stress axis : x y z
#
# Youngs Moduli (GPa) = 75.01164 35.50648 33.38297
#
# Poissons Ratio (x) = 0.22684 0.10058
# Poissons Ratio (y) = 0.47922 0.41831
# Poissons Ratio (z) = 0.22600 0.44491
#
# Static dielectric constant tensor:
#      x y z
#    x 3.832320 0.000000 0.000000 
#    y 0.000000 3.460640 0.000000 
#    z 0.000000 0.000000 3.588490 
# 
# 
# High freq. dielectric constant tensor:
#      x y z
#    x 1.764130 0.000000 0.000000 
#    y 0.000000 1.739950 0.000000 
#    z 0.000000 0.000000 1.755260 
# 
# From -- ./inp_files/32473.got.cif
#   From: 2010.03.12/outbox.cif.g09.slc.cpg/sg62_17_cif.got.tgz:32473.got - 2010.04.10 19:12:36.
