data_PCOD8251405
_publ_section_title
;
Structure prediction by ZEFSAII (Michael W. Deem and Ramdas Pophale) SiO2 
 PCOD8251405
Probable space group: P N M A
;
_chemical_formula_sum "Si O2"
_cell_formula_units_Z 64
_cell_length_a 23.343518
_cell_length_b 8.599286
_cell_length_c 18.882563
_cell_angle_alpha 90.000000
_cell_angle_beta 90.000000
_cell_angle_gamma 90.000000
_cell_volume 3790.440143
_symmetry_space_group_name_H-M "P N M A"
_symmetry_group_IT_number 62
_symmetry_cell_setting 'orthorhombic'
loop_
_space_group_symop_operation_xyz
x,y,z
1/2-x,-y,1/2+z
1/2+x,1/2-y,1/2-z
-x,1/2+y,-z
-x,-y,-z
1/2+x,y,1/2-z
1/2-x,1/2+y,1/2+z
x,1/2-y,z
loop_
_atom_site_type_symbol
_atom_site_label
_atom_site_fract_x
_atom_site_fract_y
_atom_site_fract_z
Si Si1 0.563596 0.065668 0.636901
Si Si2 0.166795 0.068603 0.769959
Si Si3 0.065220 0.932772 0.150733
Si Si4 0.884607 0.567340 0.990282
Si Si5 0.268422 0.069322 0.146755
Si Si6 0.339145 0.568787 0.742005
Si Si7 0.738636 0.569887 0.495307
Si Si8 0.224705 0.929582 0.365958
O O1 0.566835 0.250000 0.634084
O O2 0.606985 0.006397 0.697708
O O3 0.500064 0.006316 0.654551
O O4 0.582779 0.004595 0.559856
O O5 0.164802 0.250000 0.751006
O O6 0.215324 0.033909 0.827865
O O7 0.179080 0.973985 0.698322
O O8 0.069215 0.750000 0.164102
O O9 0.099122 0.019996 0.212756
O O10 0.090860 0.970291 0.074527
O O11 0.894256 0.750000 0.976584
O O12 0.817388 0.537572 0.998737
O O13 0.270965 0.250000 0.127931
O O14 0.208395 0.023503 0.183668
O O15 0.274251 0.969963 0.075329
O O16 0.337467 0.750000 0.758677
O O17 0.327425 0.478301 0.814923
O O18 0.721393 0.750000 0.495639
O O19 0.778401 0.530214 0.562505
O O20 0.218489 0.750000 0.385784
#
# Coordination Sequence:
#
# PCOD8251405 Si02
#       8
#     8   8   8   8   8   8   8   8
#     4   9  19  34  51  71 100 136 173 210 250 297
#     4   9  17  33  52  71  97 131 167 206 253 299
#     4  11  21  33  50  73 100 136 177 211 248 295
#     4  11  20  34  49  68 101 139 176 213 250 289
#     4  10  20  33  50  72 100 130 165 209 255 298
#     4  10  20  34  50  71 101 133 169 211 252 294
#     4  12  22  32  50  76 103 134 170 205 251 308
#     4  10  19  33  54  74  99 130 165 208 257 304
#
# _framework density 16.884582999999999
#
# number of rings (size 3 to 8) (size 9 to 14) (size 15 to 20)
#    0.000    1.750    2.500    3.375    0.000    1.500 
#    0.000    3.125    0.000    0.000    0.000    0.875 
#    0.000    0.000    0.000    0.000    0.000    0.000 
#
# Total GULP energy -793846.163938 kJ/mol
# GULP energy per Si atom -12403.846312 kJ/mol
# Density = 1.684615 g / cm^3
# Si number density = 16.884583 Si / 1000 Ang^3
#
#
#
# Elastic Constant Matrix: (Units=GPa)
#
#
# Indices 1 2 3 4 5 6 
#
# 1 75.6108 7.9272 43.5413 0.0000 0.0000 0.0000
# 2 7.9272 48.9345 27.7026 0.0000 0.0000 0.0000
# 3 43.5413 27.7026 99.4273 0.0000 0.0000 0.0000
# 4 0.0000 0.0000 0.0000 27.8590 0.0000 0.0000
# 5 0.0000 0.0000 0.0000 0.0000 21.1005 0.0000
# 6 0.0000 0.0000 0.0000 0.0000 0.0000 19.7285
#
#
#
# Elastic Compliance Matrix: (Units=1/GPa)
#
#
# Indices 1 2 3 4 5 6 
#
# 1 0.017821 0.001818 -0.008311 0.000000 0.000000 0.000000
# 2 0.001818 0.024448 -0.007608 0.000000 0.000000 0.000000
# 3 -0.008311 -0.007608 0.015817 0.000000 0.000000 0.000000
# 4 0.000000 0.000000 0.000000 0.035895 0.000000 0.000000
# 5 0.000000 0.000000 0.000000 0.000000 0.047392 0.000000
# 6 0.000000 0.000000 0.000000 0.000000 0.000000 0.050688
#
#
# Mechanical properties :
#
#
# Convention : Reuss Voigt Hill
#
# Bulk Modulus (GPa) = 33.46238 42.47943 37.97090
# Shear Modulus (GPa) = 21.71803 23.39101 22.55452
#
# Velocity S-wave (km/s) = 3.59034 3.72606 3.65883
# Velocity P-wave (km/s) = 6.08677 6.61247 6.35506
#
# Compressibility (1/GPa) = 0.02988430
#
# Stress axis : x y z
#
# Youngs Moduli (GPa) = 56.11431 40.90329 63.22441
#
# Poissons Ratio (x) = -0.07436 0.52543
# Poissons Ratio (y) = -0.10201 0.48100
# Poissons Ratio (z) = 0.46634 0.31118
#
# Static dielectric constant tensor:
#      x y z
#    x 3.126240 0.000000 0.000000 
#    y 0.000000 3.073970 0.000000 
#    z 0.000000 0.000000 3.212360 
# 
# 
# High freq. dielectric constant tensor:
#      x y z
#    x 1.621540 0.000000 0.000000 
#    y 0.000000 1.653690 0.000000 
#    z 0.000000 0.000000 1.647700 
# 
# From -- ./inp_files/24945.got.cif
#   From: 2010.03.12/outbox.cif.g09.slc.cpg/sg62_13_cif.got.tgz:24945.got - 2010.04.10 19:12:36.
