data_PCOD8251428
_publ_section_title
;
Structure prediction by ZEFSAII (Michael W. Deem and Ramdas Pophale) SiO2 
 PCOD8251428
Probable space group: P N M A
;
_chemical_formula_sum "Si O2"
_cell_formula_units_Z 64
_cell_length_a 15.135736
_cell_length_b 9.098344
_cell_length_c 24.740147
_cell_angle_alpha 90.000000
_cell_angle_beta 90.000000
_cell_angle_gamma 90.000000
_cell_volume 3406.968929
_symmetry_space_group_name_H-M "P N M A"
_symmetry_group_IT_number 62
_symmetry_cell_setting 'orthorhombic'
loop_
_space_group_symop_operation_xyz
x,y,z
1/2-x,-y,1/2+z
1/2+x,1/2-y,1/2-z
-x,1/2+y,-z
-x,-y,-z
1/2+x,y,1/2-z
1/2-x,1/2+y,1/2+z
x,1/2-y,z
loop_
_atom_site_type_symbol
_atom_site_label
_atom_site_fract_x
_atom_site_fract_y
_atom_site_fract_z
Si Si1 0.202262 0.421401 0.151514
Si Si2 0.163732 0.920826 0.557824
Si Si3 0.834578 0.581173 0.140181
Si Si4 0.220481 0.579805 0.258234
Si Si5 0.003847 0.424767 0.611396
Si Si6 0.818267 0.077128 0.564577
Si Si7 0.543062 0.420966 0.214851
Si Si8 0.004470 0.417960 0.163614
O O1 0.204670 0.250000 0.167651
O O2 0.254375 0.455466 0.096915
O O3 0.246902 0.511123 0.200500
O O4 0.100875 0.472893 0.143899
O O5 0.135730 0.750000 0.561200
O O6 0.194847 0.964508 0.497926
O O7 0.081037 0.021568 0.572225
O O8 0.848180 0.750000 0.125356
O O9 0.803000 0.560496 0.201835
O O10 0.762875 0.509642 0.099066
O O11 0.929165 0.505960 0.132153
O O12 0.194630 0.750000 0.251219
O O13 0.138588 0.495934 0.284852
O O14 0.008109 0.250000 0.617167
O O15 0.911830 0.482850 0.586242
O O16 0.017078 0.499614 0.669911
O O17 0.818893 0.250000 0.574031
O O18 0.554231 0.250000 0.200673
O O19 0.495334 0.442407 0.272178
O O20 0.991247 0.250000 0.147710
#
# Coordination Sequence:
#
# PCOD8251428 Si02
#       8
#     8   8   8   8   8   8   8   8
#     4   9  20  38  56  78 110 146 187 230 275 328
#     4  10  21  38  60  80 105 148 193 232 276 331
#     4  10  20  35  55  81 110 145 184 222 277 336
#     4  10  19  33  54  80 111 144 177 224 280 327
#     4  11  21  35  55  82 117 148 180 230 281 333
#     4   9  19  38  58  79 111 146 184 228 278 334
#     4  10  20  35  54  80 113 149 185 220 269 333
#     4   9  20  36  53  77 110 144 181 228 273 322
#
# _framework density 18.785026999999999
#
# number of rings (size 3 to 8) (size 9 to 14) (size 15 to 20)
#    0.000    2.250    1.250    2.250    1.750    4.000 
#    0.000    1.875    0.000    0.000    0.000    0.000 
#    0.000    0.000    0.000    0.000    0.000    0.000 
#
# Total GULP energy -793694.390383 kJ/mol
# GULP energy per Si atom -12401.474850 kJ/mol
# Density = 1.874227 g / cm^3
# Si number density = 18.785027 Si / 1000 Ang^3
#
#
#
# Elastic Constant Matrix: (Units=GPa)
#
#
# Indices 1 2 3 4 5 6 
#
# 1 110.6897 41.8807 63.3624 0.0000 0.0000 0.0000
# 2 41.8807 71.9096 42.0068 0.0000 0.0000 0.0000
# 3 63.3624 42.0068 113.4088 0.0000 0.0000 0.0000
# 4 0.0000 0.0000 0.0000 21.5581 0.0000 0.0000
# 5 0.0000 0.0000 0.0000 0.0000 25.8469 0.0000
# 6 0.0000 0.0000 0.0000 0.0000 0.0000 29.9416
#
#
#
# Elastic Compliance Matrix: (Units=1/GPa)
#
#
# Indices 1 2 3 4 5 6 
#
# 1 0.014436 -0.004717 -0.006318 0.000000 0.000000 0.000000
# 2 -0.004717 0.019287 -0.004509 0.000000 0.000000 0.000000
# 3 -0.006318 -0.004509 0.014018 0.000000 0.000000 0.000000
# 4 0.000000 0.000000 0.000000 0.046386 0.000000 0.000000
# 5 0.000000 0.000000 0.000000 0.000000 0.038689 0.000000
# 6 0.000000 0.000000 0.000000 0.000000 0.000000 0.033398
#
#
# Mechanical properties :
#
#
# Convention : Reuss Voigt Hill
#
# Bulk Modulus (GPa) = 60.04810 65.61199 62.83005
# Shear Modulus (GPa) = 24.64836 25.38650 25.01743
#
# Velocity S-wave (km/s) = 3.62626 3.68016 3.65331
# Velocity P-wave (km/s) = 7.04048 7.28435 7.16345
#
# Compressibility (1/GPa) = 0.01665332
#
# Stress axis : x y z
#
# Youngs Moduli (GPa) = 69.27311 51.84787 71.33779
#
# Poissons Ratio (x) = 0.24454 0.45073
# Poissons Ratio (y) = 0.32673 0.32165
# Poissons Ratio (z) = 0.43769 0.23377
#
# Static dielectric constant tensor:
#      x y z
#    x 3.408680 0.000000 0.000000 
#    y 0.000000 3.338330 0.000000 
#    z 0.000000 0.000000 3.450340 
# 
# 
# High freq. dielectric constant tensor:
#      x y z
#    x 1.727230 0.000000 0.000000 
#    y 0.000000 1.717920 0.000000 
#    z 0.000000 0.000000 1.723070 
# 
# From -- ./inp_files/29844.got.cif
#   From: 2010.03.12/outbox.cif.g09.slc.cpg/sg62_15_cif.got.tgz:29844.got - 2010.04.10 19:12:36.
