data_PCOD8251764
_publ_section_title
;
Structure prediction by ZEFSAII (Michael W. Deem and Ramdas Pophale) SiO2 
 PCOD8251764
Probable space group: P N M A
;
_chemical_formula_sum "Si O2"
_cell_formula_units_Z 64
_cell_length_a 19.213815
_cell_length_b 9.331389
_cell_length_c 19.095041
_cell_angle_alpha 90.000000
_cell_angle_beta 90.000000
_cell_angle_gamma 90.000000
_cell_volume 3423.580108
_symmetry_space_group_name_H-M "P N M A"
_symmetry_group_IT_number 62
_symmetry_cell_setting 'orthorhombic'
loop_
_space_group_symop_operation_xyz
x,y,z
1/2-x,-y,1/2+z
1/2+x,1/2-y,1/2-z
-x,1/2+y,-z
-x,-y,-z
1/2+x,y,1/2-z
1/2-x,1/2+y,1/2+z
x,1/2-y,z
loop_
_atom_site_type_symbol
_atom_site_label
_atom_site_fract_x
_atom_site_fract_y
_atom_site_fract_z
Si Si1 0.534696 0.579891 0.370850
Si Si2 0.089184 0.587389 0.545528
Si Si3 0.270018 0.085643 0.117337
Si Si4 0.376121 0.581097 0.375699
Si Si5 0.614365 0.580239 0.233126
Si Si6 0.530418 0.581770 0.102130
Si Si7 0.866038 0.580330 0.966264
Si Si8 0.771712 0.920762 0.243201
O O1 0.540047 0.750000 0.382268
O O2 0.454934 0.530954 0.359985
O O3 0.579106 0.525548 0.304448
O O4 0.565498 0.500896 0.438809
O O5 0.064744 0.750000 0.557436
O O6 0.170615 0.568447 0.558992
O O7 0.045310 0.489870 0.598736
O O8 0.075598 0.540466 0.465789
O O9 0.262732 0.250000 0.141955
O O10 0.199381 0.031687 0.080733
O O11 0.292223 0.989013 0.182758
O O12 0.371466 0.750000 0.370369
O O13 0.353138 0.531896 0.453436
O O14 0.323198 0.518469 0.317209
O O15 0.612121 0.750000 0.230664
O O16 0.571101 0.516823 0.168323
O O17 0.693529 0.526843 0.226190
O O18 0.518917 0.750000 0.110169
O O19 0.878945 0.750000 0.962278
O O20 0.776463 0.750000 0.250210
#
# Coordination Sequence:
#
# PCOD8251764 Si02
#       8
#     8   8   8   8   8   8   8   8
#     4  10  19  35  54  79 108 135 172 221 265 302
#     4   9  19  34  51  75 105 137 171 214 259 306
#     4  10  21  35  52  74 107 141 172 210 258 312
#     4   9  20  34  56  82 105 132 175 224 258 302
#     4   9  18  31  52  78 104 133 170 214 258 302
#     4   9  18  33  54  77 102 135 175 216 257 305
#     4  10  20  36  55  78 105 141 178 211 259 315
#     4  10  20  36  56  78 102 135 177 216 256 305
#
# _framework density 18.69388
#
# number of rings (size 3 to 8) (size 9 to 14) (size 15 to 20)
#    0.000    2.500    1.250    0.375    3.500    0.500 
#    0.000    2.500    0.000    0.000    0.000    0.000 
#    0.000    0.000    0.000    0.000    0.000    0.000 
#
# Total GULP energy -793586.758386 kJ/mol
# GULP energy per Si atom -12399.793100 kJ/mol
# Density = 1.865133 g / cm^3
# Si number density = 18.693880 Si / 1000 Ang^3
#
#
#
# Elastic Constant Matrix: (Units=GPa)
#
#
# Indices 1 2 3 4 5 6 
#
# 1 120.1391 24.4818 64.9181 0.0000 0.0000 0.0000
# 2 24.4818 27.4829 26.9032 0.0000 0.0000 0.0000
# 3 64.9181 26.9032 123.0632 0.0000 0.0000 0.0000
# 4 0.0000 0.0000 0.0000 24.2402 0.0000 0.0000
# 5 0.0000 0.0000 0.0000 0.0000 39.0070 0.0000
# 6 0.0000 0.0000 0.0000 0.0000 0.0000 18.8003
#
#
#
# Elastic Compliance Matrix: (Units=1/GPa)
#
#
# Indices 1 2 3 4 5 6 
#
# 1 0.012347 -0.005881 -0.005227 0.000000 0.000000 0.000000
# 2 -0.005881 0.049095 -0.007630 0.000000 0.000000 0.000000
# 3 -0.005227 -0.007630 0.012552 0.000000 0.000000 0.000000
# 4 0.000000 0.000000 0.000000 0.041254 0.000000 0.000000
# 5 0.000000 0.000000 0.000000 0.000000 0.025636 0.000000
# 6 0.000000 0.000000 0.000000 0.000000 0.000000 0.053191
#
#
# Mechanical properties :
#
#
# Convention : Reuss Voigt Hill
#
# Bulk Modulus (GPa) = 27.38602 55.92126 41.65364
# Shear Modulus (GPa) = 20.51504 26.70165 23.60834
#
# Velocity S-wave (km/s) = 3.31633 3.78347 3.55757
# Velocity P-wave (km/s) = 5.41715 7.00467 6.26143
#
# Compressibility (1/GPa) = 0.03651498
#
# Stress axis : x y z
#
# Youngs Moduli (GPa) = 80.99197 20.36883 79.67158
#
# Poissons Ratio (x) = 0.11980 0.41648
# Poissons Ratio (y) = 0.47635 0.60790
# Poissons Ratio (z) = 0.42338 0.15542
#
# Static dielectric constant tensor:
#      x y z
#    x 3.599370 0.000000 0.000000 
#    y 0.000000 3.096080 0.000000 
#    z 0.000000 0.000000 3.591280 
# 
# 
# High freq. dielectric constant tensor:
#      x y z
#    x 1.735990 0.000000 0.000000 
#    y 0.000000 1.687940 0.000000 
#    z 0.000000 0.000000 1.733580 
# 
# From -- ./inp_files/24457.got.cif
#   From: 2010.03.12/outbox.cif.g09.slc.cpg/sg62_13_cif.got.tgz:24457.got - 2010.04.10 19:12:36.
