data_PCOD8251592
_publ_section_title
;
Structure prediction by ZEFSAII (Michael W. Deem and Ramdas Pophale) SiO2 
 PCOD8251592
Probable space group: P N M A
;
_chemical_formula_sum "Si O2"
_cell_formula_units_Z 64
_cell_length_a 12.415780
_cell_length_b 9.191282
_cell_length_c 28.650871
_cell_angle_alpha 90.000000
_cell_angle_beta 90.000000
_cell_angle_gamma 90.000000
_cell_volume 3269.549590
_symmetry_space_group_name_H-M "P N M A"
_symmetry_group_IT_number 62
_symmetry_cell_setting 'orthorhombic'
loop_
_space_group_symop_operation_xyz
x,y,z
1/2-x,-y,1/2+z
1/2+x,1/2-y,1/2-z
-x,1/2+y,-z
-x,-y,-z
1/2+x,y,1/2-z
1/2-x,1/2+y,1/2+z
x,1/2-y,z
loop_
_atom_site_type_symbol
_atom_site_label
_atom_site_fract_x
_atom_site_fract_y
_atom_site_fract_z
Si Si1 0.286153 0.918788 0.028657
Si Si2 0.979576 0.410869 0.440268
Si Si3 0.584701 0.076427 0.218790
Si Si4 0.196361 0.582514 0.124729
Si Si5 0.721026 0.080203 0.072977
Si Si6 0.775433 0.921470 0.163888
Si Si7 0.015184 0.582838 0.191959
Si Si8 0.381822 0.410569 0.161026
O O1 0.307696 0.750000 0.035395
O O2 0.212668 0.978815 0.071622
O O3 0.406287 0.988857 0.026220
O O4 0.227549 0.947287 0.978737
O O5 0.988647 0.250000 0.462622
O O6 0.918920 0.403033 0.391677
O O7 0.097689 0.473355 0.430159
O O8 0.598754 0.250000 0.216216
O O9 0.476837 0.022966 0.192537
O O10 0.686987 0.003422 0.194418
O O11 0.573667 0.022741 0.271577
O O12 0.228137 0.750000 0.125101
O O13 0.275302 0.508798 0.162766
O O14 0.074107 0.557237 0.141906
O O15 0.728144 0.250000 0.087546
O O16 0.780427 0.982490 0.111176
O O17 0.751574 0.750000 0.162569
O O18 0.890315 0.956297 0.186974
O O19 0.030199 0.750000 0.207991
O O20 0.351824 0.250000 0.179760
#
# Coordination Sequence:
#
# PCOD8251592 Si02
#       8
#     8   8   8   8   8   8   8   8
#     4   9  18  31  53  83 112 150 196 239 289 346
#     4   9  16  29  48  74 114 151 178 225 285 341
#     4  11  23  40  62  87 116 147 186 240 298 353
#     4   9  19  37  58  81 114 152 192 238 284 338
#     4  10  19  34  54  80 117 154 192 240 295 346
#     4  11  24  41  61  85 116 154 198 241 287 348
#     4  10  24  43  60  82 115 154 196 243 290 343
#     4   9  18  33  53  81 113 144 178 226 285 341
#
# _framework density 19.574562
#
# number of rings (size 3 to 8) (size 9 to 14) (size 15 to 20)
#    0.000    2.250    1.250    1.125    1.750    3.500 
#    0.000    0.625    0.000    0.000    0.000    0.000 
#    0.000    0.000    0.000    0.000    0.000    0.000 
#
# Total GULP energy -793336.300286 kJ/mol
# GULP energy per Si atom -12395.879692 kJ/mol
# Density = 1.953001 g / cm^3
# Si number density = 19.574562 Si / 1000 Ang^3
#
#
#
# Elastic Constant Matrix: (Units=GPa)
#
#
# Indices 1 2 3 4 5 6 
#
# 1 81.6464 40.3268 52.1039 0.0000 0.0000 0.0000
# 2 40.3268 69.4713 45.5613 0.0000 0.0000 0.0000
# 3 52.1039 45.5613 99.2166 0.0000 0.0000 0.0000
# 4 0.0000 0.0000 0.0000 30.7881 0.0000 0.0000
# 5 0.0000 0.0000 0.0000 0.0000 23.3927 0.0000
# 6 0.0000 0.0000 0.0000 0.0000 0.0000 21.6614
#
#
#
# Elastic Compliance Matrix: (Units=1/GPa)
#
#
# Indices 1 2 3 4 5 6 
#
# 1 0.020515 -0.006930 -0.007591 0.000000 0.000000 0.000000
# 2 -0.006930 0.022939 -0.006894 0.000000 0.000000 0.000000
# 3 -0.007591 -0.006894 0.017231 0.000000 0.000000 0.000000
# 4 0.000000 0.000000 0.000000 0.032480 0.000000 0.000000
# 5 0.000000 0.000000 0.000000 0.000000 0.042748 0.000000
# 6 0.000000 0.000000 0.000000 0.000000 0.000000 0.046165
#
#
# Mechanical properties :
#
#
# Convention : Reuss Voigt Hill
#
# Bulk Modulus (GPa) = 56.00975 58.47981 57.24478
# Shear Modulus (GPa) = 21.65792 22.65791 22.15792
#
# Velocity S-wave (km/s) = 3.32992 3.40592 3.36813
# Velocity P-wave (km/s) = 6.59243 6.73850 6.66586
#
# Compressibility (1/GPa) = 0.01785403
#
# Stress axis : x y z
#
# Youngs Moduli (GPa) = 48.74379 43.59428 58.03326
#
# Poissons Ratio (x) = 0.30212 0.44055
# Poissons Ratio (y) = 0.33781 0.40010
# Poissons Ratio (z) = 0.37003 0.30055
#
# Static dielectric constant tensor:
#      x y z
#    x 3.442180 0.000000 0.000000 
#    y 0.000000 3.695230 0.000000 
#    z 0.000000 0.000000 3.770560 
# 
# 
# High freq. dielectric constant tensor:
#      x y z
#    x 1.743550 0.000000 0.000000 
#    y 0.000000 1.755860 0.000000 
#    z 0.000000 0.000000 1.770860 
# 
# From -- ./inp_files/32593.got.cif
#   From: 2010.03.12/outbox.cif.g09.slc.cpg/sg62_17_cif.got.tgz:32593.got - 2010.04.10 19:12:36.
