data_PCOD8251952
_publ_section_title
;
Structure prediction by ZEFSAII (Michael W. Deem and Ramdas Pophale) SiO2 
 PCOD8251952
Probable space group: P N M A
;
_chemical_formula_sum "Si O2"
_cell_formula_units_Z 48
_cell_length_a 24.123377
_cell_length_b 13.020140
_cell_length_c 7.438751
_cell_angle_alpha 90.000000
_cell_angle_beta 90.000000
_cell_angle_gamma 90.000000
_cell_volume 2336.435411
_symmetry_space_group_name_H-M "P N M A"
_symmetry_group_IT_number 62
_symmetry_cell_setting 'orthorhombic'
loop_
_space_group_symop_operation_xyz
x,y,z
1/2-x,-y,1/2+z
1/2+x,1/2-y,1/2-z
-x,1/2+y,-z
-x,-y,-z
1/2+x,y,1/2-z
1/2-x,1/2+y,1/2+z
x,1/2-y,z
loop_
_atom_site_type_symbol
_atom_site_label
_atom_site_fract_x
_atom_site_fract_y
_atom_site_fract_z
Si Si1 0.413385 0.133419 0.970299
Si Si2 0.468801 0.131583 0.343056
Si Si3 0.922963 0.992857 0.863741
Si Si4 0.819623 0.864673 0.946031
Si Si5 0.706837 0.939012 0.026140
Si Si6 0.778357 0.633605 0.323251
O O1 0.419310 0.250000 0.902471
O O2 0.433197 0.057953 0.814763
O O3 0.453405 0.112596 0.137071
O O4 0.350294 0.113279 0.030649
O O5 0.463470 0.250000 0.397562
O O6 0.426473 0.066987 0.464845
O O7 0.531688 0.096657 0.377633
O O8 0.862231 0.942701 0.853723
O O9 0.832398 0.750000 0.876751
O O10 0.755840 0.894112 0.897178
O O11 0.825113 0.869724 0.165272
O O12 0.703721 0.062479 0.991341
O O13 0.720955 0.910155 0.233979
O O14 0.769721 0.750000 0.393550
#
# Coordination Sequence:
#
# PCOD8251952 Si02
#       6
#     8   8   8   8   8   8
#     4  11  22  38  59  88 121 154 199 251 302 365
#     4  10  23  40  60  89 118 153 204 250 301 361
#     4  11  21  39  64  85 117 160 199 250 305 357
#     4   9  19  34  56  83 114 155 196 242 297 356
#     4  10  19  36  58  83 120 155 193 247 301 361
#     4   9  19  35  53  79 114 152 196 241 295 364
#
# _framework density 20.544117
#
# number of rings (size 3 to 8) (size 9 to 14) (size 15 to 20)
#    1.000    1.000    0.000    4.500    0.000    0.000 
#    0.000    6.667    0.000    8.000    0.000    0.000 
#    0.000    0.000    0.000    0.000    0.000    0.000 
#
# Total GULP energy -595012.764905 kJ/mol
# GULP energy per Si atom -12396.099269 kJ/mol
# Density = 2.049736 g / cm^3
# Si number density = 20.544117 Si / 1000 Ang^3
#
#
#
# Elastic Constant Matrix: (Units=GPa)
#
#
# Indices 1 2 3 4 5 6 
#
# 1 53.8467 10.3892 -3.7504 0.0000 0.0000 0.0000
# 2 10.3892 131.4375 37.8974 0.0000 0.0000 0.0000
# 3 -3.7504 37.8974 38.1200 0.0000 0.0000 0.0000
# 4 0.0000 0.0000 0.0000 37.9394 0.0000 0.0000
# 5 0.0000 0.0000 0.0000 0.0000 17.2050 0.0000
# 6 0.0000 0.0000 0.0000 0.0000 0.0000 13.1375
#
#
#
# Elastic Compliance Matrix: (Units=1/GPa)
#
#
# Indices 1 2 3 4 5 6 
#
# 1 0.019473 -0.002932 0.004831 0.000000 0.000000 0.000000
# 2 -0.002932 0.011107 -0.011330 0.000000 0.000000 0.000000
# 3 0.004831 -0.011330 0.037973 0.000000 0.000000 0.000000
# 4 0.000000 0.000000 0.000000 0.026358 0.000000 0.000000
# 5 0.000000 0.000000 0.000000 0.000000 0.058123 0.000000
# 6 0.000000 0.000000 0.000000 0.000000 0.000000 0.076118
#
#
# Mechanical properties :
#
#
# Convention : Reuss Voigt Hill
#
# Bulk Modulus (GPa) = 20.12504 34.71964 27.42234
# Shear Modulus (GPa) = 18.89802 25.58091 22.23947
#
# Velocity S-wave (km/s) = 3.03623 3.53252 3.29374
# Velocity P-wave (km/s) = 4.70201 5.79440 5.27655
#
# Compressibility (1/GPa) = 0.04968934
#
# Stress axis : x y z
#
# Youngs Moduli (GPa) = 51.35205 90.03453 26.33483
#
# Poissons Ratio (x) = 0.26399 -0.12722
# Poissons Ratio (y) = 0.15057 0.29839
# Poissons Ratio (z) = -0.24807 1.02013
#
# Static dielectric constant tensor:
#      x y z
#    x 3.450540 0.000000 0.000000 
#    y 0.000000 3.729770 0.000000 
#    z 0.000000 0.000000 3.384090 
# 
# 
# High freq. dielectric constant tensor:
#      x y z
#    x 1.786870 0.000000 0.000000 
#    y 0.000000 1.818420 0.000000 
#    z 0.000000 0.000000 1.784410 
# 
# From -- ./inp_files/9785.got.cif
#   From: 2010.03.12/outbox.cif.g09.slc.cpg/sg62_5_cif.got.tgz:9785.got - 2010.04.10 19:12:36.
