data_PCOD8251383
_publ_section_title
;
Structure prediction by ZEFSAII (Michael W. Deem and Ramdas Pophale) SiO2 
 PCOD8251383
Probable space group: P N M A
;
_chemical_formula_sum "Si O2"
_cell_formula_units_Z 48
_cell_length_a 9.402499
_cell_length_b 9.265710
_cell_length_c 29.500841
_cell_angle_alpha 90.000000
_cell_angle_beta 90.000000
_cell_angle_gamma 90.000000
_cell_volume 2570.137724
_symmetry_space_group_name_H-M "P N M A"
_symmetry_group_IT_number 62
_symmetry_cell_setting 'orthorhombic'
loop_
_space_group_symop_operation_xyz
x,y,z
1/2-x,-y,1/2+z
1/2+x,1/2-y,1/2-z
-x,1/2+y,-z
-x,-y,-z
1/2+x,y,1/2-z
1/2-x,1/2+y,1/2+z
x,1/2-y,z
loop_
_atom_site_type_symbol
_atom_site_label
_atom_site_fract_x
_atom_site_fract_y
_atom_site_fract_z
Si Si1 0.097364 0.087113 0.466019
Si Si2 0.717627 0.578769 0.380610
Si Si3 0.218352 0.921073 0.289449
Si Si4 0.877454 0.411062 0.977459
Si Si5 0.960041 0.422380 0.795715
Si Si6 0.959252 0.079085 0.623225
O O1 0.038274 0.250000 0.459490
O O2 0.252397 0.092544 0.486694
O O3 0.107742 0.004603 0.418751
O O4 0.000000 0.000000 0.500000
O O5 0.714477 0.750000 0.381898
O O6 0.671469 0.517406 0.429729
O O7 0.610222 0.519714 0.342274
O O8 0.878012 0.529378 0.369282
O O9 0.224985 0.750000 0.286403
O O10 0.135753 0.982151 0.245591
O O11 0.379167 0.983122 0.291449
O O12 0.131235 0.969719 0.333464
O O13 0.933992 0.250000 0.967847
O O14 0.000000 0.500000 0.000000
O O15 0.962008 0.250000 0.795126
O O16 0.948620 0.250000 0.614151
#
# Coordination Sequence:
#
# PCOD8251383 Si02
#       6
#     8   8   8   8   8   8
#     4  11  22  38  57  80 109 143 184 225 268 322
#     4   9  17  31  48  70 106 140 171 218 266 311
#     4   9  17  27  45  74 105 138 172 214 266 320
#     4  10  22  37  53  77 108 143 179 221 270 318
#     4   9  16  27  44  72 107 139 173 216 269 317
#     4  10  19  33  53  78 108 141 177 219 270 321
#
# _framework density 18.676041999999999
#
# number of rings (size 3 to 8) (size 9 to 14) (size 15 to 20)
#    0.000    2.333    1.667    1.500    2.333    5.333 
#    0.000    0.000    0.000    0.000    0.000    5.833 
#    0.000    0.000    0.000    0.000    0.000    0.000 
#
# Total GULP energy -595128.025466 kJ/mol
# GULP energy per Si atom -12398.500531 kJ/mol
# Density = 1.863353 g / cm^3
# Si number density = 18.676042 Si / 1000 Ang^3
#
#
#
# Elastic Constant Matrix: (Units=GPa)
#
#
# Indices 1 2 3 4 5 6 
#
# 1 147.1732 25.6568 89.7293 0.0000 0.0000 0.0000
# 2 25.6568 40.1813 27.3668 0.0000 0.0000 0.0000
# 3 89.7293 27.3668 169.6594 0.0000 0.0000 0.0000
# 4 0.0000 0.0000 0.0000 22.3049 0.0000 0.0000
# 5 0.0000 0.0000 0.0000 0.0000 41.2843 0.0000
# 6 0.0000 0.0000 0.0000 0.0000 0.0000 18.7526
#
#
#
# Elastic Compliance Matrix: (Units=1/GPa)
#
#
# Indices 1 2 3 4 5 6 
#
# 1 0.010393 -0.003249 -0.004972 0.000000 0.000000 0.000000
# 2 -0.003249 0.028975 -0.002955 0.000000 0.000000 0.000000
# 3 -0.004972 -0.002955 0.009001 0.000000 0.000000 0.000000
# 4 0.000000 0.000000 0.000000 0.044833 0.000000 0.000000
# 5 0.000000 0.000000 0.000000 0.000000 0.024222 0.000000
# 6 0.000000 0.000000 0.000000 0.000000 0.000000 0.053326
#
#
# Mechanical properties :
#
#
# Convention : Reuss Voigt Hill
#
# Bulk Modulus (GPa) = 38.44059 71.39107 54.91583
# Shear Modulus (GPa) = 24.78009 30.75243 27.76626
#
# Velocity S-wave (km/s) = 3.64653 4.06226 3.86000
# Velocity P-wave (km/s) = 6.19331 7.76606 7.02384
#
# Compressibility (1/GPa) = 0.02601417
#
# Stress axis : x y z
#
# Youngs Moduli (GPa) = 96.22069 34.51275 111.10332
#
# Poissons Ratio (x) = 0.11215 0.55245
# Poissons Ratio (y) = 0.31266 0.32833
# Poissons Ratio (z) = 0.47844 0.10199
#
# Static dielectric constant tensor:
#      x y z
#    x 3.533680 0.000000 0.000000 
#    y 0.000000 3.012200 0.000000 
#    z 0.000000 0.000000 3.678680 
# 
# 
# High freq. dielectric constant tensor:
#      x y z
#    x 1.736830 0.000000 0.000000 
#    y 0.000000 1.661580 0.000000 
#    z 0.000000 0.000000 1.742830 
# 
# From -- ./inp_files/31973.got.cif
#   From: 2010.03.12/outbox.cif.g09.slc.cpg/sg62_16_cif.got.tgz:31973.got - 2010.04.10 19:12:36.
