data_PCOD8251648
_publ_section_title
;
Structure prediction by ZEFSAII (Michael W. Deem and Ramdas Pophale) SiO2 
 PCOD8251648
Probable space group: P N M A
;
_chemical_formula_sum "Si O2"
_cell_formula_units_Z 48
_cell_length_a 16.360365
_cell_length_b 8.918002
_cell_length_c 18.052513
_cell_angle_alpha 90.000000
_cell_angle_beta 90.000000
_cell_angle_gamma 90.000000
_cell_volume 2633.893560
_symmetry_space_group_name_H-M "P N M A"
_symmetry_group_IT_number 62
_symmetry_cell_setting 'orthorhombic'
loop_
_space_group_symop_operation_xyz
x,y,z
1/2-x,-y,1/2+z
1/2+x,1/2-y,1/2-z
-x,1/2+y,-z
-x,-y,-z
1/2+x,y,1/2-z
1/2-x,1/2+y,1/2+z
x,1/2-y,z
loop_
_atom_site_type_symbol
_atom_site_label
_atom_site_fract_x
_atom_site_fract_y
_atom_site_fract_z
Si Si1 0.831308 0.424260 0.907844
Si Si2 0.135666 0.422648 0.831907
Si Si3 0.506498 0.426684 0.419791
Si Si4 0.163209 0.424888 0.664445
Si Si5 0.418528 0.074950 0.029071
Si Si6 0.249858 0.578854 0.460588
O O1 0.853819 0.250000 0.907915
O O2 0.909930 0.517429 0.881096
O O3 0.757383 0.462686 0.852687
O O4 0.806940 0.471184 0.990939
O O5 0.106813 0.250000 0.835270
O O6 0.147712 0.476646 0.748097
O O7 0.222078 0.441395 0.875437
O O8 0.067684 0.526718 0.867762
O O9 0.500000 0.500000 0.500000
O O10 0.507639 0.250000 0.429487
O O11 0.145549 0.250000 0.652343
O O12 0.103107 0.514988 0.610609
O O13 0.434436 0.250000 0.034969
O O14 0.345387 0.036241 0.971259
O O15 0.500000 0.000000 0.000000
O O16 0.263862 0.750000 0.487431
#
# Coordination Sequence:
#
# PCOD8251648 Si02
#       6
#     8   8   8   8   8   8
#     4  10  19  34  56  82 110 144 183 222 272 332
#     4  10  20  37  58  82 112 145 184 232 284 334
#     4  12  23  35  55  84 116 149 187 229 275 331
#     4   9  20  38  59  82 111 146 185 232 283 336
#     4  10  20  36  58  83 111 147 192 236 278 330
#     4   9  18  33  56  80 105 142 185 226 273 329
#
# _framework density 18.223972
#
# number of rings (size 3 to 8) (size 9 to 14) (size 15 to 20)
#    0.000    2.000    1.667    2.500    0.000    2.000 
#    3.000    0.000    0.000    0.000    0.000    0.000 
#    0.000    0.000    0.000    0.000    0.000    0.000 
#
# Total GULP energy -595266.742472 kJ/mol
# GULP energy per Si atom -12401.390468 kJ/mol
# Density = 1.818249 g / cm^3
# Si number density = 18.223972 Si / 1000 Ang^3
#
#
#
# Elastic Constant Matrix: (Units=GPa)
#
#
# Indices 1 2 3 4 5 6 
#
# 1 136.6503 61.4648 74.5821 0.0000 0.0000 0.0000
# 2 61.4648 98.9528 57.2999 0.0000 0.0000 0.0000
# 3 74.5821 57.2999 134.7256 0.0000 0.0000 0.0000
# 4 0.0000 0.0000 0.0000 26.4339 0.0000 0.0000
# 5 0.0000 0.0000 0.0000 0.0000 24.4311 0.0000
# 6 0.0000 0.0000 0.0000 0.0000 0.0000 33.3401
#
#
#
# Elastic Compliance Matrix: (Units=1/GPa)
#
#
# Indices 1 2 3 4 5 6 
#
# 1 0.011976 -0.004776 -0.004598 0.000000 0.000000 0.000000
# 2 -0.004776 0.015313 -0.003869 0.000000 0.000000 0.000000
# 3 -0.004598 -0.003869 0.011613 0.000000 0.000000 0.000000
# 4 0.000000 0.000000 0.000000 0.037830 0.000000 0.000000
# 5 0.000000 0.000000 0.000000 0.000000 0.040931 0.000000
# 6 0.000000 0.000000 0.000000 0.000000 0.000000 0.029994
#
#
# Mechanical properties :
#
#
# Convention : Reuss Voigt Hill
#
# Bulk Modulus (GPa) = 80.54232 84.11359 82.32796
# Shear Modulus (GPa) = 28.04534 28.63981 28.34257
#
# Velocity S-wave (km/s) = 3.92717 3.96857 3.94793
# Velocity P-wave (km/s) = 8.05328 8.20092 8.12744
#
# Compressibility (1/GPa) = 0.01241583
#
# Stress axis : x y z
#
# Youngs Moduli (GPa) = 83.50028 65.30513 86.10704
#
# Poissons Ratio (x) = 0.31191 0.39595
# Poissons Ratio (y) = 0.39881 0.33311
# Poissons Ratio (z) = 0.38397 0.25264
#
# Static dielectric constant tensor:
#      x y z
#    x 3.556400 0.000000 0.000000 
#    y 0.000000 3.419370 0.000000 
#    z 0.000000 0.000000 3.360180 
# 
# 
# High freq. dielectric constant tensor:
#      x y z
#    x 1.713020 0.000000 0.000000 
#    y 0.000000 1.711470 0.000000 
#    z 0.000000 0.000000 1.689380 
# 
# From -- ./inp_files/23751.got.cif
#   From: 2010.03.12/outbox.cif.g09.slc.cpg/sg62_12_cif.got.tgz:23751.got - 2010.04.10 19:12:36.
