data_PCOD8251267
_publ_section_title
;
Structure prediction by ZEFSAII (Michael W. Deem and Ramdas Pophale) SiO2 
 PCOD8251267
Probable space group: P N M A
;
_chemical_formula_sum "Si O2"
_cell_formula_units_Z 64
_cell_length_a 19.834211
_cell_length_b 9.211878
_cell_length_c 19.956152
_cell_angle_alpha 90.000000
_cell_angle_beta 90.000000
_cell_angle_gamma 90.000000
_cell_volume 3646.195157
_symmetry_space_group_name_H-M "P N M A"
_symmetry_group_IT_number 62
_symmetry_cell_setting 'orthorhombic'
loop_
_space_group_symop_operation_xyz
x,y,z
1/2-x,-y,1/2+z
1/2+x,1/2-y,1/2-z
-x,1/2+y,-z
-x,-y,-z
1/2+x,y,1/2-z
1/2-x,1/2+y,1/2+z
x,1/2-y,z
loop_
_atom_site_type_symbol
_atom_site_label
_atom_site_fract_x
_atom_site_fract_y
_atom_site_fract_z
Si Si1 0.560336 0.919198 0.913069
Si Si2 0.425104 0.577792 0.222614
Si Si3 0.574906 0.581393 0.266492
Si Si4 0.827249 0.080902 0.176341
Si Si5 0.089920 0.417415 0.457266
Si Si6 0.549992 0.918325 0.412302
Si Si7 0.173515 0.080186 0.331056
Si Si8 0.417892 0.083301 0.443614
O O1 0.577467 0.750000 0.905156
O O2 0.480712 0.947166 0.920100
O O3 0.587786 0.005772 0.849319
O O4 0.598545 0.980688 0.978300
O O5 0.416480 0.750000 0.216938
O O6 0.499035 0.533290 0.248513
O O7 0.369421 0.516442 0.272929
O O8 0.584902 0.750000 0.251044
O O9 0.589795 0.542255 0.344399
O O10 0.628949 0.495452 0.224498
O O11 0.835414 0.250000 0.195812
O O12 0.750122 0.029629 0.178540
O O13 0.851241 0.053441 0.099765
O O14 0.094592 0.250000 0.480155
O O15 0.148740 0.461050 0.405619
O O16 0.531884 0.750000 0.411495
O O17 0.593735 0.961675 0.478223
O O18 0.478615 0.996302 0.411223
O O19 0.164951 0.250000 0.320007
O O20 0.439458 0.250000 0.440096
#
# Coordination Sequence:
#
# PCOD8251267 Si02
#       8
#     8   8   8   8   8   8   8   8
#     4  10  19  32  54  81 108 137 175 225 271 317
#     4  11  21  34  54  80 110 143 179 226 274 322
#     4  10  20  33  52  79 109 139 178 225 270 319
#     4  10  21  36  54  78 108 144 182 222 270 328
#     4   9  18  33  52  77 107 139 176 221 271 322
#     4   9  17  31  50  76 106 133 168 218 264 307
#     4  10  21  37  55  76 108 146 183 223 269 325
#     4   9  17  30  51  76 102 133 170 212 262 316
#
# _framework density 17.552544999999999
#
# number of rings (size 3 to 8) (size 9 to 14) (size 15 to 20)
#    0.000    2.250    2.500    0.750    0.000    2.500 
#    0.000    1.250    0.000    3.000    0.000    0.000 
#    0.000    0.000    0.000    0.000    0.000    0.000 
#
# Total GULP energy -793558.076468 kJ/mol
# GULP energy per Si atom -12399.344945 kJ/mol
# Density = 1.751259 g / cm^3
# Si number density = 17.552545 Si / 1000 Ang^3
#
#
#
# Elastic Constant Matrix: (Units=GPa)
#
#
# Indices 1 2 3 4 5 6 
#
# 1 115.2952 50.0869 77.3021 0.0000 0.0000 0.0000
# 2 50.0869 65.8950 63.1817 0.0000 0.0000 0.0000
# 3 77.3021 63.1817 143.8213 0.0000 0.0000 0.0000
# 4 0.0000 0.0000 0.0000 31.1566 0.0000 0.0000
# 5 0.0000 0.0000 0.0000 0.0000 24.4250 0.0000
# 6 0.0000 0.0000 0.0000 0.0000 0.0000 20.9429
#
#
#
# Elastic Compliance Matrix: (Units=1/GPa)
#
#
# Indices 1 2 3 4 5 6 
#
# 1 0.014942 -0.006318 -0.005255 0.000000 0.000000 0.000000
# 2 -0.006318 0.028892 -0.009296 0.000000 0.000000 0.000000
# 3 -0.005255 -0.009296 0.013862 0.000000 0.000000 0.000000
# 4 0.000000 0.000000 0.000000 0.032096 0.000000 0.000000
# 5 0.000000 0.000000 0.000000 0.000000 0.040942 0.000000
# 6 0.000000 0.000000 0.000000 0.000000 0.000000 0.047749
#
#
# Mechanical properties :
#
#
# Convention : Reuss Voigt Hill
#
# Bulk Modulus (GPa) = 62.67527 78.46142 70.56834
# Shear Modulus (GPa) = 22.16902 24.26763 23.21832
#
# Velocity S-wave (km/s) = 3.55774 3.72233 3.64096
# Velocity P-wave (km/s) = 7.25682 7.95438 7.61359
#
# Compressibility (1/GPa) = 0.01595526
#
# Stress axis : x y z
#
# Youngs Moduli (GPa) = 66.92663 34.61192 72.14131
#
# Poissons Ratio (x) = 0.21869 0.37913
# Poissons Ratio (y) = 0.42286 0.67065
# Poissons Ratio (z) = 0.35172 0.32176
#
# Static dielectric constant tensor:
#      x y z
#    x 3.108590 0.000000 0.000000 
#    y 0.000000 3.258500 0.000000 
#    z 0.000000 0.000000 3.535390 
# 
# 
# High freq. dielectric constant tensor:
#      x y z
#    x 1.647850 0.000000 0.000000 
#    y 0.000000 1.679730 0.000000 
#    z 0.000000 0.000000 1.694840 
# 
# From -- ./inp_files/27918.got.cif
#   From: 2010.03.12/outbox.cif.g09.slc.cpg/sg62_14_cif.got.tgz:27918.got - 2010.04.10 19:12:36.
