data_PCOD8251072
_publ_section_title
;
Structure prediction by ZEFSAII (Michael W. Deem and Ramdas Pophale) SiO2 
 PCOD8251072
Probable space group: P N M A
;
_chemical_formula_sum "Si O2"
_cell_formula_units_Z 48
_cell_length_a 21.462389
_cell_length_b 9.571600
_cell_length_c 10.747917
_cell_angle_alpha 90.000000
_cell_angle_beta 90.000000
_cell_angle_gamma 90.000000
_cell_volume 2207.938168
_symmetry_space_group_name_H-M "P N M A"
_symmetry_group_IT_number 62
_symmetry_cell_setting 'orthorhombic'
loop_
_space_group_symop_operation_xyz
x,y,z
1/2-x,-y,1/2+z
1/2+x,1/2-y,1/2-z
-x,1/2+y,-z
-x,-y,-z
1/2+x,y,1/2-z
1/2-x,1/2+y,1/2+z
x,1/2-y,z
loop_
_atom_site_type_symbol
_atom_site_label
_atom_site_fract_x
_atom_site_fract_y
_atom_site_fract_z
Si Si1 0.485247 0.596844 0.663373
Si Si2 0.584131 0.096908 0.588822
Si Si3 0.224116 0.412832 0.947381
Si Si4 0.413566 0.904392 0.070202
Si Si5 0.056356 0.907780 0.355917
Si Si6 0.216583 0.090030 0.668296
O O1 0.491521 0.750000 0.727280
O O2 0.463766 0.615887 0.523669
O O3 0.553529 0.523105 0.674291
O O4 0.433333 0.502021 0.733545
O O5 0.587286 0.250000 0.658042
O O6 0.651223 0.054321 0.536891
O O7 0.238630 0.250000 0.969246
O O8 0.242971 0.455789 0.804443
O O9 0.259128 0.499848 0.052813
O O10 0.404977 0.750000 0.009931
O O11 0.482490 0.916227 0.123398
O O12 0.359295 0.926319 0.174371
O O13 0.403946 0.024311 0.966823
O O14 0.080087 0.750000 0.335279
O O15 0.235513 0.250000 0.642518
#
# Coordination Sequence:
#
# PCOD8251072 Si02
#       6
#     8   8   8   8   8   8
#     4  10  19  31  52  82 112 143 182 228 279 338
#     4   9  19  36  55  76 107 147 186 227 280 337
#     4  10  22  41  62  84 114 152 194 240 290 344
#     4   9  19  36  55  76 106 144 185 228 276 332
#     4  10  19  32  53  80 111 146 182 225 280 339
#     4  10  22  40  61  84 112 149 193 240 289 341
#
# _framework density 21.739739
#
# number of rings (size 3 to 8) (size 9 to 14) (size 15 to 20)
#    0.000    2.333    0.000    2.000    0.000    7.333 
#    0.000    6.667    0.000    0.000    0.000    0.000 
#    0.000    0.000    0.000    0.000    0.000    0.000 
#
# Total GULP energy -594773.417191 kJ/mol
# GULP energy per Si atom -12391.112858 kJ/mol
# Density = 2.169026 g / cm^3
# Si number density = 21.739739 Si / 1000 Ang^3
#
#
#
# Elastic Constant Matrix: (Units=GPa)
#
#
# Indices 1 2 3 4 5 6 
#
# 1 52.2763 16.0281 18.2390 0.0000 0.0000 0.0000
# 2 16.0281 137.3965 53.5636 0.0000 0.0000 0.0000
# 3 18.2390 53.5636 95.0341 0.0000 0.0000 0.0000
# 4 0.0000 0.0000 0.0000 39.5420 0.0000 0.0000
# 5 0.0000 0.0000 0.0000 0.0000 31.9966 0.0000
# 6 0.0000 0.0000 0.0000 0.0000 0.0000 28.0076
#
#
#
# Elastic Compliance Matrix: (Units=1/GPa)
#
#
# Indices 1 2 3 4 5 6 
#
# 1 0.020632 -0.001106 -0.003336 0.000000 0.000000 0.000000
# 2 -0.001106 0.009387 -0.005078 0.000000 0.000000 0.000000
# 3 -0.003336 -0.005078 0.014025 0.000000 0.000000 0.000000
# 4 0.000000 0.000000 0.000000 0.025290 0.000000 0.000000
# 5 0.000000 0.000000 0.000000 0.000000 0.031253 0.000000
# 6 0.000000 0.000000 0.000000 0.000000 0.000000 0.035705
#
#
# Mechanical properties :
#
#
# Convention : Reuss Voigt Hill
#
# Bulk Modulus (GPa) = 39.99582 51.15202 45.57392
# Shear Modulus (GPa) = 30.54960 33.03432 31.79196
#
# Velocity S-wave (km/s) = 3.75272 3.90235 3.82827
# Velocity P-wave (km/s) = 6.10039 6.62456 6.36787
#
# Compressibility (1/GPa) = 0.02500261
#
# Stress axis : x y z
#
# Youngs Moduli (GPa) = 48.46772 106.52930 71.30030
#
# Poissons Ratio (x) = 0.11785 0.23788
# Poissons Ratio (y) = 0.05362 0.36210
# Poissons Ratio (z) = 0.16170 0.54101
#
# Static dielectric constant tensor:
#      x y z
#    x 3.729890 0.000000 0.000000 
#    y 0.000000 4.320730 0.000000 
#    z 0.000000 0.000000 3.911090 
# 
# 
# High freq. dielectric constant tensor:
#      x y z
#    x 1.830770 0.000000 0.000000 
#    y 0.000000 1.857600 0.000000 
#    z 0.000000 0.000000 1.858900 
# 
# From -- ./inp_files/15134.got.cif
#   From: 2010.03.12/outbox.cif.g09.slc.cpg/sg62_8_cif.got.tgz:15134.got - 2010.04.10 19:12:36.
