data_PCOD8251418
_publ_section_title
;
Structure prediction by ZEFSAII (Michael W. Deem and Ramdas Pophale) SiO2 
 PCOD8251418
Probable space group: P N M A
;
_chemical_formula_sum "Si O2"
_cell_formula_units_Z 40
_cell_length_a 25.538538
_cell_length_b 8.862993
_cell_length_c 9.584449
_cell_angle_alpha 90.000000
_cell_angle_beta 90.000000
_cell_angle_gamma 90.000000
_cell_volume 2169.419746
_symmetry_space_group_name_H-M "P N M A"
_symmetry_group_IT_number 62
_symmetry_cell_setting 'orthorhombic'
loop_
_space_group_symop_operation_xyz
x,y,z
1/2-x,-y,1/2+z
1/2+x,1/2-y,1/2-z
-x,1/2+y,-z
-x,-y,-z
1/2+x,y,1/2-z
1/2-x,1/2+y,1/2+z
x,1/2-y,z
loop_
_atom_site_type_symbol
_atom_site_label
_atom_site_fract_x
_atom_site_fract_y
_atom_site_fract_z
Si Si1 0.130826 0.923700 0.278710
Si Si2 0.141618 0.427550 0.705653
Si Si3 0.782080 0.073965 0.499268
Si Si4 0.829466 0.427591 0.021760
Si Si5 0.944295 0.926181 0.519372
O O1 0.115008 0.750000 0.293270
O O2 0.183847 0.958728 0.363042
O O3 0.139985 0.970219 0.119101
O O4 0.082403 0.019274 0.337481
O O5 0.145527 0.250000 0.732935
O O6 0.194817 0.482046 0.631214
O O7 0.092016 0.471862 0.611210
O O8 0.134502 0.516097 0.850827
O O9 0.781415 0.250000 0.460716
O O10 0.724449 0.017252 0.531329
O O11 0.818378 0.250000 0.030574
O O12 0.952270 0.750000 0.529302
O O13 0.000000 0.000000 0.500000
#
# Coordination Sequence:
#
# PCOD8251418 Si02
#       5
#     8   8   8   8   8
#     4   9  20  36  53  77 108 139 177 219 260 309
#     4  10  21  36  53  78 109 141 179 219 259 314
#     4  10  19  33  54  78 108 147 182 217 260 310
#     4  11  21  33  52  80 113 146 177 217 264 311
#     4  10  21  38  61  81 100 131 173 220 269 320
#
# _framework density 18.438110000000002
#
# number of rings (size 3 to 8) (size 9 to 14) (size 15 to 20)
#    0.000    2.000    0.000    3.600    0.000    6.400 
#    0.000    1.000    0.000    0.000    0.000    0.000 
#    0.000    0.000    0.000    0.000    0.000    0.000 
#
# Total GULP energy -496194.183554 kJ/mol
# GULP energy per Si atom -12404.854589 kJ/mol
# Density = 1.839614 g / cm^3
# Si number density = 18.438110 Si / 1000 Ang^3
#
#
#
# Elastic Constant Matrix: (Units=GPa)
#
#
# Indices 1 2 3 4 5 6 
#
# 1 105.2949 39.8658 44.2128 0.0000 0.0000 0.0000
# 2 39.8658 59.7938 42.5046 0.0000 0.0000 0.0000
# 3 44.2128 42.5046 138.4958 0.0000 0.0000 0.0000
# 4 0.0000 0.0000 0.0000 34.7983 0.0000 0.0000
# 5 0.0000 0.0000 0.0000 0.0000 10.7555 0.0000
# 6 0.0000 0.0000 0.0000 0.0000 0.0000 34.3613
#
#
#
# Elastic Compliance Matrix: (Units=1/GPa)
#
#
# Indices 1 2 3 4 5 6 
#
# 1 0.013091 -0.007364 -0.001919 0.000000 0.000000 0.000000
# 2 -0.007364 0.025533 -0.005485 0.000000 0.000000 0.000000
# 3 -0.001919 -0.005485 0.009517 0.000000 0.000000 0.000000
# 4 0.000000 0.000000 0.000000 0.028737 0.000000 0.000000
# 5 0.000000 0.000000 0.000000 0.000000 0.092975 0.000000
# 6 0.000000 0.000000 0.000000 0.000000 0.000000 0.029102
#
#
# Mechanical properties :
#
#
# Convention : Reuss Voigt Hill
#
# Bulk Modulus (GPa) = 53.75194 61.86121 57.80657
# Shear Modulus (GPa) = 21.30439 27.78312 24.54376
#
# Velocity S-wave (km/s) = 3.40289 3.88600 3.65244
# Velocity P-wave (km/s) = 6.68247 7.33200 7.01476
#
# Compressibility (1/GPa) = 0.01860398
#
# Stress axis : x y z
#
# Youngs Moduli (GPa) = 76.38841 39.16497 105.08015
#
# Poissons Ratio (x) = 0.28840 0.20166
# Poissons Ratio (y) = 0.56251 0.57640
# Poissons Ratio (z) = 0.14660 0.21483
#
# Static dielectric constant tensor:
#      x y z
#    x 3.206690 0.000000 0.000000 
#    y 0.000000 3.441330 0.000000 
#    z 0.000000 0.000000 3.593610 
# 
# 
# High freq. dielectric constant tensor:
#      x y z
#    x 1.697220 0.000000 0.000000 
#    y 0.000000 1.728090 0.000000 
#    z 0.000000 0.000000 1.721750 
# 
# From -- ./inp_files/9073.got.cif
#   From: 2010.03.12/outbox.cif.g09.slc.cpg/sg62_5_cif.got.tgz:9073.got - 2010.04.10 19:12:36.
