data_PCOD8251115
_publ_section_title
;
Structure prediction by ZEFSAII (Michael W. Deem and Ramdas Pophale) SiO2 
 PCOD8251115
Probable space group: P N M A
;
_chemical_formula_sum "Si O2"
_cell_formula_units_Z 64
_cell_length_a 23.528126
_cell_length_b 8.832799
_cell_length_c 18.857107
_cell_angle_alpha 90.000000
_cell_angle_beta 90.000000
_cell_angle_gamma 90.000000
_cell_volume 3918.869038
_symmetry_space_group_name_H-M "P N M A"
_symmetry_group_IT_number 62
_symmetry_cell_setting 'orthorhombic'
loop_
_space_group_symop_operation_xyz
x,y,z
1/2-x,-y,1/2+z
1/2+x,1/2-y,1/2-z
-x,1/2+y,-z
-x,-y,-z
1/2+x,y,1/2-z
1/2-x,1/2+y,1/2+z
x,1/2-y,z
loop_
_atom_site_type_symbol
_atom_site_label
_atom_site_fract_x
_atom_site_fract_y
_atom_site_fract_z
Si Si1 0.233552 0.577783 0.853619
Si Si2 0.840433 0.574949 0.745341
Si Si3 0.062304 0.070926 0.353245
Si Si4 0.619050 0.429222 0.003260
Si Si5 0.435458 0.074023 0.130792
Si Si6 0.826337 0.075716 0.284816
Si Si7 0.242705 0.927760 0.495345
Si Si8 0.725816 0.572318 0.365828
O O1 0.228917 0.750000 0.880618
O O2 0.293584 0.551060 0.815459
O O3 0.183056 0.537897 0.798192
O O4 0.227980 0.468238 0.920690
O O5 0.843737 0.750000 0.767800
O O6 0.899896 0.513135 0.713134
O O7 0.825487 0.479015 0.814882
O O8 0.067417 0.250000 0.355580
O O9 0.087014 0.007635 0.427177
O O10 0.997275 0.018819 0.342753
O O11 0.626885 0.250000 0.005176
O O12 0.581297 0.475080 0.936439
O O13 0.680458 0.502673 0.998332
O O14 0.436451 0.250000 0.108241
O O15 0.391811 0.046440 0.195492
O O16 0.808114 0.250000 0.298899
O O17 0.786864 0.972008 0.333588
O O18 0.237832 0.750000 0.503676
O O19 0.281960 0.993194 0.558072
O O20 0.723276 0.750000 0.376400
#
# Coordination Sequence:
#
# PCOD8251115 Si02
#       8
#     8   8   8   8   8   8   8   8
#     4   9  17  31  49  68  95 127 157 195 245 291
#     4   9  17  33  51  69  97 130 161 198 243 287
#     4   9  18  32  50  70  98 134 170 201 236 281
#     4  11  20  32  46  67  99 135 168 202 239 277
#     4  10  19  32  50  72  97 133 172 201 232 282
#     4   9  18  32  49  70  98 128 160 198 242 286
#     4  12  22  32  48  71  96 127 164 202 244 295
#     4  11  21  32  49  71  96 124 160 202 247 295
#
# _framework density 16.331242
#
# number of rings (size 3 to 8) (size 9 to 14) (size 15 to 20)
#    0.000    2.000    2.500    3.750    0.000    2.000 
#    0.000    1.250    0.000    0.000    0.000    0.875 
#    0.000    0.000    0.000    0.000    0.000    0.000 
#
# Total GULP energy -793615.870858 kJ/mol
# GULP energy per Si atom -12400.247982 kJ/mol
# Density = 1.629407 g / cm^3
# Si number density = 16.331242 Si / 1000 Ang^3
#
#
#
# Elastic Constant Matrix: (Units=GPa)
#
#
# Indices 1 2 3 4 5 6 
#
# 1 89.6959 24.8867 52.1379 0.0000 0.0000 0.0000
# 2 24.8867 79.3121 39.9467 0.0000 0.0000 0.0000
# 3 52.1379 39.9467 99.1910 0.0000 0.0000 0.0000
# 4 0.0000 0.0000 0.0000 27.0498 0.0000 0.0000
# 5 0.0000 0.0000 0.0000 0.0000 23.5190 0.0000
# 6 0.0000 0.0000 0.0000 0.0000 0.0000 16.1291
#
#
#
# Elastic Compliance Matrix: (Units=1/GPa)
#
#
# Indices 1 2 3 4 5 6 
#
# 1 0.016116 -0.000991 -0.008072 0.000000 0.000000 0.000000
# 2 -0.000991 0.015878 -0.005873 0.000000 0.000000 0.000000
# 3 -0.008072 -0.005873 0.016690 0.000000 0.000000 0.000000
# 4 0.000000 0.000000 0.000000 0.036969 0.000000 0.000000
# 5 0.000000 0.000000 0.000000 0.000000 0.042519 0.000000
# 6 0.000000 0.000000 0.000000 0.000000 0.000000 0.062000
#
#
# Mechanical properties :
#
#
# Convention : Reuss Voigt Hill
#
# Bulk Modulus (GPa) = 53.16218 55.79351 54.47784
# Shear Modulus (GPa) = 22.09330 23.42143 22.75736
#
# Velocity S-wave (km/s) = 3.68207 3.79112 3.73699
# Velocity P-wave (km/s) = 7.12039 7.30762 7.21461
#
# Compressibility (1/GPa) = 0.01881036
#
# Stress axis : x y z
#
# Youngs Moduli (GPa) = 62.05135 62.98170 59.91770
#
# Poissons Ratio (x) = 0.06244 0.48363
# Poissons Ratio (y) = 0.06152 0.35191
# Poissons Ratio (z) = 0.50086 0.36990
#
# Static dielectric constant tensor:
#      x y z
#    x 3.106670 0.000000 0.000000 
#    y 0.000000 2.981520 0.000000 
#    z 0.000000 0.000000 3.240290 
# 
# 
# High freq. dielectric constant tensor:
#      x y z
#    x 1.603900 0.000000 0.000000 
#    y 0.000000 1.621080 0.000000 
#    z 0.000000 0.000000 1.625180 
# 
# From -- ./inp_files/24971.got.cif
#   From: 2010.03.12/outbox.cif.g09.slc.cpg/sg62_13_cif.got.tgz:24971.got - 2010.04.10 19:12:36.
