data_PCOD8251707
_publ_section_title
;
Structure prediction by ZEFSAII (Michael W. Deem and Ramdas Pophale) SiO2 
 PCOD8251707
Probable space group: P N M A
;
_chemical_formula_sum "Si O2"
_cell_formula_units_Z 64
_cell_length_a 10.077095
_cell_length_b 9.484010
_cell_length_c 32.359883
_cell_angle_alpha 90.000000
_cell_angle_beta 90.000000
_cell_angle_gamma 90.000000
_cell_volume 3092.675107
_symmetry_space_group_name_H-M "P N M A"
_symmetry_group_IT_number 62
_symmetry_cell_setting 'orthorhombic'
loop_
_space_group_symop_operation_xyz
x,y,z
1/2-x,-y,1/2+z
1/2+x,1/2-y,1/2-z
-x,1/2+y,-z
-x,-y,-z
1/2+x,y,1/2-z
1/2-x,1/2+y,1/2+z
x,1/2-y,z
loop_
_atom_site_type_symbol
_atom_site_label
_atom_site_fract_x
_atom_site_fract_y
_atom_site_fract_z
Si Si1 0.674137 0.588638 0.362680
Si Si2 0.166493 0.907123 0.985224
Si Si3 0.338427 0.909485 0.060205
Si Si4 0.282081 0.407390 0.865823
Si Si5 0.823659 0.086284 0.209317
Si Si6 0.959471 0.595390 0.076321
Si Si7 0.921356 0.910754 0.572852
Si Si8 0.129357 0.412376 0.216012
O O1 0.642267 0.750000 0.350246
O O2 0.804483 0.578479 0.391189
O O3 0.553713 0.522391 0.389624
O O4 0.691609 0.500055 0.321408
O O5 0.108614 0.750000 0.981830
O O6 0.298927 0.918768 0.957994
O O7 0.052851 0.010325 0.966788
O O8 0.207146 0.945642 0.032531
O O9 0.385070 0.750000 0.049279
O O10 0.454338 0.018529 0.049443
O O11 0.331653 0.250000 0.852350
O O12 0.208758 0.485130 0.828550
O O13 0.183961 0.389187 0.903980
O O14 0.399998 0.504123 0.883957
O O15 0.811224 0.250000 0.195970
O O16 0.717059 0.048328 0.244373
O O17 0.974066 0.052895 0.224432
O O18 0.018937 0.750000 0.065186
O O19 0.955176 0.750000 0.584591
O O20 0.147523 0.250000 0.204349
#
# Coordination Sequence:
#
# PCOD8251707 Si02
#       8
#     8   8   8   8   8   8   8   8
#     4  10  21  38  57  79 111 148 186 232 284 336
#     4   9  19  34  53  79 109 146 189 236 286 334
#     4  10  21  36  53  77 113 150 188 238 289 336
#     4  10  19  34  58  84 109 143 185 225 273 332
#     4  10  21  38  59  85 115 148 186 234 284 338
#     4   9  18  33  54  79 108 142 183 229 275 328
#     4  10  20  34  54  80 112 149 190 234 280 338
#     4  10  22  39  60  85 116 151 189 234 288 344
#
# _framework density 20.69406
#
# number of rings (size 3 to 8) (size 9 to 14) (size 15 to 20)
#    0.000    2.250    1.250    1.125    0.000    4.500 
#    0.000    1.250    0.000    0.000    0.000    0.000 
#    0.000    0.000    0.000    0.000    0.000    0.000 
#
# Total GULP energy -793475.062404 kJ/mol
# GULP energy per Si atom -12398.047850 kJ/mol
# Density = 2.064696 g / cm^3
# Si number density = 20.694060 Si / 1000 Ang^3
#
#
#
# Elastic Constant Matrix: (Units=GPa)
#
#
# Indices 1 2 3 4 5 6 
#
# 1 21.3264 8.5267 10.7946 0.0000 0.0000 0.0000
# 2 8.5267 91.0097 46.0404 0.0000 0.0000 0.0000
# 3 10.7946 46.0404 103.0799 0.0000 0.0000 0.0000
# 4 0.0000 0.0000 0.0000 31.6125 0.0000 0.0000
# 5 0.0000 0.0000 0.0000 0.0000 27.4854 0.0000
# 6 0.0000 0.0000 0.0000 0.0000 0.0000 22.9666
#
#
#
# Elastic Compliance Matrix: (Units=1/GPa)
#
#
# Indices 1 2 3 4 5 6 
#
# 1 0.049997 -0.002630 -0.004061 0.000000 0.000000 0.000000
# 2 -0.002630 0.014334 -0.006127 0.000000 0.000000 0.000000
# 3 -0.004061 -0.006127 0.012863 0.000000 0.000000 0.000000
# 4 0.000000 0.000000 0.000000 0.031633 0.000000 0.000000
# 5 0.000000 0.000000 0.000000 0.000000 0.036383 0.000000
# 6 0.000000 0.000000 0.000000 0.000000 0.000000 0.043542
#
#
# Mechanical properties :
#
#
# Convention : Reuss Voigt Hill
#
# Bulk Modulus (GPa) = 19.39538 38.45993 28.92766
# Shear Modulus (GPa) = 21.59147 26.41651 24.00399
#
# Velocity S-wave (km/s) = 3.23362 3.57673 3.40949
# Velocity P-wave (km/s) = 4.83058 5.97350 5.43218
#
# Compressibility (1/GPa) = 0.05155867
#
# Stress axis : x y z
#
# Youngs Moduli (GPa) = 20.00107 69.76603 77.74254
#
# Poissons Ratio (x) = 0.18347 0.31573
# Poissons Ratio (y) = 0.05260 0.47630
# Poissons Ratio (z) = 0.08123 0.42743
#
# Static dielectric constant tensor:
#      x y z
#    x 3.662870 0.000000 0.000000 
#    y 0.000000 3.909470 0.000000 
#    z 0.000000 0.000000 3.656390 
# 
# 
# High freq. dielectric constant tensor:
#      x y z
#    x 1.810280 0.000000 0.000000 
#    y 0.000000 1.805370 0.000000 
#    z 0.000000 0.000000 1.805070 
# 
# From -- ./inp_files/32486.got.cif
#   From: 2010.03.12/outbox.cif.g09.slc.cpg/sg62_17_cif.got.tgz:32486.got - 2010.04.10 19:12:36.
