data_PCOD8251100
_publ_section_title
;
Structure prediction by ZEFSAII (Michael W. Deem and Ramdas Pophale) SiO2 
 PCOD8251100
Probable space group: P N M A
;
_chemical_formula_sum "Si O2"
_cell_formula_units_Z 40
_cell_length_a 5.411368
_cell_length_b 28.442784
_cell_length_c 11.997808
_cell_angle_alpha 90.000000
_cell_angle_beta 90.000000
_cell_angle_gamma 90.000000
_cell_volume 1846.635074
_symmetry_space_group_name_H-M "P N M A"
_symmetry_group_IT_number 62
_symmetry_cell_setting 'orthorhombic'
loop_
_space_group_symop_operation_xyz
x,y,z
1/2-x,-y,1/2+z
1/2+x,1/2-y,1/2-z
-x,1/2+y,-z
-x,-y,-z
1/2+x,y,1/2-z
1/2-x,1/2+y,1/2+z
x,1/2-y,z
loop_
_atom_site_type_symbol
_atom_site_label
_atom_site_fract_x
_atom_site_fract_y
_atom_site_fract_z
Si Si1 0.999999 0.936812 0.986082
Si Si2 0.499998 0.658601 0.383200
Si Si3 0.999999 0.963141 0.599075
Si Si4 0.500000 0.037504 0.714787
Si Si5 0.499998 0.804406 0.138162
O O1 0.999999 0.895727 0.080731
O O2 0.999999 0.979214 0.082719
O O3 0.248683 0.932310 0.912890
O O4 0.751317 0.932310 0.912890
O O5 0.249510 0.683216 0.431380
O O6 0.499998 0.664106 0.249745
O O7 0.750486 0.683216 0.431380
O O8 0.999999 0.988233 0.718175
O O9 0.000000 0.000000 0.500000
O O10 0.250000 0.065609 0.750000
O O11 0.499999 0.750000 0.172335
#
# Coordination Sequence:
#
# PCOD8251100 Si02
#       5
#     8   8   8   8   8
#     4  12  24  37  51  77 104 133 189 232 251 306
#     4  10  20  30  50  68  98 134 164 220 250 278
#     4  12  23  37  52  73 101 132 179 242 265 304
#     4  12  23  35  57  70  97 137 181 231 273 303
#     4  10  19  32  49  73  98 129 178 201 235 318
#
# _framework density 21.661019
#
# number of rings (size 3 to 8) (size 9 to 14) (size 15 to 20)
#    0.000    0.800    4.000    6.000    5.600    0.000 
#    0.000    0.000    0.000    0.000    0.000    0.000 
#    0.000    0.000    0.000    0.000    0.000  412.000 
#
# Total GULP energy -495576.115168 kJ/mol
# GULP energy per Si atom -12389.402879 kJ/mol
# Density = 2.161172 g / cm^3
# Si number density = 21.661019 Si / 1000 Ang^3
#
#
#
# Elastic Constant Matrix: (Units=GPa)
#
#
# Indices 1 2 3 4 5 6 
#
# 1 281.7587 38.2634 22.1218 0.0000 0.0000 0.0000
# 2 38.2634 47.2698 24.1762 0.0000 0.0000 0.0000
# 3 22.1218 24.1762 59.7818 0.0000 0.0000 0.0000
# 4 0.0000 0.0000 0.0000 7.8265 0.0000 0.0000
# 5 0.0000 0.0000 0.0000 0.0000 27.6603 0.0000
# 6 0.0000 0.0000 0.0000 0.0000 0.0000 18.6109
#
#
#
# Elastic Compliance Matrix: (Units=1/GPa)
#
#
# Indices 1 2 3 4 5 6 
#
# 1 0.003990 -0.003120 -0.000215 0.000000 0.000000 0.000000
# 2 -0.003120 0.029111 -0.010618 0.000000 0.000000 0.000000
# 3 -0.000215 -0.010618 0.021101 0.000000 0.000000 0.000000
# 4 0.000000 0.000000 0.000000 0.127771 0.000000 0.000000
# 5 0.000000 0.000000 0.000000 0.000000 0.036153 0.000000
# 6 0.000000 0.000000 0.000000 0.000000 0.000000 0.053732
#
#
# Mechanical properties :
#
#
# Convention : Reuss Voigt Hill
#
# Bulk Modulus (GPa) = 38.02798 61.99256 50.01027
# Shear Modulus (GPa) = 16.20594 31.10280 23.65437
#
# Velocity S-wave (km/s) = 2.73822 3.79342 3.30816
# Velocity P-wave (km/s) = 5.25273 6.91869 6.14245
#
# Compressibility (1/GPa) = 0.02629642
#
# Stress axis : x y z
#
# Youngs Moduli (GPa) = 250.64827 34.35094 47.39079
#
# Poissons Ratio (x) = 0.10716 0.01018
# Poissons Ratio (y) = 0.78194 0.50322
# Poissons Ratio (z) = 0.05382 0.36475
#
# Static dielectric constant tensor:
#      x y z
#    x 5.729640 0.000000 0.000000 
#    y 0.000000 3.633410 0.000000 
#    z 0.000000 0.000000 3.739990 
# 
# 
# High freq. dielectric constant tensor:
#      x y z
#    x 1.915690 0.000000 0.000000 
#    y 0.000000 1.802000 0.000000 
#    z 0.000000 0.000000 1.790350 
# 
# From -- ./inp_files/16257.got.cif
#   From: 2010.03.12/outbox.cif.g09.slc.cpg/sg62_9_cif.got.tgz:16257.got - 2010.04.10 19:12:36.
