data_PCOD8251672
_publ_section_title
;
Structure prediction by ZEFSAII (Michael W. Deem and Ramdas Pophale) SiO2 
 PCOD8251672
Probable space group: P N M A
;
_chemical_formula_sum "Si O2"
_cell_formula_units_Z 64
_cell_length_a 16.619896
_cell_length_b 8.737601
_cell_length_c 21.563841
_cell_angle_alpha 90.000000
_cell_angle_beta 90.000000
_cell_angle_gamma 90.000000
_cell_volume 3131.458292
_symmetry_space_group_name_H-M "P N M A"
_symmetry_group_IT_number 62
_symmetry_cell_setting 'orthorhombic'
loop_
_space_group_symop_operation_xyz
x,y,z
1/2-x,-y,1/2+z
1/2+x,1/2-y,1/2-z
-x,1/2+y,-z
-x,-y,-z
1/2+x,y,1/2-z
1/2-x,1/2+y,1/2+z
x,1/2-y,z
loop_
_atom_site_type_symbol
_atom_site_label
_atom_site_fract_x
_atom_site_fract_y
_atom_site_fract_z
Si Si1 0.222302 0.077806 0.657439
Si Si2 0.636969 0.428492 0.402975
Si Si3 0.528436 0.069247 0.140409
Si Si4 0.098273 0.423906 0.549958
Si Si5 0.662950 0.570417 0.071295
Si Si6 0.825609 0.073331 0.033690
Si Si7 0.922394 0.929908 0.259484
Si Si8 0.041439 0.573684 0.866895
O O1 0.250306 0.250000 0.673199
O O2 0.177451 0.073016 0.591809
O O3 0.162512 0.014969 0.710911
O O4 0.300767 0.970438 0.652156
O O5 0.640804 0.250000 0.418145
O O6 0.660180 0.519982 0.464116
O O7 0.549006 0.479204 0.380848
O O8 0.522908 0.250000 0.136985
O O9 0.476501 0.994359 0.085886
O O10 0.620099 0.012591 0.129919
O O11 0.496977 0.014116 0.207316
O O12 0.077771 0.250000 0.530166
O O13 0.114732 0.526345 0.490444
O O14 0.659634 0.750000 0.081910
O O15 0.755134 0.518755 0.067613
O O16 0.800027 0.250000 0.032293
O O17 0.907357 0.045291 0.071378
O O18 0.932090 0.750000 0.271267
O O19 0.922124 0.969756 0.187365
O O20 0.044612 0.750000 0.845815
#
# Coordination Sequence:
#
# PCOD8251672 Si02
#       8
#     8   8   8   8   8   8   8   8
#     4   9  19  36  60  89 122 159 200 247 300 361
#     4  11  22  38  64  96 124 156 204 253 304 368
#     4  11  22  37  59  86 120 162 204 247 302 363
#     4  10  19  34  56  85 123 160 201 248 302 360
#     4  12  23  36  56  86 123 159 203 252 306 365
#     4  11  23  41  63  89 125 164 203 254 312 365
#     4  10  22  42  65  89 120 160 208 253 300 360
#     4  10  24  44  64  90 123 162 206 253 310 365
#
# _framework density 20.437763
#
# number of rings (size 3 to 8) (size 9 to 14) (size 15 to 20)
#    0.000    1.500    1.250    5.250    0.000    4.500 
#    2.250    0.000    0.000    0.000    0.000    0.000 
#    0.000    0.000    0.000    0.000    0.000    0.000 
#
# Total GULP energy -793886.816617 kJ/mol
# GULP energy per Si atom -12404.481510 kJ/mol
# Density = 2.039125 g / cm^3
# Si number density = 20.437763 Si / 1000 Ang^3
#
#
#
# Elastic Constant Matrix: (Units=GPa)
#
#
# Indices 1 2 3 4 5 6 
#
# 1 103.2088 43.6508 45.9773 0.0000 0.0000 0.0000
# 2 43.6508 82.8873 17.8606 0.0000 0.0000 0.0000
# 3 45.9773 17.8606 64.1574 0.0000 0.0000 0.0000
# 4 0.0000 0.0000 0.0000 33.2708 0.0000 0.0000
# 5 0.0000 0.0000 0.0000 0.0000 13.8208 0.0000
# 6 0.0000 0.0000 0.0000 0.0000 0.0000 26.6225
#
#
#
# Elastic Compliance Matrix: (Units=1/GPa)
#
#
# Indices 1 2 3 4 5 6 
#
# 1 0.017228 -0.006822 -0.010447 0.000000 0.000000 0.000000
# 2 -0.006822 0.015536 0.000564 0.000000 0.000000 0.000000
# 3 -0.010447 0.000564 0.022917 0.000000 0.000000 0.000000
# 4 0.000000 0.000000 0.000000 0.030056 0.000000 0.000000
# 5 0.000000 0.000000 0.000000 0.000000 0.072355 0.000000
# 6 0.000000 0.000000 0.000000 0.000000 0.000000 0.037562
#
#
# Mechanical properties :
#
#
# Convention : Reuss Voigt Hill
#
# Bulk Modulus (GPa) = 44.90347 51.69232 48.29789
# Shear Modulus (GPa) = 21.14276 24.26046 22.70161
#
# Velocity S-wave (km/s) = 3.21985 3.44908 3.33643
# Velocity P-wave (km/s) = 5.98680 6.41943 6.20688
#
# Compressibility (1/GPa) = 0.02227000
#
# Stress axis : x y z
#
# Youngs Moduli (GPa) = 58.04406 64.36821 43.63652
#
# Poissons Ratio (x) = 0.43910 0.45588
# Poissons Ratio (y) = 0.39596 -0.02460
# Poissons Ratio (z) = 0.60640 -0.03629
#
# Static dielectric constant tensor:
#      x y z
#    x 3.915470 0.000000 0.000000 
#    y 0.000000 3.695020 0.000000 
#    z 0.000000 0.000000 3.518050 
# 
# 
# High freq. dielectric constant tensor:
#      x y z
#    x 1.806490 0.000000 0.000000 
#    y 0.000000 1.804880 0.000000 
#    z 0.000000 0.000000 1.783100 
# 
# From -- ./inp_files/29796.got.cif
#   From: 2010.03.12/outbox.cif.g09.slc.cpg/sg62_15_cif.got.tgz:29796.got - 2010.04.10 19:12:36.
