data_PCOD8251514
_publ_section_title
;
Structure prediction by ZEFSAII (Michael W. Deem and Ramdas Pophale) SiO2 
 PCOD8251514
Probable space group: P N M A
;
_chemical_formula_sum "Si O2"
_cell_formula_units_Z 48
_cell_length_a 27.846797
_cell_length_b 9.149312
_cell_length_c 10.159042
_cell_angle_alpha 90.000000
_cell_angle_beta 90.000000
_cell_angle_gamma 90.000000
_cell_volume 2588.310907
_symmetry_space_group_name_H-M "P N M A"
_symmetry_group_IT_number 62
_symmetry_cell_setting 'orthorhombic'
loop_
_space_group_symop_operation_xyz
x,y,z
1/2-x,-y,1/2+z
1/2+x,1/2-y,1/2-z
-x,1/2+y,-z
-x,-y,-z
1/2+x,y,1/2-z
1/2-x,1/2+y,1/2+z
x,1/2-y,z
loop_
_atom_site_type_symbol
_atom_site_label
_atom_site_fract_x
_atom_site_fract_y
_atom_site_fract_z
Si Si1 0.454188 0.580922 0.848414
Si Si2 0.049364 0.080054 0.655037
Si Si3 0.147002 0.420395 0.239875
Si Si4 0.857091 0.423394 0.275051
Si Si5 0.190059 0.418470 0.962925
Si Si6 0.800976 0.418767 0.532837
O O1 0.467158 0.750000 0.825352
O O2 0.498339 0.483552 0.797917
O O3 0.407672 0.530674 0.766762
O O4 0.443234 0.550024 0.000893
O O5 0.051356 0.250000 0.690740
O O6 0.090797 0.997155 0.734437
O O7 0.153216 0.250000 0.267740
O O8 0.184118 0.498603 0.335767
O O9 0.159114 0.461172 0.090523
O O10 0.862534 0.250000 0.269716
O O11 0.825247 0.475684 0.153685
O O12 0.830975 0.476611 0.408093
O O13 0.181400 0.250000 0.922341
O O14 0.245373 0.447453 0.997080
O O15 0.812002 0.250000 0.556685
#
# Coordination Sequence:
#
# PCOD8251514 Si02
#       6
#     8   8   8   8   8   8
#     4   9  18  33  55  83 110 141 180 228 279 327
#     4  10  19  33  56  84 111 142 181 228 278 328
#     4  10  20  37  59  82 111 146 185 228 276 328
#     4  11  22  37  57  83 114 147 185 228 274 328
#     4  10  22  38  55  79 113 148 183 225 274 327
#     4  10  21  36  56  82 110 144 186 229 271 320
#
# _framework density 18.544912
#
# number of rings (size 3 to 8) (size 9 to 14) (size 15 to 20)
#    0.000    2.000    1.667    2.000    0.000    4.667 
#    0.000    0.833    0.000    0.000    0.000    0.000 
#    0.000    0.000    0.000    0.000    0.000    0.000 
#
# Total GULP energy -595441.995468 kJ/mol
# GULP energy per Si atom -12405.041572 kJ/mol
# Density = 1.850270 g / cm^3
# Si number density = 18.544912 Si / 1000 Ang^3
#
#
#
# Elastic Constant Matrix: (Units=GPa)
#
#
# Indices 1 2 3 4 5 6 
#
# 1 103.5583 44.8103 31.7523 0.0000 0.0000 0.0000
# 2 44.8103 70.1653 33.3069 0.0000 0.0000 0.0000
# 3 31.7523 33.3069 64.6713 0.0000 0.0000 0.0000
# 4 0.0000 0.0000 0.0000 26.2987 0.0000 0.0000
# 5 0.0000 0.0000 0.0000 0.0000 21.3339 0.0000
# 6 0.0000 0.0000 0.0000 0.0000 0.0000 34.5472
#
#
#
# Elastic Compliance Matrix: (Units=1/GPa)
#
#
# Indices 1 2 3 4 5 6 
#
# 1 0.013757 -0.007385 -0.002951 0.000000 0.000000 0.000000
# 2 -0.007385 0.022828 -0.008131 0.000000 0.000000 0.000000
# 3 -0.002951 -0.008131 0.021099 0.000000 0.000000 0.000000
# 4 0.000000 0.000000 0.000000 0.038025 0.000000 0.000000
# 5 0.000000 0.000000 0.000000 0.000000 0.046874 0.000000
# 6 0.000000 0.000000 0.000000 0.000000 0.000000 0.028946
#
#
# Mechanical properties :
#
#
# Convention : Reuss Voigt Hill
#
# Bulk Modulus (GPa) = 48.19181 50.90376 49.54778
# Shear Modulus (GPa) = 23.21492 25.00431 24.10962
#
# Velocity S-wave (km/s) = 3.54195 3.67592 3.60955
# Velocity P-wave (km/s) = 6.53989 6.74722 6.64436
#
# Compressibility (1/GPa) = 0.02075042
#
# Stress axis : x y z
#
# Youngs Moduli (GPa) = 72.69232 43.80584 47.39481
#
# Poissons Ratio (x) = 0.32349 0.13986
# Poissons Ratio (y) = 0.53681 0.38537
# Poissons Ratio (z) = 0.21451 0.35619
#
# Static dielectric constant tensor:
#      x y z
#    x 3.547940 0.000000 0.000000 
#    y 0.000000 3.364500 0.000000 
#    z 0.000000 0.000000 3.252890 
# 
# 
# High freq. dielectric constant tensor:
#      x y z
#    x 1.733960 0.000000 0.000000 
#    y 0.000000 1.719320 0.000000 
#    z 0.000000 0.000000 1.702020 
# 
# From -- ./inp_files/10204.got.cif
#   From: 2010.03.12/outbox.cif.g09.slc.cpg/sg62_6_cif.got.tgz:10204.got - 2010.04.10 19:12:36.
