data_PCOD8251809
_publ_section_title
;
Structure prediction by ZEFSAII (Michael W. Deem and Ramdas Pophale) SiO2 
 PCOD8251809
Probable space group: P N M A
;
_chemical_formula_sum "Si O2"
_cell_formula_units_Z 48
_cell_length_a 9.009530
_cell_length_b 16.454944
_cell_length_c 17.386799
_cell_angle_alpha 90.000000
_cell_angle_beta 90.000000
_cell_angle_gamma 90.000000
_cell_volume 2577.615757
_symmetry_space_group_name_H-M "P N M A"
_symmetry_group_IT_number 62
_symmetry_cell_setting 'orthorhombic'
loop_
_space_group_symop_operation_xyz
x,y,z
1/2-x,-y,1/2+z
1/2+x,1/2-y,1/2-z
-x,1/2+y,-z
-x,-y,-z
1/2+x,y,1/2-z
1/2-x,1/2+y,1/2+z
x,1/2-y,z
loop_
_atom_site_type_symbol
_atom_site_label
_atom_site_fract_x
_atom_site_fract_y
_atom_site_fract_z
Si Si1 0.272352 0.498339 0.915398
Si Si2 0.111589 0.159599 0.947846
Si Si3 0.339061 0.438180 0.577641
Si Si4 0.968995 0.447755 0.179897
Si Si5 0.199234 0.340887 0.124496
Si Si6 0.916734 0.488263 0.348190
O O1 0.216452 0.405047 0.903964
O O2 0.202038 0.556371 0.848322
O O3 0.448806 0.502467 0.907560
O O4 0.226294 0.530805 0.997896
O O5 0.147319 0.250000 0.916684
O O6 0.934271 0.144004 0.932619
O O7 0.142967 0.153855 0.037812
O O8 0.453946 0.503400 0.610426
O O9 0.198453 0.436702 0.636480
O O10 0.977631 0.493107 0.261501
O O11 0.059235 0.362768 0.180814
O O12 0.252469 0.250000 0.145285
O O13 0.336655 0.401570 0.138496
#
# Coordination Sequence:
#
# PCOD8251809 Si02
#       6
#     8   8   8   8   8   8
#     4  11  18  35  59  80 105 143 188 231 271 320
#     4  10  19  35  58  79 105 144 186 226 274 329
#     4  10  19  36  56  78 104 146 189 227 263 331
#     4  10  19  36  55  78 106 148 185 217 269 335
#     4  10  20  36  53  78 116 152 181 216 274 338
#     4  11  22  32  56  86 113 141 182 236 279 317
#
# _framework density 18.621860999999999
#
# number of rings (size 3 to 8) (size 9 to 14) (size 15 to 20)
#    0.000    1.667    5.000    3.500    0.000    0.667 
#    0.000    2.500    0.000   16.000    0.000    0.000 
#    0.000    0.000    0.000    0.000    0.000    0.000 
#
# Total GULP energy -594689.375030 kJ/mol
# GULP energy per Si atom -12389.361980 kJ/mol
# Density = 1.857948 g / cm^3
# Si number density = 18.621861 Si / 1000 Ang^3
#
#
#
# Elastic Constant Matrix: (Units=GPa)
#
#
# Indices 1 2 3 4 5 6 
#
# 1 108.1082 39.6681 17.0607 0.0000 0.0000 0.0000
# 2 39.6681 85.0333 12.8221 0.0000 0.0000 0.0000
# 3 17.0607 12.8221 71.0342 0.0000 0.0000 0.0000
# 4 0.0000 0.0000 0.0000 15.6795 0.0000 0.0000
# 5 0.0000 0.0000 0.0000 0.0000 27.9313 0.0000
# 6 0.0000 0.0000 0.0000 0.0000 0.0000 22.1028
#
#
#
# Elastic Compliance Matrix: (Units=1/GPa)
#
#
# Indices 1 2 3 4 5 6 
#
# 1 0.011386 -0.005036 -0.001826 0.000000 0.000000 0.000000
# 2 -0.005036 0.014317 -0.001375 0.000000 0.000000 0.000000
# 3 -0.001826 -0.001375 0.014764 0.000000 0.000000 0.000000
# 4 0.000000 0.000000 0.000000 0.063778 0.000000 0.000000
# 5 0.000000 0.000000 0.000000 0.000000 0.035802 0.000000
# 6 0.000000 0.000000 0.000000 0.000000 0.000000 0.045243
#
#
# Mechanical properties :
#
#
# Convention : Reuss Voigt Hill
#
# Bulk Modulus (GPa) = 41.67696 44.80861 43.24278
# Shear Modulus (GPa) = 23.83662 26.11770 24.97716
#
# Velocity S-wave (km/s) = 3.58164 3.74910 3.66632
# Velocity P-wave (km/s) = 6.28756 6.54642 6.41829
#
# Compressibility (1/GPa) = 0.02399407
#
# Stress axis : x y z
#
# Youngs Moduli (GPa) = 87.82662 69.84785 67.73090
#
# Poissons Ratio (x) = 0.35178 0.12365
# Poissons Ratio (y) = 0.44232 0.09311
# Poissons Ratio (z) = 0.16033 0.09602
#
# Static dielectric constant tensor:
#      x y z
#    x 3.759400 0.000000 0.000000 
#    y 0.000000 3.554170 0.000000 
#    z 0.000000 0.000000 3.361300 
# 
# 
# High freq. dielectric constant tensor:
#      x y z
#    x 1.733030 0.000000 0.000000 
#    y 0.000000 1.685600 0.000000 
#    z 0.000000 0.000000 1.721710 
# 
# From -- ./inp_files/22184.got.cif
#   From: 2010.03.12/outbox.cif.g09.slc.cpg/sg62_12_cif.got.tgz:22184.got - 2010.04.10 19:12:36.
