data_PCOD8251353
_publ_section_title
;
Structure prediction by ZEFSAII (Michael W. Deem and Ramdas Pophale) SiO2 
 PCOD8251353
Probable space group: P N M A
;
_chemical_formula_sum "Si O2"
_cell_formula_units_Z 64
_cell_length_a 14.814236
_cell_length_b 8.415800
_cell_length_c 25.268649
_cell_angle_alpha 90.000000
_cell_angle_beta 90.000000
_cell_angle_gamma 90.000000
_cell_volume 3150.334634
_symmetry_space_group_name_H-M "P N M A"
_symmetry_group_IT_number 62
_symmetry_cell_setting 'orthorhombic'
loop_
_space_group_symop_operation_xyz
x,y,z
1/2-x,-y,1/2+z
1/2+x,1/2-y,1/2-z
-x,1/2+y,-z
-x,-y,-z
1/2+x,y,1/2-z
1/2-x,1/2+y,1/2+z
x,1/2-y,z
loop_
_atom_site_type_symbol
_atom_site_label
_atom_site_fract_x
_atom_site_fract_y
_atom_site_fract_z
Si Si1 0.623218 0.067369 0.268702
Si Si2 0.353706 0.933301 0.088538
Si Si3 0.558786 0.066825 0.702370
Si Si4 0.861165 0.432932 0.659850
Si Si5 0.783430 0.937495 0.517601
Si Si6 0.817692 0.065675 0.116455
Si Si7 0.463708 0.936756 0.928660
Si Si8 0.177134 0.932207 0.701833
O O1 0.623492 0.250000 0.249811
O O2 0.716264 0.027441 0.298956
O O3 0.533346 0.034333 0.302638
O O4 0.616460 0.943340 0.221196
O O5 0.346313 0.750000 0.104313
O O6 0.445518 0.968957 0.055339
O O7 0.353137 0.034391 0.141794
O O8 0.274841 0.979764 0.045223
O O9 0.533889 0.250000 0.706657
O O10 0.607114 0.037068 0.646035
O O11 0.622149 0.026093 0.752992
O O12 0.845447 0.250000 0.643347
O O13 0.774700 0.541625 0.648183
O O14 0.947374 0.513168 0.632180
O O15 0.791856 0.750000 0.524937
O O16 0.699321 0.993258 0.554978
O O17 0.877431 0.008027 0.540175
O O18 0.845462 0.250000 0.118709
O O19 0.479006 0.750000 0.935521
O O20 0.158195 0.750000 0.714852
#
# Coordination Sequence:
#
# PCOD8251353 Si02
#       8
#     8   8   8   8   8   8   8   8
#     4  11  23  39  59  80 111 154 195 234 285 348
#     4  11  21  35  54  80 114 148 189 238 289 338
#     4  12  24  38  60  89 118 147 187 240 293 340
#     4  11  20  32  52  80 112 144 185 233 282 329
#     4   8  18  34  55  80 109 150 191 234 284 337
#     4  10  19  36  58  81 111 147 187 226 275 340
#     4  10  19  33  52  77 112 152 194 231 278 343
#     4  11  24  41  60  83 116 157 196 233 284 348
#
# _framework density 20.315303
#
# number of rings (size 3 to 8) (size 9 to 14) (size 15 to 20)
#    0.000    1.500    1.250    6.000    0.000    1.500 
#    0.000    6.875    0.000    0.750    0.000    0.000 
#    0.000    0.000    0.000    0.000    0.000    0.000 
#
# Total GULP energy -793083.944977 kJ/mol
# GULP energy per Si atom -12391.936640 kJ/mol
# Density = 2.026906 g / cm^3
# Si number density = 20.315303 Si / 1000 Ang^3
#
#
#
# Elastic Constant Matrix: (Units=GPa)
#
#
# Indices 1 2 3 4 5 6 
#
# 1 73.1100 13.0365 6.3587 0.0000 0.0000 0.0000
# 2 13.0365 67.4445 8.6426 0.0000 0.0000 0.0000
# 3 6.3587 8.6426 50.2997 0.0000 0.0000 0.0000
# 4 0.0000 0.0000 0.0000 22.9477 0.0000 0.0000
# 5 0.0000 0.0000 0.0000 0.0000 19.7083 0.0000
# 6 0.0000 0.0000 0.0000 0.0000 0.0000 20.6950
#
#
#
# Elastic Compliance Matrix: (Units=1/GPa)
#
#
# Indices 1 2 3 4 5 6 
#
# 1 0.014257 -0.002582 -0.001359 0.000000 0.000000 0.000000
# 2 -0.002582 0.015628 -0.002359 0.000000 0.000000 0.000000
# 3 -0.001359 -0.002359 0.020458 0.000000 0.000000 0.000000
# 4 0.000000 0.000000 0.000000 0.043577 0.000000 0.000000
# 5 0.000000 0.000000 0.000000 0.000000 0.050740 0.000000
# 6 0.000000 0.000000 0.000000 0.000000 0.000000 0.048321
#
#
# Mechanical properties :
#
#
# Convention : Reuss Voigt Hill
#
# Bulk Modulus (GPa) = 26.49402 27.43663 26.96532
# Shear Modulus (GPa) = 22.91887 23.52462 23.22174
#
# Velocity S-wave (km/s) = 3.36245 3.40660 3.38459
# Velocity P-wave (km/s) = 5.30514 5.38590 5.34567
#
# Compressibility (1/GPa) = 0.03774437
#
# Stress axis : x y z
#
# Youngs Moduli (GPa) = 70.14330 63.98657 48.88083
#
# Poissons Ratio (x) = 0.16519 0.06641
# Poissons Ratio (y) = 0.18108 0.11531
# Poissons Ratio (z) = 0.09530 0.15094
#
# Static dielectric constant tensor:
#      x y z
#    x 3.630850 0.000000 0.000000 
#    y 0.000000 3.477610 0.000000 
#    z 0.000000 0.000000 3.858620 
# 
# 
# High freq. dielectric constant tensor:
#      x y z
#    x 1.769000 0.000000 0.000000 
#    y 0.000000 1.789830 0.000000 
#    z 0.000000 0.000000 1.790440 
# 
# From -- ./inp_files/29817.got.cif
#   From: 2010.03.12/outbox.cif.g09.slc.cpg/sg62_15_cif.got.tgz:29817.got - 2010.04.10 19:12:36.
