data_PCOD8251852
_publ_section_title
;
Structure prediction by ZEFSAII (Michael W. Deem and Ramdas Pophale) SiO2 
 PCOD8251852
Probable space group: P N M A
;
_chemical_formula_sum "Si O2"
_cell_formula_units_Z 56
_cell_length_a 19.623341
_cell_length_b 9.016531
_cell_length_c 16.505519
_cell_angle_alpha 90.000000
_cell_angle_beta 90.000000
_cell_angle_gamma 90.000000
_cell_volume 2920.395132
_symmetry_space_group_name_H-M "P N M A"
_symmetry_group_IT_number 62
_symmetry_cell_setting 'orthorhombic'
loop_
_space_group_symop_operation_xyz
x,y,z
1/2-x,-y,1/2+z
1/2+x,1/2-y,1/2-z
-x,1/2+y,-z
-x,-y,-z
1/2+x,y,1/2-z
1/2-x,1/2+y,1/2+z
x,1/2-y,z
loop_
_atom_site_type_symbol
_atom_site_label
_atom_site_fract_x
_atom_site_fract_y
_atom_site_fract_z
Si Si1 0.799423 0.578902 0.072473
Si Si2 0.120853 0.420522 0.311878
Si Si3 0.247003 0.578047 0.250568
Si Si4 0.671367 0.422871 0.012291
Si Si5 0.145675 0.925105 0.647296
Si Si6 0.044701 0.424764 0.931473
Si Si7 0.476261 0.422411 0.263206
O O1 0.783967 0.750000 0.052789
O O2 0.787754 0.545371 0.166964
O O3 0.749216 0.479700 0.018575
O O4 0.876608 0.535056 0.051239
O O5 0.140971 0.250000 0.296259
O O6 0.169589 0.522365 0.257397
O O7 0.129995 0.460433 0.406208
O O8 0.043931 0.454566 0.287796
O O9 0.247147 0.750000 0.227557
O O10 0.282673 0.487265 0.179180
O O11 0.673079 0.250000 0.992983
O O12 0.631531 0.506462 0.940856
O O13 0.149253 0.750000 0.639531
O O14 0.085909 0.976220 0.707474
O O15 0.032992 0.250000 0.933399
O O16 0.021426 0.483350 0.844555
O O17 0.000000 0.500000 0.000000
O O18 0.469277 0.250000 0.286280
#
# Coordination Sequence:
#
# PCOD8251852 Si02
#       7
#     8   8   8   8   8   8   8
#     4   9  19  37  58  80 111 146 185 236 291 341
#     4   9  20  39  59  84 119 156 194 241 293 345
#     4  10  19  35  59  84 110 147 194 241 290 347
#     4  10  21  36  58  86 115 151 196 242 287 340
#     4  11  22  36  58  86 117 155 197 240 293 350
#     4  11  23  39  60  87 118 153 192 241 295 351
#     4  10  22  40  61  85 117 157 197 238 293 356
#
# _framework density 19.175487
#
# number of rings (size 3 to 8) (size 9 to 14) (size 15 to 20)
#    0.000    2.000    1.429    1.714    0.000    5.143 
#    0.000    1.429    0.000    0.000    0.000    0.000 
#    0.000    0.000    0.000    0.000    0.000    0.000 
#
# Total GULP energy -694680.037124 kJ/mol
# GULP energy per Si atom -12405.000663 kJ/mol
# Density = 1.913184 g / cm^3
# Si number density = 19.175487 Si / 1000 Ang^3
#
#
#
# Elastic Constant Matrix: (Units=GPa)
#
#
# Indices 1 2 3 4 5 6 
#
# 1 90.9126 46.3162 57.4150 0.0000 0.0000 0.0000
# 2 46.3162 85.2213 55.9025 0.0000 0.0000 0.0000
# 3 57.4150 55.9025 116.9210 0.0000 0.0000 0.0000
# 4 0.0000 0.0000 0.0000 38.2531 0.0000 0.0000
# 5 0.0000 0.0000 0.0000 0.0000 27.0481 0.0000
# 6 0.0000 0.0000 0.0000 0.0000 0.0000 29.2565
#
#
#
# Elastic Compliance Matrix: (Units=1/GPa)
#
#
# Indices 1 2 3 4 5 6 
#
# 1 0.017657 -0.005695 -0.005948 0.000000 0.000000 0.000000
# 2 -0.005695 0.018933 -0.006256 0.000000 0.000000 0.000000
# 3 -0.005948 -0.006256 0.014465 0.000000 0.000000 0.000000
# 4 0.000000 0.000000 0.000000 0.026142 0.000000 0.000000
# 5 0.000000 0.000000 0.000000 0.000000 0.036971 0.000000
# 6 0.000000 0.000000 0.000000 0.000000 0.000000 0.034180
#
#
# Mechanical properties :
#
#
# Convention : Reuss Voigt Hill
#
# Bulk Modulus (GPa) = 65.54055 68.03580 66.78817
# Shear Modulus (GPa) = 26.42283 27.80627 27.11455
#
# Velocity S-wave (km/s) = 3.71610 3.81214 3.76443
# Velocity P-wave (km/s) = 7.25714 7.41176 7.33486
#
# Compressibility (1/GPa) = 0.01525773
#
# Stress axis : x y z
#
# Youngs Moduli (GPa) = 56.63428 52.81876 69.13450
#
# Poissons Ratio (x) = 0.30079 0.41121
# Poissons Ratio (y) = 0.32251 0.43249
# Poissons Ratio (z) = 0.33686 0.33042
#
# Static dielectric constant tensor:
#      x y z
#    x 3.514760 0.000000 0.000000 
#    y 0.000000 3.547140 0.000000 
#    z 0.000000 0.000000 3.508660 
# 
# 
# High freq. dielectric constant tensor:
#      x y z
#    x 1.745920 0.000000 0.000000 
#    y 0.000000 1.751430 0.000000 
#    z 0.000000 0.000000 1.745890 
# 
# From -- ./inp_files/20301.got.cif
#   From: 2010.03.12/outbox.cif.g09.slc.cpg/sg62_11_cif.got.tgz:20301.got - 2010.04.10 19:12:36.
