data_PCOD8251761
_publ_section_title
;
Structure prediction by ZEFSAII (Michael W. Deem and Ramdas Pophale) SiO2 
 PCOD8251761
Probable space group: P N M A
;
_chemical_formula_sum "Si O2"
_cell_formula_units_Z 48
_cell_length_a 5.223036
_cell_length_b 15.412618
_cell_length_c 34.418813
_cell_angle_alpha 90.000000
_cell_angle_beta 90.000000
_cell_angle_gamma 90.000000
_cell_volume 2770.737117
_symmetry_space_group_name_H-M "P N M A"
_symmetry_group_IT_number 62
_symmetry_cell_setting 'orthorhombic'
loop_
_space_group_symop_operation_xyz
x,y,z
1/2-x,-y,1/2+z
1/2+x,1/2-y,1/2-z
-x,1/2+y,-z
-x,-y,-z
1/2+x,y,1/2-z
1/2-x,1/2+y,1/2+z
x,1/2-y,z
loop_
_atom_site_type_symbol
_atom_site_label
_atom_site_fract_x
_atom_site_fract_y
_atom_site_fract_z
Si Si1 0.227240 0.348256 0.404977
Si Si2 0.294753 0.850790 0.730418
Si Si3 0.232014 0.397231 0.141866
Si Si4 0.216229 0.075022 0.611372
Si Si5 0.722421 0.348053 0.588213
Si Si6 0.069067 0.996655 0.455400
O O1 0.227734 0.250000 0.421032
O O2 0.495023 0.367192 0.384242
O O3 0.997223 0.359419 0.374439
O O4 0.196199 0.413061 0.441537
O O5 0.040909 0.894590 0.748796
O O6 0.291655 0.750000 0.741017
O O7 0.310420 0.862193 0.684592
O O8 0.246169 0.502254 0.144323
O O9 0.457032 0.139149 0.610859
O O10 0.957309 0.131382 0.618026
O O11 0.185750 0.021982 0.570354
O O12 0.741152 0.250000 0.572586
O O13 0.736838 0.415357 0.551987
O O14 0.000000 0.000000 0.500000
#
# Coordination Sequence:
#
# PCOD8251761 Si02
#       6
#     8   8   8   8   8   8
#     4  11  21  34  52  75 100 144 185 211 255 308
#     4  10  20  31  47  76 108 140 174 207 248 300
#     4  11  19  37  54  73 107 143 177 216 249 301
#     4   9  19  35  54  75  97 135 171 218 258 311
#     4  10  19  35  54  74  99 128 169 220 272 313
#     4   9  21  36  52  72 107 133 174 221 268 309
#
# _framework density 17.323909
#
# number of rings (size 3 to 8) (size 9 to 14) (size 15 to 20)
#    1.000    1.000    1.667    3.000    0.000    2.667 
#    0.000    0.000    0.000    0.000    0.000    0.000 
#    0.000   13.333    0.000    0.000    0.000    0.000 
#
# Total GULP energy -594804.930645 kJ/mol
# GULP energy per Si atom -12391.769388 kJ/mol
# Density = 1.728448 g / cm^3
# Si number density = 17.323909 Si / 1000 Ang^3
#
#
#
# Elastic Constant Matrix: (Units=GPa)
#
#
# Indices 1 2 3 4 5 6 
#
# 1 118.4047 26.1902 12.5107 0.0000 0.0000 0.0000
# 2 26.1902 116.0859 9.7534 0.0000 0.0000 0.0000
# 3 12.5107 9.7534 46.9285 0.0000 0.0000 0.0000
# 4 0.0000 0.0000 0.0000 16.9816 0.0000 0.0000
# 5 0.0000 0.0000 0.0000 0.0000 18.4790 0.0000
# 6 0.0000 0.0000 0.0000 0.0000 0.0000 21.5291
#
#
#
# Elastic Compliance Matrix: (Units=1/GPa)
#
#
# Indices 1 2 3 4 5 6 
#
# 1 0.009075 -0.001877 -0.002029 0.000000 0.000000 0.000000
# 2 -0.001877 0.009156 -0.001402 0.000000 0.000000 0.000000
# 3 -0.002029 -0.001402 0.022141 0.000000 0.000000 0.000000
# 4 0.000000 0.000000 0.000000 0.058887 0.000000 0.000000
# 5 0.000000 0.000000 0.000000 0.000000 0.054115 0.000000
# 6 0.000000 0.000000 0.000000 0.000000 0.000000 0.046449
#
#
# Mechanical properties :
#
#
# Convention : Reuss Voigt Hill
#
# Bulk Modulus (GPa) = 33.60794 42.03642 37.82218
# Shear Modulus (GPa) = 22.69021 26.92893 24.80957
#
# Velocity S-wave (km/s) = 3.62299 3.94691 3.78841
# Velocity P-wave (km/s) = 6.07810 6.71480 6.40436
#
# Compressibility (1/GPa) = 0.02975487
#
# Stress axis : x y z
#
# Youngs Moduli (GPa) = 110.19052 109.22266 45.16407
#
# Poissons Ratio (x) = 0.20501 0.09165
# Poissons Ratio (y) = 0.20682 0.06334
# Poissons Ratio (z) = 0.22361 0.15318
#
# Static dielectric constant tensor:
#      x y z
#    x 3.490820 0.000000 0.000000 
#    y 0.000000 3.237020 0.000000 
#    z 0.000000 0.000000 2.777180 
# 
# 
# High freq. dielectric constant tensor:
#      x y z
#    x 1.691420 0.000000 0.000000 
#    y 0.000000 1.659830 0.000000 
#    z 0.000000 0.000000 1.621640 
# 
# From -- ./inp_files/31582.got.cif
#   From: 2010.03.12/outbox.cif.g09.slc.cpg/sg62_16_cif.got.tgz:31582.got - 2010.04.10 19:12:36.
