data_PCOD8251188
_publ_section_title
;
Structure prediction by ZEFSAII (Michael W. Deem and Ramdas Pophale) SiO2 
 PCOD8251188
Probable space group: P N M A
;
_chemical_formula_sum "Si O2"
_cell_formula_units_Z 48
_cell_length_a 18.383829
_cell_length_b 15.699042
_cell_length_c 8.887269
_cell_angle_alpha 90.000000
_cell_angle_beta 90.000000
_cell_angle_gamma 90.000000
_cell_volume 2564.941407
_symmetry_space_group_name_H-M "P N M A"
_symmetry_group_IT_number 62
_symmetry_cell_setting 'orthorhombic'
loop_
_space_group_symop_operation_xyz
x,y,z
1/2-x,-y,1/2+z
1/2+x,1/2-y,1/2-z
-x,1/2+y,-z
-x,-y,-z
1/2+x,y,1/2-z
1/2-x,1/2+y,1/2+z
x,1/2-y,z
loop_
_atom_site_type_symbol
_atom_site_label
_atom_site_fract_x
_atom_site_fract_y
_atom_site_fract_z
Si Si1 0.416863 0.653143 0.745705
Si Si2 0.350871 0.159436 0.949378
Si Si3 0.816482 0.845195 0.034844
Si Si4 0.835038 0.982076 0.590822
Si Si5 0.184730 0.995244 0.764549
Si Si6 0.416890 0.156038 0.265034
O O1 0.405817 0.750000 0.800760
O O2 0.365550 0.630598 0.606616
O O3 0.499492 0.636077 0.697817
O O4 0.394663 0.590752 0.882407
O O5 0.358672 0.250000 0.859309
O O6 0.268183 0.151117 0.013599
O O7 0.407235 0.160734 0.085787
O O8 0.365730 0.074833 0.849914
O O9 0.836239 0.750000 0.093409
O O10 0.834156 0.913260 0.164378
O O11 0.763198 0.961114 0.684933
O O12 0.819079 0.992195 0.414045
O O13 0.130489 0.922216 0.828421
O O14 0.395378 0.250000 0.332671
#
# Coordination Sequence:
#
# PCOD8251188 Si02
#       6
#     8   8   8   8   8   8
#     4  10  20  33  51  74 101 134 171 208 250 303
#     4   8  15  29  48  67  93 129 163 197 244 300
#     4   9  18  34  52  71  99 135 169 207 259 308
#     4  10  19  32  52  77 100 128 169 208 249 297
#     4  10  20  33  53  77 103 133 168 211 254 302
#     4   9  18  32  50  73 100 133 170 206 250 304
#
# _framework density 18.713878000000001
#
# number of rings (size 3 to 8) (size 9 to 14) (size 15 to 20)
#    0.000    2.667    0.000    3.000    0.000    6.000 
#    0.000    0.000    0.000    4.000    0.000    7.000 
#    0.000    0.000    0.000    0.000    0.000    0.000 
#
# Total GULP energy -594676.281802 kJ/mol
# GULP energy per Si atom -12389.089204 kJ/mol
# Density = 1.867128 g / cm^3
# Si number density = 18.713878 Si / 1000 Ang^3
#
#
#
# Elastic Constant Matrix: (Units=GPa)
#
#
# Indices 1 2 3 4 5 6 
#
# 1 38.4350 43.3827 5.8553 0.0000 0.0000 0.0000
# 2 43.3827 153.4249 31.4258 0.0000 0.0000 0.0000
# 3 5.8553 31.4258 38.7101 0.0000 0.0000 0.0000
# 4 0.0000 0.0000 0.0000 27.8690 0.0000 0.0000
# 5 0.0000 0.0000 0.0000 0.0000 13.8839 0.0000
# 6 0.0000 0.0000 0.0000 0.0000 0.0000 25.6232
#
#
#
# Elastic Compliance Matrix: (Units=1/GPa)
#
#
# Indices 1 2 3 4 5 6 
#
# 1 0.038635 -0.011668 0.003628 0.000000 0.000000 0.000000
# 2 -0.011668 0.011341 -0.007442 0.000000 0.000000 0.000000
# 3 0.003628 -0.007442 0.031326 0.000000 0.000000 0.000000
# 4 0.000000 0.000000 0.000000 0.035882 0.000000 0.000000
# 5 0.000000 0.000000 0.000000 0.000000 0.072026 0.000000
# 6 0.000000 0.000000 0.000000 0.000000 0.000000 0.039027
#
#
# Mechanical properties :
#
#
# Convention : Reuss Voigt Hill
#
# Bulk Modulus (GPa) = 19.86547 43.54419 31.70483
# Shear Modulus (GPa) = 18.11720 23.46897 20.79308
#
# Velocity S-wave (km/s) = 3.11483 3.54516 3.33694
# Velocity P-wave (km/s) = 4.85537 6.33060 5.64141
#
# Compressibility (1/GPa) = 0.05033860
#
# Stress axis : x y z
#
# Youngs Moduli (GPa) = 25.88346 88.17248 31.92215
#
# Poissons Ratio (x) = 1.02876 -0.11582
# Poissons Ratio (y) = 0.30200 0.23758
# Poissons Ratio (z) = -0.09391 0.65621
#
# Static dielectric constant tensor:
#      x y z
#    x 3.353130 0.000000 0.000000 
#    y 0.000000 4.143090 0.000000 
#    z 0.000000 0.000000 2.908620 
# 
# 
# High freq. dielectric constant tensor:
#      x y z
#    x 1.718460 0.000000 0.000000 
#    y 0.000000 1.761230 0.000000 
#    z 0.000000 0.000000 1.673070 
# 
# From -- ./inp_files/7673.got.cif
#   From: 2010.03.12/outbox.cif.g09.slc.cpg/sg62_4_cif.got.tgz:7673.got - 2010.04.10 19:12:36.
