data_PCOD8251260
_publ_section_title
;
Structure prediction by ZEFSAII (Michael W. Deem and Ramdas Pophale) SiO2 
 PCOD8251260
Probable space group: P N M A
;
_chemical_formula_sum "Si O2"
_cell_formula_units_Z 64
_cell_length_a 12.697641
_cell_length_b 9.209325
_cell_length_c 29.468922
_cell_angle_alpha 90.000000
_cell_angle_beta 90.000000
_cell_angle_gamma 90.000000
_cell_volume 3445.998571
_symmetry_space_group_name_H-M "P N M A"
_symmetry_group_IT_number 62
_symmetry_cell_setting 'orthorhombic'
loop_
_space_group_symop_operation_xyz
x,y,z
1/2-x,-y,1/2+z
1/2+x,1/2-y,1/2-z
-x,1/2+y,-z
-x,-y,-z
1/2+x,y,1/2-z
1/2-x,1/2+y,1/2+z
x,1/2-y,z
loop_
_atom_site_type_symbol
_atom_site_label
_atom_site_fract_x
_atom_site_fract_y
_atom_site_fract_z
Si Si1 0.611398 0.920053 0.580350
Si Si2 0.530791 0.577197 0.106393
Si Si3 0.210592 0.580430 0.464094
Si Si4 0.060796 0.584328 0.201123
Si Si5 0.665577 0.087886 0.665711
Si Si6 0.332427 0.419254 0.065927
Si Si7 0.885267 0.920211 0.887576
Si Si8 0.613351 0.582338 0.201815
O O1 0.623293 0.750000 0.572892
O O2 0.488154 0.967787 0.582808
O O3 0.676332 0.000271 0.540702
O O4 0.666395 0.967148 0.627038
O O5 0.520970 0.750000 0.104810
O O6 0.626160 0.527805 0.073420
O O7 0.421083 0.509559 0.091376
O O8 0.555311 0.518094 0.157199
O O9 0.234389 0.750000 0.460301
O O10 0.162882 0.540971 0.512964
O O11 0.102490 0.750000 0.199140
O O12 0.118611 0.498318 0.161031
O O13 0.081980 0.509780 0.250179
O O14 0.936110 0.576702 0.196608
O O15 0.675664 0.250000 0.643582
O O16 0.762443 0.057476 0.698480
O O17 0.353839 0.250000 0.074291
O O18 0.218135 0.464805 0.084802
O O19 0.891615 0.750000 0.877894
O O20 0.581756 0.750000 0.204331
#
# Coordination Sequence:
#
# PCOD8251260 Si02
#       8
#     8   8   8   8   8   8   8   8
#     4  10  19  32  54  79 103 134 177 222 260 307
#     4  10  20  35  55  79 108 138 175 223 267 310
#     4  10  20  36  57  80 106 140 177 218 271 319
#     4   9  18  31  53  80 101 135 181 217 260 319
#     4   9  16  31  51  71 103 139 169 211 266 314
#     4  10  22  38  55  76 109 148 179 213 266 326
#     4   9  20  38  53  73 110 146 173 217 272 314
#     4   9  17  31  52  79 106 133 172 222 268 309
#
# _framework density 18.572265999999999
#
# number of rings (size 3 to 8) (size 9 to 14) (size 15 to 20)
#    0.000    2.500    1.250    0.750    0.000    3.500 
#    0.000    3.750    0.000    3.000    0.000    0.000 
#    0.000    0.000    0.000    0.000    0.000    0.000 
#
# Total GULP energy -793404.380478 kJ/mol
# GULP energy per Si atom -12396.943445 kJ/mol
# Density = 1.853000 g / cm^3
# Si number density = 18.572266 Si / 1000 Ang^3
#
#
#
# Elastic Constant Matrix: (Units=GPa)
#
#
# Indices 1 2 3 4 5 6 
#
# 1 101.0314 33.3581 37.7578 0.0000 0.0000 0.0000
# 2 33.3581 35.7434 24.2783 0.0000 0.0000 0.0000
# 3 37.7578 24.2783 82.7297 0.0000 0.0000 0.0000
# 4 0.0000 0.0000 0.0000 23.3692 0.0000 0.0000
# 5 0.0000 0.0000 0.0000 0.0000 26.2327 0.0000
# 6 0.0000 0.0000 0.0000 0.0000 0.0000 27.2200
#
#
#
# Elastic Compliance Matrix: (Units=1/GPa)
#
#
# Indices 1 2 3 4 5 6 
#
# 1 0.015047 -0.011713 -0.003430 0.000000 0.000000 0.000000
# 2 -0.011713 0.044060 -0.007584 0.000000 0.000000 0.000000
# 3 -0.003430 -0.007584 0.015879 0.000000 0.000000 0.000000
# 4 0.000000 0.000000 0.000000 0.042791 0.000000 0.000000
# 5 0.000000 0.000000 0.000000 0.000000 0.038120 0.000000
# 6 0.000000 0.000000 0.000000 0.000000 0.000000 0.036738
#
#
# Mechanical properties :
#
#
# Convention : Reuss Voigt Hill
#
# Bulk Modulus (GPa) = 33.86266 45.58810 39.72538
# Shear Modulus (GPa) = 20.16662 23.63841 21.90252
#
# Velocity S-wave (km/s) = 3.29879 3.57147 3.43784
# Velocity P-wave (km/s) = 5.72555 6.45034 6.09872
#
# Compressibility (1/GPa) = 0.02953105
#
# Stress axis : x y z
#
# Youngs Moduli (GPa) = 66.45737 22.69622 62.97708
#
# Poissons Ratio (x) = 0.26584 0.21602
# Poissons Ratio (y) = 0.77843 0.47764
# Poissons Ratio (z) = 0.22796 0.17213
#
# Static dielectric constant tensor:
#      x y z
#    x 3.518850 0.000000 0.000000 
#    y 0.000000 3.226520 0.000000 
#    z 0.000000 0.000000 3.520370 
# 
# 
# High freq. dielectric constant tensor:
#      x y z
#    x 1.727600 0.000000 0.000000 
#    y 0.000000 1.695360 0.000000 
#    z 0.000000 0.000000 1.721390 
# 
# From -- ./inp_files/32586.got.cif
#   From: 2010.03.12/outbox.cif.g09.slc.cpg/sg62_17_cif.got.tgz:32586.got - 2010.04.10 19:12:36.
