data_PCOD8251196
_publ_section_title
;
Structure prediction by ZEFSAII (Michael W. Deem and Ramdas Pophale) SiO2 
 PCOD8251196
Probable space group: P N M A
;
_chemical_formula_sum "Si O2"
_cell_formula_units_Z 56
_cell_length_a 19.726985
_cell_length_b 8.914516
_cell_length_c 17.328549
_cell_angle_alpha 90.000000
_cell_angle_beta 90.000000
_cell_angle_gamma 90.000000
_cell_volume 3047.338383
_symmetry_space_group_name_H-M "P N M A"
_symmetry_group_IT_number 62
_symmetry_cell_setting 'orthorhombic'
loop_
_space_group_symop_operation_xyz
x,y,z
1/2-x,-y,1/2+z
1/2+x,1/2-y,1/2-z
-x,1/2+y,-z
-x,-y,-z
1/2+x,y,1/2-z
1/2-x,1/2+y,1/2+z
x,1/2-y,z
loop_
_atom_site_type_symbol
_atom_site_label
_atom_site_fract_x
_atom_site_fract_y
_atom_site_fract_z
Si Si1 0.187820 0.073298 0.077561
Si Si2 0.566383 0.426455 0.535690
Si Si3 0.109224 0.573933 0.205385
Si Si4 0.532272 0.573350 0.684700
Si Si5 0.909763 0.425330 0.620942
Si Si6 0.834314 0.428014 0.471447
Si Si7 0.450049 0.426279 0.141661
O O1 0.190040 0.250000 0.094410
O O2 0.259422 0.010762 0.046342
O O3 0.173140 0.987120 0.157548
O O4 0.131704 0.031321 0.014395
O O5 0.500000 0.500000 0.500000
O O6 0.555248 0.250000 0.540661
O O7 0.579282 0.493179 0.621142
O O8 0.098577 0.750000 0.191762
O O9 0.121698 0.536615 0.295442
O O10 0.043832 0.486465 0.174343
O O11 0.531475 0.750000 0.669977
O O12 0.561151 0.530526 0.768779
O O13 0.922413 0.250000 0.611299
O O14 0.858110 0.485489 0.555715
O O15 0.982083 0.501584 0.608232
O O16 0.832726 0.250000 0.470296
O O17 0.886142 0.488043 0.406290
O O18 0.458498 0.250000 0.131884
#
# Coordination Sequence:
#
# PCOD8251196 Si02
#       7
#     8   8   8   8   8   8   8
#     4  10  21  36  54  73 101 143 180 210 258 319
#     4  11  21  33  53  78 102 136 178 221 261 308
#     4  10  19  32  52  78 105 133 169 216 264 307
#     4  10  19  32  52  79 106 133 170 214 262 312
#     4   9  18  33  56  81 105 135 173 217 263 311
#     4   9  18  36  56  76 105 141 178 213 260 320
#     4   9  18  33  56  81 105 136 174 217 261 310
#
# _framework density 18.376693
#
# number of rings (size 3 to 8) (size 9 to 14) (size 15 to 20)
#    0.000    2.286    1.429    1.714    0.000    1.714 
#    2.571    1.429    0.000    0.000    0.000    0.000 
#    0.000    0.000    0.000    0.000    0.000    0.000 
#
# Total GULP energy -694453.303886 kJ/mol
# GULP energy per Si atom -12400.951855 kJ/mol
# Density = 1.833487 g / cm^3
# Si number density = 18.376693 Si / 1000 Ang^3
#
#
#
# Elastic Constant Matrix: (Units=GPa)
#
#
# Indices 1 2 3 4 5 6 
#
# 1 143.4926 38.5970 89.9333 0.0000 0.0000 0.0000
# 2 38.5970 45.6211 39.3449 0.0000 0.0000 0.0000
# 3 89.9333 39.3449 148.0033 0.0000 0.0000 0.0000
# 4 0.0000 0.0000 0.0000 24.2607 0.0000 0.0000
# 5 0.0000 0.0000 0.0000 0.0000 28.3798 0.0000
# 6 0.0000 0.0000 0.0000 0.0000 0.0000 21.2774
#
#
#
# Elastic Compliance Matrix: (Units=1/GPa)
#
#
# Indices 1 2 3 4 5 6 
#
# 1 0.012091 -0.005051 -0.006004 0.000000 0.000000 0.000000
# 2 -0.005051 0.030550 -0.005052 0.000000 0.000000 0.000000
# 3 -0.006004 -0.005052 0.011748 0.000000 0.000000 0.000000
# 4 0.000000 0.000000 0.000000 0.041219 0.000000 0.000000
# 5 0.000000 0.000000 0.000000 0.000000 0.035236 0.000000
# 6 0.000000 0.000000 0.000000 0.000000 0.000000 0.046998
#
#
# Mechanical properties :
#
#
# Convention : Reuss Voigt Hill
#
# Bulk Modulus (GPa) = 45.09730 74.76307 59.93019
# Shear Modulus (GPa) = 22.99397 26.06636 24.53016
#
# Velocity S-wave (km/s) = 3.54115 3.77031 3.65753
# Velocity P-wave (km/s) = 6.42755 7.72824 7.10771
#
# Compressibility (1/GPa) = 0.02217428
#
# Stress axis : x y z
#
# Youngs Moduli (GPa) = 82.70847 32.73306 85.12093
#
# Poissons Ratio (x) = 0.16534 0.51107
# Poissons Ratio (y) = 0.41776 0.43004
# Poissons Ratio (z) = 0.49659 0.16537
#
# Static dielectric constant tensor:
#      x y z
#    x 3.384190 0.000000 0.000000 
#    y 0.000000 3.254800 0.000000 
#    z 0.000000 0.000000 3.813600 
# 
# 
# High freq. dielectric constant tensor:
#      x y z
#    x 1.692280 0.000000 0.000000 
#    y 0.000000 1.700840 0.000000 
#    z 0.000000 0.000000 1.730700 
# 
# From -- ./inp_files/24573.got.cif
#   From: 2010.03.12/outbox.cif.g09.slc.cpg/sg62_13_cif.got.tgz:24573.got - 2010.04.10 19:12:36.
