data_PCOD8251473
_publ_section_title
;
Structure prediction by ZEFSAII (Michael W. Deem and Ramdas Pophale) SiO2 
 PCOD8251473
Probable space group: P N M A
;
_chemical_formula_sum "Si O2"
_cell_formula_units_Z 64
_cell_length_a 16.621051
_cell_length_b 9.218192
_cell_length_c 21.381645
_cell_angle_alpha 90.000000
_cell_angle_beta 90.000000
_cell_angle_gamma 90.000000
_cell_volume 3276.010962
_symmetry_space_group_name_H-M "P N M A"
_symmetry_group_IT_number 62
_symmetry_cell_setting 'orthorhombic'
loop_
_space_group_symop_operation_xyz
x,y,z
1/2-x,-y,1/2+z
1/2+x,1/2-y,1/2-z
-x,1/2+y,-z
-x,-y,-z
1/2+x,y,1/2-z
1/2-x,1/2+y,1/2+z
x,1/2-y,z
loop_
_atom_site_type_symbol
_atom_site_label
_atom_site_fract_x
_atom_site_fract_y
_atom_site_fract_z
Si Si1 0.952973 0.414350 0.892782
Si Si2 0.540708 0.917869 0.825233
Si Si3 0.914225 0.076777 0.184410
Si Si4 0.284566 0.581216 0.387389
Si Si5 0.789943 0.416943 0.371145
Si Si6 0.665641 0.079320 0.474521
Si Si7 0.884859 0.418298 0.659672
Si Si8 0.818817 0.411149 0.788276
O O1 0.980760 0.250000 0.910445
O O2 0.914173 0.493498 0.953030
O O3 0.885829 0.409021 0.840617
O O4 0.027284 0.506438 0.867231
O O5 0.519078 0.750000 0.822163
O O6 0.560882 0.972020 0.754573
O O7 0.614848 0.948250 0.872659
O O8 0.466170 0.998389 0.857951
O O9 0.914486 0.250000 0.178021
O O10 0.826045 0.013824 0.167269
O O11 0.301735 0.750000 0.373489
O O12 0.318092 0.533787 0.454572
O O13 0.188163 0.552871 0.388484
O O14 0.772598 0.250000 0.358513
O O15 0.744720 0.467369 0.434325
O O16 0.756898 0.496709 0.310012
O O17 0.649452 0.250000 0.467267
O O18 0.907510 0.250000 0.663724
O O19 0.856564 0.480847 0.726504
O O20 0.787315 0.250000 0.772820
#
# Coordination Sequence:
#
# PCOD8251473 Si02
#       8
#     8   8   8   8   8   8   8   8
#     4  10  19  33  55  81 109 141 176 219 266 317
#     4  10  21  35  53  81 111 139 173 216 269 324
#     4  11  22  35  54  82 113 141 175 219 272 329
#     4  10  22  38  56  78 106 144 184 223 267 317
#     4   9  18  33  54  77 103 137 176 218 262 311
#     4   9  19  37  57  77 106 144 186 224 263 313
#     4  10  20  35  54  77 107 141 176 217 270 321
#     4   9  17  30  50  77 104 132 169 212 264 316
#
# _framework density 19.535954
#
# number of rings (size 3 to 8) (size 9 to 14) (size 15 to 20)
#    0.000    2.250    1.250    1.500    0.000    3.500 
#    0.000    0.625    0.000    0.000    0.000    0.000 
#    0.000    0.000    0.000    0.000    0.000    0.000 
#
# Total GULP energy -793466.600545 kJ/mol
# GULP energy per Si atom -12397.915634 kJ/mol
# Density = 1.949149 g / cm^3
# Si number density = 19.535954 Si / 1000 Ang^3
#
#
#
# Elastic Constant Matrix: (Units=GPa)
#
#
# Indices 1 2 3 4 5 6 
#
# 1 93.6811 37.0878 10.3028 0.0000 0.0000 0.0000
# 2 37.0878 59.1141 13.9391 0.0000 0.0000 0.0000
# 3 10.3028 13.9391 45.2123 0.0000 0.0000 0.0000
# 4 0.0000 0.0000 0.0000 19.4990 0.0000 0.0000
# 5 0.0000 0.0000 0.0000 0.0000 22.1237 0.0000
# 6 0.0000 0.0000 0.0000 0.0000 0.0000 35.5454
#
#
#
# Elastic Compliance Matrix: (Units=1/GPa)
#
#
# Indices 1 2 3 4 5 6 
#
# 1 0.014214 -0.008793 -0.000528 0.000000 0.000000 0.000000
# 2 -0.008793 0.023682 -0.005298 0.000000 0.000000 0.000000
# 3 -0.000528 -0.005298 0.023871 0.000000 0.000000 0.000000
# 4 0.000000 0.000000 0.000000 0.051285 0.000000 0.000000
# 5 0.000000 0.000000 0.000000 0.000000 0.045200 0.000000
# 6 0.000000 0.000000 0.000000 0.000000 0.000000 0.028133
#
#
# Mechanical properties :
#
#
# Convention : Reuss Voigt Hill
#
# Bulk Modulus (GPa) = 30.74078 35.62966 33.18522
# Shear Modulus (GPa) = 22.07832 24.54547 23.31190
#
# Velocity S-wave (km/s) = 3.36540 3.54845 3.45814
# Velocity P-wave (km/s) = 5.55616 5.92168 5.74183
#
# Compressibility (1/GPa) = 0.03253008
#
# Stress axis : x y z
#
# Youngs Moduli (GPa) = 70.35463 42.22559 41.89099
#
# Poissons Ratio (x) = 0.37129 0.02212
# Poissons Ratio (y) = 0.61863 0.22192
# Poissons Ratio (z) = 0.03715 0.22370
#
# Static dielectric constant tensor:
#      x y z
#    x 3.646940 0.000000 0.000000 
#    y 0.000000 3.597340 0.000000 
#    z 0.000000 0.000000 3.474870 
# 
# 
# High freq. dielectric constant tensor:
#      x y z
#    x 1.766690 0.000000 0.000000 
#    y 0.000000 1.752950 0.000000 
#    z 0.000000 0.000000 1.744180 
# 
# From -- ./inp_files/27731.got.cif
#   From: 2010.03.12/outbox.cif.g09.slc.cpg/sg62_14_cif.got.tgz:27731.got - 2010.04.10 19:12:36.
