data_PCOD8251784
_publ_section_title
;
Structure prediction by ZEFSAII (Michael W. Deem and Ramdas Pophale) SiO2 
 PCOD8251784
Probable space group: P N M A
;
_chemical_formula_sum "Si O2"
_cell_formula_units_Z 56
_cell_length_a 10.991263
_cell_length_b 11.706634
_cell_length_c 23.161047
_cell_angle_alpha 90.000000
_cell_angle_beta 90.000000
_cell_angle_gamma 90.000000
_cell_volume 2980.147971
_symmetry_space_group_name_H-M "P N M A"
_symmetry_group_IT_number 62
_symmetry_cell_setting 'orthorhombic'
loop_
_space_group_symop_operation_xyz
x,y,z
1/2-x,-y,1/2+z
1/2+x,1/2-y,1/2-z
-x,1/2+y,-z
-x,-y,-z
1/2+x,y,1/2-z
1/2-x,1/2+y,1/2+z
x,1/2-y,z
loop_
_atom_site_type_symbol
_atom_site_label
_atom_site_fract_x
_atom_site_fract_y
_atom_site_fract_z
Si Si1 0.832478 0.496347 0.396344
Si Si2 0.905528 0.501978 0.747337
Si Si3 0.044812 0.121127 0.973156
Si Si4 0.098352 0.622095 0.135768
Si Si5 0.436908 0.118614 0.869850
Si Si6 0.171883 0.878083 0.486810
Si Si7 0.154760 0.879549 0.718792
O O1 0.695897 0.542046 0.396147
O O2 0.872381 0.453657 0.459359
O O3 0.847265 0.393662 0.350475
O O4 0.918829 0.599466 0.375634
O O5 0.931239 0.415052 0.799387
O O6 0.884724 0.439172 0.687084
O O7 0.777061 0.563887 0.756472
O O8 0.027082 0.578610 0.745889
O O9 0.991983 0.250000 0.993967
O O10 0.021513 0.113814 0.904263
O O11 0.184733 0.126352 0.986632
O O12 0.000000 0.000000 0.000000
O O13 0.149676 0.750000 0.138765
O O14 0.404741 0.250000 0.864719
O O15 0.373900 0.065525 0.927070
O O16 0.117806 0.750000 0.493303
O O17 0.165547 0.750000 0.736453
#
# Coordination Sequence:
#
# PCOD8251784 Si02
#       7
#     8   8   8   8   8   8   8
#     4  10  19  35  57  79 109 143 186 229 278 341
#     4  10  22  37  59  83 113 148 187 236 279 344
#     4  10  20  36  57  81 114 148 189 240 288 342
#     4  10  20  35  57  83 111 146 187 234 286 339
#     4  10  21  36  55  82 112 145 182 229 282 337
#     4  10  20  34  55  80 111 147 184 230 283 340
#     4  10  21  38  58  81 110 148 190 234 284 337
#
# _framework density 18.791014000000001
#
# number of rings (size 3 to 8) (size 9 to 14) (size 15 to 20)
#    0.000    2.000    1.429    2.143    2.000    0.000 
#    0.000    2.143    0.000    3.429    0.000    0.000 
#    0.000    0.000    0.000    0.000    0.000    0.000 
#
# Total GULP energy -693796.979436 kJ/mol
# GULP energy per Si atom -12389.231776 kJ/mol
# Density = 1.874824 g / cm^3
# Si number density = 18.791014 Si / 1000 Ang^3
#
#
#
# Elastic Constant Matrix: (Units=GPa)
#
#
# Indices 1 2 3 4 5 6 
#
# 1 69.9610 24.7454 31.5226 0.0000 0.0000 0.0000
# 2 24.7454 95.1735 54.4129 0.0000 0.0000 0.0000
# 3 31.5226 54.4129 148.9852 0.0000 0.0000 0.0000
# 4 0.0000 0.0000 0.0000 22.4403 0.0000 0.0000
# 5 0.0000 0.0000 0.0000 0.0000 28.4865 0.0000
# 6 0.0000 0.0000 0.0000 0.0000 0.0000 16.3304
#
#
#
# Elastic Compliance Matrix: (Units=1/GPa)
#
#
# Indices 1 2 3 4 5 6 
#
# 1 0.016403 -0.002882 -0.002418 0.000000 0.000000 0.000000
# 2 -0.002882 0.013787 -0.004425 0.000000 0.000000 0.000000
# 3 -0.002418 -0.004425 0.008840 0.000000 0.000000 0.000000
# 4 0.000000 0.000000 0.000000 0.044563 0.000000 0.000000
# 5 0.000000 0.000000 0.000000 0.000000 0.035104 0.000000
# 6 0.000000 0.000000 0.000000 0.000000 0.000000 0.061236
#
#
# Mechanical properties :
#
#
# Convention : Reuss Voigt Hill
#
# Bulk Modulus (GPa) = 51.07766 59.49794 55.28780
# Shear Modulus (GPa) = 24.28260 27.01402 25.64831
#
# Velocity S-wave (km/s) = 3.59868 3.79569 3.69850
# Velocity P-wave (km/s) = 6.67145 7.13732 6.90832
#
# Compressibility (1/GPa) = 0.01957803
#
# Stress axis : x y z
#
# Youngs Moduli (GPa) = 60.96603 72.53399 113.12389
#
# Poissons Ratio (x) = 0.20907 0.27351
# Poissons Ratio (y) = 0.17573 0.50061
# Poissons Ratio (z) = 0.14740 0.32099
#
# Static dielectric constant tensor:
#      x y z
#    x 3.385990 0.000000 0.000000 
#    y 0.000000 3.701640 0.000000 
#    z 0.000000 0.000000 3.587120 
# 
# 
# High freq. dielectric constant tensor:
#      x y z
#    x 1.728590 0.000000 0.000000 
#    y 0.000000 1.729030 0.000000 
#    z 0.000000 0.000000 1.736370 
# 
# From -- ./inp_files/26608.got.cif
#   From: 2010.03.12/outbox.cif.g09.slc.cpg/sg62_14_cif.got.tgz:26608.got - 2010.04.10 19:12:36.
