data_PCOD8251737
_publ_section_title
;
Structure prediction by ZEFSAII (Michael W. Deem and Ramdas Pophale) SiO2 
 PCOD8251737
Probable space group: P N M A
;
_chemical_formula_sum "Si O2"
_cell_formula_units_Z 40
_cell_length_a 10.295359
_cell_length_b 8.942852
_cell_length_c 20.496443
_cell_angle_alpha 90.000000
_cell_angle_beta 90.000000
_cell_angle_gamma 90.000000
_cell_volume 1887.104880
_symmetry_space_group_name_H-M "P N M A"
_symmetry_group_IT_number 62
_symmetry_cell_setting 'orthorhombic'
loop_
_space_group_symop_operation_xyz
x,y,z
1/2-x,-y,1/2+z
1/2+x,1/2-y,1/2-z
-x,1/2+y,-z
-x,-y,-z
1/2+x,y,1/2-z
1/2-x,1/2+y,1/2+z
x,1/2-y,z
loop_
_atom_site_type_symbol
_atom_site_label
_atom_site_fract_x
_atom_site_fract_y
_atom_site_fract_z
Si Si1 0.898497 0.576206 0.953457
Si Si2 0.853306 0.571870 0.274266
Si Si3 0.988259 0.411460 0.601376
Si Si4 0.827378 0.588173 0.516015
Si Si5 0.915158 0.928742 0.804020
O O1 0.920849 0.750000 0.957185
O O2 0.759024 0.535286 0.981270
O O3 0.911069 0.520821 0.879292
O O4 0.000000 0.500000 0.000000
O O5 0.842795 0.750000 0.263591
O O6 0.710010 0.499480 0.267164
O O7 0.908992 0.529018 0.345704
O O8 0.951470 0.498380 0.222732
O O9 0.932710 0.250000 0.625419
O O10 0.872097 0.529467 0.587998
O O11 0.051662 0.385899 0.531115
O O12 0.757429 0.750000 0.526620
O O13 0.913531 0.750000 0.794934
#
# Coordination Sequence:
#
# PCOD8251737 Si02
#       5
#     8   8   8   8   8
#     4  11  24  41  63  89 123 163 205 256 314 373
#     4  11  23  42  68  95 128 171 216 265 318 381
#     4   9  19  35  58  89 120 154 199 247 301 362
#     4  10  19  34  59  89 121 155 198 248 301 362
#     4  11  25  44  66  95 129 168 214 266 322 380
#
# _framework density 21.196490000000001
#
# number of rings (size 3 to 8) (size 9 to 14) (size 15 to 20)
#    0.000    1.600    2.000    2.400    0.000    6.400 
#    0.000    0.000    0.000    0.000    0.000    0.000 
#    0.000    0.000    0.000    0.000    0.000    0.000 
#
# Total GULP energy -495791.734293 kJ/mol
# GULP energy per Si atom -12394.793357 kJ/mol
# Density = 2.114825 g / cm^3
# Si number density = 21.196490 Si / 1000 Ang^3
#
#
#
# Elastic Constant Matrix: (Units=GPa)
#
#
# Indices 1 2 3 4 5 6 
#
# 1 107.5190 47.8748 41.9431 0.0000 0.0000 0.0000
# 2 47.8748 80.8140 29.1305 0.0000 0.0000 0.0000
# 3 41.9431 29.1305 46.2341 0.0000 0.0000 0.0000
# 4 0.0000 0.0000 0.0000 29.2558 0.0000 0.0000
# 5 0.0000 0.0000 0.0000 0.0000 37.6951 0.0000
# 6 0.0000 0.0000 0.0000 0.0000 0.0000 38.7270
#
#
#
# Elastic Compliance Matrix: (Units=1/GPa)
#
#
# Indices 1 2 3 4 5 6 
#
# 1 0.016102 -0.005529 -0.011124 0.000000 0.000000 0.000000
# 2 -0.005529 0.017909 -0.006268 0.000000 0.000000 0.000000
# 3 -0.011124 -0.006268 0.035670 0.000000 0.000000 0.000000
# 4 0.000000 0.000000 0.000000 0.034181 0.000000 0.000000
# 5 0.000000 0.000000 0.000000 0.000000 0.026529 0.000000
# 6 0.000000 0.000000 0.000000 0.000000 0.000000 0.025822
#
#
# Mechanical properties :
#
#
# Convention : Reuss Voigt Hill
#
# Bulk Modulus (GPa) = 41.94818 52.49600 47.22209
# Shear Modulus (GPa) = 23.80950 28.84350 26.32650
#
# Velocity S-wave (km/s) = 3.35517 3.69286 3.52806
# Velocity P-wave (km/s) = 5.90277 6.55767 6.23882
#
# Compressibility (1/GPa) = 0.02383893
#
# Stress axis : x y z
#
# Youngs Moduli (GPa) = 62.10379 55.83804 28.03512
#
# Poissons Ratio (x) = 0.30874 0.31186
# Poissons Ratio (y) = 0.34339 0.17572
# Poissons Ratio (z) = 0.69083 0.34998
#
# Static dielectric constant tensor:
#      x y z
#    x 3.749580 0.000000 0.000000 
#    y 0.000000 4.425330 0.000000 
#    z 0.000000 0.000000 4.355990 
# 
# 
# High freq. dielectric constant tensor:
#      x y z
#    x 1.822550 0.000000 0.000000 
#    y 0.000000 1.845210 0.000000 
#    z 0.000000 0.000000 1.825580 
# 
# From -- ./inp_files/26446.got.cif
#   From: 2010.03.12/outbox.cif.g09.slc.cpg/sg62_14_cif.got.tgz:26446.got - 2010.04.10 19:12:36.
