data_PCOD8251741
_publ_section_title
;
Structure prediction by ZEFSAII (Michael W. Deem and Ramdas Pophale) SiO2 
 PCOD8251741
Probable space group: P N M A
;
_chemical_formula_sum "Si O2"
_cell_formula_units_Z 64
_cell_length_a 15.911374
_cell_length_b 21.091802
_cell_length_c 8.720944
_cell_angle_alpha 90.000000
_cell_angle_beta 90.000000
_cell_angle_gamma 90.000000
_cell_volume 2926.744882
_symmetry_space_group_name_H-M "P N M A"
_symmetry_group_IT_number 62
_symmetry_cell_setting 'orthorhombic'
loop_
_space_group_symop_operation_xyz
x,y,z
1/2-x,-y,1/2+z
1/2+x,1/2-y,1/2-z
-x,1/2+y,-z
-x,-y,-z
1/2+x,y,1/2-z
1/2-x,1/2+y,1/2+z
x,1/2-y,z
loop_
_atom_site_type_symbol
_atom_site_label
_atom_site_fract_x
_atom_site_fract_y
_atom_site_fract_z
Si Si1 0.598253 0.405975 0.432359
Si Si2 0.497357 0.320426 0.017227
Si Si3 0.907187 0.674962 0.227266
Si Si4 0.202123 0.992048 0.898807
Si Si5 0.245582 0.410337 0.662787
Si Si6 0.171273 0.180621 0.305617
Si Si7 0.069510 0.899770 0.771774
Si Si8 0.159819 0.820286 0.998110
O O1 0.570412 0.356486 0.564901
O O2 0.637329 0.470466 0.494054
O O3 0.668913 0.371703 0.328233
O O4 0.518925 0.427802 0.330007
O O5 0.458468 0.250000 0.040740
O O6 0.588848 0.324008 0.091848
O O7 0.437194 0.372735 0.097741
O O8 0.510728 0.333656 0.835983
O O9 0.884263 0.750000 0.211734
O O10 0.831343 0.636311 0.304880
O O11 0.258697 0.040292 0.800911
O O12 0.144757 0.950353 0.782354
O O13 0.264589 0.949715 0.002375
O O14 0.330674 0.367755 0.644209
O O15 0.176137 0.250000 0.227366
O O16 0.251555 0.171222 0.411869
O O17 0.086148 0.839958 0.883679
O O18 0.141997 0.750000 0.058322
#
# Coordination Sequence:
#
# PCOD8251741 Si02
#       8
#     8   8   8   8   8   8   8   8
#     4  10  21  36  57  83 117 152 191 235 281 345
#     4   9  17  32  56  81 109 144 182 229 282 342
#     4  10  19  35  60  87 114 143 189 241 294 344
#     4  10  23  37  57  79 115 153 201 234 285 335
#     4  10  21  37  56  85 110 152 188 244 285 335
#     4   9  17  31  57  85 107 142 187 231 283 344
#     4  10  21  36  55  82 117 152 194 232 282 342
#     4  10  19  34  60  87 113 143 189 243 299 347
#
# _framework density 21.867298000000002
#
# number of rings (size 3 to 8) (size 9 to 14) (size 15 to 20)
#    0.000    2.250    1.250    1.500    3.500    1.500 
#    0.000    5.000    0.000    0.000    0.000    0.000 
#    0.000    0.000    0.000    0.000    0.000    0.000 
#
# Total GULP energy -793143.200565 kJ/mol
# GULP energy per Si atom -12392.862509 kJ/mol
# Density = 2.181753 g / cm^3
# Si number density = 21.867298 Si / 1000 Ang^3
#
#
#
# Elastic Constant Matrix: (Units=GPa)
#
#
# Indices 1 2 3 4 5 6 
#
# 1 24.4560 -3.7808 -8.7498 0.0000 0.0000 0.0000
# 2 -3.7808 100.8191 14.6740 0.0000 0.0000 0.0000
# 3 -8.7498 14.6740 48.9202 0.0000 0.0000 0.0000
# 4 0.0000 0.0000 0.0000 33.8629 0.0000 0.0000
# 5 0.0000 0.0000 0.0000 0.0000 26.3028 0.0000
# 6 0.0000 0.0000 0.0000 0.0000 0.0000 16.2506
#
#
#
# Elastic Compliance Matrix: (Units=1/GPa)
#
#
# Indices 1 2 3 4 5 6 
#
# 1 0.043712 0.000524 0.007661 0.000000 0.000000 0.000000
# 2 0.000524 0.010378 -0.003019 0.000000 0.000000 0.000000
# 3 0.007661 -0.003019 0.022717 0.000000 0.000000 0.000000
# 4 0.000000 0.000000 0.000000 0.029531 0.000000 0.000000
# 5 0.000000 0.000000 0.000000 0.000000 0.038019 0.000000
# 6 0.000000 0.000000 0.000000 0.000000 0.000000 0.061536
#
#
# Mechanical properties :
#
#
# Convention : Reuss Voigt Hill
#
# Bulk Modulus (GPa) = 11.47595 19.83135 15.65365
# Shear Modulus (GPa) = 22.26110 26.75337 24.50724
#
# Velocity S-wave (km/s) = 3.19409 3.50157 3.35136
# Velocity P-wave (km/s) = 4.34308 5.04347 4.70632
#
# Compressibility (1/GPa) = 0.08713873
#
# Stress axis : x y z
#
# Youngs Moduli (GPa) = 22.87720 96.35912 44.01934
#
# Poissons Ratio (x) = -0.05051 -0.33723
# Poissons Ratio (y) = -0.01199 0.13290
# Poissons Ratio (z) = -0.17526 0.29092
#
# Static dielectric constant tensor:
#      x y z
#    x 3.602530 0.000000 0.000000 
#    y 0.000000 4.239640 0.000000 
#    z 0.000000 0.000000 4.011530 
# 
# 
# High freq. dielectric constant tensor:
#      x y z
#    x 1.829250 0.000000 0.000000 
#    y 0.000000 1.875010 0.000000 
#    z 0.000000 0.000000 1.851570 
# 
# From -- ./inp_files/8108.got.cif
#   From: 2010.03.12/outbox.cif.g09.slc.cpg/sg62_5_cif.got.tgz:8108.got - 2010.04.10 19:12:36.
