data_PCOD8251900
_publ_section_title
;
Structure prediction by ZEFSAII (Michael W. Deem and Ramdas Pophale) SiO2 
 PCOD8251900
Probable space group: P N M A
;
_chemical_formula_sum "Si O2"
_cell_formula_units_Z 64
_cell_length_a 23.872478
_cell_length_b 8.529522
_cell_length_c 15.501855
_cell_angle_alpha 90.000000
_cell_angle_beta 90.000000
_cell_angle_gamma 90.000000
_cell_volume 3156.500524
_symmetry_space_group_name_H-M "P N M A"
_symmetry_group_IT_number 62
_symmetry_cell_setting 'orthorhombic'
loop_
_space_group_symop_operation_xyz
x,y,z
1/2-x,-y,1/2+z
1/2+x,1/2-y,1/2-z
-x,1/2+y,-z
-x,-y,-z
1/2+x,y,1/2-z
1/2-x,1/2+y,1/2+z
x,1/2-y,z
loop_
_atom_site_type_symbol
_atom_site_label
_atom_site_fract_x
_atom_site_fract_y
_atom_site_fract_z
Si Si1 0.133733 0.436582 0.585837
Si Si2 0.251584 0.566541 0.836693
Si Si3 0.130778 0.564816 0.087275
Si Si4 0.144107 0.432843 0.908761
Si Si5 0.249636 0.934162 0.151235
Si Si6 0.435214 0.934751 0.249796
Si Si7 0.627822 0.064230 0.103268
Si Si8 0.943218 0.933985 0.763286
O O1 0.135511 0.250000 0.590842
O O2 0.197318 0.500283 0.597707
O O3 0.093431 0.497408 0.661795
O O4 0.111261 0.496622 0.492742
O O5 0.254418 0.750000 0.817128
O O6 0.202193 0.528713 0.903745
O O7 0.238924 0.473882 0.749962
O O8 0.309932 0.504375 0.875209
O O9 0.132498 0.750000 0.074225
O O10 0.190905 0.494345 0.117971
O O11 0.083767 0.523494 0.156624
O O12 0.113970 0.482946 0.997387
O O13 0.157588 0.250000 0.907847
O O14 0.104325 0.478752 0.829548
O O15 0.245886 0.750000 0.140783
O O16 0.448081 0.750000 0.246537
O O17 0.491544 0.031395 0.261263
O O18 0.626968 0.250000 0.102656
O O19 0.584413 0.000608 0.174557
O O20 0.932020 0.750000 0.773898
#
# Coordination Sequence:
#
# PCOD8251900 Si02
#       8
#     8   8   8   8   8   8   8   8
#     4   9  17  35  60  84 115 154 193 232 284 349
#     4  11  20  34  59  90 124 156 193 237 291 354
#     4  11  23  39  63  91 119 155 199 243 298 359
#     4  11  23  40  61  88 121 156 198 243 297 356
#     4  10  19  35  60  88 119 156 193 234 290 352
#     4  10  22  40  61  83 111 155 202 246 292 349
#     4   9  19  35  58  87 119 156 192 233 294 352
#     4  11  23  40  60  85 118 155 197 250 301 350
#
# _framework density 20.275618999999999
#
# number of rings (size 3 to 8) (size 9 to 14) (size 15 to 20)
#    0.000    1.750    2.500    2.250    0.000    4.500 
#    0.000    0.000    0.000    3.750    0.000    0.000 
#    0.000    0.000    0.000    0.000    0.000    0.000 
#
# Total GULP energy -793701.564023 kJ/mol
# GULP energy per Si atom -12401.586938 kJ/mol
# Density = 2.022947 g / cm^3
# Si number density = 20.275619 Si / 1000 Ang^3
#
#
#
# Elastic Constant Matrix: (Units=GPa)
#
#
# Indices 1 2 3 4 5 6 
#
# 1 116.0338 25.7214 44.7610 0.0000 0.0000 0.0000
# 2 25.7214 17.8431 22.9263 0.0000 0.0000 0.0000
# 3 44.7610 22.9263 147.2679 0.0000 0.0000 0.0000
# 4 0.0000 0.0000 0.0000 24.3110 0.0000 0.0000
# 5 0.0000 0.0000 0.0000 0.0000 15.9601 0.0000
# 6 0.0000 0.0000 0.0000 0.0000 0.0000 22.0581
#
#
#
# Elastic Compliance Matrix: (Units=1/GPa)
#
#
# Indices 1 2 3 4 5 6 
#
# 1 0.012855 -0.016889 -0.001278 0.000000 0.000000 0.000000
# 2 -0.016889 0.092246 -0.009227 0.000000 0.000000 0.000000
# 3 -0.001278 -0.009227 0.008615 0.000000 0.000000 0.000000
# 4 0.000000 0.000000 0.000000 0.041134 0.000000 0.000000
# 5 0.000000 0.000000 0.000000 0.000000 0.062656 0.000000
# 6 0.000000 0.000000 0.000000 0.000000 0.000000 0.045335
#
#
# Mechanical properties :
#
#
# Convention : Reuss Voigt Hill
#
# Bulk Modulus (GPa) = 16.96992 51.99579 34.48285
# Shear Modulus (GPa) = 14.82485 24.98159 19.90322
#
# Velocity S-wave (km/s) = 2.70694 3.51394 3.13650
# Velocity P-wave (km/s) = 4.26120 6.49337 5.49189
#
# Compressibility (1/GPa) = 0.05892781
#
# Stress axis : x y z
#
# Youngs Moduli (GPa) = 77.79119 10.84060 116.07298
#
# Poissons Ratio (x) = 0.18308 0.14834
# Poissons Ratio (y) = 1.31380 1.07105
# Poissons Ratio (z) = 0.09941 0.10003
#
# Static dielectric constant tensor:
#      x y z
#    x 3.713110 0.000000 0.000000 
#    y 0.000000 3.319680 0.000000 
#    z 0.000000 0.000000 3.941330 
# 
# 
# High freq. dielectric constant tensor:
#      x y z
#    x 1.790100 0.000000 0.000000 
#    y 0.000000 1.763450 0.000000 
#    z 0.000000 0.000000 1.808830 
# 
# From -- ./inp_files/20806.got.cif
#   From: 2010.03.12/outbox.cif.g09.slc.cpg/sg62_11_cif.got.tgz:20806.got - 2010.04.10 19:12:36.
