data_PCOD8251905
_publ_section_title
;
Structure prediction by ZEFSAII (Michael W. Deem and Ramdas Pophale) SiO2 
 PCOD8251905
Probable space group: P N M A
;
_chemical_formula_sum "Si O2"
_cell_formula_units_Z 64
_cell_length_a 14.696606
_cell_length_b 8.956658
_cell_length_c 24.452584
_cell_angle_alpha 90.000000
_cell_angle_beta 90.000000
_cell_angle_gamma 90.000000
_cell_volume 3218.754120
_symmetry_space_group_name_H-M "P N M A"
_symmetry_group_IT_number 62
_symmetry_cell_setting 'orthorhombic'
loop_
_space_group_symop_operation_xyz
x,y,z
1/2-x,-y,1/2+z
1/2+x,1/2-y,1/2-z
-x,1/2+y,-z
-x,-y,-z
1/2+x,y,1/2-z
1/2-x,1/2+y,1/2+z
x,1/2-y,z
loop_
_atom_site_type_symbol
_atom_site_label
_atom_site_fract_x
_atom_site_fract_y
_atom_site_fract_z
Si Si1 0.050965 0.422046 0.125627
Si Si2 0.136996 0.075738 0.240130
Si Si3 0.408285 0.425458 0.522032
Si Si4 0.990945 0.073392 0.672153
Si Si5 0.172640 0.425386 0.734054
Si Si6 0.376276 0.582061 0.354812
Si Si7 0.051892 0.925873 0.450208
Si Si8 0.741641 0.081262 0.546138
O O1 0.063347 0.250000 0.110469
O O2 0.074259 0.457196 0.188058
O O3 0.111796 0.518274 0.083778
O O4 0.946771 0.470644 0.116451
O O5 0.146655 0.250000 0.252811
O O6 0.090398 0.998934 0.292443
O O7 0.234803 0.012432 0.222167
O O8 0.500000 0.500000 0.500000
O O9 0.422339 0.250000 0.520934
O O10 0.320479 0.468778 0.487418
O O11 0.977485 0.250000 0.677447
O O12 0.983839 0.019238 0.609201
O O13 0.091246 0.025198 0.693311
O O14 0.192207 0.250000 0.729579
O O15 0.143625 0.474101 0.794382
O O16 0.417310 0.750000 0.353906
O O17 0.283982 0.577206 0.389741
O O18 0.039394 0.750000 0.454306
O O19 0.155793 0.974853 0.457704
O O20 0.000000 0.000000 0.500000
O O21 0.729998 0.250000 0.523372
#
# Coordination Sequence:
#
# PCOD8251905 Si02
#       8
#     8   8   8   8   8   8   8   8
#     4  11  23  38  57  86 124 161 198 246 306 366
#     4  11  24  39  59  91 128 163 200 249 309 368
#     4  12  24  38  59  88 121 159 204 251 304 367
#     4  10  21  41  67  92 120 160 209 256 303 362
#     4  10  21  37  62  92 123 162 206 251 302 364
#     4  10  19  35  61  89 117 158 204 248 303 359
#     4  10  23  43  66  92 123 160 206 259 306 360
#     4  10  21  38  61  89 123 162 206 255 309 363
#
# _framework density 19.883469999999999
#
# number of rings (size 3 to 8) (size 9 to 14) (size 15 to 20)
#    0.000    1.500    2.500    2.625    0.000    6.500 
#    0.000    3.750    0.000    0.000    0.000    0.000 
#    0.000    0.000    0.000    0.000    0.000    0.000 
#
# Total GULP energy -793680.524623 kJ/mol
# GULP energy per Si atom -12401.258197 kJ/mol
# Density = 1.983821 g / cm^3
# Si number density = 19.883470 Si / 1000 Ang^3
#
#
#
# Elastic Constant Matrix: (Units=GPa)
#
#
# Indices 1 2 3 4 5 6 
#
# 1 137.9735 49.6464 59.8262 0.0000 0.0000 0.0000
# 2 49.6464 87.6890 52.2053 0.0000 0.0000 0.0000
# 3 59.8262 52.2053 129.2098 0.0000 0.0000 0.0000
# 4 0.0000 0.0000 0.0000 30.4250 0.0000 0.0000
# 5 0.0000 0.0000 0.0000 0.0000 29.6011 0.0000
# 6 0.0000 0.0000 0.0000 0.0000 0.0000 31.7793
#
#
#
# Elastic Compliance Matrix: (Units=1/GPa)
#
#
# Indices 1 2 3 4 5 6 
#
# 1 0.009947 -0.003805 -0.003068 0.000000 0.000000 0.000000
# 2 -0.003805 0.016471 -0.004893 0.000000 0.000000 0.000000
# 3 -0.003068 -0.004893 0.011137 0.000000 0.000000 0.000000
# 4 0.000000 0.000000 0.000000 0.032868 0.000000 0.000000
# 5 0.000000 0.000000 0.000000 0.000000 0.033783 0.000000
# 6 0.000000 0.000000 0.000000 0.000000 0.000000 0.031467
#
#
# Mechanical properties :
#
#
# Convention : Reuss Voigt Hill
#
# Bulk Modulus (GPa) = 71.31408 75.35868 73.33638
# Shear Modulus (GPa) = 30.50998 31.24071 30.87534
#
# Velocity S-wave (km/s) = 3.92144 3.96812 3.94485
# Velocity P-wave (km/s) = 7.51315 7.67966 7.59686
#
# Compressibility (1/GPa) = 0.01402248
#
# Stress axis : x y z
#
# Youngs Moduli (GPa) = 100.52849 60.71128 89.78989
#
# Poissons Ratio (x) = 0.23101 0.27551
# Poissons Ratio (y) = 0.38252 0.43936
# Poissons Ratio (z) = 0.30846 0.29707
#
# Static dielectric constant tensor:
#      x y z
#    x 3.706180 0.000000 0.000000 
#    y 0.000000 3.509250 0.000000 
#    z 0.000000 0.000000 3.835880 
# 
# 
# High freq. dielectric constant tensor:
#      x y z
#    x 1.773820 0.000000 0.000000 
#    y 0.000000 1.768060 0.000000 
#    z 0.000000 0.000000 1.786580 
# 
# From -- ./inp_files/29887.got.cif
#   From: 2010.03.12/outbox.cif.g09.slc.cpg/sg62_15_cif.got.tgz:29887.got - 2010.04.10 19:12:36.
