data_PCOD8251430
_publ_section_title
;
Structure prediction by ZEFSAII (Michael W. Deem and Ramdas Pophale) SiO2 
 PCOD8251430
Probable space group: P N M A
;
_chemical_formula_sum "Si O2"
_cell_formula_units_Z 48
_cell_length_a 12.492508
_cell_length_b 8.745657
_cell_length_c 21.716902
_cell_angle_alpha 90.000000
_cell_angle_beta 90.000000
_cell_angle_gamma 90.000000
_cell_volume 2372.684255
_symmetry_space_group_name_H-M "P N M A"
_symmetry_group_IT_number 62
_symmetry_cell_setting 'orthorhombic'
loop_
_space_group_symop_operation_xyz
x,y,z
1/2-x,-y,1/2+z
1/2+x,1/2-y,1/2-z
-x,1/2+y,-z
-x,-y,-z
1/2+x,y,1/2-z
1/2-x,1/2+y,1/2+z
x,1/2-y,z
loop_
_atom_site_type_symbol
_atom_site_label
_atom_site_fract_x
_atom_site_fract_y
_atom_site_fract_z
Si Si1 0.643145 0.930141 0.327927
Si Si2 0.239246 0.568260 0.896749
Si Si3 0.112602 0.077102 0.504104
Si Si4 0.907193 0.069370 0.691660
Si Si5 0.369344 0.924725 0.143860
Si Si6 0.517089 0.432014 0.567850
O O1 0.655557 0.750000 0.336919
O O2 0.585048 0.969268 0.263989
O O3 0.764221 0.000260 0.324835
O O4 0.576193 0.992674 0.386241
O O5 0.222728 0.750000 0.896870
O O6 0.304776 0.516498 0.836571
O O7 0.125318 0.486894 0.899555
O O8 0.303026 0.505855 0.956559
O O9 0.093768 0.250000 0.484498
O O10 0.157911 0.059892 0.572152
O O11 0.000000 0.000000 0.500000
O O12 0.893765 0.250000 0.679008
O O13 0.016971 0.999330 0.662335
O O14 0.381621 0.750000 0.165128
O O15 0.500000 0.500000 0.500000
O O16 0.516822 0.250000 0.562582
#
# Coordination Sequence:
#
# PCOD8251430 Si02
#       6
#     8   8   8   8   8   8
#     4   9  20  36  59  88 117 152 197 247 297 356
#     4  11  23  38  58  86 125 163 196 244 303 361
#     4  10  19  33  54  80 112 148 186 236 291 342
#     4  10  20  35  60  89 115 151 201 246 293 354
#     4   9  17  32  55  83 114 143 184 241 290 343
#     4  11  23  41  65  91 121 159 205 256 310 371
#
# _framework density 20.230252
#
# number of rings (size 3 to 8) (size 9 to 14) (size 15 to 20)
#    0.000    2.000    1.667    2.000    2.333    3.333 
#    0.000    1.667    0.000    2.000    0.000    0.000 
#    0.000    0.000    0.000    0.000    0.000    0.000 
#
# Total GULP energy -595006.823354 kJ/mol
# GULP energy per Si atom -12395.975487 kJ/mol
# Density = 2.018421 g / cm^3
# Si number density = 20.230252 Si / 1000 Ang^3
#
#
#
# Elastic Constant Matrix: (Units=GPa)
#
#
# Indices 1 2 3 4 5 6 
#
# 1 152.9372 24.4757 53.2804 0.0000 0.0000 0.0000
# 2 24.4757 40.5127 25.7674 0.0000 0.0000 0.0000
# 3 53.2804 25.7674 108.2491 0.0000 0.0000 0.0000
# 4 0.0000 0.0000 0.0000 23.2553 0.0000 0.0000
# 5 0.0000 0.0000 0.0000 0.0000 34.0866 0.0000
# 6 0.0000 0.0000 0.0000 0.0000 0.0000 24.5002
#
#
#
# Elastic Compliance Matrix: (Units=1/GPa)
#
#
# Indices 1 2 3 4 5 6 
#
# 1 0.008152 -0.002796 -0.003347 0.000000 0.000000 0.000000
# 2 -0.002796 0.030047 -0.005776 0.000000 0.000000 0.000000
# 3 -0.003347 -0.005776 0.012260 0.000000 0.000000 0.000000
# 4 0.000000 0.000000 0.000000 0.043001 0.000000 0.000000
# 5 0.000000 0.000000 0.000000 0.000000 0.029337 0.000000
# 6 0.000000 0.000000 0.000000 0.000000 0.000000 0.040816
#
#
# Mechanical properties :
#
#
# Convention : Reuss Voigt Hill
#
# Bulk Modulus (GPa) = 37.56465 56.52733 47.04599
# Shear Modulus (GPa) = 25.46800 29.58012 27.52406
#
# Velocity S-wave (km/s) = 3.55196 3.82798 3.69255
# Velocity P-wave (km/s) = 5.95237 6.89497 6.44094
#
# Compressibility (1/GPa) = 0.02662077
#
# Stress axis : x y z
#
# Youngs Moduli (GPa) = 122.66719 33.28151 81.56500
#
# Poissons Ratio (x) = 0.09307 0.27299
# Poissons Ratio (y) = 0.34303 0.47111
# Poissons Ratio (z) = 0.41055 0.19223
#
# Static dielectric constant tensor:
#      x y z
#    x 3.931110 0.000000 0.000000 
#    y 0.000000 3.655350 0.000000 
#    z 0.000000 0.000000 0.218660 
# 
# 
# High freq. dielectric constant tensor:
#      x y z
#    x 1.808820 0.000000 0.000000 
#    y 0.000000 1.745940 0.000000 
#    z 0.000000 0.000000 1.798730 
# 
# From -- ./inp_files/29269.got.cif
#   From: 2010.03.12/outbox.cif.g09.slc.cpg/sg62_15_cif.got.tgz:29269.got - 2010.04.10 19:12:36.
