data_PCOD8251979
_publ_section_title
;
Structure prediction by ZEFSAII (Michael W. Deem and Ramdas Pophale) SiO2 
 PCOD8251979
Probable space group: P N M A
;
_chemical_formula_sum "Si O2"
_cell_formula_units_Z 48
_cell_length_a 17.255256
_cell_length_b 12.969708
_cell_length_c 11.541669
_cell_angle_alpha 90.000000
_cell_angle_beta 90.000000
_cell_angle_gamma 90.000000
_cell_volume 2582.975106
_symmetry_space_group_name_H-M "P N M A"
_symmetry_group_IT_number 62
_symmetry_cell_setting 'orthorhombic'
loop_
_space_group_symop_operation_xyz
x,y,z
1/2-x,-y,1/2+z
1/2+x,1/2-y,1/2-z
-x,1/2+y,-z
-x,-y,-z
1/2+x,y,1/2-z
1/2-x,1/2+y,1/2+z
x,1/2-y,z
loop_
_atom_site_type_symbol
_atom_site_label
_atom_site_fract_x
_atom_site_fract_y
_atom_site_fract_z
Si Si1 0.588241 0.068166 0.374220
Si Si2 0.643391 0.366959 0.728174
Si Si3 0.031489 0.128751 0.376590
Si Si4 0.617640 0.505938 0.935425
Si Si5 0.990894 0.364033 0.911180
Si Si6 0.235610 0.370920 0.997724
O O1 0.569520 0.108906 0.247372
O O2 0.530076 0.123962 0.463156
O O3 0.677409 0.093880 0.400543
O O4 0.577319 0.944938 0.386820
O O5 0.661243 0.250000 0.765271
O O6 0.659238 0.441642 0.834719
O O7 0.554501 0.378204 0.688764
O O8 0.699249 0.402144 0.624997
O O9 0.028046 0.250000 0.403307
O O10 0.945451 0.082315 0.380246
O O11 0.082585 0.074193 0.474028
O O12 0.682267 0.574076 0.996974
O O13 0.953969 0.250000 0.904863
O O14 0.248953 0.250000 0.008712
#
# Coordination Sequence:
#
# PCOD8251979 Si02
#       6
#     8   8   8   8   8   8
#     4  10  19  36  59  88 119 150 189 240 296 340
#     4   9  18  37  59  81 112 152 194 240 290 339
#     4  11  23  39  59  87 119 153 192 240 293 345
#     4  11  23  38  60  85 114 156 197 239 282 353
#     4   9  17  33  59  86 114 152 195 236 281 340
#     4  10  22  39  60  82 115 157 194 239 295 343
#
# _framework density 18.583221999999999
#
# number of rings (size 3 to 8) (size 9 to 14) (size 15 to 20)
#    0.000    2.000    1.667    3.500    2.333    0.000 
#    0.000    2.500    0.000    0.000    0.000    0.000 
#    0.000    0.000    0.000    0.000    0.000    0.000 
#
# Total GULP energy -595330.629295 kJ/mol
# GULP energy per Si atom -12402.721444 kJ/mol
# Density = 1.854093 g / cm^3
# Si number density = 18.583222 Si / 1000 Ang^3
#
#
#
# Elastic Constant Matrix: (Units=GPa)
#
#
# Indices 1 2 3 4 5 6 
#
# 1 84.1363 43.8585 33.6703 0.0000 0.0000 0.0000
# 2 43.8585 118.9025 36.1023 0.0000 0.0000 0.0000
# 3 33.6703 36.1023 77.2929 0.0000 0.0000 0.0000
# 4 0.0000 0.0000 0.0000 22.0237 0.0000 0.0000
# 5 0.0000 0.0000 0.0000 0.0000 18.1285 0.0000
# 6 0.0000 0.0000 0.0000 0.0000 0.0000 29.6438
#
#
#
# Elastic Compliance Matrix: (Units=1/GPa)
#
#
# Indices 1 2 3 4 5 6 
#
# 1 0.016204 -0.004467 -0.004972 0.000000 0.000000 0.000000
# 2 -0.004467 0.011032 -0.003207 0.000000 0.000000 0.000000
# 3 -0.004972 -0.003207 0.016602 0.000000 0.000000 0.000000
# 4 0.000000 0.000000 0.000000 0.045406 0.000000 0.000000
# 5 0.000000 0.000000 0.000000 0.000000 0.055162 0.000000
# 6 0.000000 0.000000 0.000000 0.000000 0.000000 0.033734
#
#
# Mechanical properties :
#
#
# Convention : Reuss Voigt Hill
#
# Bulk Modulus (GPa) = 53.92312 56.39934 55.16123
# Shear Modulus (GPa) = 23.85354 25.07257 24.46305
#
# Velocity S-wave (km/s) = 3.58663 3.67714 3.63217
# Velocity P-wave (km/s) = 6.79941 6.96017 6.88026
#
# Compressibility (1/GPa) = 0.01854492
#
# Stress axis : x y z
#
# Youngs Moduli (GPa) = 61.71313 90.64761 60.23522
#
# Poissons Ratio (x) = 0.40495 0.29950
# Poissons Ratio (y) = 0.27569 0.19316
# Poissons Ratio (z) = 0.30685 0.29068
#
# Static dielectric constant tensor:
#      x y z
#    x 3.204760 0.000000 0.000000 
#    y 0.000000 3.554110 0.000000 
#    z 0.000000 0.000000 3.404600 
# 
# 
# High freq. dielectric constant tensor:
#      x y z
#    x 1.701390 0.000000 0.000000 
#    y 0.000000 1.735290 0.000000 
#    z 0.000000 0.000000 1.725190 
# 
# From -- ./inp_files/14104.got.cif
#   From: 2010.03.12/outbox.cif.g09.slc.cpg/sg62_8_cif.got.tgz:14104.got - 2010.04.10 19:12:36.
