data_PCOD8251470
_publ_section_title
;
Structure prediction by ZEFSAII (Michael W. Deem and Ramdas Pophale) SiO2 
 PCOD8251470
Probable space group: P N M A
;
_chemical_formula_sum "Si O2"
_cell_formula_units_Z 48
_cell_length_a 23.722494
_cell_length_b 9.091728
_cell_length_c 12.039165
_cell_angle_alpha 90.000000
_cell_angle_beta 90.000000
_cell_angle_gamma 90.000000
_cell_volume 2596.588602
_symmetry_space_group_name_H-M "P N M A"
_symmetry_group_IT_number 62
_symmetry_cell_setting 'orthorhombic'
loop_
_space_group_symop_operation_xyz
x,y,z
1/2-x,-y,1/2+z
1/2+x,1/2-y,1/2-z
-x,1/2+y,-z
-x,-y,-z
1/2+x,y,1/2-z
1/2-x,1/2+y,1/2+z
x,1/2-y,z
loop_
_atom_site_type_symbol
_atom_site_label
_atom_site_fract_x
_atom_site_fract_y
_atom_site_fract_z
Si Si1 0.216063 0.582482 0.837891
Si Si2 0.170601 0.575583 0.391688
Si Si3 0.894022 0.078565 0.030305
Si Si4 0.637617 0.577719 0.864891
Si Si5 0.581668 0.576360 0.284806
Si Si6 0.046206 0.423863 0.772373
O O1 0.237381 0.750000 0.840106
O O2 0.268049 0.476191 0.856104
O O3 0.170740 0.554282 0.934992
O O4 0.188451 0.543687 0.719408
O O5 0.170699 0.750000 0.390018
O O6 0.155668 0.518711 0.514698
O O7 0.124381 0.510106 0.306467
O O8 0.910548 0.250000 0.040675
O O9 0.935314 0.987969 0.109389
O O10 0.901988 0.015659 0.906448
O O11 0.622940 0.750000 0.864379
O O12 0.581676 0.491765 0.828476
O O13 0.588370 0.750000 0.287457
O O14 0.518512 0.531005 0.251933
O O15 0.054792 0.250000 0.774740
#
# Coordination Sequence:
#
# PCOD8251470 Si02
#       6
#     8   8   8   8   8   8
#     4   9  19  34  52  75 105 138 172 218 263 305
#     4  10  21  36  55  77 103 142 180 212 257 316
#     4   9  18  35  56  77 108 144 172 212 272 316
#     4   9  20  38  55  74 106 142 173 210 266 319
#     4   9  19  34  53  80 109 138 175 218 263 310
#     4  10  19  33  55  81 106 135 179 223 256 306
#
# _framework density 18.485793999999999
#
# number of rings (size 3 to 8) (size 9 to 14) (size 15 to 20)
#    0.000    2.667    0.000    2.000    2.333    4.000 
#    0.000    3.333    0.000    0.000    0.000    0.000 
#    0.000    0.000    0.000    0.000    0.000    0.000 
#
# Total GULP energy -595259.683314 kJ/mol
# GULP energy per Si atom -12401.243402 kJ/mol
# Density = 1.844372 g / cm^3
# Si number density = 18.485794 Si / 1000 Ang^3
#
#
#
# Elastic Constant Matrix: (Units=GPa)
#
#
# Indices 1 2 3 4 5 6 
#
# 1 129.1590 40.0633 68.2891 0.0000 0.0000 0.0000
# 2 40.0633 40.6058 32.4918 0.0000 0.0000 0.0000
# 3 68.2891 32.4918 129.0804 0.0000 0.0000 0.0000
# 4 0.0000 0.0000 0.0000 20.2541 0.0000 0.0000
# 5 0.0000 0.0000 0.0000 0.0000 19.8895 0.0000
# 6 0.0000 0.0000 0.0000 0.0000 0.0000 30.6498
#
#
#
# Elastic Compliance Matrix: (Units=1/GPa)
#
#
# Indices 1 2 3 4 5 6 
#
# 1 0.013005 -0.009173 -0.004571 0.000000 0.000000 0.000000
# 2 -0.009173 0.037309 -0.004538 0.000000 0.000000 0.000000
# 3 -0.004571 -0.004538 0.011308 0.000000 0.000000 0.000000
# 4 0.000000 0.000000 0.000000 0.049373 0.000000 0.000000
# 5 0.000000 0.000000 0.000000 0.000000 0.050278 0.000000
# 6 0.000000 0.000000 0.000000 0.000000 0.000000 0.032627
#
#
# Mechanical properties :
#
#
# Convention : Reuss Voigt Hill
#
# Bulk Modulus (GPa) = 39.90987 64.50374 52.20680
# Shear Modulus (GPa) = 20.93665 24.69209 22.81437
#
# Velocity S-wave (km/s) = 3.36903 3.65873 3.51687
# Velocity P-wave (km/s) = 6.06384 7.26759 6.69283
#
# Compressibility (1/GPa) = 0.02505646
#
# Stress axis : x y z
#
# Youngs Moduli (GPa) = 76.89623 26.80300 88.43538
#
# Poissons Ratio (x) = 0.24587 0.40423
# Poissons Ratio (y) = 0.70539 0.40135
# Poissons Ratio (z) = 0.35148 0.12164
#
# Static dielectric constant tensor:
#      x y z
#    x 3.378590 0.000000 0.000000 
#    y 0.000000 3.156130 0.000000 
#    z 0.000000 0.000000 3.724600 
# 
# 
# High freq. dielectric constant tensor:
#      x y z
#    x 1.721210 0.000000 0.000000 
#    y 0.000000 1.695100 0.000000 
#    z 0.000000 0.000000 1.725290 
# 
# From -- ./inp_files/15102.got.cif
#   From: 2010.03.12/outbox.cif.g09.slc.cpg/sg62_8_cif.got.tgz:15102.got - 2010.04.10 19:12:36.
