data_PCOD8251205
_publ_section_title
;
Structure prediction by ZEFSAII (Michael W. Deem and Ramdas Pophale) SiO2 
 PCOD8251205
Probable space group: P N M A
;
_chemical_formula_sum "Si O2"
_cell_formula_units_Z 48
_cell_length_a 14.796934
_cell_length_b 9.278010
_cell_length_c 19.674619
_cell_angle_alpha 90.000000
_cell_angle_beta 90.000000
_cell_angle_gamma 90.000000
_cell_volume 2701.051743
_symmetry_space_group_name_H-M "P N M A"
_symmetry_group_IT_number 62
_symmetry_cell_setting 'orthorhombic'
loop_
_space_group_symop_operation_xyz
x,y,z
1/2-x,-y,1/2+z
1/2+x,1/2-y,1/2-z
-x,1/2+y,-z
-x,-y,-z
1/2+x,y,1/2-z
1/2-x,1/2+y,1/2+z
x,1/2-y,z
loop_
_atom_site_type_symbol
_atom_site_label
_atom_site_fract_x
_atom_site_fract_y
_atom_site_fract_z
Si Si1 0.815050 0.918162 0.669513
Si Si2 0.609081 0.586185 0.693086
Si Si3 0.921333 0.415644 0.035906
Si Si4 0.012245 0.579156 0.296900
Si Si5 0.225777 0.081947 0.478290
Si Si6 0.945032 0.582614 0.443577
O O1 0.840725 0.750000 0.673955
O O2 0.715797 0.946740 0.700340
O O3 0.817816 0.977979 0.591754
O O4 0.888896 0.008446 0.711895
O O5 0.589528 0.750000 0.716318
O O6 0.575368 0.563044 0.616569
O O7 0.554444 0.475193 0.738895
O O8 0.932845 0.250000 0.015462
O O9 0.825826 0.480842 0.008068
O O10 0.000000 0.500000 0.000000
O O11 0.021454 0.750000 0.291264
O O12 0.969176 0.529087 0.368587
O O13 0.240794 0.250000 0.463191
O O14 0.161358 0.051284 0.542521
O O15 0.967089 0.750000 0.452706
O O16 0.000000 0.500000 0.500000
#
# Coordination Sequence:
#
# PCOD8251205 Si02
#       6
#     8   8   8   8   8   8
#     4   9  17  34  59  76  95 140 186 217 257 313
#     4   9  20  38  57  76 103 143 187 219 255 319
#     4   9  18  35  58  80 102 135 179 220 262 313
#     4  11  22  33  51  82 114 140 171 221 275 320
#     4   8  15  31  54  75 100 137 173 207 257 315
#     4  10  19  32  52  79 108 138 173 212 260 317
#
# _framework density 17.770855999999998
#
# number of rings (size 3 to 8) (size 9 to 14) (size 15 to 20)
#    0.000    2.667    1.667    2.500    0.000    2.000 
#    3.000    3.333    0.000    0.000    0.000    0.000 
#    0.000    0.000    0.000    0.000    0.000    0.000 
#
# Total GULP energy -595050.617782 kJ/mol
# GULP energy per Si atom -12396.887870 kJ/mol
# Density = 1.773041 g / cm^3
# Si number density = 17.770856 Si / 1000 Ang^3
#
#
#
# Elastic Constant Matrix: (Units=GPa)
#
#
# Indices 1 2 3 4 5 6 
#
# 1 133.2811 57.9598 58.0197 0.0000 0.0000 0.0000
# 2 57.9598 67.8310 40.1380 0.0000 0.0000 0.0000
# 3 58.0197 40.1380 64.5321 0.0000 0.0000 0.0000
# 4 0.0000 0.0000 0.0000 27.3894 0.0000 0.0000
# 5 0.0000 0.0000 0.0000 0.0000 32.3402 0.0000
# 6 0.0000 0.0000 0.0000 0.0000 0.0000 30.0690
#
#
#
# Elastic Compliance Matrix: (Units=1/GPa)
#
#
# Indices 1 2 3 4 5 6 
#
# 1 0.014295 -0.007294 -0.008315 0.000000 0.000000 0.000000
# 2 -0.007294 0.027050 -0.010267 0.000000 0.000000 0.000000
# 3 -0.008315 -0.010267 0.029358 0.000000 0.000000 0.000000
# 4 0.000000 0.000000 0.000000 0.036511 0.000000 0.000000
# 5 0.000000 0.000000 0.000000 0.000000 0.030921 0.000000
# 6 0.000000 0.000000 0.000000 0.000000 0.000000 0.033257
#
#
# Mechanical properties :
#
#
# Convention : Reuss Voigt Hill
#
# Bulk Modulus (GPa) = 52.76871 64.20881 58.48876
# Shear Modulus (GPa) = 21.79013 25.26150 23.52582
#
# Velocity S-wave (km/s) = 3.50547 3.77439 3.64241
# Velocity P-wave (km/s) = 6.79285 7.42998 7.11855
#
# Compressibility (1/GPa) = 0.01895062
#
# Stress axis : x y z
#
# Youngs Moduli (GPa) = 69.95608 36.96803 34.06186
#
# Poissons Ratio (x) = 0.26964 0.28324
# Poissons Ratio (y) = 0.51025 0.34972
# Poissons Ratio (z) = 0.58171 0.37955
#
# Static dielectric constant tensor:
#      x y z
#    x 3.541350 0.000000 0.000000 
#    y 0.000000 3.126550 0.000000 
#    z 0.000000 0.000000 3.162360 
# 
# 
# High freq. dielectric constant tensor:
#      x y z
#    x 1.700870 0.000000 0.000000 
#    y 0.000000 1.669600 0.000000 
#    z 0.000000 0.000000 1.670090 
# 
# From -- ./inp_files/26869.got.cif
#   From: 2010.03.12/outbox.cif.g09.slc.cpg/sg62_14_cif.got.tgz:26869.got - 2010.04.10 19:12:36.
