data_PCOD8251495
_publ_section_title
;
Structure prediction by ZEFSAII (Michael W. Deem and Ramdas Pophale) SiO2 
 PCOD8251495
Probable space group: P N M A
;
_chemical_formula_sum "Si O2"
_cell_formula_units_Z 64
_cell_length_a 15.199173
_cell_length_b 8.744049
_cell_length_c 24.604237
_cell_angle_alpha 90.000000
_cell_angle_beta 90.000000
_cell_angle_gamma 90.000000
_cell_volume 3269.960019
_symmetry_space_group_name_H-M "P N M A"
_symmetry_group_IT_number 62
_symmetry_cell_setting 'orthorhombic'
loop_
_space_group_symop_operation_xyz
x,y,z
1/2-x,-y,1/2+z
1/2+x,1/2-y,1/2-z
-x,1/2+y,-z
-x,-y,-z
1/2+x,y,1/2-z
1/2-x,1/2+y,1/2+z
x,1/2-y,z
loop_
_atom_site_type_symbol
_atom_site_label
_atom_site_fract_x
_atom_site_fract_y
_atom_site_fract_z
Si Si1 0.680099 0.570311 0.147838
Si Si2 0.321000 0.069973 0.431668
Si Si3 0.691434 0.572456 0.862607
Si Si4 0.501180 0.073043 0.607440
Si Si5 0.279690 0.429634 0.259180
Si Si6 0.822368 0.070198 0.944711
Si Si7 0.005162 0.428748 0.337298
Si Si8 0.461756 0.925237 0.271917
O O1 0.686252 0.750000 0.156137
O O2 0.748093 0.519589 0.102149
O O3 0.697333 0.486552 0.205589
O O4 0.581373 0.520556 0.130780
O O5 0.305688 0.250000 0.424446
O O6 0.309628 0.015460 0.493685
O O7 0.418182 0.029456 0.412045
O O8 0.701641 0.750000 0.874976
O O9 0.734471 0.531242 0.804258
O O10 0.739221 0.482388 0.910011
O O11 0.588888 0.524276 0.862503
O O12 0.519579 0.250000 0.592074
O O13 0.414193 0.005088 0.578670
O O14 0.485542 0.056331 0.671929
O O15 0.296372 0.250000 0.267105
O O16 0.362650 0.520183 0.283226
O O17 0.827553 0.250000 0.940954
O O18 0.022672 0.250000 0.343539
O O19 0.007248 0.470739 0.273544
O O20 0.461425 0.750000 0.251937
#
# Coordination Sequence:
#
# PCOD8251495 Si02
#       8
#     8   8   8   8   8   8   8   8
#     4  12  24  38  60  89 118 155 202 250 303 357
#     4  11  23  40  61  86 119 159 202 247 299 355
#     4   9  21  40  61  87 117 153 196 243 296 352
#     4  10  21  37  57  87 123 158 198 243 292 349
#     4  10  20  36  57  85 120 156 195 240 296 356
#     4  10  23  40  60  87 119 157 200 248 298 353
#     4  10  22  40  60  85 122 159 197 246 300 360
#     4  10  19  33  55  87 123 157 194 235 290 350
#
# _framework density 19.572106000000002
#
# number of rings (size 3 to 8) (size 9 to 14) (size 15 to 20)
#    0.000    1.750    1.250    3.750    1.750    5.000 
#    0.000    0.625    0.000    0.000    0.000    0.000 
#    0.000    0.000    0.000    0.000    0.000    0.000 
#
# Total GULP energy -793787.057364 kJ/mol
# GULP energy per Si atom -12402.922771 kJ/mol
# Density = 1.952756 g / cm^3
# Si number density = 19.572106 Si / 1000 Ang^3
#
#
#
# Elastic Constant Matrix: (Units=GPa)
#
#
# Indices 1 2 3 4 5 6 
#
# 1 114.0437 20.1814 60.9648 0.0000 0.0000 0.0000
# 2 20.1814 45.4370 30.4362 0.0000 0.0000 0.0000
# 3 60.9648 30.4362 93.5764 0.0000 0.0000 0.0000
# 4 0.0000 0.0000 0.0000 28.9671 0.0000 0.0000
# 5 0.0000 0.0000 0.0000 0.0000 22.5827 0.0000
# 6 0.0000 0.0000 0.0000 0.0000 0.0000 35.1127
#
#
#
# Elastic Compliance Matrix: (Units=1/GPa)
#
#
# Indices 1 2 3 4 5 6 
#
# 1 0.013455 -0.000133 -0.008723 0.000000 0.000000 0.000000
# 2 -0.000133 0.028141 -0.009066 0.000000 0.000000 0.000000
# 3 -0.008723 -0.009066 0.019318 0.000000 0.000000 0.000000
# 4 0.000000 0.000000 0.000000 0.034522 0.000000 0.000000
# 5 0.000000 0.000000 0.000000 0.000000 0.044282 0.000000
# 6 0.000000 0.000000 0.000000 0.000000 0.000000 0.028480
#
#
# Mechanical properties :
#
#
# Convention : Reuss Voigt Hill
#
# Bulk Modulus (GPa) = 39.88870 52.91354 46.40112
# Shear Modulus (GPa) = 23.54082 26.76417 25.15249
#
# Velocity S-wave (km/s) = 3.47187 3.70194 3.58875
# Velocity P-wave (km/s) = 6.04123 6.73545 6.39776
#
# Compressibility (1/GPa) = 0.02506976
#
# Stress axis : x y z
#
# Youngs Moduli (GPa) = 74.32185 35.53586 51.76547
#
# Poissons Ratio (x) = 0.00474 0.45152
# Poissons Ratio (y) = 0.00991 0.46930
# Poissons Ratio (z) = 0.64827 0.32217
#
# Static dielectric constant tensor:
#      x y z
#    x 3.629700 0.000000 0.000000 
#    y 0.000000 3.535330 0.000000 
#    z 0.000000 0.000000 3.585610 
# 
# 
# High freq. dielectric constant tensor:
#      x y z
#    x 1.765100 0.000000 0.000000 
#    y 0.000000 1.765450 0.000000 
#    z 0.000000 0.000000 1.753370 
# 
# From -- ./inp_files/29754.got.cif
#   From: 2010.03.12/outbox.cif.g09.slc.cpg/sg62_15_cif.got.tgz:29754.got - 2010.04.10 19:12:36.
