data_PCOD8251136
_publ_section_title
;
Structure prediction by ZEFSAII (Michael W. Deem and Ramdas Pophale) SiO2 
 PCOD8251136
Probable space group: P N M A
;
_chemical_formula_sum "Si O2"
_cell_formula_units_Z 56
_cell_length_a 17.419103
_cell_length_b 8.960845
_cell_length_c 18.924482
_cell_angle_alpha 90.000000
_cell_angle_beta 90.000000
_cell_angle_gamma 90.000000
_cell_volume 2953.920163
_symmetry_space_group_name_H-M "P N M A"
_symmetry_group_IT_number 62
_symmetry_cell_setting 'orthorhombic'
loop_
_space_group_symop_operation_xyz
x,y,z
1/2-x,-y,1/2+z
1/2+x,1/2-y,1/2-z
-x,1/2+y,-z
-x,-y,-z
1/2+x,y,1/2-z
1/2-x,1/2+y,1/2+z
x,1/2-y,z
loop_
_atom_site_type_symbol
_atom_site_label
_atom_site_fract_x
_atom_site_fract_y
_atom_site_fract_z
Si Si1 0.818409 0.425988 0.628471
Si Si2 0.038043 0.427278 0.850466
Si Si3 0.737686 0.927831 0.278544
Si Si4 0.017368 0.927891 0.425032
Si Si5 0.874817 0.072879 0.900412
Si Si6 0.590896 0.427496 0.799416
Si Si7 0.170056 0.425569 0.955127
O O1 0.824246 0.250000 0.637401
O O2 0.793018 0.493696 0.704155
O O3 0.900549 0.488072 0.603105
O O4 0.755005 0.469400 0.570432
O O5 0.035946 0.250000 0.849102
O O6 0.046986 0.487022 0.770439
O O7 0.109376 0.483238 0.897094
O O8 0.959692 0.490166 0.884110
O O9 0.740693 0.750000 0.274192
O O10 0.680716 0.984772 0.338846
O O11 0.822293 0.990029 0.297278
O O12 0.017408 0.750000 0.432955
O O13 0.952931 0.983732 0.369434
O O14 0.000000 0.000000 0.500000
O O15 0.874894 0.250000 0.904786
O O16 0.844320 0.009530 0.972909
O O17 0.591522 0.250000 0.798786
O O18 0.161272 0.250000 0.967240
#
# Coordination Sequence:
#
# PCOD8251136 Si02
#       7
#     8   8   8   8   8   8   8
#     4   9  17  32  51  72  98 131 171 206 241 289
#     4   9  16  30  50  73  98 127 164 204 243 286
#     4   9  16  29  50  75  98 125 166 212 246 279
#     4  10  21  34  52  77 104 134 167 207 253 299
#     4  10  20  30  48  77 103 123 155 206 253 287
#     4   9  16  29  50  74  97 125 167 210 245 284
#     4  10  19  32  51  72  99 134 163 194 241 299
#
# _framework density 18.957857000000001
#
# number of rings (size 3 to 8) (size 9 to 14) (size 15 to 20)
#    0.000    2.571    1.429    1.286    2.000    3.429 
#    0.000    0.000    0.000    5.143    0.000    0.000 
#    0.000    0.000    0.000    0.000    0.000    0.000 
#
# Total GULP energy -694298.853365 kJ/mol
# GULP energy per Si atom -12398.193810 kJ/mol
# Density = 1.891471 g / cm^3
# Si number density = 18.957857 Si / 1000 Ang^3
#
#
#
# Elastic Constant Matrix: (Units=GPa)
#
#
# Indices 1 2 3 4 5 6 
#
# 1 177.2318 15.9117 89.7564 0.0000 0.0000 0.0000
# 2 15.9117 9.7793 19.6722 0.0000 0.0000 0.0000
# 3 89.7564 19.6722 165.7759 0.0000 0.0000 0.0000
# 4 0.0000 0.0000 0.0000 27.1615 0.0000 0.0000
# 5 0.0000 0.0000 0.0000 0.0000 32.7138 0.0000
# 6 0.0000 0.0000 0.0000 0.0000 0.0000 11.3596
#
#
#
# Elastic Compliance Matrix: (Units=1/GPa)
#
#
# Indices 1 2 3 4 5 6 
#
# 1 0.008005 -0.005657 -0.003663 0.000000 0.000000 0.000000
# 2 -0.005657 0.138319 -0.013351 0.000000 0.000000 0.000000
# 3 -0.003663 -0.013351 0.009600 0.000000 0.000000 0.000000
# 4 0.000000 0.000000 0.000000 0.036817 0.000000 0.000000
# 5 0.000000 0.000000 0.000000 0.000000 0.030568 0.000000
# 6 0.000000 0.000000 0.000000 0.000000 0.000000 0.088031
#
#
# Mechanical properties :
#
#
# Convention : Reuss Voigt Hill
#
# Bulk Modulus (GPa) = 9.04306 67.05194 38.04750
# Shear Modulus (GPa) = 12.70511 29.41010 21.05760
#
# Velocity S-wave (km/s) = 2.59158 3.94298 3.33642
# Velocity P-wave (km/s) = 3.70615 7.49501 5.91230
#
# Compressibility (1/GPa) = 0.11058207
#
# Stress axis : x y z
#
# Youngs Moduli (GPa) = 124.91770 7.22968 104.16773
#
# Poissons Ratio (x) = 0.04089 0.38157
# Poissons Ratio (y) = 0.70660 1.39077
# Poissons Ratio (z) = 0.45758 0.09653
#
# Static dielectric constant tensor:
#      x y z
#    x 3.896950 0.000000 0.000000 
#    y 0.000000 2.792100 0.000000 
#    z 0.000000 0.000000 3.605330 
# 
# 
# High freq. dielectric constant tensor:
#      x y z
#    x 1.757710 0.000000 0.000000 
#    y 0.000000 1.661650 0.000000 
#    z 0.000000 0.000000 1.752880 
# 
# From -- ./inp_files/24415.got.cif
#   From: 2010.03.12/outbox.cif.g09.slc.cpg/sg62_13_cif.got.tgz:24415.got - 2010.04.10 19:12:36.
