data_PCOD8251168
_publ_section_title
;
Structure prediction by ZEFSAII (Michael W. Deem and Ramdas Pophale) SiO2 
 PCOD8251168
Probable space group: P N M A
;
_chemical_formula_sum "Si O2"
_cell_formula_units_Z 64
_cell_length_a 29.361509
_cell_length_b 9.467814
_cell_length_c 12.704910
_cell_angle_alpha 90.000000
_cell_angle_beta 90.000000
_cell_angle_gamma 90.000000
_cell_volume 3531.829113
_symmetry_space_group_name_H-M "P N M A"
_symmetry_group_IT_number 62
_symmetry_cell_setting 'orthorhombic'
loop_
_space_group_symop_operation_xyz
x,y,z
1/2-x,-y,1/2+z
1/2+x,1/2-y,1/2-z
-x,1/2+y,-z
-x,-y,-z
1/2+x,y,1/2-z
1/2-x,1/2+y,1/2+z
x,1/2-y,z
loop_
_atom_site_type_symbol
_atom_site_label
_atom_site_fract_x
_atom_site_fract_y
_atom_site_fract_z
Si Si1 0.091290 0.410084 0.112933
Si Si2 0.198159 0.083883 0.370402
Si Si3 0.795786 0.091205 0.050651
Si Si4 0.120210 0.414208 0.884064
Si Si5 0.672623 0.910495 0.318052
Si Si6 0.972800 0.588074 0.705811
Si Si7 0.603201 0.083523 0.038538
Si Si8 0.564013 0.417937 0.818125
O O1 0.109847 0.250000 0.128870
O O2 0.123508 0.518498 0.172739
O O3 0.042733 0.425361 0.171481
O O4 0.089328 0.445234 0.988186
O O5 0.193953 0.250000 0.346913
O O6 0.243867 0.044790 0.432294
O O7 0.153829 0.027386 0.433938
O O8 0.202859 0.998821 0.262475
O O9 0.804625 0.250000 0.091483
O O10 0.831367 0.991975 0.111081
O O11 0.801148 0.080722 0.926813
O O12 0.131339 0.250000 0.872979
O O13 0.092948 0.469253 0.782610
O O14 0.666162 0.750000 0.279722
O O15 0.986332 0.750000 0.680682
O O16 0.932540 0.536275 0.628004
O O17 0.014756 0.486708 0.686888
O O18 0.605051 0.250000 0.033110
O O19 0.588624 0.026025 0.923812
O O20 0.557651 0.250000 0.817887
#
# Coordination Sequence:
#
# PCOD8251168 Si02
#       8
#     8   8   8   8   8   8   8   8
#     4   9  17  33  55  75 100 138 178 211 256 317
#     4  10  19  35  56  76 101 140 179 210 255 322
#     4   9  20  35  54  79 106 137 173 214 265 316
#     4   9  19  35  54  76 106 141 175 216 264 315
#     4  10  19  32  51  79 107 131 168 222 267 299
#     4  10  19  33  54  77 100 138 184 220 260 314
#     4   9  18  34  54  74 101 139 179 213 257 317
#     4  10  21  35  52  77 108 141 175 216 267 314
#
# _framework density 18.120920999999999
#
# number of rings (size 3 to 8) (size 9 to 14) (size 15 to 20)
#    0.000    2.500    1.250    0.750    0.000    3.500 
#    0.000    3.125    0.000    0.000    0.000    0.000 
#    0.000    0.000    0.000    0.000    0.000    0.000 
#
# Total GULP energy -793454.633991 kJ/mol
# GULP energy per Si atom -12397.728656 kJ/mol
# Density = 1.807968 g / cm^3
# Si number density = 18.120921 Si / 1000 Ang^3
#
#
#
# Elastic Constant Matrix: (Units=GPa)
#
#
# Indices 1 2 3 4 5 6 
#
# 1 122.8607 36.1051 63.0759 0.0000 0.0000 0.0000
# 2 36.1051 49.1651 33.7961 0.0000 0.0000 0.0000
# 3 63.0759 33.7961 109.4075 0.0000 0.0000 0.0000
# 4 0.0000 0.0000 0.0000 20.8990 0.0000 0.0000
# 5 0.0000 0.0000 0.0000 0.0000 24.3181 0.0000
# 6 0.0000 0.0000 0.0000 0.0000 0.0000 30.7089
#
#
#
# Elastic Compliance Matrix: (Units=1/GPa)
#
#
# Indices 1 2 3 4 5 6 
#
# 1 0.012600 -0.005408 -0.005594 0.000000 0.000000 0.000000
# 2 -0.005408 0.028144 -0.005576 0.000000 0.000000 0.000000
# 3 -0.005594 -0.005576 0.014088 0.000000 0.000000 0.000000
# 4 0.000000 0.000000 0.000000 0.047849 0.000000 0.000000
# 5 0.000000 0.000000 0.000000 0.000000 0.041122 0.000000
# 6 0.000000 0.000000 0.000000 0.000000 0.000000 0.032564
#
#
# Mechanical properties :
#
#
# Convention : Reuss Voigt Hill
#
# Bulk Modulus (GPa) = 46.13325 60.82084 53.47705
# Shear Modulus (GPa) = 23.06832 25.08228 24.07530
#
# Velocity S-wave (km/s) = 3.57181 3.72447 3.64894
# Velocity P-wave (km/s) = 6.52107 7.22027 6.87956
#
# Compressibility (1/GPa) = 0.02167634
#
# Stress axis : x y z
#
# Youngs Moduli (GPa) = 79.36240 35.53163 70.98486
#
# Poissons Ratio (x) = 0.19216 0.39708
# Poissons Ratio (y) = 0.42920 0.39580
# Poissons Ratio (z) = 0.44394 0.19812
#
# Static dielectric constant tensor:
#      x y z
#    x 3.258370 0.000000 0.000000 
#    y 0.000000 3.300580 0.000000 
#    z 0.000000 0.000000 3.667840 
# 
# 
# High freq. dielectric constant tensor:
#      x y z
#    x 1.693670 0.000000 0.000000 
#    y 0.000000 1.687610 0.000000 
#    z 0.000000 0.000000 1.709480 
# 
# From -- ./inp_files/15762.got.cif
#   From: 2010.03.12/outbox.cif.g09.slc.cpg/sg62_8_cif.got.tgz:15762.got - 2010.04.10 19:12:36.
