data_PCOD8251371
_publ_section_title
;
Structure prediction by ZEFSAII (Michael W. Deem and Ramdas Pophale) SiO2 
 PCOD8251371
Probable space group: P N M A
;
_chemical_formula_sum "Si O2"
_cell_formula_units_Z 56
_cell_length_a 20.301232
_cell_length_b 9.578681
_cell_length_c 14.330472
_cell_angle_alpha 90.000000
_cell_angle_beta 90.000000
_cell_angle_gamma 90.000000
_cell_volume 2786.689616
_symmetry_space_group_name_H-M "P N M A"
_symmetry_group_IT_number 62
_symmetry_cell_setting 'orthorhombic'
loop_
_space_group_symop_operation_xyz
x,y,z
1/2-x,-y,1/2+z
1/2+x,1/2-y,1/2-z
-x,1/2+y,-z
-x,-y,-z
1/2+x,y,1/2-z
1/2-x,1/2+y,1/2+z
x,1/2-y,z
loop_
_atom_site_type_symbol
_atom_site_label
_atom_site_fract_x
_atom_site_fract_y
_atom_site_fract_z
Si Si1 0.052690 0.096376 0.953699
Si Si2 0.158318 0.909763 0.218246
Si Si3 0.152101 0.902367 0.892389
Si Si4 0.264818 0.405935 0.897131
Si Si5 0.407190 0.097151 0.197855
Si Si6 0.488227 0.403391 0.742068
Si Si7 0.229527 0.586423 0.614431
O O1 0.057955 0.250000 0.001304
O O2 0.035415 0.115821 0.846132
O O3 0.121442 0.012286 0.966899
O O4 0.000000 0.000000 0.000000
O O5 0.163568 0.750000 0.181846
O O6 0.172285 0.916049 0.329625
O O7 0.082887 0.965930 0.210152
O O8 0.208609 0.001505 0.156320
O O9 0.165617 0.750000 0.938488
O O10 0.101672 0.881726 0.808250
O O11 0.218181 0.973918 0.855153
O O12 0.233388 0.250000 0.889224
O O13 0.279502 0.440448 0.004425
O O14 0.420646 0.250000 0.152359
O O15 0.339957 0.031465 0.156267
O O16 0.472060 0.000160 0.183433
O O17 0.476587 0.250000 0.787537
O O18 0.239445 0.750000 0.638648
#
# Coordination Sequence:
#
# PCOD8251371 Si02
#       7
#     8   8   8   8   8   8   8
#     4  10  20  33  49  74 108 143 183 225 274 333
#     4  10  21  38  58  83 114 147 183 232 284 332
#     4  10  19  33  53  75 105 143 182 223 269 326
#     4  10  21  36  56  82 112 145 183 228 285 336
#     4   9  18  35  56  78 105 142 183 224 271 323
#     4   9  20  36  54  76 106 144 185 227 276 329
#     4  10  21  37  57  83 112 146 186 229 278 336
#
# _framework density 20.095527000000001
#
# number of rings (size 3 to 8) (size 9 to 14) (size 15 to 20)
#    0.000    2.286    1.429    0.857    2.000    2.857 
#    0.000    0.714    0.000    0.000    0.000    0.000 
#    0.000    0.000    0.000    0.000    0.000    0.000 
#
# Total GULP energy -693808.278527 kJ/mol
# GULP energy per Si atom -12389.433545 kJ/mol
# Density = 2.004979 g / cm^3
# Si number density = 20.095527 Si / 1000 Ang^3
#
#
#
# Elastic Constant Matrix: (Units=GPa)
#
#
# Indices 1 2 3 4 5 6 
#
# 1 77.4805 41.1760 4.7908 0.0000 0.0000 0.0000
# 2 41.1760 121.1368 15.7124 0.0000 0.0000 0.0000
# 3 4.7908 15.7124 45.6357 0.0000 0.0000 0.0000
# 4 0.0000 0.0000 0.0000 16.4773 0.0000 0.0000
# 5 0.0000 0.0000 0.0000 0.0000 22.9774 0.0000
# 6 0.0000 0.0000 0.0000 0.0000 0.0000 37.7474
#
#
#
# Elastic Compliance Matrix: (Units=1/GPa)
#
#
# Indices 1 2 3 4 5 6 
#
# 1 0.015754 -0.005381 0.000199 0.000000 0.000000 0.000000
# 2 -0.005381 0.010479 -0.003043 0.000000 0.000000 0.000000
# 3 0.000199 -0.003043 0.022940 0.000000 0.000000 0.000000
# 4 0.000000 0.000000 0.000000 0.060689 0.000000 0.000000
# 5 0.000000 0.000000 0.000000 0.000000 0.043521 0.000000
# 6 0.000000 0.000000 0.000000 0.000000 0.000000 0.026492
#
#
# Mechanical properties :
#
#
# Convention : Reuss Voigt Hill
#
# Bulk Modulus (GPa) = 30.56033 40.84572 35.70302
# Shear Modulus (GPa) = 24.12761 27.61202 25.86982
#
# Velocity S-wave (km/s) = 3.46879 3.71082 3.59185
# Velocity P-wave (km/s) = 5.59320 6.22336 5.91668
#
# Compressibility (1/GPa) = 0.03272216
#
# Stress axis : x y z
#
# Youngs Moduli (GPa) = 63.47729 95.43091 43.59289
#
# Poissons Ratio (x) = 0.51348 -0.00866
# Poissons Ratio (y) = 0.34155 0.13265
# Poissons Ratio (z) = -0.01262 0.29039
#
# Static dielectric constant tensor:
#      x y z
#    x 9.632630 0.000000 0.000000 
#    y 0.000000 4.229060 0.000000 
#    z 0.000000 0.000000 3.441610 
# 
# 
# High freq. dielectric constant tensor:
#      x y z
#    x 1.778730 0.000000 0.000000 
#    y 0.000000 1.792980 0.000000 
#    z 0.000000 0.000000 1.749210 
# 
# From -- ./inp_files/20328.got.cif
#   From: 2010.03.12/outbox.cif.g09.slc.cpg/sg62_11_cif.got.tgz:20328.got - 2010.04.10 19:12:36.
