data_PCOD8251678
_publ_section_title
;
Structure prediction by ZEFSAII (Michael W. Deem and Ramdas Pophale) SiO2 
 PCOD8251678
Probable space group: P N M A
;
_chemical_formula_sum "Si O2"
_cell_formula_units_Z 48
_cell_length_a 18.854424
_cell_length_b 9.106850
_cell_length_c 14.964742
_cell_angle_alpha 90.000000
_cell_angle_beta 90.000000
_cell_angle_gamma 90.000000
_cell_volume 2569.512214
_symmetry_space_group_name_H-M "P N M A"
_symmetry_group_IT_number 62
_symmetry_cell_setting 'orthorhombic'
loop_
_space_group_symop_operation_xyz
x,y,z
1/2-x,-y,1/2+z
1/2+x,1/2-y,1/2-z
-x,1/2+y,-z
-x,-y,-z
1/2+x,y,1/2-z
1/2-x,1/2+y,1/2+z
x,1/2-y,z
loop_
_atom_site_type_symbol
_atom_site_label
_atom_site_fract_x
_atom_site_fract_y
_atom_site_fract_z
Si Si1 0.023593 0.924484 0.090393
Si Si2 0.259699 0.575281 0.293516
Si Si3 0.817208 0.076057 0.882265
Si Si4 0.439008 0.922401 0.055554
Si Si5 0.582675 0.075827 0.744071
Si Si6 0.211127 0.422185 0.467962
O O1 0.019439 0.750000 0.078506
O O2 0.102529 0.980095 0.111693
O O3 0.974528 0.979130 0.171930
O O4 0.000000 0.000000 0.000000
O O5 0.257418 0.750000 0.300305
O O6 0.218042 0.514785 0.207511
O O7 0.340428 0.516983 0.286760
O O8 0.218538 0.509060 0.376729
O O9 0.813685 0.250000 0.880139
O O10 0.772852 0.018788 0.966846
O O11 0.454122 0.750000 0.054480
O O12 0.438187 0.983191 0.157499
O O13 0.364046 0.960417 0.011358
O O14 0.500000 0.000000 0.000000
O O15 0.585623 0.250000 0.749020
O O16 0.218832 0.250000 0.449510
#
# Coordination Sequence:
#
# PCOD8251678 Si02
#       6
#     8   8   8   8   8   8
#     4  10  20  34  54  79 105 137 177 218 262 312
#     4  10  19  34  57  81 103 138 184 219 255 317
#     4   9  18  34  55  77 103 140 180 212 256 323
#     4  10  21  37  56  79 109 145 183 224 271 321
#     4   9  18  35  57  79 107 143 180 218 261 316
#     4  10  20  36  55  78 110 141 172 222 279 316
#
# _framework density 18.680588
#
# number of rings (size 3 to 8) (size 9 to 14) (size 15 to 20)
#    0.000    2.333    1.667    1.000    2.333    0.667 
#    0.000    3.333    0.000    0.000    0.000    0.000 
#    0.000    0.000    0.000    0.000    0.000    0.000 
#
# Total GULP energy -595230.237162 kJ/mol
# GULP energy per Si atom -12400.629941 kJ/mol
# Density = 1.863807 g / cm^3
# Si number density = 18.680588 Si / 1000 Ang^3
#
#
#
# Elastic Constant Matrix: (Units=GPa)
#
#
# Indices 1 2 3 4 5 6 
#
# 1 155.1058 30.2985 68.5563 0.0000 0.0000 0.0000
# 2 30.2985 20.8010 28.5818 0.0000 0.0000 0.0000
# 3 68.5563 28.5818 147.9016 0.0000 0.0000 0.0000
# 4 0.0000 0.0000 0.0000 32.7322 0.0000 0.0000
# 5 0.0000 0.0000 0.0000 0.0000 42.2093 0.0000
# 6 0.0000 0.0000 0.0000 0.0000 0.0000 21.9609
#
#
#
# Elastic Compliance Matrix: (Units=1/GPa)
#
#
# Indices 1 2 3 4 5 6 
#
# 1 0.009588 -0.010700 -0.002376 0.000000 0.000000 0.000000
# 2 -0.010700 0.077397 -0.009997 0.000000 0.000000 0.000000
# 3 -0.002376 -0.009997 0.009795 0.000000 0.000000 0.000000
# 4 0.000000 0.000000 0.000000 0.030551 0.000000 0.000000
# 5 0.000000 0.000000 0.000000 0.000000 0.023691 0.000000
# 6 0.000000 0.000000 0.000000 0.000000 0.000000 0.045536
#
#
# Mechanical properties :
#
#
# Convention : Reuss Voigt Hill
#
# Bulk Modulus (GPa) = 19.75030 64.29796 42.02413
# Shear Modulus (GPa) = 19.26176 32.47193 25.86685
#
# Velocity S-wave (km/s) = 3.21458 4.17378 3.72518
# Velocity P-wave (km/s) = 4.93696 7.59748 6.40684
#
# Compressibility (1/GPa) = 0.05063215
#
# Stress axis : x y z
#
# Youngs Moduli (GPa) = 104.30003 12.92043 102.09606
#
# Poissons Ratio (x) = 0.13825 0.24262
# Poissons Ratio (y) = 1.11602 1.02066
# Poissons Ratio (z) = 0.24786 0.12917
#
# Static dielectric constant tensor:
#      x y z
#    x 3.762870 0.000000 0.000000 
#    y 0.000000 2.974400 0.000000 
#    z 0.000000 0.000000 3.565400 
# 
# 
# High freq. dielectric constant tensor:
#      x y z
#    x 1.742650 0.000000 0.000000 
#    y 0.000000 1.679210 0.000000 
#    z 0.000000 0.000000 1.743330 
# 
# From -- ./inp_files/14081.got.cif
#   From: 2010.03.12/outbox.cif.g09.slc.cpg/sg62_8_cif.got.tgz:14081.got - 2010.04.10 19:12:36.
