data_PCOD8251542
_publ_section_title
;
Structure prediction by ZEFSAII (Michael W. Deem and Ramdas Pophale) SiO2 
 PCOD8251542
Probable space group: P N M A
;
_chemical_formula_sum "Si O2"
_cell_formula_units_Z 48
_cell_length_a 13.638547
_cell_length_b 13.683904
_cell_length_c 13.183092
_cell_angle_alpha 90.000000
_cell_angle_beta 90.000000
_cell_angle_gamma 90.000000
_cell_volume 2460.341580
_symmetry_space_group_name_H-M "P N M A"
_symmetry_group_IT_number 62
_symmetry_cell_setting 'orthorhombic'
loop_
_space_group_symop_operation_xyz
x,y,z
1/2-x,-y,1/2+z
1/2+x,1/2-y,1/2-z
-x,1/2+y,-z
-x,-y,-z
1/2+x,y,1/2-z
1/2-x,1/2+y,1/2+z
x,1/2-y,z
loop_
_atom_site_type_symbol
_atom_site_label
_atom_site_fract_x
_atom_site_fract_y
_atom_site_fract_z
Si Si1 0.353779 0.462518 0.434562
Si Si2 0.658570 0.527040 0.804746
Si Si3 0.979267 0.861952 0.612144
Si Si4 0.175976 0.136740 0.548868
Si Si5 0.153299 0.357618 0.211082
Si Si6 0.455115 0.857960 0.511037
O O1 0.362742 0.453472 0.313090
O O2 0.250929 0.421817 0.475468
O O3 0.436382 0.402875 0.496446
O O4 0.372097 0.577157 0.455845
O O5 0.577248 0.575161 0.877463
O O6 0.668233 0.413663 0.839947
O O7 0.762271 0.574102 0.832220
O O8 0.004829 0.750000 0.639882
O O9 0.932718 0.869791 0.500210
O O10 0.896153 0.902538 0.688768
O O11 0.208569 0.250000 0.560905
O O12 0.197221 0.250000 0.235259
O O13 0.067716 0.350546 0.129318
O O14 0.454275 0.750000 0.460737
#
# Coordination Sequence:
#
# PCOD8251542 Si02
#       6
#     8   8   8   8   8   8
#     4  11  22  37  62  87 116 159 197 242 297 346
#     4  12  22  37  61  86 117 154 196 239 291 348
#     4  10  21  37  59  87 115 147 193 244 293 346
#     4  11  24  40  57  85 123 160 194 236 294 358
#     4  10  19  33  58  89 114 142 192 248 291 336
#     4  10  21  38  59  88 118 148 197 251 295 341
#
# _framework density 19.509487
#
# number of rings (size 3 to 8) (size 9 to 14) (size 15 to 20)
#    0.000    1.333    5.000    1.500    0.000    2.000 
#    0.000    0.000    0.000    1.000    0.000    0.000 
#    0.000    0.000    0.000    0.000    0.000    0.000 
#
# Total GULP energy -595036.594246 kJ/mol
# GULP energy per Si atom -12396.595713 kJ/mol
# Density = 1.946508 g / cm^3
# Si number density = 19.509487 Si / 1000 Ang^3
#
#
#
# Elastic Constant Matrix: (Units=GPa)
#
#
# Indices 1 2 3 4 5 6 
#
# 1 72.8407 35.8670 8.4732 0.0000 0.0000 0.0000
# 2 35.8670 120.8372 19.0275 0.0000 0.0000 0.0000
# 3 8.4732 19.0275 40.8054 0.0000 0.0000 0.0000
# 4 0.0000 0.0000 0.0000 26.9276 0.0000 0.0000
# 5 0.0000 0.0000 0.0000 0.0000 21.8546 0.0000
# 6 0.0000 0.0000 0.0000 0.0000 0.0000 27.1611
#
#
#
# Elastic Compliance Matrix: (Units=1/GPa)
#
#
# Indices 1 2 3 4 5 6 
#
# 1 0.016133 -0.004599 -0.001206 0.000000 0.000000 0.000000
# 2 -0.004599 0.010242 -0.003821 0.000000 0.000000 0.000000
# 3 -0.001206 -0.003821 0.026539 0.000000 0.000000 0.000000
# 4 0.000000 0.000000 0.000000 0.037137 0.000000 0.000000
# 5 0.000000 0.000000 0.000000 0.000000 0.045757 0.000000
# 6 0.000000 0.000000 0.000000 0.000000 0.000000 0.036817
#
#
# Mechanical properties :
#
#
# Convention : Reuss Voigt Hill
#
# Bulk Modulus (GPa) = 29.70596 40.13541 34.92068
# Shear Modulus (GPa) = 24.61873 26.59637 25.60755
#
# Velocity S-wave (km/s) = 3.55616 3.69623 3.62687
# Velocity P-wave (km/s) = 5.66755 6.23162 5.95627
#
# Compressibility (1/GPa) = 0.03366328
#
# Stress axis : x y z
#
# Youngs Moduli (GPa) = 61.98346 97.63423 37.68087
#
# Poissons Ratio (x) = 0.44901 0.04543
# Poissons Ratio (y) = 0.28505 0.14398
# Poissons Ratio (z) = 0.07473 0.37306
#
# Static dielectric constant tensor:
#      x y z
#    x 3.443740 0.000000 0.000000 
#    y 0.000000 3.690470 0.000000 
#    z 0.000000 0.000000 3.342020 
# 
# 
# High freq. dielectric constant tensor:
#      x y z
#    x 1.760260 0.000000 0.000000 
#    y 0.000000 1.758550 0.000000 
#    z 0.000000 0.000000 1.742250 
# 
# From -- ./inp_files/13307.got.cif
#   From: 2010.03.12/outbox.cif.g09.slc.cpg/sg62_7_cif.got.tgz:13307.got - 2010.04.10 19:12:36.
