data_PCOD8251975
_publ_section_title
;
Structure prediction by ZEFSAII (Michael W. Deem and Ramdas Pophale) SiO2 
 PCOD8251975
Probable space group: P N M A
;
_chemical_formula_sum "Si O2"
_cell_formula_units_Z 48
_cell_length_a 20.388280
_cell_length_b 8.775700
_cell_length_c 14.038817
_cell_angle_alpha 90.000000
_cell_angle_beta 90.000000
_cell_angle_gamma 90.000000
_cell_volume 2511.845196
_symmetry_space_group_name_H-M "P N M A"
_symmetry_group_IT_number 62
_symmetry_cell_setting 'orthorhombic'
loop_
_space_group_symop_operation_xyz
x,y,z
1/2-x,-y,1/2+z
1/2+x,1/2-y,1/2-z
-x,1/2+y,-z
-x,-y,-z
1/2+x,y,1/2-z
1/2-x,1/2+y,1/2+z
x,1/2-y,z
loop_
_atom_site_type_symbol
_atom_site_label
_atom_site_fract_x
_atom_site_fract_y
_atom_site_fract_z
Si Si1 0.062226 0.924800 0.453516
Si Si2 0.498344 0.423746 0.755360
Si Si3 0.683016 0.931004 0.550993
Si Si4 0.139371 0.569644 0.741268
Si Si5 0.942388 0.429347 0.941316
Si Si6 0.185189 0.430621 0.548875
O O1 0.069610 0.750000 0.487113
O O2 0.052700 0.938464 0.341080
O O3 0.125018 0.019577 0.483877
O O4 0.000000 0.000000 0.500000
O O5 0.522912 0.250000 0.743326
O O6 0.563039 0.525139 0.768308
O O7 0.454003 0.478767 0.667310
O O8 0.683466 0.750000 0.552798
O O9 0.669985 0.990800 0.658801
O O10 0.626199 0.993841 0.481125
O O11 0.750741 0.992540 0.506640
O O12 0.144054 0.750000 0.734724
O O13 0.181248 0.499349 0.654911
O O14 0.944008 0.250000 0.954759
O O15 0.000000 0.500000 0.000000
O O16 0.185785 0.250000 0.559248
#
# Coordination Sequence:
#
# PCOD8251975 Si02
#       6
#     8   8   8   8   8   8
#     4  11  22  37  58  87 118 152 197 245 290 343
#     4  10  21  35  58  88 117 149 194 243 294 348
#     4   9  21  39  59  84 119 157 191 237 296 352
#     4  11  21  37  61  86 114 152 197 241 295 354
#     4  10  19  36  59  86 115 150 193 239 291 345
#     4  11  23  40  60  85 120 159 197 240 296 353
#
# _framework density 19.109456999999999
#
# number of rings (size 3 to 8) (size 9 to 14) (size 15 to 20)
#    0.000    1.667    3.333    1.500    0.000    2.000 
#    0.000    6.667    0.000    0.000    0.000    0.000 
#    0.000    0.000    0.000    0.000    0.000    0.000 
#
# Total GULP energy -595176.297752 kJ/mol
# GULP energy per Si atom -12399.506203 kJ/mol
# Density = 1.906596 g / cm^3
# Si number density = 19.109457 Si / 1000 Ang^3
#
#
#
# Elastic Constant Matrix: (Units=GPa)
#
#
# Indices 1 2 3 4 5 6 
#
# 1 142.8423 21.4703 61.0056 0.0000 0.0000 0.0000
# 2 21.4703 50.9411 28.1326 0.0000 0.0000 0.0000
# 3 61.0056 28.1326 144.5276 0.0000 0.0000 0.0000
# 4 0.0000 0.0000 0.0000 25.4184 0.0000 0.0000
# 5 0.0000 0.0000 0.0000 0.0000 35.6585 0.0000
# 6 0.0000 0.0000 0.0000 0.0000 0.0000 24.4553
#
#
#
# Elastic Compliance Matrix: (Units=1/GPa)
#
#
# Indices 1 2 3 4 5 6 
#
# 1 0.008691 -0.001834 -0.003311 0.000000 0.000000 0.000000
# 2 -0.001834 0.022382 -0.003582 0.000000 0.000000 0.000000
# 3 -0.003311 -0.003582 0.009014 0.000000 0.000000 0.000000
# 4 0.000000 0.000000 0.000000 0.039342 0.000000 0.000000
# 5 0.000000 0.000000 0.000000 0.000000 0.028044 0.000000
# 6 0.000000 0.000000 0.000000 0.000000 0.000000 0.040891
#
#
# Mechanical properties :
#
#
# Convention : Reuss Voigt Hill
#
# Bulk Modulus (GPa) = 44.18751 62.16979 53.17865
# Shear Modulus (GPa) = 28.84128 32.28662 30.56395
#
# Velocity S-wave (km/s) = 3.88914 4.11489 4.00361
# Velocity P-wave (km/s) = 6.58337 7.42836 7.01860
#
# Compressibility (1/GPa) = 0.02263083
#
# Stress axis : x y z
#
# Youngs Moduli (GPa) = 115.06655 44.67871 110.93673
#
# Poissons Ratio (x) = 0.08195 0.36735
# Poissons Ratio (y) = 0.21105 0.39743
# Poissons Ratio (z) = 0.38102 0.16006
#
# Static dielectric constant tensor:
#      x y z
#    x 3.782310 0.000000 0.000000 
#    y 0.000000 3.400170 0.000000 
#    z 0.000000 0.000000 3.728600 
# 
# 
# High freq. dielectric constant tensor:
#      x y z
#    x 1.740310 0.000000 0.000000 
#    y 0.000000 1.731750 0.000000 
#    z 0.000000 0.000000 1.763630 
# 
# From -- ./inp_files/19540.got.cif
#   From: 2010.03.12/outbox.cif.g09.slc.cpg/sg62_10_cif.got.tgz:19540.got - 2010.04.10 19:12:36.
