data_PCOD8251300
_publ_section_title
;
Structure prediction by ZEFSAII (Michael W. Deem and Ramdas Pophale) SiO2 
 PCOD8251300
Probable space group: P N M A
;
_chemical_formula_sum "Si O2"
_cell_formula_units_Z 64
_cell_length_a 11.426715
_cell_length_b 9.098110
_cell_length_c 32.669825
_cell_angle_alpha 90.000000
_cell_angle_beta 90.000000
_cell_angle_gamma 90.000000
_cell_volume 3396.404339
_symmetry_space_group_name_H-M "P N M A"
_symmetry_group_IT_number 62
_symmetry_cell_setting 'orthorhombic'
loop_
_space_group_symop_operation_xyz
x,y,z
1/2-x,-y,1/2+z
1/2+x,1/2-y,1/2-z
-x,1/2+y,-z
-x,-y,-z
1/2+x,y,1/2-z
1/2-x,1/2+y,1/2+z
x,1/2-y,z
loop_
_atom_site_type_symbol
_atom_site_label
_atom_site_fract_x
_atom_site_fract_y
_atom_site_fract_z
Si Si1 0.789106 0.921300 0.863814
Si Si2 0.819301 0.421767 0.590479
Si Si3 0.592002 0.079316 0.447951
Si Si4 0.106287 0.078989 0.283792
Si Si5 0.332978 0.421810 0.473694
Si Si6 0.479507 0.419681 0.132626
Si Si7 0.194538 0.419111 0.826299
Si Si8 0.937806 0.078633 0.798824
O O1 0.802356 0.750000 0.853415
O O2 0.865321 0.966416 0.903085
O O3 0.655227 0.963118 0.872438
O O4 0.831811 0.012020 0.824783
O O5 0.827815 0.250000 0.581641
O O6 0.772173 0.500982 0.550169
O O7 0.948079 0.482183 0.600722
O O8 0.731837 0.459201 0.627684
O O9 0.616464 0.250000 0.457118
O O10 0.454784 0.042316 0.450897
O O11 0.664605 0.984482 0.480467
O O12 0.117146 0.250000 0.273675
O O13 0.018508 0.046480 0.321069
O O14 0.235283 0.018817 0.294144
O O15 0.053340 0.996257 0.245132
O O16 0.307559 0.250000 0.475660
O O17 0.502443 0.250000 0.121835
O O18 0.223339 0.250000 0.816159
O O19 0.057939 0.453797 0.822622
O O20 0.914783 0.250000 0.792717
#
# Coordination Sequence:
#
# PCOD8251300 Si02
#       8
#     8   8   8   8   8   8   8   8
#     4  10  21  38  58  81 110 144 183 224 275 332
#     4  10  19  34  57  81 107 142 184 225 271 325
#     4   9  19  35  55  82 114 146 180 225 276 328
#     4  10  21  36  55  78 105 139 181 225 270 320
#     4  10  19  32  55  84 114 145 181 225 275 327
#     4   9  20  38  57  78 107 142 181 227 274 323
#     4   9  20  37  54  77 107 139 177 224 272 321
#     4  11  23  36  54  80 109 141 178 222 273 328
#
# _framework density 18.843457000000001
#
# number of rings (size 3 to 8) (size 9 to 14) (size 15 to 20)
#    0.000    2.250    0.000    2.250    1.750    3.500 
#    0.000    0.625    0.000    0.000    0.000    0.000 
#    0.000    0.000    0.000    0.000    0.000    0.000 
#
# Total GULP energy -793946.157804 kJ/mol
# GULP energy per Si atom -12405.408716 kJ/mol
# Density = 1.880057 g / cm^3
# Si number density = 18.843457 Si / 1000 Ang^3
#
#
#
# Elastic Constant Matrix: (Units=GPa)
#
#
# Indices 1 2 3 4 5 6 
#
# 1 65.3956 28.5585 16.3463 0.0000 0.0000 0.0000
# 2 28.5585 74.8893 29.4962 0.0000 0.0000 0.0000
# 3 16.3463 29.4962 59.0845 0.0000 0.0000 0.0000
# 4 0.0000 0.0000 0.0000 34.6408 0.0000 0.0000
# 5 0.0000 0.0000 0.0000 0.0000 22.1196 0.0000
# 6 0.0000 0.0000 0.0000 0.0000 0.0000 29.3977
#
#
#
# Elastic Compliance Matrix: (Units=1/GPa)
#
#
# Indices 1 2 3 4 5 6 
#
# 1 0.018533 -0.006283 -0.001991 0.000000 0.000000 0.000000
# 2 -0.006283 0.018752 -0.007623 0.000000 0.000000 0.000000
# 3 -0.001991 -0.007623 0.021281 0.000000 0.000000 0.000000
# 4 0.000000 0.000000 0.000000 0.028868 0.000000 0.000000
# 5 0.000000 0.000000 0.000000 0.000000 0.045209 0.000000
# 6 0.000000 0.000000 0.000000 0.000000 0.000000 0.034016
#
#
# Mechanical properties :
#
#
# Convention : Reuss Voigt Hill
#
# Bulk Modulus (GPa) = 37.35222 38.68571 38.01897
# Shear Modulus (GPa) = 24.11078 25.56284 24.83681
#
# Velocity S-wave (km/s) = 3.58093 3.68719 3.63445
# Velocity P-wave (km/s) = 6.07971 6.22107 6.15080
#
# Compressibility (1/GPa) = 0.02677217
#
# Stress axis : x y z
#
# Youngs Moduli (GPa) = 53.95742 53.32894 46.99019
#
# Poissons Ratio (x) = 0.33509 0.09353
# Poissons Ratio (y) = 0.33904 0.35820
# Poissons Ratio (z) = 0.10740 0.40651
#
# Static dielectric constant tensor:
#      x y z
#    x 3.385400 0.000000 0.000000 
#    y 0.000000 3.470030 0.000000 
#    z 0.000000 0.000000 3.375090 
# 
# 
# High freq. dielectric constant tensor:
#      x y z
#    x 1.727520 0.000000 0.000000 
#    y 0.000000 1.737520 0.000000 
#    z 0.000000 0.000000 1.728710 
# 
# From -- ./inp_files/32485.got.cif
#   From: 2010.03.12/outbox.cif.g09.slc.cpg/sg62_17_cif.got.tgz:32485.got - 2010.04.10 19:12:36.
