data_PCOD8251153
_publ_section_title
;
Structure prediction by ZEFSAII (Michael W. Deem and Ramdas Pophale) SiO2 
 PCOD8251153
Probable space group: P N M A
;
_chemical_formula_sum "Si O2"
_cell_formula_units_Z 48
_cell_length_a 19.266589
_cell_length_b 8.825638
_cell_length_c 15.603209
_cell_angle_alpha 90.000000
_cell_angle_beta 90.000000
_cell_angle_gamma 90.000000
_cell_volume 2653.168722
_symmetry_space_group_name_H-M "P N M A"
_symmetry_group_IT_number 62
_symmetry_cell_setting 'orthorhombic'
loop_
_space_group_symop_operation_xyz
x,y,z
1/2-x,-y,1/2+z
1/2+x,1/2-y,1/2-z
-x,1/2+y,-z
-x,-y,-z
1/2+x,y,1/2-z
1/2-x,1/2+y,1/2+z
x,1/2-y,z
loop_
_atom_site_type_symbol
_atom_site_label
_atom_site_fract_x
_atom_site_fract_y
_atom_site_fract_z
Si Si1 0.546287 0.930078 0.073875
Si Si2 0.540543 0.420721 0.249487
Si Si3 0.298678 0.072470 0.575991
Si Si4 0.304053 0.930200 0.930881
Si Si5 0.794600 0.916985 0.755687
Si Si6 0.043649 0.569757 0.076232
O O1 0.541233 0.750000 0.073191
O O2 0.516455 0.990628 0.164515
O O3 0.624869 0.980462 0.056810
O O4 0.500000 0.000000 0.000000
O O5 0.510109 0.250000 0.248531
O O6 0.622911 0.416940 0.250349
O O7 0.513246 0.507881 0.333890
O O8 0.298300 0.250000 0.570105
O O9 0.249360 0.007335 0.501826
O O10 0.377051 0.012394 0.564043
O O11 0.268216 0.026436 0.669007
O O12 0.318804 0.750000 0.937639
O O13 0.268803 0.968706 0.838527
O O14 0.766385 0.750000 0.777615
O O15 0.038269 0.750000 0.075504
O O16 0.000000 0.500000 0.000000
#
# Coordination Sequence:
#
# PCOD8251153 Si02
#       6
#     8   8   8   8   8   8
#     4  11  21  34  53  77 102 131 166 205 248 300
#     4   9  17  32  52  73  98 132 169 207 249 299
#     4   9  18  32  51  72  97 129 167 207 249 294
#     4   9  18  34  52  72  99 131 164 204 250 296
#     4   8  15  28  48  70  94 125 162 200 244 296
#     4  10  19  32  51  76 103 136 173 211 253 299
#
# _framework density 18.091576
#
# number of rings (size 3 to 8) (size 9 to 14) (size 15 to 20)
#    0.000    2.667    0.000    3.500    0.000    5.333 
#    0.000    1.667    0.000    6.000    0.000    0.000 
#    0.000    0.000    0.000    0.000    0.000    0.000 
#
# Total GULP energy -595008.790549 kJ/mol
# GULP energy per Si atom -12396.016470 kJ/mol
# Density = 1.805040 g / cm^3
# Si number density = 18.091576 Si / 1000 Ang^3
#
#
#
# Elastic Constant Matrix: (Units=GPa)
#
#
# Indices 1 2 3 4 5 6 
#
# 1 48.7618 31.1474 59.4282 0.0000 0.0000 0.0000
# 2 31.1474 90.9958 58.2887 0.0000 0.0000 0.0000
# 3 59.4282 58.2887 188.8293 0.0000 0.0000 0.0000
# 4 0.0000 0.0000 0.0000 37.9204 0.0000 0.0000
# 5 0.0000 0.0000 0.0000 0.0000 33.0258 0.0000
# 6 0.0000 0.0000 0.0000 0.0000 0.0000 19.2441
#
#
#
# Elastic Compliance Matrix: (Units=1/GPa)
#
#
# Indices 1 2 3 4 5 6 
#
# 1 0.035954 -0.006305 -0.009369 0.000000 0.000000 0.000000
# 2 -0.006305 0.014804 -0.002585 0.000000 0.000000 0.000000
# 3 -0.009369 -0.002585 0.009042 0.000000 0.000000 0.000000
# 4 0.000000 0.000000 0.000000 0.026371 0.000000 0.000000
# 5 0.000000 0.000000 0.000000 0.000000 0.030279 0.000000
# 6 0.000000 0.000000 0.000000 0.000000 0.000000 0.051964
#
#
# Mechanical properties :
#
#
# Convention : Reuss Voigt Hill
#
# Bulk Modulus (GPa) = 42.95378 69.59063 56.27220
# Shear Modulus (GPa) = 23.50789 30.01955 26.76372
#
# Velocity S-wave (km/s) = 3.60861 4.07788 3.85040
# Velocity P-wave (km/s) = 6.41535 7.79240 7.13716
#
# Compressibility (1/GPa) = 0.02328084
#
# Stress axis : x y z
#
# Youngs Moduli (GPa) = 27.81332 67.54987 110.58963
#
# Poissons Ratio (x) = 0.42593 1.03612
# Poissons Ratio (y) = 0.17537 0.28591
# Poissons Ratio (z) = 0.26058 0.17464
#
# Static dielectric constant tensor:
#      x y z
#    x 3.215020 0.000000 0.000000 
#    y 0.000000 3.391290 0.000000 
#    z 0.000000 0.000000 3.736710 
# 
# 
# High freq. dielectric constant tensor:
#      x y z
#    x 1.655370 0.000000 0.000000 
#    y 0.000000 1.702430 0.000000 
#    z 0.000000 0.000000 1.722140 
# 
# From -- ./inp_files/20045.got.cif
#   From: 2010.03.12/outbox.cif.g09.slc.cpg/sg62_11_cif.got.tgz:20045.got - 2010.04.10 19:12:36.
