data_PCOD8251394
_publ_section_title
;
Structure prediction by ZEFSAII (Michael W. Deem and Ramdas Pophale) SiO2 
 PCOD8251394
Probable space group: P N M A
;
_chemical_formula_sum "Si O2"
_cell_formula_units_Z 64
_cell_length_a 24.771001
_cell_length_b 9.258865
_cell_length_c 14.266102
_cell_angle_alpha 90.000000
_cell_angle_beta 90.000000
_cell_angle_gamma 90.000000
_cell_volume 3271.949812
_symmetry_space_group_name_H-M "P N M A"
_symmetry_group_IT_number 62
_symmetry_cell_setting 'orthorhombic'
loop_
_space_group_symop_operation_xyz
x,y,z
1/2-x,-y,1/2+z
1/2+x,1/2-y,1/2-z
-x,1/2+y,-z
-x,-y,-z
1/2+x,y,1/2-z
1/2-x,1/2+y,1/2+z
x,1/2-y,z
loop_
_atom_site_type_symbol
_atom_site_label
_atom_site_fract_x
_atom_site_fract_y
_atom_site_fract_z
Si Si1 0.808316 0.577516 0.781906
Si Si2 0.829951 0.078248 0.974076
Si Si3 0.945192 0.081380 0.474829
Si Si4 0.592647 0.920476 0.772047
Si Si5 0.299087 0.420639 0.322143
Si Si6 0.395673 0.084294 0.838100
Si Si7 0.504374 0.592076 0.273959
Si Si8 0.449870 0.091193 0.531592
O O1 0.811546 0.750000 0.791864
O O2 0.807105 0.507872 0.885160
O O3 0.754352 0.523709 0.729491
O O4 0.857531 0.524643 0.717706
O O5 0.827728 0.250000 0.953421
O O6 0.891497 0.028149 0.995482
O O7 0.797185 0.033837 0.067915
O O8 0.959772 0.250000 0.468246
O O9 0.919265 0.024969 0.377441
O O10 0.896672 0.055367 0.550220
O O11 0.000000 0.000000 0.500000
O O12 0.593067 0.750000 0.764486
O O13 0.648850 0.984882 0.732626
O O14 0.543557 0.978613 0.707716
O O15 0.302502 0.250000 0.316674
O O16 0.379423 0.250000 0.814018
O O17 0.458700 0.052983 0.814805
O O18 0.477412 0.750000 0.262190
O O19 0.548252 0.594401 0.356493
O O20 0.456071 0.250000 0.487233
O O21 0.500000 0.000000 0.500000
#
# Coordination Sequence:
#
# PCOD8251394 Si02
#       8
#     8   8   8   8   8   8   8   8
#     4  11  23  39  61  89 115 146 197 253 283 322
#     4  10  20  40  63  81 111 156 190 224 290 358
#     4  10  20  33  55  84 115 152 191 231 283 342
#     4  10  20  36  58  84 113 151 192 234 288 344
#     4   9  21  40  60  83 116 151 189 237 290 341
#     4  10  20  37  57  80 115 157 191 228 287 350
#     4  10  19  33  53  80 114 146 183 230 281 339
#     4  10  20  33  53  81 111 146 186 227 278 340
#
# _framework density 19.560203000000001
#
# number of rings (size 3 to 8) (size 9 to 14) (size 15 to 20)
#    0.000    2.000    2.500    1.125    0.000    4.000 
#    0.000    4.375    0.000    0.000    0.000    0.000 
#    0.000    0.000    0.000    0.000    0.000    0.000 
#
# Total GULP energy -793292.370720 kJ/mol
# GULP energy per Si atom -12395.193292 kJ/mol
# Density = 1.951568 g / cm^3
# Si number density = 19.560203 Si / 1000 Ang^3
#
#
#
# Elastic Constant Matrix: (Units=GPa)
#
#
# Indices 1 2 3 4 5 6 
#
# 1 112.1602 41.8590 60.1752 0.0000 0.0000 0.0000
# 2 41.8590 53.0057 39.3930 0.0000 0.0000 0.0000
# 3 60.1752 39.3930 111.4397 0.0000 0.0000 0.0000
# 4 0.0000 0.0000 0.0000 26.8089 0.0000 0.0000
# 5 0.0000 0.0000 0.0000 0.0000 33.1682 0.0000
# 6 0.0000 0.0000 0.0000 0.0000 0.0000 23.4457
#
#
#
# Elastic Compliance Matrix: (Units=1/GPa)
#
#
# Indices 1 2 3 4 5 6 
#
# 1 0.014530 -0.007655 -0.005140 0.000000 0.000000 0.000000
# 2 -0.007655 0.029621 -0.006337 0.000000 0.000000 0.000000
# 3 -0.005140 -0.006337 0.013989 0.000000 0.000000 0.000000
# 4 0.000000 0.000000 0.000000 0.037301 0.000000 0.000000
# 5 0.000000 0.000000 0.000000 0.000000 0.030149 0.000000
# 6 0.000000 0.000000 0.000000 0.000000 0.000000 0.042652
#
#
# Mechanical properties :
#
#
# Convention : Reuss Voigt Hill
#
# Bulk Modulus (GPa) = 50.31213 62.16221 56.23717
# Shear Modulus (GPa) = 23.45965 25.69647 24.57806
#
# Velocity S-wave (km/s) = 3.46693 3.62845 3.54861
# Velocity P-wave (km/s) = 6.46557 7.02873 6.75303
#
# Compressibility (1/GPa) = 0.01987592
#
# Stress axis : x y z
#
# Youngs Moduli (GPa) = 68.82127 33.76035 71.48315
#
# Poissons Ratio (x) = 0.25842 0.36745
# Poissons Ratio (y) = 0.52680 0.45301
# Poissons Ratio (z) = 0.35376 0.21395
#
# Static dielectric constant tensor:
#      x y z
#    x 3.538020 0.000000 0.000000 
#    y 0.000000 3.351930 0.000000 
#    z 0.000000 0.000000 4.020830 
# 
# 
# High freq. dielectric constant tensor:
#      x y z
#    x 1.751050 0.000000 0.000000 
#    y 0.000000 1.738640 0.000000 
#    z 0.000000 0.000000 1.781870 
# 
# From -- ./inp_files/21003.got.cif
#   From: 2010.03.12/outbox.cif.g09.slc.cpg/sg62_11_cif.got.tgz:21003.got - 2010.04.10 19:12:36.
