data_PCOD8251462
_publ_section_title
;
Structure prediction by ZEFSAII (Michael W. Deem and Ramdas Pophale) SiO2 
 PCOD8251462
Probable space group: P N M A
;
_chemical_formula_sum "Si O2"
_cell_formula_units_Z 56
_cell_length_a 18.195035
_cell_length_b 8.836915
_cell_length_c 18.626441
_cell_angle_alpha 90.000000
_cell_angle_beta 90.000000
_cell_angle_gamma 90.000000
_cell_volume 2994.907780
_symmetry_space_group_name_H-M "P N M A"
_symmetry_group_IT_number 62
_symmetry_cell_setting 'orthorhombic'
loop_
_space_group_symop_operation_xyz
x,y,z
1/2-x,-y,1/2+z
1/2+x,1/2-y,1/2-z
-x,1/2+y,-z
-x,-y,-z
1/2+x,y,1/2-z
1/2-x,1/2+y,1/2+z
x,1/2-y,z
loop_
_atom_site_type_symbol
_atom_site_label
_atom_site_fract_x
_atom_site_fract_y
_atom_site_fract_z
Si Si1 0.043988 0.070514 0.638082
Si Si2 0.838153 0.073708 0.463247
Si Si3 0.809140 0.575043 0.881517
Si Si4 0.611240 0.428470 0.106293
Si Si5 0.992582 0.917298 0.207157
Si Si6 0.531452 0.073563 0.429323
Si Si7 0.659459 0.918919 0.242757
O O1 0.049536 0.250000 0.624138
O O2 0.053761 0.031806 0.722869
O O3 0.107491 0.979979 0.598787
O O4 0.966026 0.015163 0.607968
O O5 0.852268 0.250000 0.480210
O O6 0.755356 0.044564 0.437522
O O7 0.848340 0.972160 0.533179
O O8 0.816836 0.750000 0.861005
O O9 0.884876 0.517372 0.917672
O O10 0.791951 0.487847 0.807176
O O11 0.597300 0.250000 0.110072
O O12 0.664633 0.479214 0.171283
O O13 0.968289 0.750000 0.182234
O O14 0.076132 0.915958 0.232045
O O15 0.981755 0.028648 0.139826
O O16 0.526833 0.250000 0.439960
O O17 0.500000 0.000000 0.500000
O O18 0.687987 0.750000 0.225275
#
# Coordination Sequence:
#
# PCOD8251462 Si02
#       7
#     8   8   8   8   8   8   8
#     4  10  20  35  54  78 107 140 179 220 265 317
#     4  11  22  36  53  76 109 144 178 219 267 318
#     4   9  20  37  55  76 104 139 176 215 264 321
#     4  11  21  34  54  79 107 140 180 222 263 311
#     4   8  16  31  51  75 101 128 162 205 252 305
#     4  10  19  33  55  80 104 132 171 218 265 311
#     4   9  17  32  55  78 100 129 168 213 258 309
#
# _framework density 18.698405999999999
#
# number of rings (size 3 to 8) (size 9 to 14) (size 15 to 20)
#    0.000    2.286    0.000    4.286    0.000    5.714 
#    0.000    1.429    0.000    1.714    0.000    0.000 
#    0.000    0.000    0.000    0.000    0.000    0.000 
#
# Total GULP energy -694352.416572 kJ/mol
# GULP energy per Si atom -12399.150296 kJ/mol
# Density = 1.865585 g / cm^3
# Si number density = 18.698406 Si / 1000 Ang^3
#
#
#
# Elastic Constant Matrix: (Units=GPa)
#
#
# Indices 1 2 3 4 5 6 
#
# 1 51.3331 20.7659 38.5046 0.0000 0.0000 0.0000
# 2 20.7659 68.2868 38.6947 0.0000 0.0000 0.0000
# 3 38.5046 38.6947 131.9395 0.0000 0.0000 0.0000
# 4 0.0000 0.0000 0.0000 40.1972 0.0000 0.0000
# 5 0.0000 0.0000 0.0000 0.0000 13.3367 0.0000
# 6 0.0000 0.0000 0.0000 0.0000 0.0000 21.6807
#
#
#
# Elastic Compliance Matrix: (Units=1/GPa)
#
#
# Indices 1 2 3 4 5 6 
#
# 1 0.025961 -0.004319 -0.006309 0.000000 0.000000 0.000000
# 2 -0.004319 0.018281 -0.004101 0.000000 0.000000 0.000000
# 3 -0.006309 -0.004101 0.010623 0.000000 0.000000 0.000000
# 4 0.000000 0.000000 0.000000 0.024877 0.000000 0.000000
# 5 0.000000 0.000000 0.000000 0.000000 0.074981 0.000000
# 6 0.000000 0.000000 0.000000 0.000000 0.000000 0.046124
#
#
# Mechanical properties :
#
#
# Convention : Reuss Voigt Hill
#
# Bulk Modulus (GPa) = 39.36112 49.72110 44.54111
# Shear Modulus (GPa) = 20.94017 25.28255 23.11136
#
# Velocity S-wave (km/s) = 3.35011 3.68111 3.51950
# Velocity P-wave (km/s) = 6.00504 6.68702 6.35519
#
# Compressibility (1/GPa) = 0.02540578
#
# Stress axis : x y z
#
# Youngs Moduli (GPa) = 38.51990 54.70029 94.13288
#
# Poissons Ratio (x) = 0.23627 0.59393
# Poissons Ratio (y) = 0.16638 0.38604
# Poissons Ratio (z) = 0.24304 0.22433
#
# Static dielectric constant tensor:
#      x y z
#    x 3.182680 0.000000 0.000000 
#    y 0.000000 3.592760 0.000000 
#    z 0.000000 0.000000 3.690060 
# 
# 
# High freq. dielectric constant tensor:
#      x y z
#    x 1.688100 0.000000 0.000000 
#    y 0.000000 1.735980 0.000000 
#    z 0.000000 0.000000 1.738510 
# 
# From -- ./inp_files/24564.got.cif
#   From: 2010.03.12/outbox.cif.g09.slc.cpg/sg62_13_cif.got.tgz:24564.got - 2010.04.10 19:12:36.
