data_PCOD8251807
_publ_section_title
;
Structure prediction by ZEFSAII (Michael W. Deem and Ramdas Pophale) SiO2 
 PCOD8251807
Probable space group: P N M A
;
_chemical_formula_sum "Si O2"
_cell_formula_units_Z 64
_cell_length_a 9.078520
_cell_length_b 23.562661
_cell_length_c 15.068331
_cell_angle_alpha 90.000000
_cell_angle_beta 90.000000
_cell_angle_gamma 90.000000
_cell_volume 3223.328301
_symmetry_space_group_name_H-M "P N M A"
_symmetry_group_IT_number 62
_symmetry_cell_setting 'orthorhombic'
loop_
_space_group_symop_operation_xyz
x,y,z
1/2-x,-y,1/2+z
1/2+x,1/2-y,1/2-z
-x,1/2+y,-z
-x,-y,-z
1/2+x,y,1/2-z
1/2-x,1/2+y,1/2+z
x,1/2-y,z
loop_
_atom_site_type_symbol
_atom_site_label
_atom_site_fract_x
_atom_site_fract_y
_atom_site_fract_z
Si Si1 0.896748 0.313938 0.002920
Si Si2 0.153223 0.603641 0.148302
Si Si3 0.404123 0.183571 0.157166
Si Si4 0.707467 0.127700 0.485557
Si Si5 0.184660 0.407328 0.825259
Si Si6 0.141282 0.966142 0.798702
Si Si7 0.319102 0.523940 0.633736
Si Si8 0.767156 0.649442 0.668868
O O1 0.917771 0.250000 0.968315
O O2 0.814300 0.349778 0.926598
O O3 0.794565 0.311913 0.089844
O O4 0.055031 0.339343 0.027672
O O5 0.247689 0.617609 0.235348
O O6 0.190029 0.542002 0.106021
O O7 0.986104 0.606856 0.179123
O O8 0.433053 0.250000 0.146977
O O9 0.334849 0.160384 0.066128
O O10 0.293913 0.171415 0.237533
O O11 0.557172 0.151936 0.174887
O O12 0.754893 0.123324 0.588715
O O13 0.682798 0.062970 0.452947
O O14 0.211545 0.474902 0.832750
O O15 0.179485 0.958946 0.694345
O O16 0.216203 0.914808 0.852345
O O17 0.965888 0.964585 0.808743
#
# Coordination Sequence:
#
# PCOD8251807 Si02
#       8
#     8   8   8   8   8   8   8   8
#     4  11  23  40  61  86 115 155 204 244 285 345
#     4   9  21  39  62  85 118 153 195 244 301 344
#     4  12  25  40  56  82 121 159 196 235 285 346
#     4  11  22  38  61  89 117 152 198 238 297 346
#     4   9  21  38  63  85 119 149 189 246 300 349
#     4  10  19  35  57  87 120 152 190 231 287 351
#     4  10  19  35  59  87 119 156 190 237 292 351
#     4  12  23  39  59  86 118 161 192 238 285 346
#
# _framework density 19.855252
#
# number of rings (size 3 to 8) (size 9 to 14) (size 15 to 20)
#    0.000    1.500    2.500    3.000    1.750    2.500 
#    0.000    3.750    0.000    0.000    0.000    0.000 
#    0.000    0.000    0.000    0.000    0.000    0.000 
#
# Total GULP energy -793805.583831 kJ/mol
# GULP energy per Si atom -12403.212247 kJ/mol
# Density = 1.981006 g / cm^3
# Si number density = 19.855252 Si / 1000 Ang^3
#
#
#
# Elastic Constant Matrix: (Units=GPa)
#
#
# Indices 1 2 3 4 5 6 
#
# 1 45.4224 0.5127 7.1411 0.0000 0.0000 0.0000
# 2 0.5127 73.1565 28.7452 0.0000 0.0000 0.0000
# 3 7.1411 28.7452 67.0397 0.0000 0.0000 0.0000
# 4 0.0000 0.0000 0.0000 31.4460 0.0000 0.0000
# 5 0.0000 0.0000 0.0000 0.0000 33.3341 0.0000
# 6 0.0000 0.0000 0.0000 0.0000 0.0000 17.5551
#
#
#
# Elastic Compliance Matrix: (Units=1/GPa)
#
#
# Indices 1 2 3 4 5 6 
#
# 1 0.022444 0.000941 -0.002794 0.000000 0.000000 0.000000
# 2 0.000941 0.016478 -0.007166 0.000000 0.000000 0.000000
# 3 -0.002794 -0.007166 0.018287 0.000000 0.000000 0.000000
# 4 0.000000 0.000000 0.000000 0.031800 0.000000 0.000000
# 5 0.000000 0.000000 0.000000 0.000000 0.029999 0.000000
# 6 0.000000 0.000000 0.000000 0.000000 0.000000 0.056963
#
#
# Mechanical properties :
#
#
# Convention : Reuss Voigt Hill
#
# Bulk Modulus (GPa) = 25.52927 28.71297 27.12112
# Shear Modulus (GPa) = 24.14665 26.41502 25.28084
#
# Velocity S-wave (km/s) = 3.49110 3.65139 3.57214
# Velocity P-wave (km/s) = 5.39777 5.68062 5.54100
#
# Compressibility (1/GPa) = 0.03917073
#
# Stress axis : x y z
#
# Youngs Moduli (GPa) = 44.55490 60.68564 54.68455
#
# Poissons Ratio (x) = -0.05708 0.15279
# Poissons Ratio (y) = -0.04191 0.39186
# Poissons Ratio (z) = 0.12449 0.43486
#
# Static dielectric constant tensor:
#      x y z
#    x 3.515230 0.000000 0.000000 
#    y 0.000000 3.765650 0.000000 
#    z 0.000000 0.000000 3.562920 
# 
# 
# High freq. dielectric constant tensor:
#      x y z
#    x 1.767900 0.000000 0.000000 
#    y 0.000000 1.778640 0.000000 
#    z 0.000000 0.000000 1.767440 
# 
# From -- ./inp_files/17367.got.cif
#   From: 2010.03.12/outbox.cif.g09.slc.cpg/sg62_9_cif.got.tgz:17367.got - 2010.04.10 19:12:36.
