data_PCOD8251587
_publ_section_title
;
Structure prediction by ZEFSAII (Michael W. Deem and Ramdas Pophale) SiO2 
 PCOD8251587
Probable space group: P N M A
;
_chemical_formula_sum "Si O2"
_cell_formula_units_Z 64
_cell_length_a 17.475869
_cell_length_b 10.499177
_cell_length_c 18.398131
_cell_angle_alpha 90.000000
_cell_angle_beta 90.000000
_cell_angle_gamma 90.000000
_cell_volume 3375.730322
_symmetry_space_group_name_H-M "P N M A"
_symmetry_group_IT_number 62
_symmetry_cell_setting 'orthorhombic'
loop_
_space_group_symop_operation_xyz
x,y,z
1/2-x,-y,1/2+z
1/2+x,1/2-y,1/2-z
-x,1/2+y,-z
-x,-y,-z
1/2+x,y,1/2-z
1/2-x,1/2+y,1/2+z
x,1/2-y,z
loop_
_atom_site_type_symbol
_atom_site_label
_atom_site_fract_x
_atom_site_fract_y
_atom_site_fract_z
Si Si1 0.720356 0.105226 0.537201
Si Si2 0.264049 0.890708 0.296146
Si Si3 0.523510 0.390250 0.912190
Si Si4 0.876521 0.531168 0.538819
Si Si5 0.439152 0.601764 0.530415
Si Si6 0.074558 0.396800 0.740084
Si Si7 0.484264 0.891762 0.691993
Si Si8 0.149683 0.388498 0.302283
O O1 0.736113 0.250000 0.515200
O O2 0.704849 0.088541 0.622587
O O3 0.644592 0.055968 0.496185
O O4 0.796232 0.029016 0.513639
O O5 0.225527 0.750000 0.290103
O O6 0.333742 0.901273 0.240483
O O7 0.203329 0.997847 0.275618
O O8 0.511608 0.250000 0.883725
O O9 0.442180 0.428419 0.944874
O O10 0.548356 0.458859 0.837216
O O11 0.591482 0.388956 0.971367
O O12 0.865064 0.613249 0.611275
O O13 0.500000 0.500000 0.500000
O O14 0.455945 0.750000 0.505733
O O15 0.438005 0.593082 0.617335
O O16 0.047792 0.250000 0.755608
O O17 0.045087 0.493292 0.802592
O O18 0.522908 0.750000 0.694179
O O19 0.428820 0.907363 0.760332
O O20 0.185763 0.250000 0.283039
#
# Coordination Sequence:
#
# PCOD8251587 Si02
#       8
#     8   8   8   8   8   8   8   8
#     4   9  18  34  55  78 105 144 189 230 277 338
#     4   9  19  34  54  77 106 141 182 226 273 326
#     4  10  20  33  53  81 112 146 189 236 278 328
#     4  10  19  34  54  79 110 150 186 231 281 335
#     4  10  21  38  59  82 111 143 184 234 282 335
#     4  10  20  36  56  81 110 144 184 231 276 326
#     4  10  21  36  54  79 109 142 179 224 273 329
#     4  10  20  35  54  77 109 146 184 224 275 328
#
# _framework density 18.958860999999999
#
# number of rings (size 3 to 8) (size 9 to 14) (size 15 to 20)
#    0.000    2.250    1.250    1.500    0.000    4.000 
#    0.000    5.000    0.000    0.000    0.000    0.000 
#    0.000    0.000    0.000    0.000    0.000    0.000 
#
# Total GULP energy -793059.588567 kJ/mol
# GULP energy per Si atom -12391.556071 kJ/mol
# Density = 1.891571 g / cm^3
# Si number density = 18.958861 Si / 1000 Ang^3
#
#
#
# Elastic Constant Matrix: (Units=GPa)
#
#
# Indices 1 2 3 4 5 6 
#
# 1 101.9896 57.8693 20.1924 0.0000 0.0000 0.0000
# 2 57.8693 113.5022 24.6603 0.0000 0.0000 0.0000
# 3 20.1924 24.6603 46.0981 0.0000 0.0000 0.0000
# 4 0.0000 0.0000 0.0000 21.1908 0.0000 0.0000
# 5 0.0000 0.0000 0.0000 0.0000 23.8819 0.0000
# 6 0.0000 0.0000 0.0000 0.0000 0.0000 26.8028
#
#
#
# Elastic Compliance Matrix: (Units=1/GPa)
#
#
# Indices 1 2 3 4 5 6 
#
# 1 0.014073 -0.006603 -0.002632 0.000000 0.000000 0.000000
# 2 -0.006603 0.013067 -0.004098 0.000000 0.000000 0.000000
# 3 -0.002632 -0.004098 0.025038 0.000000 0.000000 0.000000
# 4 0.000000 0.000000 0.000000 0.047190 0.000000 0.000000
# 5 0.000000 0.000000 0.000000 0.000000 0.041873 0.000000
# 6 0.000000 0.000000 0.000000 0.000000 0.000000 0.037310
#
#
# Mechanical properties :
#
#
# Convention : Reuss Voigt Hill
#
# Bulk Modulus (GPa) = 39.19750 51.89268 45.54509
# Shear Modulus (GPa) = 23.39502 24.96629 24.18065
#
# Velocity S-wave (km/s) = 3.51663 3.63280 3.57519
# Velocity P-wave (km/s) = 6.09990 6.71021 6.41232
#
# Compressibility (1/GPa) = 0.02551183
#
# Stress axis : x y z
#
# Youngs Moduli (GPa) = 71.05986 76.52631 39.93934
#
# Poissons Ratio (x) = 0.50531 0.10512
# Poissons Ratio (y) = 0.46922 0.16367
# Poissons Ratio (z) = 0.18702 0.31361
#
# Static dielectric constant tensor:
#      x y z
#    x 3.354000 0.000000 0.000000 
#    y 0.000000 3.586070 0.000000 
#    z 0.000000 0.000000 3.478080 
# 
# 
# High freq. dielectric constant tensor:
#      x y z
#    x 1.724530 0.000000 0.000000 
#    y 0.000000 1.738090 0.000000 
#    z 0.000000 0.000000 1.736140 
# 
# From -- ./inp_files/24021.got.cif
#   From: 2010.03.12/outbox.cif.g09.slc.cpg/sg62_13_cif.got.tgz:24021.got - 2010.04.10 19:12:36.
