data_PCOD8251339
_publ_section_title
;
Structure prediction by ZEFSAII (Michael W. Deem and Ramdas Pophale) SiO2 
 PCOD8251339
Probable space group: P N M A
;
_chemical_formula_sum "Si O2"
_cell_formula_units_Z 64
_cell_length_a 19.003281
_cell_length_b 8.611977
_cell_length_c 23.243847
_cell_angle_alpha 90.000000
_cell_angle_beta 90.000000
_cell_angle_gamma 90.000000
_cell_volume 3803.990815
_symmetry_space_group_name_H-M "P N M A"
_symmetry_group_IT_number 62
_symmetry_cell_setting 'orthorhombic'
loop_
_space_group_symop_operation_xyz
x,y,z
1/2-x,-y,1/2+z
1/2+x,1/2-y,1/2-z
-x,1/2+y,-z
-x,-y,-z
1/2+x,y,1/2-z
1/2-x,1/2+y,1/2+z
x,1/2-y,z
loop_
_atom_site_type_symbol
_atom_site_label
_atom_site_fract_x
_atom_site_fract_y
_atom_site_fract_z
Si Si1 0.999297 0.569863 0.877826
Si Si2 0.147557 0.430456 0.065737
Si Si3 0.775056 0.432616 0.165575
Si Si4 0.771736 0.431132 0.834845
Si Si5 0.645237 0.933071 0.777165
Si Si6 0.858309 0.931870 0.731953
Si Si7 0.496682 0.930301 0.252919
Si Si8 0.358089 0.067702 0.442361
O O1 0.000167 0.750000 0.859768
O O2 0.930293 0.523422 0.913299
O O3 0.002040 0.471342 0.819974
O O4 0.064994 0.528748 0.917951
O O5 0.162567 0.250000 0.075445
O O6 0.205251 0.529468 0.100371
O O7 0.155348 0.470302 0.999165
O O8 0.785264 0.250000 0.165762
O O9 0.825876 0.496558 0.215840
O O10 0.694236 0.477630 0.179524
O O11 0.800043 0.494325 0.103615
O O12 0.780567 0.250000 0.822213
O O13 0.690701 0.483075 0.826832
O O14 0.822351 0.527123 0.792454
O O15 0.654908 0.750000 0.784176
O O16 0.563783 0.978477 0.781702
O O17 0.875321 0.750000 0.732629
O O18 0.929823 0.025750 0.722934
O O19 0.482490 0.750000 0.245480
O O20 0.350196 0.250000 0.455472
#
# Coordination Sequence:
#
# PCOD8251339 Si02
#       8
#     8   8   8   8   8   8   8   8
#     4  10  20  34  50  67 100 143 180 211 249 302
#     4  11  22  34  49  72 101 142 181 210 252 306
#     4   8  16  31  52  73  94 128 170 208 252 301
#     4  11  21  34  51  76 102 130 170 218 258 298
#     4  10  19  35  55  73 100 136 168 207 258 314
#     4  10  19  33  52  73 100 136 172 208 256 314
#     4  12  22  31  49  78 106 135 171 213 257 302
#     4  10  19  34  52  72  98 135 177 219 256 293
#
# _framework density 16.824435999999999
#
# number of rings (size 3 to 8) (size 9 to 14) (size 15 to 20)
#    0.000    1.750    2.500    4.500    0.000    1.000 
#    0.000    1.250    0.000    0.000    0.000    0.875 
#    0.000    0.000    0.000    0.000    0.000    0.000 
#
# Total GULP energy -793714.707120 kJ/mol
# GULP energy per Si atom -12401.792299 kJ/mol
# Density = 1.678614 g / cm^3
# Si number density = 16.824436 Si / 1000 Ang^3
#
#
#
# Elastic Constant Matrix: (Units=GPa)
#
#
# Indices 1 2 3 4 5 6 
#
# 1 101.4801 20.9438 51.5206 0.0000 0.0000 0.0000
# 2 20.9438 58.3879 25.0206 0.0000 0.0000 0.0000
# 3 51.5206 25.0206 82.6301 0.0000 0.0000 0.0000
# 4 0.0000 0.0000 0.0000 23.7491 0.0000 0.0000
# 5 0.0000 0.0000 0.0000 0.0000 25.0511 0.0000
# 6 0.0000 0.0000 0.0000 0.0000 0.0000 23.1066
#
#
#
# Elastic Compliance Matrix: (Units=1/GPa)
#
#
# Indices 1 2 3 4 5 6 
#
# 1 0.014536 -0.001529 -0.008600 0.000000 0.000000 0.000000
# 2 -0.001529 0.019841 -0.005055 0.000000 0.000000 0.000000
# 3 -0.008600 -0.005055 0.018995 0.000000 0.000000 0.000000
# 4 0.000000 0.000000 0.000000 0.042107 0.000000 0.000000
# 5 0.000000 0.000000 0.000000 0.000000 0.039918 0.000000
# 6 0.000000 0.000000 0.000000 0.000000 0.000000 0.043278
#
#
# Mechanical properties :
#
#
# Convention : Reuss Voigt Hill
#
# Bulk Modulus (GPa) = 43.46954 48.60756 46.03855
# Shear Modulus (GPa) = 23.07213 24.04889 23.56051
#
# Velocity S-wave (km/s) = 3.70719 3.78485 3.74622
# Velocity P-wave (km/s) = 6.64963 6.93209 6.79233
#
# Compressibility (1/GPa) = 0.02300462
#
# Stress axis : x y z
#
# Youngs Moduli (GPa) = 68.79460 50.40002 52.64478
#
# Poissons Ratio (x) = 0.07704 0.45277
# Poissons Ratio (y) = 0.10516 0.26611
# Poissons Ratio (z) = 0.59167 0.25477
#
# Static dielectric constant tensor:
#      x y z
#    x 3.364210 0.000000 0.000000 
#    y 0.000000 3.048830 0.000000 
#    z 0.000000 0.000000 3.056830 
# 
# 
# High freq. dielectric constant tensor:
#      x y z
#    x 1.648320 0.000000 0.000000 
#    y 0.000000 1.648210 0.000000 
#    z 0.000000 0.000000 1.619170 
# 
# From -- ./inp_files/30032.got.cif
#   From: 2010.03.12/outbox.cif.g09.slc.cpg/sg62_16_cif.got.tgz:30032.got - 2010.04.10 19:12:36.
