data_PCOD8251042
_publ_section_title
;
Structure prediction by ZEFSAII (Michael W. Deem and Ramdas Pophale) SiO2 
 PCOD8251042
Probable space group: P N M A
;
_chemical_formula_sum "Si O2"
_cell_formula_units_Z 48
_cell_length_a 19.145431
_cell_length_b 13.640035
_cell_length_c 9.588745
_cell_angle_alpha 90.000000
_cell_angle_beta 90.000000
_cell_angle_gamma 90.000000
_cell_volume 2504.046570
_symmetry_space_group_name_H-M "P N M A"
_symmetry_group_IT_number 62
_symmetry_cell_setting 'orthorhombic'
loop_
_space_group_symop_operation_xyz
x,y,z
1/2-x,-y,1/2+z
1/2+x,1/2-y,1/2-z
-x,1/2+y,-z
-x,-y,-z
1/2+x,y,1/2-z
1/2-x,1/2+y,1/2+z
x,1/2-y,z
loop_
_atom_site_type_symbol
_atom_site_label
_atom_site_fract_x
_atom_site_fract_y
_atom_site_fract_z
Si Si1 0.423952 0.137880 0.258417
Si Si2 0.727997 0.637629 0.264771
Si Si3 0.875867 0.862425 0.146046
Si Si4 0.629724 0.544687 0.472586
Si Si5 0.987346 0.455080 0.750703
Si Si6 0.113304 0.861792 0.451893
O O1 0.448736 0.250000 0.274219
O O2 0.373711 0.107597 0.385460
O O3 0.492999 0.070032 0.255351
O O4 0.379469 0.121357 0.117125
O O5 0.714877 0.750000 0.306955
O O6 0.809293 0.615811 0.243668
O O7 0.700595 0.570592 0.391332
O O8 0.686796 0.612172 0.121508
O O9 0.877518 0.750000 0.096657
O O10 0.943510 0.888786 0.237202
O O11 0.871327 0.929153 0.007706
O O12 0.562711 0.571723 0.379647
O O13 0.948474 0.430760 0.606653
O O14 0.092076 0.750000 0.418662
#
# Coordination Sequence:
#
# PCOD8251042 Si02
#       6
#     8   8   8   8   8   8
#     4  10  19  31  51  78 103 130 172 222 262 303
#     4   9  19  36  55  75 102 138 174 208 256 316
#     4  10  20  33  53  80 107 137 177 222 263 309
#     4  10  21  35  54  78 104 138 175 215 264 316
#     4  10  20  34  52  76 106 140 174 211 264 322
#     4   9  18  33  53  75 102 137 173 210 258 318
#
# _framework density 19.168972
#
# number of rings (size 3 to 8) (size 9 to 14) (size 15 to 20)
#    0.000    2.333    0.000    3.500    0.000    6.667 
#    0.000    0.000    0.000    3.000    0.000    7.000 
#    0.000    0.000    0.000    0.000    0.000    0.000 
#
# Total GULP energy -595228.535767 kJ/mol
# GULP energy per Si atom -12400.594495 kJ/mol
# Density = 1.912534 g / cm^3
# Si number density = 19.168972 Si / 1000 Ang^3
#
#
#
# Elastic Constant Matrix: (Units=GPa)
#
#
# Indices 1 2 3 4 5 6 
#
# 1 114.4150 41.9994 42.3155 0.0000 0.0000 0.0000
# 2 41.9994 100.6082 42.4242 0.0000 0.0000 0.0000
# 3 42.3155 42.4242 118.2991 0.0000 0.0000 0.0000
# 4 0.0000 0.0000 0.0000 28.9338 0.0000 0.0000
# 5 0.0000 0.0000 0.0000 0.0000 17.2857 0.0000
# 6 0.0000 0.0000 0.0000 0.0000 0.0000 26.6058
#
#
#
# Elastic Compliance Matrix: (Units=1/GPa)
#
#
# Indices 1 2 3 4 5 6 
#
# 1 0.011007 -0.003458 -0.002697 0.000000 0.000000 0.000000
# 2 -0.003458 0.012796 -0.003352 0.000000 0.000000 0.000000
# 3 -0.002697 -0.003352 0.010620 0.000000 0.000000 0.000000
# 4 0.000000 0.000000 0.000000 0.034562 0.000000 0.000000
# 5 0.000000 0.000000 0.000000 0.000000 0.057851 0.000000
# 6 0.000000 0.000000 0.000000 0.000000 0.000000 0.037586
#
#
# Mechanical properties :
#
#
# Convention : Reuss Voigt Hill
#
# Bulk Modulus (GPa) = 64.89539 65.20006 65.04773
# Shear Modulus (GPa) = 26.51495 28.33726 27.42611
#
# Velocity S-wave (km/s) = 3.72320 3.84902 3.78664
# Velocity P-wave (km/s) = 7.23954 7.33761 7.28874
#
# Compressibility (1/GPa) = 0.01540941
#
# Stress axis : x y z
#
# Youngs Moduli (GPa) = 90.85262 78.14638 94.16065
#
# Poissons Ratio (x) = 0.27019 0.25397
# Poissons Ratio (y) = 0.31412 0.31566
# Poissons Ratio (z) = 0.24505 0.26197
#
# Static dielectric constant tensor:
#      x y z
#    x 3.390250 0.000000 0.000000 
#    y 0.000000 3.626980 0.000000 
#    z 0.000000 0.000000 3.469700 
# 
# 
# High freq. dielectric constant tensor:
#      x y z
#    x 1.735350 0.000000 0.000000 
#    y 0.000000 1.748070 0.000000 
#    z 0.000000 0.000000 1.742100 
# 
# From -- ./inp_files/7631.got.cif
#   From: 2010.03.12/outbox.cif.g09.slc.cpg/sg62_4_cif.got.tgz:7631.got - 2010.04.10 19:12:36.
