data_PCOD8251585
_publ_section_title
;
Structure prediction by ZEFSAII (Michael W. Deem and Ramdas Pophale) SiO2 
 PCOD8251585
Probable space group: P N M A
;
_chemical_formula_sum "Si O2"
_cell_formula_units_Z 48
_cell_length_a 16.545452
_cell_length_b 8.948122
_cell_length_c 17.959270
_cell_angle_alpha 90.000000
_cell_angle_beta 90.000000
_cell_angle_gamma 90.000000
_cell_volume 2658.882909
_symmetry_space_group_name_H-M "P N M A"
_symmetry_group_IT_number 62
_symmetry_cell_setting 'orthorhombic'
loop_
_space_group_symop_operation_xyz
x,y,z
1/2-x,-y,1/2+z
1/2+x,1/2-y,1/2-z
-x,1/2+y,-z
-x,-y,-z
1/2+x,y,1/2-z
1/2-x,1/2+y,1/2+z
x,1/2-y,z
loop_
_atom_site_type_symbol
_atom_site_label
_atom_site_fract_x
_atom_site_fract_y
_atom_site_fract_z
Si Si1 0.266414 0.077325 0.445859
Si Si2 0.675419 0.075226 0.335709
Si Si3 0.823979 0.577728 0.401921
Si Si4 0.360672 0.926510 0.829074
Si Si5 0.512628 0.572425 0.920541
Si Si6 0.084980 0.075418 0.015232
O O1 0.291921 0.250000 0.438809
O O2 0.204274 0.053654 0.513484
O O3 0.219843 0.016744 0.372434
O O4 0.348037 0.983806 0.457363
O O5 0.697699 0.250000 0.336846
O O6 0.638940 0.023700 0.256823
O O7 0.611094 0.037104 0.400232
O O8 0.756127 0.980276 0.345854
O O9 0.842472 0.750000 0.385314
O O10 0.903244 0.480927 0.385709
O O11 0.361005 0.750000 0.836882
O O12 0.442076 0.988532 0.866544
O O13 0.511425 0.750000 0.928578
O O14 0.500000 0.500000 0.000000
O O15 0.075568 0.250000 0.002330
O O16 0.000000 0.000000 0.000000
#
# Coordination Sequence:
#
# PCOD8251585 Si02
#       6
#     8   8   8   8   8   8
#     4   9  17  33  56  77 101 137 175 215 262 315
#     4   9  19  37  58  78 102 139 184 225 265 315
#     4  10  19  34  54  79 109 141 176 214 266 323
#     4   9  18  35  56  79 107 139 179 221 266 318
#     4  11  20  33  55  83 112 144 182 223 266 321
#     4  10  20  35  56  80 104 136 181 225 264 312
#
# _framework density 18.052695
#
# number of rings (size 3 to 8) (size 9 to 14) (size 15 to 20)
#    0.000    2.333    1.667    1.500    0.000    1.333 
#    3.000    2.500    0.000    0.000    0.000    0.000 
#    0.000    0.000    0.000    0.000    0.000    0.000 
#
# Total GULP energy -595229.647126 kJ/mol
# GULP energy per Si atom -12400.617648 kJ/mol
# Density = 1.801161 g / cm^3
# Si number density = 18.052695 Si / 1000 Ang^3
#
#
#
# Elastic Constant Matrix: (Units=GPa)
#
#
# Indices 1 2 3 4 5 6 
#
# 1 159.6083 60.9990 71.3150 0.0000 0.0000 0.0000
# 2 60.9990 71.5616 37.8169 0.0000 0.0000 0.0000
# 3 71.3150 37.8169 112.0981 0.0000 0.0000 0.0000
# 4 0.0000 0.0000 0.0000 22.6721 0.0000 0.0000
# 5 0.0000 0.0000 0.0000 0.0000 25.0434 0.0000
# 6 0.0000 0.0000 0.0000 0.0000 0.0000 35.2899
#
#
#
# Elastic Compliance Matrix: (Units=1/GPa)
#
#
# Indices 1 2 3 4 5 6 
#
# 1 0.010985 -0.006901 -0.004660 0.000000 0.000000 0.000000
# 2 -0.006901 0.021341 -0.002809 0.000000 0.000000 0.000000
# 3 -0.004660 -0.002809 0.012833 0.000000 0.000000 0.000000
# 4 0.000000 0.000000 0.000000 0.044107 0.000000 0.000000
# 5 0.000000 0.000000 0.000000 0.000000 0.039931 0.000000
# 6 0.000000 0.000000 0.000000 0.000000 0.000000 0.028337
#
#
# Mechanical properties :
#
#
# Convention : Reuss Voigt Hill
#
# Bulk Modulus (GPa) = 60.90825 75.94775 68.42800
# Shear Modulus (GPa) = 26.07597 28.14355 27.10976
#
# Velocity S-wave (km/s) = 3.80470 3.95266 3.87938
# Velocity P-wave (km/s) = 7.28789 7.93679 7.61925
#
# Compressibility (1/GPa) = 0.01641814
#
# Stress axis : x y z
#
# Youngs Moduli (GPa) = 91.03293 46.85873 77.92172
#
# Poissons Ratio (x) = 0.32336 0.36315
# Poissons Ratio (y) = 0.62820 0.21890
# Poissons Ratio (z) = 0.42426 0.13164
#
# Static dielectric constant tensor:
#      x y z
#    x 3.536420 0.000000 0.000000 
#    y 0.000000 3.289950 0.000000 
#    z 0.000000 0.000000 3.385210 
# 
# 
# High freq. dielectric constant tensor:
#      x y z
#    x 1.705930 0.000000 0.000000 
#    y 0.000000 1.689920 0.000000 
#    z 0.000000 0.000000 1.688110 
# 
# From -- ./inp_files/23688.got.cif
#   From: 2010.03.12/outbox.cif.g09.slc.cpg/sg62_12_cif.got.tgz:23688.got - 2010.04.10 19:12:36.
