data_PCOD8251956
_publ_section_title
;
Structure prediction by ZEFSAII (Michael W. Deem and Ramdas Pophale) SiO2 
 PCOD8251956
Probable space group: P N M A
;
_chemical_formula_sum "Si O2"
_cell_formula_units_Z 64
_cell_length_a 28.871489
_cell_length_b 8.785076
_cell_length_c 12.048932
_cell_angle_alpha 90.000000
_cell_angle_beta 90.000000
_cell_angle_gamma 90.000000
_cell_volume 3056.069727
_symmetry_space_group_name_H-M "P N M A"
_symmetry_group_IT_number 62
_symmetry_cell_setting 'orthorhombic'
loop_
_space_group_symop_operation_xyz
x,y,z
1/2-x,-y,1/2+z
1/2+x,1/2-y,1/2-z
-x,1/2+y,-z
-x,-y,-z
1/2+x,y,1/2-z
1/2-x,1/2+y,1/2+z
x,1/2-y,z
loop_
_atom_site_type_symbol
_atom_site_label
_atom_site_fract_x
_atom_site_fract_y
_atom_site_fract_z
Si Si1 0.029913 0.573869 0.233133
Si Si2 0.687943 0.429865 0.994808
Si Si3 0.622509 0.928332 0.158030
Si Si4 0.834436 0.430048 0.268875
Si Si5 0.721230 0.429973 0.566992
Si Si6 0.564030 0.419506 0.475831
Si Si7 0.838282 0.580404 0.861308
Si Si8 0.428675 0.571510 0.276887
O O1 0.040538 0.750000 0.222089
O O2 0.070879 0.507398 0.311448
O O3 0.031285 0.512017 0.107418
O O4 0.978586 0.542964 0.283610
O O5 0.690089 0.250000 0.982003
O O6 0.693118 0.507098 0.874764
O O7 0.639298 0.479990 0.050112
O O8 0.728753 0.490736 0.074966
O O9 0.622969 0.750000 0.130845
O O10 0.657344 0.961934 0.260448
O O11 0.829657 0.250000 0.263947
O O12 0.812994 0.501811 0.158491
O O13 0.888342 0.477233 0.282599
O O14 0.725290 0.250000 0.586376
O O15 0.702729 0.468874 0.443685
O O16 0.543494 0.250000 0.482334
O O17 0.616064 0.419225 0.434137
O O18 0.565204 0.491054 0.598216
O O19 0.829202 0.750000 0.812424
O O20 0.415312 0.750000 0.275554
#
# Coordination Sequence:
#
# PCOD8251956 Si02
#       8
#     8   8   8   8   8   8   8   8
#     4   9  19  33  56  88 124 164 209 258 312 372
#     4  12  27  46  67  90 121 164 212 260 315 375
#     4  10  21  39  61  90 127 164 209 261 311 367
#     4  12  26  44  66  95 128 163 209 261 316 376
#     4  11  23  43  68  94 126 161 203 254 312 377
#     4   9  16  29  51  82 123 163 200 245 300 363
#     4   9  18  34  58  88 122 161 199 242 302 366
#     4  10  19  36  58  86 125 168 209 257 315 370
#
# _framework density 20.941931
#
# number of rings (size 3 to 8) (size 9 to 14) (size 15 to 20)
#    0.000    1.750    1.250    3.375    1.750    2.500 
#    0.000    0.625    0.000    0.000    0.000    0.000 
#    0.000    0.000    0.000    0.000    0.000    0.000 
#
# Total GULP energy -793572.748272 kJ/mol
# GULP energy per Si atom -12399.574192 kJ/mol
# Density = 2.089427 g / cm^3
# Si number density = 20.941931 Si / 1000 Ang^3
#
#
#
# Elastic Constant Matrix: (Units=GPa)
#
#
# Indices 1 2 3 4 5 6 
#
# 1 91.8371 35.4063 31.7665 0.0000 0.0000 0.0000
# 2 35.4063 98.8824 31.6689 0.0000 0.0000 0.0000
# 3 31.7665 31.6689 52.1743 0.0000 0.0000 0.0000
# 4 0.0000 0.0000 0.0000 32.7022 0.0000 0.0000
# 5 0.0000 0.0000 0.0000 0.0000 22.7988 0.0000
# 6 0.0000 0.0000 0.0000 0.0000 0.0000 30.2315
#
#
#
# Elastic Compliance Matrix: (Units=1/GPa)
#
#
# Indices 1 2 3 4 5 6 
#
# 1 0.014444 -0.002924 -0.007020 0.000000 0.000000 0.000000
# 2 -0.002924 0.013145 -0.006199 0.000000 0.000000 0.000000
# 3 -0.007020 -0.006199 0.027203 0.000000 0.000000 0.000000
# 4 0.000000 0.000000 0.000000 0.030579 0.000000 0.000000
# 5 0.000000 0.000000 0.000000 0.000000 0.043862 0.000000
# 6 0.000000 0.000000 0.000000 0.000000 0.000000 0.033078
#
#
# Mechanical properties :
#
#
# Convention : Reuss Voigt Hill
#
# Bulk Modulus (GPa) = 44.42878 48.95303 46.69091
# Shear Modulus (GPa) = 24.74038 26.74994 25.74516
#
# Velocity S-wave (km/s) = 3.44085 3.57787 3.51003
# Velocity P-wave (km/s) = 6.08664 6.36353 6.22663
#
# Compressibility (1/GPa) = 0.02250793
#
# Stress axis : x y z
#
# Youngs Moduli (GPa) = 69.23204 76.07344 36.76057
#
# Poissons Ratio (x) = 0.22242 0.25805
# Poissons Ratio (y) = 0.20242 0.22787
# Poissons Ratio (z) = 0.48599 0.47156
#
# Static dielectric constant tensor:
#      x y z
#    x 3.996800 0.000000 0.000000 
#    y 0.000000 3.699190 0.000000 
#    z 0.000000 0.000000 3.636970 
# 
# 
# High freq. dielectric constant tensor:
#      x y z
#    x 1.831350 0.000000 0.000000 
#    y 0.000000 1.812470 0.000000 
#    z 0.000000 0.000000 1.801710 
# 
# From -- ./inp_files/15780.got.cif
#   From: 2010.03.12/outbox.cif.g09.slc.cpg/sg62_8_cif.got.tgz:15780.got - 2010.04.10 19:12:36.
