data_PCOD8251268
_publ_section_title
;
Structure prediction by ZEFSAII (Michael W. Deem and Ramdas Pophale) SiO2 
 PCOD8251268
Probable space group: P N M A
;
_chemical_formula_sum "Si O2"
_cell_formula_units_Z 40
_cell_length_a 13.605382
_cell_length_b 8.693708
_cell_length_c 18.135750
_cell_angle_alpha 90.000000
_cell_angle_beta 90.000000
_cell_angle_gamma 90.000000
_cell_volume 2145.118605
_symmetry_space_group_name_H-M "P N M A"
_symmetry_group_IT_number 62
_symmetry_cell_setting 'orthorhombic'
loop_
_space_group_symop_operation_xyz
x,y,z
1/2-x,-y,1/2+z
1/2+x,1/2-y,1/2-z
-x,1/2+y,-z
-x,-y,-z
1/2+x,y,1/2-z
1/2-x,1/2+y,1/2+z
x,1/2-y,z
loop_
_atom_site_type_symbol
_atom_site_label
_atom_site_fract_x
_atom_site_fract_y
_atom_site_fract_z
Si Si1 0.791950 0.931681 0.970553
Si Si2 0.098715 0.431603 0.468313
Si Si3 0.092521 0.932512 0.163456
Si Si4 0.173316 0.931766 0.321744
Si Si5 0.879825 0.569082 0.122724
O O1 0.776794 0.750000 0.970158
O O2 0.836891 0.987691 0.894635
O O3 0.862911 0.982486 0.038068
O O4 0.686740 0.009709 0.980372
O O5 0.094691 0.250000 0.471573
O O6 0.109894 0.485421 0.384119
O O7 0.000000 0.500000 0.500000
O O8 0.097479 0.750000 0.152380
O O9 0.130176 0.982279 0.243557
O O10 0.982151 0.999909 0.152916
O O11 0.165079 0.750000 0.334991
O O12 0.287445 0.985759 0.327523
O O13 0.888627 0.750000 0.127907
#
# Coordination Sequence:
#
# PCOD8251268 Si02
#       5
#     8   8   8   8   8
#     4  10  20  35  54  78 109 141 180 228 273 323
#     4  11  22  38  59  80 106 142 183 224 273 331
#     4  10  19  32  54  81 109 145 186 225 270 322
#     4   9  19  35  53  78 112 145 181 226 271 319
#     4   8  16  32  51  73 105 143 179 219 266 313
#
# _framework density 18.646988
#
# number of rings (size 3 to 8) (size 9 to 14) (size 15 to 20)
#    0.000    2.400    0.000    4.200    0.000    2.400 
#    0.000    8.000    0.000    0.000    0.000    0.000 
#    0.000    0.000    0.000    0.000    0.000    0.000 
#
# Total GULP energy -495985.706561 kJ/mol
# GULP energy per Si atom -12399.642664 kJ/mol
# Density = 1.860455 g / cm^3
# Si number density = 18.646988 Si / 1000 Ang^3
#
#
#
# Elastic Constant Matrix: (Units=GPa)
#
#
# Indices 1 2 3 4 5 6 
#
# 1 160.1980 58.8671 118.9014 0.0000 0.0000 0.0000
# 2 58.8671 72.8146 55.8119 0.0000 0.0000 0.0000
# 3 118.9014 55.8119 151.7599 0.0000 0.0000 0.0000
# 4 0.0000 0.0000 0.0000 27.3743 0.0000 0.0000
# 5 0.0000 0.0000 0.0000 0.0000 28.4595 0.0000
# 6 0.0000 0.0000 0.0000 0.0000 0.0000 24.1801
#
#
#
# Elastic Compliance Matrix: (Units=1/GPa)
#
#
# Indices 1 2 3 4 5 6 
#
# 1 0.015960 -0.004621 -0.010805 0.000000 0.000000 0.000000
# 2 -0.004621 0.020462 -0.003905 0.000000 0.000000 0.000000
# 3 -0.010805 -0.003905 0.016491 0.000000 0.000000 0.000000
# 4 0.000000 0.000000 0.000000 0.036531 0.000000 0.000000
# 5 0.000000 0.000000 0.000000 0.000000 0.035138 0.000000
# 6 0.000000 0.000000 0.000000 0.000000 0.000000 0.041356
#
#
# Mechanical properties :
#
#
# Convention : Reuss Voigt Hill
#
# Bulk Modulus (GPa) = 70.16706 94.65926 82.41316
# Shear Modulus (GPa) = 23.88349 26.08226 24.98288
#
# Velocity S-wave (km/s) = 3.58274 3.74403 3.66427
# Velocity P-wave (km/s) = 7.40443 8.34053 7.88638
#
# Compressibility (1/GPa) = 0.01425170
#
# Stress axis : x y z
#
# Youngs Moduli (GPa) = 62.65732 48.87011 60.63953
#
# Poissons Ratio (x) = 0.22582 0.65520
# Poissons Ratio (y) = 0.28953 0.23679
# Poissons Ratio (z) = 0.67700 0.19084
#
# Static dielectric constant tensor:
#      x y z
#    x 3.869680 0.000000 0.000000 
#    y 0.000000 3.245720 0.000000 
#    z 0.000000 0.000000 3.145010 
# 
# 
# High freq. dielectric constant tensor:
#      x y z
#    x 1.736390 0.000000 0.000000 
#    y 0.000000 1.706760 0.000000 
#    z 0.000000 0.000000 1.724380 
# 
# From -- ./inp_files/18601.got.cif
#   From: 2010.03.12/outbox.cif.g09.slc.cpg/sg62_10_cif.got.tgz:18601.got - 2010.04.10 19:12:36.
