data_PCOD8251891
_publ_section_title
;
Structure prediction by ZEFSAII (Michael W. Deem and Ramdas Pophale) SiO2 
 PCOD8251891
Probable space group: P N M A
;
_chemical_formula_sum "Si O2"
_cell_formula_units_Z 56
_cell_length_a 19.450292
_cell_length_b 8.859448
_cell_length_c 16.542926
_cell_angle_alpha 90.000000
_cell_angle_beta 90.000000
_cell_angle_gamma 90.000000
_cell_volume 2850.657993
_symmetry_space_group_name_H-M "P N M A"
_symmetry_group_IT_number 62
_symmetry_cell_setting 'orthorhombic'
loop_
_space_group_symop_operation_xyz
x,y,z
1/2-x,-y,1/2+z
1/2+x,1/2-y,1/2-z
-x,1/2+y,-z
-x,-y,-z
1/2+x,y,1/2-z
1/2-x,1/2+y,1/2+z
x,1/2-y,z
loop_
_atom_site_type_symbol
_atom_site_label
_atom_site_fract_x
_atom_site_fract_y
_atom_site_fract_z
Si Si1 0.468639 0.575303 0.257718
Si Si2 0.742109 0.426506 0.741480
Si Si3 0.888287 0.075814 0.677788
Si Si4 0.443400 0.572600 0.443286
Si Si5 0.694837 0.572576 0.581112
Si Si6 0.655787 0.425761 0.019543
Si Si7 0.357119 0.427368 0.146425
O O1 0.450295 0.750000 0.242146
O O2 0.545912 0.537028 0.231009
O O3 0.462846 0.533318 0.351379
O O4 0.418364 0.472705 0.205736
O O5 0.727009 0.250000 0.742581
O O6 0.822461 0.464221 0.733031
O O7 0.698077 0.496871 0.668877
O O8 0.714710 0.498731 0.824425
O O9 0.885794 0.250000 0.650952
O O10 0.888106 0.975476 0.597281
O O11 0.500000 0.500000 0.500000
O O12 0.439923 0.750000 0.459131
O O13 0.369860 0.498681 0.465767
O O14 0.684633 0.750000 0.592234
O O15 0.763833 0.535051 0.531525
O O16 0.643925 0.250000 0.005134
O O17 0.626323 0.515010 0.943225
O O18 0.348720 0.250000 0.145435
#
# Coordination Sequence:
#
# PCOD8251891 Si02
#       7
#     8   8   8   8   8   8   8
#     4  10  22  41  62  86 119 161 201 244 302 363
#     4  10  19  35  60  86 115 154 195 245 303 357
#     4   9  20  39  62  87 118 155 200 248 299 359
#     4  11  23  38  60  88 122 162 202 249 302 360
#     4  10  20  37  60  85 114 150 196 246 296 355
#     4  10  22  39  60  87 119 156 198 248 303 355
#     4  12  24  37  59  89 120 158 205 249 295 358
#
# _framework density 19.644586
#
# number of rings (size 3 to 8) (size 9 to 14) (size 15 to 20)
#    0.000    1.714    1.429    3.000    0.000    5.143 
#    0.000    2.857    0.000    0.000    0.000    0.000 
#    0.000    0.000    0.000    0.000    0.000    0.000 
#
# Total GULP energy -694688.706915 kJ/mol
# GULP energy per Si atom -12405.155481 kJ/mol
# Density = 1.959987 g / cm^3
# Si number density = 19.644586 Si / 1000 Ang^3
#
#
#
# Elastic Constant Matrix: (Units=GPa)
#
#
# Indices 1 2 3 4 5 6 
#
# 1 87.2743 40.0806 42.3466 0.0000 0.0000 0.0000
# 2 40.0806 102.8582 40.6426 0.0000 0.0000 0.0000
# 3 42.3466 40.6426 82.7784 0.0000 0.0000 0.0000
# 4 0.0000 0.0000 0.0000 35.4983 0.0000 0.0000
# 5 0.0000 0.0000 0.0000 0.0000 29.1640 0.0000
# 6 0.0000 0.0000 0.0000 0.0000 0.0000 28.7743
#
#
#
# Elastic Compliance Matrix: (Units=1/GPa)
#
#
# Indices 1 2 3 4 5 6 
#
# 1 0.016360 -0.003807 -0.006500 0.000000 0.000000 0.000000
# 2 -0.003807 0.012948 -0.004410 0.000000 0.000000 0.000000
# 3 -0.006500 -0.004410 0.017571 0.000000 0.000000 0.000000
# 4 0.000000 0.000000 0.000000 0.028170 0.000000 0.000000
# 5 0.000000 0.000000 0.000000 0.000000 0.034289 0.000000
# 6 0.000000 0.000000 0.000000 0.000000 0.000000 0.034753
#
#
# Mechanical properties :
#
#
# Convention : Reuss Voigt Hill
#
# Bulk Modulus (GPa) = 57.32132 57.67228 57.49680
# Shear Modulus (GPa) = 27.87989 28.67673 28.27831
#
# Velocity S-wave (km/s) = 3.77133 3.82485 3.79819
# Velocity P-wave (km/s) = 6.94309 6.99482 6.96900
#
# Compressibility (1/GPa) = 0.01744552
#
# Stress axis : x y z
#
# Youngs Moduli (GPa) = 61.12323 77.23261 56.91191
#
# Poissons Ratio (x) = 0.29399 0.36995
# Poissons Ratio (y) = 0.23267 0.25097
# Poissons Ratio (z) = 0.39733 0.34058
#
# Static dielectric constant tensor:
#      x y z
#    x 3.685740 0.000000 0.000000 
#    y 0.000000 3.605570 0.000000 
#    z 0.000000 0.000000 3.503400 
# 
# 
# High freq. dielectric constant tensor:
#      x y z
#    x 1.772000 0.000000 0.000000 
#    y 0.000000 1.772950 0.000000 
#    z 0.000000 0.000000 1.759540 
# 
# From -- ./inp_files/20198.got.cif
#   From: 2010.03.12/outbox.cif.g09.slc.cpg/sg62_11_cif.got.tgz:20198.got - 2010.04.10 19:12:36.
