data_PCOD8251859
_publ_section_title
;
Structure prediction by ZEFSAII (Michael W. Deem and Ramdas Pophale) SiO2 
 PCOD8251859
Probable space group: P N M A
;
_chemical_formula_sum "Si O2"
_cell_formula_units_Z 40
_cell_length_a 8.353568
_cell_length_b 12.402421
_cell_length_c 18.898522
_cell_angle_alpha 90.000000
_cell_angle_beta 90.000000
_cell_angle_gamma 90.000000
_cell_volume 1957.971302
_symmetry_space_group_name_H-M "P N M A"
_symmetry_group_IT_number 62
_symmetry_cell_setting 'orthorhombic'
loop_
_space_group_symop_operation_xyz
x,y,z
1/2-x,-y,1/2+z
1/2+x,1/2-y,1/2-z
-x,1/2+y,-z
-x,-y,-z
1/2+x,y,1/2-z
1/2-x,1/2+y,1/2+z
x,1/2-y,z
loop_
_atom_site_type_symbol
_atom_site_label
_atom_site_fract_x
_atom_site_fract_y
_atom_site_fract_z
Si Si1 0.441144 0.948739 0.824799
Si Si2 0.560045 0.872036 0.971530
Si Si3 0.115363 0.028525 0.063581
Si Si4 0.402308 0.126309 0.316116
Si Si5 0.373571 0.877490 0.107338
O O1 0.482460 0.882288 0.894783
O O2 0.249220 0.954388 0.818678
O O3 0.508877 0.885283 0.758052
O O4 0.523244 0.068097 0.829116
O O5 0.545683 0.750000 0.996629
O O6 0.746195 0.900405 0.971214
O O7 0.542701 0.072553 0.964407
O O8 0.191842 0.922976 0.102817
O O9 0.023728 0.098192 0.121531
O O10 0.000000 0.000000 0.000000
O O11 0.345744 0.250000 0.324961
O O12 0.369558 0.750000 0.118138
#
# Coordination Sequence:
#
# PCOD8251859 Si02
#       5
#     8   8   8   8   8
#     4  11  22  39  59  87 119 152 194 242 294 353
#     4  10  19  35  59  85 115 153 193 239 292 344
#     4  11  22  37  58  88 121 153 195 243 291 353
#     4  12  24  39  62  90 119 151 189 246 308 359
#     4  10  22  40  61  84 119 163 203 242 288 345
#
# _framework density 20.429309
#
# number of rings (size 3 to 8) (size 9 to 14) (size 15 to 20)
#    0.000    1.200    0.000    9.600    0.000    3.200 
#    0.000    5.000    0.000    0.000    0.000    0.000 
#    0.000    0.000    0.000    0.000    0.000    0.000 
#
# Total GULP energy -495985.557863 kJ/mol
# GULP energy per Si atom -12399.638947 kJ/mol
# Density = 2.038281 g / cm^3
# Si number density = 20.429309 Si / 1000 Ang^3
#
#
#
# Elastic Constant Matrix: (Units=GPa)
#
#
# Indices 1 2 3 4 5 6 
#
# 1 130.1998 26.7333 38.1996 0.0000 0.0000 0.0000
# 2 26.7333 93.0914 21.4230 0.0000 0.0000 0.0000
# 3 38.1996 21.4230 104.4934 0.0000 0.0000 0.0000
# 4 0.0000 0.0000 0.0000 23.0931 0.0000 0.0000
# 5 0.0000 0.0000 0.0000 0.0000 38.6867 0.0000
# 6 0.0000 0.0000 0.0000 0.0000 0.0000 23.6791
#
#
#
# Elastic Compliance Matrix: (Units=1/GPa)
#
#
# Indices 1 2 3 4 5 6 
#
# 1 0.008912 -0.001899 -0.002869 0.000000 0.000000 0.000000
# 2 -0.001899 0.011679 -0.001700 0.000000 0.000000 0.000000
# 3 -0.002869 -0.001700 0.010967 0.000000 0.000000 0.000000
# 4 0.000000 0.000000 0.000000 0.043303 0.000000 0.000000
# 5 0.000000 0.000000 0.000000 0.000000 0.025849 0.000000
# 6 0.000000 0.000000 0.000000 0.000000 0.000000 0.042231
#
#
# Mechanical properties :
#
#
# Convention : Reuss Voigt Hill
#
# Bulk Modulus (GPa) = 53.69900 55.61073 54.65486
# Shear Modulus (GPa) = 30.84816 33.18702 32.01759
#
# Velocity S-wave (km/s) = 3.89008 4.03486 3.96313
# Velocity P-wave (km/s) = 6.82051 6.99907 6.91036
#
# Compressibility (1/GPa) = 0.01862232
#
# Stress axis : x y z
#
# Youngs Moduli (GPa) = 112.20725 85.62559 91.18085
#
# Poissons Ratio (x) = 0.16262 0.26156
# Poissons Ratio (y) = 0.21310 0.15502
# Poissons Ratio (z) = 0.32188 0.14557
#
# Static dielectric constant tensor:
#      x y z
#    x 3.914720 0.000000 0.000000 
#    y 0.000000 3.814280 0.000000 
#    z 0.000000 0.000000 3.634600 
# 
# 
# High freq. dielectric constant tensor:
#      x y z
#    x 1.808210 0.000000 0.000000 
#    y 0.000000 1.803510 0.000000 
#    z 0.000000 0.000000 1.799610 
# 
# From -- ./inp_files/25768.got.cif
#   From: 2010.03.12/outbox.cif.g09.slc.cpg/sg62_13_cif.got.tgz:25768.got - 2010.04.10 19:12:36.
