data_PCOD8251680
_publ_section_title
;
Structure prediction by ZEFSAII (Michael W. Deem and Ramdas Pophale) SiO2 
 PCOD8251680
Probable space group: P N M A
;
_chemical_formula_sum "Si O2"
_cell_formula_units_Z 56
_cell_length_a 19.319460
_cell_length_b 8.771152
_cell_length_c 18.792844
_cell_angle_alpha 90.000000
_cell_angle_beta 90.000000
_cell_angle_gamma 90.000000
_cell_volume 3184.521088
_symmetry_space_group_name_H-M "P N M A"
_symmetry_group_IT_number 62
_symmetry_cell_setting 'orthorhombic'
loop_
_space_group_symop_operation_xyz
x,y,z
1/2-x,-y,1/2+z
1/2+x,1/2-y,1/2-z
-x,1/2+y,-z
-x,-y,-z
1/2+x,y,1/2-z
1/2-x,1/2+y,1/2+z
x,1/2-y,z
loop_
_atom_site_type_symbol
_atom_site_label
_atom_site_fract_x
_atom_site_fract_y
_atom_site_fract_z
Si Si1 0.269254 0.572122 0.353292
Si Si2 0.946892 0.070833 0.554855
Si Si3 0.227185 0.575672 0.626312
Si Si4 0.300145 0.928101 0.980144
Si Si5 0.169673 0.075911 0.244831
Si Si6 0.125659 0.926492 0.753568
Si Si7 0.477509 0.574031 0.797169
O O1 0.270148 0.750000 0.368990
O O2 0.260544 0.484587 0.427857
O O3 0.204658 0.533466 0.302468
O O4 0.341489 0.523560 0.317387
O O5 0.947766 0.250000 0.544917
O O6 0.870476 0.012396 0.539586
O O7 0.970343 0.029697 0.633936
O O8 0.000000 0.000000 0.500000
O O9 0.222688 0.750000 0.599543
O O10 0.222710 0.462704 0.560340
O O11 0.299955 0.543471 0.666431
O O12 0.164248 0.538352 0.679538
O O13 0.312303 0.750000 0.970677
O O14 0.187957 0.250000 0.266815
O O15 0.087456 0.048097 0.244500
O O16 0.134162 0.750000 0.773511
O O17 0.045805 0.974949 0.745896
O O18 0.482961 0.750000 0.821708
#
# Coordination Sequence:
#
# PCOD8251680 Si02
#       7
#     8   8   8   8   8   8   8
#     4  11  21  34  54  78 105 141 183 226 268 319
#     4  12  24  36  52  78 112 148 180 218 267 327
#     4   9  18  33  52  77 109 143 179 221 267 320
#     4  12  23  36  54  77 107 143 182 227 274 323
#     4   9  18  34  56  79 107 141 178 220 268 325
#     4   9  19  35  55  79 109 142 177 219 266 320
#     4  10  19  34  57  82 109 144 179 217 268 326
#
# _framework density 17.585061
#
# number of rings (size 3 to 8) (size 9 to 14) (size 15 to 20)
#    0.000    1.714    1.429    5.571    0.000    4.000 
#    0.000    0.000    0.000    0.857    0.000    0.000 
#    0.000    0.000    0.000    0.000    0.000    0.000 
#
# Total GULP energy -694578.422995 kJ/mol
# GULP energy per Si atom -12403.186125 kJ/mol
# Density = 1.754504 g / cm^3
# Si number density = 17.585061 Si / 1000 Ang^3
#
#
#
# Elastic Constant Matrix: (Units=GPa)
#
#
# Indices 1 2 3 4 5 6 
#
# 1 130.2322 36.7630 40.5402 0.0000 0.0000 0.0000
# 2 36.7630 106.4207 30.3242 0.0000 0.0000 0.0000
# 3 40.5402 30.3242 40.6335 0.0000 0.0000 0.0000
# 4 0.0000 0.0000 0.0000 31.1782 0.0000 0.0000
# 5 0.0000 0.0000 0.0000 0.0000 24.1439 0.0000
# 6 0.0000 0.0000 0.0000 0.0000 0.0000 23.1258
#
#
#
# Elastic Compliance Matrix: (Units=1/GPa)
#
#
# Indices 1 2 3 4 5 6 
#
# 1 0.011201 -0.000870 -0.010526 0.000000 0.000000 0.000000
# 2 -0.000870 0.012002 -0.008089 0.000000 0.000000 0.000000
# 3 -0.010526 -0.008089 0.041149 0.000000 0.000000 0.000000
# 4 0.000000 0.000000 0.000000 0.032074 0.000000 0.000000
# 5 0.000000 0.000000 0.000000 0.000000 0.041418 0.000000
# 6 0.000000 0.000000 0.000000 0.000000 0.000000 0.043242
#
#
# Mechanical properties :
#
#
# Convention : Reuss Voigt Hill
#
# Bulk Modulus (GPa) = 39.39818 54.72679 47.06249
# Shear Modulus (GPa) = 21.88035 27.00018 24.44026
#
# Velocity S-wave (km/s) = 3.53123 3.92267 3.73209
# Velocity P-wave (km/s) = 6.25133 7.19064 6.73737
#
# Compressibility (1/GPa) = 0.02538188
#
# Stress axis : x y z
#
# Youngs Moduli (GPa) = 89.27954 83.31848 24.30219
#
# Poissons Ratio (x) = 0.07249 0.25580
# Poissons Ratio (y) = 0.07767 0.19658
# Poissons Ratio (z) = 0.93974 0.67396
#
# Static dielectric constant tensor:
#      x y z
#    x 3.518920 0.000000 0.000000 
#    y 0.000000 3.257200 0.000000 
#    z 0.000000 0.000000 3.203570 
# 
# 
# High freq. dielectric constant tensor:
#      x y z
#    x 1.677000 0.000000 0.000000 
#    y 0.000000 1.682010 0.000000 
#    z 0.000000 0.000000 1.666220 
# 
# From -- ./inp_files/24611.got.cif
#   From: 2010.03.12/outbox.cif.g09.slc.cpg/sg62_13_cif.got.tgz:24611.got - 2010.04.10 19:12:36.
