data_PCOD8251374
_publ_section_title
;
Structure prediction by ZEFSAII (Michael W. Deem and Ramdas Pophale) SiO2 
 PCOD8251374
Probable space group: P N M A
;
_chemical_formula_sum "Si O2"
_cell_formula_units_Z 40
_cell_length_a 8.919980
_cell_length_b 15.493246
_cell_length_c 18.306324
_cell_angle_alpha 90.000000
_cell_angle_beta 90.000000
_cell_angle_gamma 90.000000
_cell_volume 2529.923807
_symmetry_space_group_name_H-M "P N M A"
_symmetry_group_IT_number 62
_symmetry_cell_setting 'orthorhombic'
loop_
_space_group_symop_operation_xyz
x,y,z
1/2-x,-y,1/2+z
1/2+x,1/2-y,1/2-z
-x,1/2+y,-z
-x,-y,-z
1/2+x,y,1/2-z
1/2-x,1/2+y,1/2+z
x,1/2-y,z
loop_
_atom_site_type_symbol
_atom_site_label
_atom_site_fract_x
_atom_site_fract_y
_atom_site_fract_z
Si Si1 0.672026 0.397521 0.173257
Si Si2 0.658402 0.656242 0.541850
Si Si3 0.164829 0.651229 0.690408
Si Si4 0.659356 0.998614 0.037855
Si Si5 0.309423 0.650673 0.538460
O O1 0.774234 0.334279 0.123718
O O2 0.513411 0.355145 0.191459
O O3 0.761256 0.411702 0.248936
O O4 0.647913 0.486105 0.125961
O O5 0.680781 0.750000 0.502857
O O6 0.745497 0.578206 0.501024
O O7 0.484448 0.632803 0.546913
O O8 0.213019 0.750000 0.706314
O O9 0.227070 0.621559 0.612298
O O10 0.742737 0.907934 0.026258
O O11 0.500000 0.000000 0.000000
O O12 0.274371 0.750000 0.519260
#
# Coordination Sequence:
#
# PCOD8251374 Si02
#       5
#     8   8   8   8   8
#     4  10  21  30  49  71 110 138 173 206 257 312
#     4   9  18  31  50  73 103 133 167 210 259 309
#     4  11  19  30  48  74 106 140 169 205 262 320
#     4  10  20  34  50  74 105 142 179 216 255 313
#     4  10  19  33  53  76 104 139 173 216 261 310
#
# _framework density 15.810753
#
# number of rings (size 3 to 8) (size 9 to 14) (size 15 to 20)
#    1.200    0.800    2.000    3.600    0.000    2.400 
#    0.000    0.000    0.000    0.000    0.000    2.800 
#    0.000    0.000    0.000    0.000    0.000    0.000 
#
# Total GULP energy -495592.458014 kJ/mol
# GULP energy per Si atom -12389.811450 kJ/mol
# Density = 1.577477 g / cm^3
# Si number density = 15.810753 Si / 1000 Ang^3
#
#
#
# Elastic Constant Matrix: (Units=GPa)
#
#
# Indices 1 2 3 4 5 6 
#
# 1 110.2791 39.3556 22.7185 0.0000 0.0000 0.0000
# 2 39.3556 81.3744 37.1121 0.0000 0.0000 0.0000
# 3 22.7185 37.1121 66.0479 0.0000 0.0000 0.0000
# 4 0.0000 0.0000 0.0000 22.2616 0.0000 0.0000
# 5 0.0000 0.0000 0.0000 0.0000 27.7109 0.0000
# 6 0.0000 0.0000 0.0000 0.0000 0.0000 25.0952
#
#
#
# Elastic Compliance Matrix: (Units=1/GPa)
#
#
# Indices 1 2 3 4 5 6 
#
# 1 0.011015 -0.004840 -0.001070 0.000000 0.000000 0.000000
# 2 -0.004840 0.018649 -0.008814 0.000000 0.000000 0.000000
# 3 -0.001070 -0.008814 0.020461 0.000000 0.000000 0.000000
# 4 0.000000 0.000000 0.000000 0.044920 0.000000 0.000000
# 5 0.000000 0.000000 0.000000 0.000000 0.036087 0.000000
# 6 0.000000 0.000000 0.000000 0.000000 0.000000 0.039848
#
#
# Mechanical properties :
#
#
# Convention : Reuss Voigt Hill
#
# Bulk Modulus (GPa) = 48.35862 50.67487 49.51675
# Shear Modulus (GPa) = 24.11713 25.58124 24.84918
#
# Velocity S-wave (km/s) = 3.90983 4.02676 3.96872
# Velocity P-wave (km/s) = 7.14385 7.33077 7.23791
#
# Compressibility (1/GPa) = 0.02067884
#
# Stress axis : x y z
#
# Youngs Moduli (GPa) = 90.78219 53.62095 48.87302
#
# Poissons Ratio (x) = 0.25951 0.05227
# Poissons Ratio (y) = 0.43935 0.43078
# Poissons Ratio (z) = 0.09710 0.47263
#
# Static dielectric constant tensor:
#      x y z
#    x 3.098380 0.000000 0.000000 
#    y 0.000000 2.906490 0.000000 
#    z 0.000000 0.000000 2.814560 
# 
# 
# High freq. dielectric constant tensor:
#      x y z
#    x 1.631520 0.000000 0.000000 
#    y 0.000000 1.585790 0.000000 
#    z 0.000000 0.000000 1.572790 
# 
# From -- ./inp_files/16798.got.cif
#   From: 2010.03.12/outbox.cif.g09.slc.cpg/sg62_9_cif.got.tgz:16798.got - 2010.04.10 19:12:36.
