data_PCOD8251102
_publ_section_title
;
Structure prediction by ZEFSAII (Michael W. Deem and Ramdas Pophale) SiO2 
 PCOD8251102
Probable space group: P N M A
;
_chemical_formula_sum "Si O2"
_cell_formula_units_Z 64
_cell_length_a 11.926474
_cell_length_b 9.033583
_cell_length_c 33.730658
_cell_angle_alpha 90.000000
_cell_angle_beta 90.000000
_cell_angle_gamma 90.000000
_cell_volume 3634.100372
_symmetry_space_group_name_H-M "P N M A"
_symmetry_group_IT_number 62
_symmetry_cell_setting 'orthorhombic'
loop_
_space_group_symop_operation_xyz
x,y,z
1/2-x,-y,1/2+z
1/2+x,1/2-y,1/2-z
-x,1/2+y,-z
-x,-y,-z
1/2+x,y,1/2-z
1/2-x,1/2+y,1/2+z
x,1/2-y,z
loop_
_atom_site_type_symbol
_atom_site_label
_atom_site_fract_x
_atom_site_fract_y
_atom_site_fract_z
Si Si1 0.044206 0.577308 0.833583
Si Si2 0.141965 0.921546 0.969778
Si Si3 0.806802 0.924900 0.227273
Si Si4 0.606828 0.575387 0.171232
Si Si5 0.887401 0.577129 0.951774
Si Si6 0.665271 0.574577 0.371596
Si Si7 0.640044 0.075536 0.814275
Si Si8 0.250187 0.580445 0.889698
O O1 0.018682 0.750000 0.827979
O O2 0.089265 0.508640 0.792833
O O3 0.132929 0.548189 0.868296
O O4 0.931853 0.493692 0.845000
O O5 0.146457 0.750000 0.982210
O O6 0.233348 0.959025 0.935997
O O7 0.019112 0.959993 0.952855
O O8 0.170730 0.021224 0.007776
O O9 0.826211 0.750000 0.222590
O O10 0.690116 0.974011 0.206711
O O11 0.804710 0.977435 0.272891
O O12 0.601367 0.750000 0.167893
O O13 0.484186 0.506837 0.179840
O O14 0.650916 0.516867 0.128907
O O15 0.864583 0.750000 0.946302
O O16 0.831442 0.491266 0.915511
O O17 0.649131 0.750000 0.373613
O O18 0.781773 0.528351 0.350777
O O19 0.627626 0.250000 0.812398
O O20 0.284966 0.750000 0.884223
#
# Coordination Sequence:
#
# PCOD8251102 Si02
#       8
#     8   8   8   8   8   8   8   8
#     4  10  19  33  50  74 106 135 166 211 259 306
#     4   9  17  31  50  75 105 138 168 204 256 310
#     4   9  18  33  55  77  97 130 172 215 260 308
#     4   9  18  33  52  75 101 130 171 218 256 301
#     4  10  19  32  49  75 110 139 167 211 259 308
#     4  11  21  33  52  76 104 143 178 210 256 311
#     4   9  20  35  53  76 102 134 176 220 259 300
#     4   9  17  32  52  73 103 135 165 205 256 307
#
# _framework density 17.610961
#
# number of rings (size 3 to 8) (size 9 to 14) (size 15 to 20)
#    0.000    2.500    1.250    1.125    1.750    1.500 
#    0.000    3.125    0.000    0.750    0.000    0.000 
#    0.000    0.000    0.000    0.000    0.000    0.000 
#
# Total GULP energy -793596.409555 kJ/mol
# GULP energy per Si atom -12399.943899 kJ/mol
# Density = 1.757088 g / cm^3
# Si number density = 17.610961 Si / 1000 Ang^3
#
#
#
# Elastic Constant Matrix: (Units=GPa)
#
#
# Indices 1 2 3 4 5 6 
#
# 1 108.6245 38.4245 65.6536 0.0000 0.0000 0.0000
# 2 38.4245 57.6939 45.1040 0.0000 0.0000 0.0000
# 3 65.6536 45.1040 131.2733 0.0000 0.0000 0.0000
# 4 0.0000 0.0000 0.0000 28.4084 0.0000 0.0000
# 5 0.0000 0.0000 0.0000 0.0000 21.2550 0.0000
# 6 0.0000 0.0000 0.0000 0.0000 0.0000 15.7132
#
#
#
# Elastic Compliance Matrix: (Units=1/GPa)
#
#
# Indices 1 2 3 4 5 6 
#
# 1 0.014322 -0.005385 -0.005312 0.000000 0.000000 0.000000
# 2 -0.005385 0.025723 -0.006145 0.000000 0.000000 0.000000
# 3 -0.005312 -0.006145 0.012386 0.000000 0.000000 0.000000
# 4 0.000000 0.000000 0.000000 0.035201 0.000000 0.000000
# 5 0.000000 0.000000 0.000000 0.000000 0.047048 0.000000
# 6 0.000000 0.000000 0.000000 0.000000 0.000000 0.063641
#
#
# Mechanical properties :
#
#
# Convention : Reuss Voigt Hill
#
# Bulk Modulus (GPa) = 53.34497 66.21733 59.78115
# Shear Modulus (GPa) = 20.98592 22.96929 21.97761
#
# Velocity S-wave (km/s) = 3.45576 3.61537 3.53647
# Velocity P-wave (km/s) = 6.80291 7.42358 7.12001
#
# Compressibility (1/GPa) = 0.01874591
#
# Stress axis : x y z
#
# Youngs Moduli (GPa) = 69.82314 38.87497 80.73656
#
# Poissons Ratio (x) = 0.20935 0.42891
# Poissons Ratio (y) = 0.37602 0.49612
# Poissons Ratio (z) = 0.37093 0.23889
#
# Static dielectric constant tensor:
#      x y z
#    x 3.230830 0.000000 0.000000 
#    y 0.000000 3.166970 0.000000 
#    z 0.000000 0.000000 3.519220 
# 
# 
# High freq. dielectric constant tensor:
#      x y z
#    x 1.656460 0.000000 0.000000 
#    y 0.000000 1.671580 0.000000 
#    z 0.000000 0.000000 1.686180 
# 
# From -- ./inp_files/32616.got.cif
#   From: 2010.03.12/outbox.cif.g09.slc.cpg/sg62_17_cif.got.tgz:32616.got - 2010.04.10 19:12:36.
