data_PCOD8251791
_publ_section_title
;
Structure prediction by ZEFSAII (Michael W. Deem and Ramdas Pophale) SiO2 
 PCOD8251791
Probable space group: P N M A
;
_chemical_formula_sum "Si O2"
_cell_formula_units_Z 40
_cell_length_a 18.658326
_cell_length_b 8.453355
_cell_length_c 13.508830
_cell_angle_alpha 90.000000
_cell_angle_beta 90.000000
_cell_angle_gamma 90.000000
_cell_volume 2130.686336
_symmetry_space_group_name_H-M "P N M A"
_symmetry_group_IT_number 62
_symmetry_cell_setting 'orthorhombic'
loop_
_space_group_symop_operation_xyz
x,y,z
1/2-x,-y,1/2+z
1/2+x,1/2-y,1/2-z
-x,1/2+y,-z
-x,-y,-z
1/2+x,y,1/2-z
1/2-x,1/2+y,1/2+z
x,1/2-y,z
loop_
_atom_site_type_symbol
_atom_site_label
_atom_site_fract_x
_atom_site_fract_y
_atom_site_fract_z
Si Si1 0.357722 0.063243 0.294711
Si Si2 0.003156 0.061457 0.110649
Si Si3 0.286081 0.064815 0.096895
Si Si4 0.711731 0.065135 0.113563
Si Si5 0.851711 0.434473 0.803176
O O1 0.361551 0.250000 0.297206
O O2 0.432684 0.994212 0.333143
O O3 0.340671 0.007176 0.182750
O O4 0.293292 0.007297 0.366669
O O5 0.006852 0.250000 0.111952
O O6 0.069671 0.988872 0.167690
O O7 0.000000 0.000000 0.000000
O O8 0.292405 0.250000 0.076252
O O9 0.205125 0.027266 0.129308
O O10 0.309068 0.971961 0.998764
O O11 0.703114 0.250000 0.136020
O O12 0.658894 0.972320 0.187285
O O13 0.842211 0.250000 0.824204
#
# Coordination Sequence:
#
# PCOD8251791 Si02
#       5
#     8   8   8   8   8
#     4   8  18  34  53  76 106 137 172 216 266 319
#     4  11  21  36  56  80 109 142 176 221 276 329
#     4  10  19  35  57  81 106 139 179 223 271 322
#     4  10  19  35  57  82 108 139 177 223 273 323
#     4  11  22  36  53  79 111 145 183 223 263 317
#
# _framework density 18.773295000000001
#
# number of rings (size 3 to 8) (size 9 to 14) (size 15 to 20)
#    0.000    2.000    0.000    6.000    0.000    1.600 
#    0.000   12.000    0.000    0.000    0.000    0.000 
#    0.000    0.000    0.000    0.000    0.000    0.000 
#
# Total GULP energy -496050.790676 kJ/mol
# GULP energy per Si atom -12401.269767 kJ/mol
# Density = 1.873057 g / cm^3
# Si number density = 18.773295 Si / 1000 Ang^3
#
#
#
# Elastic Constant Matrix: (Units=GPa)
#
#
# Indices 1 2 3 4 5 6 
#
# 1 131.1351 16.9540 66.7543 0.0000 0.0000 0.0000
# 2 16.9540 53.9448 13.9307 0.0000 0.0000 0.0000
# 3 66.7543 13.9307 141.9914 0.0000 0.0000 0.0000
# 4 0.0000 0.0000 0.0000 34.6125 0.0000 0.0000
# 5 0.0000 0.0000 0.0000 0.0000 21.4070 0.0000
# 6 0.0000 0.0000 0.0000 0.0000 0.0000 23.1396
#
#
#
# Elastic Compliance Matrix: (Units=1/GPa)
#
#
# Indices 1 2 3 4 5 6 
#
# 1 0.010236 -0.002026 -0.004614 0.000000 0.000000 0.000000
# 2 -0.002026 0.019420 -0.000953 0.000000 0.000000 0.000000
# 3 -0.004614 -0.000953 0.009305 0.000000 0.000000 0.000000
# 4 0.000000 0.000000 0.000000 0.028891 0.000000 0.000000
# 5 0.000000 0.000000 0.000000 0.000000 0.046714 0.000000
# 6 0.000000 0.000000 0.000000 0.000000 0.000000 0.043216
#
#
# Mechanical properties :
#
#
# Convention : Reuss Voigt Hill
#
# Bulk Modulus (GPa) = 42.05734 58.03882 50.04808
# Shear Modulus (GPa) = 27.64071 31.12730 29.38400
#
# Velocity S-wave (km/s) = 3.84127 4.07635 3.96056
# Velocity P-wave (km/s) = 6.49039 7.28960 6.90157
#
# Compressibility (1/GPa) = 0.02377706
#
# Stress axis : x y z
#
# Youngs Moduli (GPa) = 97.69290 51.49279 107.46728
#
# Poissons Ratio (x) = 0.10431 0.49581
# Poissons Ratio (y) = 0.19789 0.10242
# Poissons Ratio (z) = 0.45071 0.04907
#
# Static dielectric constant tensor:
#      x y z
#    x 3.629800 0.000000 0.000000 
#    y 0.000000 3.395140 0.000000 
#    z 0.000000 0.000000 3.587400 
# 
# 
# High freq. dielectric constant tensor:
#      x y z
#    x 1.718090 0.000000 0.000000 
#    y 0.000000 1.726270 0.000000 
#    z 0.000000 0.000000 1.738670 
# 
# From -- ./inp_files/13823.got.cif
#   From: 2010.03.12/outbox.cif.g09.slc.cpg/sg62_7_cif.got.tgz:13823.got - 2010.04.10 19:12:36.
