data_PCOD8251507
_publ_section_title
;
Structure prediction by ZEFSAII (Michael W. Deem and Ramdas Pophale) SiO2 
 PCOD8251507
Probable space group: P N M A
;
_chemical_formula_sum "Si O2"
_cell_formula_units_Z 48
_cell_length_a 7.835543
_cell_length_b 12.816720
_cell_length_c 23.125478
_cell_angle_alpha 90.000000
_cell_angle_beta 90.000000
_cell_angle_gamma 90.000000
_cell_volume 2322.398344
_symmetry_space_group_name_H-M "P N M A"
_symmetry_group_IT_number 62
_symmetry_cell_setting 'orthorhombic'
loop_
_space_group_symop_operation_xyz
x,y,z
1/2-x,-y,1/2+z
1/2+x,1/2-y,1/2-z
-x,1/2+y,-z
-x,-y,-z
1/2+x,y,1/2-z
1/2-x,1/2+y,1/2+z
x,1/2-y,z
loop_
_atom_site_type_symbol
_atom_site_label
_atom_site_fract_x
_atom_site_fract_y
_atom_site_fract_z
Si Si1 0.846819 0.631417 0.314162
Si Si2 0.509374 0.368041 0.003177
Si Si3 0.689334 0.440567 0.568652
Si Si4 0.753327 0.133446 0.689683
Si Si5 0.481422 0.128934 0.469289
Si Si6 0.706804 0.496236 0.924449
O O1 0.774203 0.750000 0.322689
O O2 0.793643 0.584697 0.251792
O O3 0.775685 0.548536 0.360234
O O4 0.047349 0.633629 0.320458
O O5 0.525452 0.250000 0.023472
O O6 0.354238 0.381539 0.956590
O O7 0.686321 0.398865 0.969862
O O8 0.469987 0.439352 0.060030
O O9 0.666392 0.428938 0.637312
O O10 0.685145 0.564996 0.553332
O O11 0.519073 0.390386 0.537819
O O12 0.677648 0.250000 0.688478
O O13 0.461480 0.250000 0.453410
O O14 0.642470 0.077557 0.435665
#
# Coordination Sequence:
#
# PCOD8251507 Si02
#       6
#     8   8   8   8   8   8
#     4  10  21  35  54  83 115 146 182 227 279 337
#     4  10  19  35  57  84 114 144 184 232 281 334
#     4  10  19  36  60  81 110 156 183 225 288 333
#     4  10  20  35  56  82 114 147 181 228 282 333
#     4  10  22  38  56  84 117 148 187 233 278 334
#     4  10  19  33  56  82 111 150 180 225 283 329
#
# _framework density 20.668289999999999
#
# number of rings (size 3 to 8) (size 9 to 14) (size 15 to 20)
#    0.000    2.000    1.667    3.500    2.333    0.000 
#    0.000   24.167    0.000    2.000    0.000    0.000 
#    0.000    0.000    0.000    0.000    0.000    0.000 
#
# Total GULP energy -594681.549214 kJ/mol
# GULP energy per Si atom -12389.198942 kJ/mol
# Density = 2.062125 g / cm^3
# Si number density = 20.668290 Si / 1000 Ang^3
#
#
#
# Elastic Constant Matrix: (Units=GPa)
#
#
# Indices 1 2 3 4 5 6 
#
# 1 19.4685 -4.8185 9.0179 0.0000 0.0000 0.0000
# 2 -4.8185 122.1469 57.1524 0.0000 0.0000 0.0000
# 3 9.0179 57.1524 177.2987 0.0000 0.0000 0.0000
# 4 0.0000 0.0000 0.0000 19.2574 0.0000 0.0000
# 5 0.0000 0.0000 0.0000 0.0000 21.0142 0.0000
# 6 0.0000 0.0000 0.0000 0.0000 0.0000 23.6122
#
#
#
# Elastic Compliance Matrix: (Units=1/GPa)
#
#
# Indices 1 2 3 4 5 6 
#
# 1 0.054246 0.004040 -0.004062 0.000000 0.000000 0.000000
# 2 0.004040 0.009942 -0.003410 0.000000 0.000000 0.000000
# 3 -0.004062 -0.003410 0.006946 0.000000 0.000000 0.000000
# 4 0.000000 0.000000 0.000000 0.051928 0.000000 0.000000
# 5 0.000000 0.000000 0.000000 0.000000 0.047587 0.000000
# 6 0.000000 0.000000 0.000000 0.000000 0.000000 0.042351
#
#
# Mechanical properties :
#
#
# Convention : Reuss Voigt Hill
#
# Bulk Modulus (GPa) = 15.55905 49.06864 32.31384
# Shear Modulus (GPa) = 20.72223 29.94760 25.33492
#
# Velocity S-wave (km/s) = 3.16984 3.81066 3.50492
# Velocity P-wave (km/s) = 4.57619 6.56917 5.66107
#
# Compressibility (1/GPa) = 0.06427128
#
# Stress axis : x y z
#
# Youngs Moduli (GPa) = 18.43445 100.58426 143.96593
#
# Poissons Ratio (x) = -0.40639 0.58472
# Poissons Ratio (y) = -0.07448 0.49096
# Poissons Ratio (z) = 0.07487 0.34302
#
# Static dielectric constant tensor:
#      x y z
#    x 4.090870 0.000000 0.000000 
#    y 0.000000 3.706300 0.000000 
#    z 0.000000 0.000000 3.822320 
# 
# 
# High freq. dielectric constant tensor:
#      x y z
#    x 1.832550 0.000000 0.000000 
#    y 0.000000 1.786280 0.000000 
#    z 0.000000 0.000000 1.785050 
# 
# From -- ./inp_files/28775.got.cif
#   From: 2010.03.12/outbox.cif.g09.slc.cpg/sg62_15_cif.got.tgz:28775.got - 2010.04.10 19:12:36.
