data_PCOD8251757
_publ_section_title
;
Structure prediction by ZEFSAII (Michael W. Deem and Ramdas Pophale) SiO2 
 PCOD8251757
Probable space group: P N M A
;
_chemical_formula_sum "Si O2"
_cell_formula_units_Z 64
_cell_length_a 29.975327
_cell_length_b 9.127805
_cell_length_c 14.199563
_cell_angle_alpha 90.000000
_cell_angle_beta 90.000000
_cell_angle_gamma 90.000000
_cell_volume 3885.127376
_symmetry_space_group_name_H-M "P N M A"
_symmetry_group_IT_number 62
_symmetry_cell_setting 'orthorhombic'
loop_
_space_group_symop_operation_xyz
x,y,z
1/2-x,-y,1/2+z
1/2+x,1/2-y,1/2-z
-x,1/2+y,-z
-x,-y,-z
1/2+x,y,1/2-z
1/2-x,1/2+y,1/2+z
x,1/2-y,z
loop_
_atom_site_type_symbol
_atom_site_label
_atom_site_fract_x
_atom_site_fract_y
_atom_site_fract_z
Si Si1 0.957210 0.082362 0.395541
Si Si2 0.229492 0.078815 0.979106
Si Si3 0.456784 0.079199 0.889334
Si Si4 0.199517 0.917613 0.147631
Si Si5 0.360237 0.420315 0.144627
Si Si6 0.212035 0.420108 0.763526
Si Si7 0.820005 0.923567 0.524127
Si Si8 0.136526 0.918466 0.311890
O O1 0.971833 0.250000 0.397494
O O2 0.948023 0.029216 0.502991
O O3 0.912855 0.060023 0.331866
O O4 0.998318 0.995082 0.349385
O O5 0.239880 0.250000 0.991234
O O6 0.193955 0.023823 0.057105
O O7 0.213840 0.043383 0.874012
O O8 0.272065 0.982486 0.006715
O O9 0.464408 0.250000 0.881297
O O10 0.414751 0.031362 0.824474
O O11 0.205265 0.750000 0.114543
O O12 0.241539 0.963893 0.213629
O O13 0.153232 0.935799 0.204957
O O14 0.348404 0.250000 0.129567
O O15 0.329284 0.485660 0.225861
O O16 0.355005 0.507744 0.047740
O O17 0.201572 0.250000 0.745908
O O18 0.820857 0.750000 0.518188
O O19 0.831250 0.977996 0.628073
O O20 0.142658 0.750000 0.346224
#
# Coordination Sequence:
#
# PCOD8251757 Si02
#       8
#     8   8   8   8   8   8   8   8
#     4   9  18  31  47  70 100 130 162 200 243 292
#     4  11  22  37  52  68 100 136 167 206 251 290
#     4   9  17  30  49  71  98 132 164 195 242 296
#     4  10  20  34  52  74 100 129 168 207 243 289
#     4  11  21  34  51  71  99 136 170 203 248 295
#     4  10  21  35  51  73  99 131 167 206 245 288
#     4  12  22  30  47  73 101 132 171 209 241 286
#     4  10  19  35  52  70 101 137 168 203 247 293
#
# _framework density 16.473077
#
# number of rings (size 3 to 8) (size 9 to 14) (size 15 to 20)
#    0.000    1.750    3.750    1.875    0.000    3.000 
#    0.000    0.000    0.000    0.000    0.000    0.875 
#    0.000    0.000    0.000    0.000    0.000    0.000 
#
# Total GULP energy -793507.727964 kJ/mol
# GULP energy per Si atom -12398.558249 kJ/mol
# Density = 1.643558 g / cm^3
# Si number density = 16.473077 Si / 1000 Ang^3
#
#
#
# Elastic Constant Matrix: (Units=GPa)
#
#
# Indices 1 2 3 4 5 6 
#
# 1 88.7080 34.2671 22.3052 0.0000 0.0000 0.0000
# 2 34.2671 75.1509 34.0862 0.0000 0.0000 0.0000
# 3 22.3052 34.0862 68.8659 0.0000 0.0000 0.0000
# 4 0.0000 0.0000 0.0000 26.7519 0.0000 0.0000
# 5 0.0000 0.0000 0.0000 0.0000 22.7600 0.0000
# 6 0.0000 0.0000 0.0000 0.0000 0.0000 25.9955
#
#
#
# Elastic Compliance Matrix: (Units=1/GPa)
#
#
# Indices 1 2 3 4 5 6 
#
# 1 0.013845 -0.005518 -0.001753 0.000000 0.000000 0.000000
# 2 -0.005518 0.019358 -0.007794 0.000000 0.000000 0.000000
# 3 -0.001753 -0.007794 0.018947 0.000000 0.000000 0.000000
# 4 0.000000 0.000000 0.000000 0.037381 0.000000 0.000000
# 5 0.000000 0.000000 0.000000 0.000000 0.043937 0.000000
# 6 0.000000 0.000000 0.000000 0.000000 0.000000 0.038468
#
#
# Mechanical properties :
#
#
# Convention : Reuss Voigt Hill
#
# Bulk Modulus (GPa) = 45.41516 46.00465 45.70990
# Shear Modulus (GPa) = 23.87709 24.57256 24.22482
#
# Velocity S-wave (km/s) = 3.81131 3.86642 3.83896
# Velocity P-wave (km/s) = 6.85546 6.92243 6.88902
#
# Compressibility (1/GPa) = 0.02201908
#
# Stress axis : x y z
#
# Youngs Moduli (GPa) = 72.22654 51.65865 52.77972
#
# Poissons Ratio (x) = 0.28505 0.09253
# Poissons Ratio (y) = 0.39854 0.41138
# Poissons Ratio (z) = 0.12663 0.40264
#
# Static dielectric constant tensor:
#      x y z
#    x 3.123960 0.000000 0.000000 
#    y 0.000000 3.096870 0.000000 
#    z 0.000000 0.000000 2.916380 
# 
# 
# High freq. dielectric constant tensor:
#      x y z
#    x 1.624640 0.000000 0.000000 
#    y 0.000000 1.638810 0.000000 
#    z 0.000000 0.000000 1.603560 
# 
# From -- ./inp_files/21256.got.cif
#   From: 2010.03.12/outbox.cif.g09.slc.cpg/sg62_11_cif.got.tgz:21256.got - 2010.04.10 19:12:36.
