data_PCOD8251202
_publ_section_title
;
Structure prediction by ZEFSAII (Michael W. Deem and Ramdas Pophale) SiO2 
 PCOD8251202
Probable space group: P N M A
;
_chemical_formula_sum "Si O2"
_cell_formula_units_Z 56
_cell_length_a 23.349492
_cell_length_b 9.047220
_cell_length_c 13.907342
_cell_angle_alpha 90.000000
_cell_angle_beta 90.000000
_cell_angle_gamma 90.000000
_cell_volume 2937.898058
_symmetry_space_group_name_H-M "P N M A"
_symmetry_group_IT_number 62
_symmetry_cell_setting 'orthorhombic'
loop_
_space_group_symop_operation_xyz
x,y,z
1/2-x,-y,1/2+z
1/2+x,1/2-y,1/2-z
-x,1/2+y,-z
-x,-y,-z
1/2+x,y,1/2-z
1/2-x,1/2+y,1/2+z
x,1/2-y,z
loop_
_atom_site_type_symbol
_atom_site_label
_atom_site_fract_x
_atom_site_fract_y
_atom_site_fract_z
Si Si1 0.624845 0.415622 0.313547
Si Si2 0.222840 0.925663 0.292634
Si Si3 0.334443 0.924328 0.185665
Si Si4 0.972502 0.424021 0.908896
Si Si5 0.554676 0.087766 0.119003
Si Si6 0.830994 0.925035 0.529058
Si Si7 0.539696 0.077673 0.784335
O O1 0.639816 0.250000 0.350616
O O2 0.682162 0.504569 0.288425
O O3 0.590456 0.505784 0.394926
O O4 0.585607 0.404934 0.220876
O O5 0.214160 0.750000 0.292707
O O6 0.287329 0.973252 0.263685
O O7 0.210782 0.988881 0.398506
O O8 0.340883 0.750000 0.186435
O O9 0.396500 0.992766 0.212233
O O10 0.314354 0.972459 0.078749
O O11 0.966042 0.250000 0.925514
O O12 0.013043 0.460616 0.818644
O O13 0.000000 0.500000 0.000000
O O14 0.533563 0.250000 0.087677
O O15 0.602296 0.027513 0.044158
O O16 0.498844 0.985044 0.127777
O O17 0.824548 0.750000 0.549266
O O18 0.541914 0.250000 0.803386
#
# Coordination Sequence:
#
# PCOD8251202 Si02
#       7
#     8   8   8   8   8   8   8
#     4   9  17  32  53  74 100 136 176 217 264 315
#     4  10  19  34  55  77 104 137 178 226 264 311
#     4   9  19  36  55  75 107 143 175 216 270 320
#     4  10  19  32  52  78 109 141 181 225 271 325
#     4   8  15  28  49  75 101 128 161 205 254 307
#     4   9  18  35  56  75 101 139 176 211 264 326
#     4   9  18  33  52  74 103 140 174 212 264 319
#
# _framework density 19.061247999999999
#
# number of rings (size 3 to 8) (size 9 to 14) (size 15 to 20)
#    0.000    2.857    0.000    2.143    0.000    4.571 
#    2.571    3.571    0.000    0.000    0.000    0.000 
#    0.000    0.000    0.000    0.000    0.000    0.000 
#
# Total GULP energy -694152.651148 kJ/mol
# GULP energy per Si atom -12395.583056 kJ/mol
# Density = 1.901786 g / cm^3
# Si number density = 19.061248 Si / 1000 Ang^3
#
#
#
# Elastic Constant Matrix: (Units=GPa)
#
#
# Indices 1 2 3 4 5 6 
#
# 1 125.7263 42.4351 39.6907 0.0000 0.0000 0.0000
# 2 42.4351 75.6400 31.4007 0.0000 0.0000 0.0000
# 3 39.6907 31.4007 61.2816 0.0000 0.0000 0.0000
# 4 0.0000 0.0000 0.0000 21.7482 0.0000 0.0000
# 5 0.0000 0.0000 0.0000 0.0000 27.3583 0.0000
# 6 0.0000 0.0000 0.0000 0.0000 0.0000 25.4767
#
#
#
# Elastic Compliance Matrix: (Units=1/GPa)
#
#
# Indices 1 2 3 4 5 6 
#
# 1 0.010891 -0.004041 -0.004983 0.000000 0.000000 0.000000
# 2 -0.004041 0.018292 -0.006755 0.000000 0.000000 0.000000
# 3 -0.004983 -0.006755 0.023007 0.000000 0.000000 0.000000
# 4 0.000000 0.000000 0.000000 0.045981 0.000000 0.000000
# 5 0.000000 0.000000 0.000000 0.000000 0.036552 0.000000
# 6 0.000000 0.000000 0.000000 0.000000 0.000000 0.039252
#
#
# Mechanical properties :
#
#
# Convention : Reuss Voigt Hill
#
# Bulk Modulus (GPa) = 48.47194 54.41122 51.44158
# Shear Modulus (GPa) = 23.53927 24.85805 24.19866
#
# Velocity S-wave (km/s) = 3.51797 3.61517 3.56690
# Velocity P-wave (km/s) = 6.47968 6.78479 6.63399
#
# Compressibility (1/GPa) = 0.02063049
#
# Stress axis : x y z
#
# Youngs Moduli (GPa) = 91.81964 54.66819 43.46503
#
# Poissons Ratio (x) = 0.22093 0.21659
# Poissons Ratio (y) = 0.37107 0.29363
# Poissons Ratio (z) = 0.45754 0.36931
#
# Static dielectric constant tensor:
#      x y z
#    x 4.085150 0.000000 0.000000 
#    y 0.000000 3.486560 0.000000 
#    z 0.000000 0.000000 3.397280 
# 
# 
# High freq. dielectric constant tensor:
#      x y z
#    x 1.739370 0.000000 0.000000 
#    y 0.000000 1.728350 0.000000 
#    z 0.000000 0.000000 1.728320 
# 
# From -- ./inp_files/20376.got.cif
#   From: 2010.03.12/outbox.cif.g09.slc.cpg/sg62_11_cif.got.tgz:20376.got - 2010.04.10 19:12:36.
