data_PCOD8251568
_publ_section_title
;
Structure prediction by ZEFSAII (Michael W. Deem and Ramdas Pophale) SiO2 
 PCOD8251568
Probable space group: P N M A
;
_chemical_formula_sum "Si O2"
_cell_formula_units_Z 48
_cell_length_a 25.080523
_cell_length_b 9.199330
_cell_length_c 12.233490
_cell_angle_alpha 90.000000
_cell_angle_beta 90.000000
_cell_angle_gamma 90.000000
_cell_volume 2822.559840
_symmetry_space_group_name_H-M "P N M A"
_symmetry_group_IT_number 62
_symmetry_cell_setting 'orthorhombic'
loop_
_space_group_symop_operation_xyz
x,y,z
1/2-x,-y,1/2+z
1/2+x,1/2-y,1/2-z
-x,1/2+y,-z
-x,-y,-z
1/2+x,y,1/2-z
1/2-x,1/2+y,1/2+z
x,1/2-y,z
loop_
_atom_site_type_symbol
_atom_site_label
_atom_site_fract_x
_atom_site_fract_y
_atom_site_fract_z
Si Si1 0.161629 0.920620 0.253576
Si Si2 0.262673 0.414457 0.328372
Si Si3 0.363699 0.921829 0.305974
Si Si4 0.341010 0.413758 0.506820
Si Si5 0.435744 0.418834 0.903430
Si Si6 0.943911 0.919791 0.381019
O O1 0.174686 0.750000 0.258588
O O2 0.160220 0.977281 0.128888
O O3 0.105022 0.958766 0.307234
O O4 0.206510 0.006097 0.319786
O O5 0.258554 0.250000 0.282528
O O6 0.308797 0.503148 0.262212
O O7 0.280763 0.412833 0.456459
O O8 0.355550 0.750000 0.312232
O O9 0.411503 0.967473 0.226073
O O10 0.377473 0.984915 0.427484
O O11 0.364720 0.250000 0.507590
O O12 0.433763 0.250000 0.932004
O O13 0.494584 0.465859 0.863213
O O14 0.419336 0.502222 0.013305
O O15 0.938019 0.750000 0.402100
#
# Coordination Sequence:
#
# PCOD8251568 Si02
#       6
#     8   8   8   8   8   8
#     4  10  19  34  53  74 103 134 166 206 256 305
#     4   9  19  33  49  72  99 131 167 204 249 299
#     4   9  17  32  53  73  97 133 169 205 250 297
#     4   8  18  34  49  70 100 130 162 206 252 296
#     4   9  19  33  52  77 102 135 171 208 253 302
#     4   9  18  34  53  75 105 134 169 212 251 298
#
# _framework density 17.005839999999999
#
# number of rings (size 3 to 8) (size 9 to 14) (size 15 to 20)
#    1.000    2.000    0.000    0.500    0.000    4.000 
#    0.000    5.833    0.000    0.000    0.000    0.000 
#    0.000    0.000    0.000    0.000    0.000    0.000 
#
# Total GULP energy -594837.096397 kJ/mol
# GULP energy per Si atom -12392.439508 kJ/mol
# Density = 1.696713 g / cm^3
# Si number density = 17.005840 Si / 1000 Ang^3
#
#
#
# Elastic Constant Matrix: (Units=GPa)
#
#
# Indices 1 2 3 4 5 6 
#
# 1 90.8927 42.7533 61.0497 0.0000 0.0000 0.0000
# 2 42.7533 64.5141 45.5399 0.0000 0.0000 0.0000
# 3 61.0497 45.5399 121.4918 0.0000 0.0000 0.0000
# 4 0.0000 0.0000 0.0000 24.2733 0.0000 0.0000
# 5 0.0000 0.0000 0.0000 0.0000 28.1877 0.0000
# 6 0.0000 0.0000 0.0000 0.0000 0.0000 22.4984
#
#
#
# Elastic Compliance Matrix: (Units=1/GPa)
#
#
# Indices 1 2 3 4 5 6 
#
# 1 0.019270 -0.008070 -0.006658 0.000000 0.000000 0.000000
# 2 -0.008070 0.024457 -0.005112 0.000000 0.000000 0.000000
# 3 -0.006658 -0.005112 0.013493 0.000000 0.000000 0.000000
# 4 0.000000 0.000000 0.000000 0.041198 0.000000 0.000000
# 5 0.000000 0.000000 0.000000 0.000000 0.035476 0.000000
# 6 0.000000 0.000000 0.000000 0.000000 0.000000 0.044448
#
#
# Mechanical properties :
#
#
# Convention : Reuss Voigt Hill
#
# Bulk Modulus (GPa) = 57.01572 63.95382 60.48477
# Shear Modulus (GPa) = 22.33441 23.49560 22.91501
#
# Velocity S-wave (km/s) = 3.62793 3.72105 3.67478
# Velocity P-wave (km/s) = 7.15186 7.49334 7.32459
#
# Compressibility (1/GPa) = 0.01753902
#
# Stress axis : x y z
#
# Youngs Moduli (GPa) = 51.89383 40.88752 74.11255
#
# Poissons Ratio (x) = 0.32998 0.49345
# Poissons Ratio (y) = 0.41880 0.37888
# Poissons Ratio (z) = 0.34552 0.20903
#
# Static dielectric constant tensor:
#      x y z
#    x 3.080180 0.000000 0.000000 
#    y 0.000000 3.158540 0.000000 
#    z 0.000000 0.000000 3.108910 
# 
# 
# High freq. dielectric constant tensor:
#      x y z
#    x 1.639780 0.000000 0.000000 
#    y 0.000000 1.659270 0.000000 
#    z 0.000000 0.000000 1.644330 
# 
# From -- ./inp_files/15393.got.cif
#   From: 2010.03.12/outbox.cif.g09.slc.cpg/sg62_8_cif.got.tgz:15393.got - 2010.04.10 19:12:36.
