data_PCOD8251299
_publ_section_title
;
Structure prediction by ZEFSAII (Michael W. Deem and Ramdas Pophale) SiO2 
 PCOD8251299
Probable space group: P N M A
;
_chemical_formula_sum "Si O2"
_cell_formula_units_Z 64
_cell_length_a 21.961642
_cell_length_b 8.988266
_cell_length_c 16.712245
_cell_angle_alpha 90.000000
_cell_angle_beta 90.000000
_cell_angle_gamma 90.000000
_cell_volume 3298.948365
_symmetry_space_group_name_H-M "P N M A"
_symmetry_group_IT_number 62
_symmetry_cell_setting 'orthorhombic'
loop_
_space_group_symop_operation_xyz
x,y,z
1/2-x,-y,1/2+z
1/2+x,1/2-y,1/2-z
-x,1/2+y,-z
-x,-y,-z
1/2+x,y,1/2-z
1/2-x,1/2+y,1/2+z
x,1/2-y,z
loop_
_atom_site_type_symbol
_atom_site_label
_atom_site_fract_x
_atom_site_fract_y
_atom_site_fract_z
Si Si1 0.878717 0.424226 0.438643
Si Si2 0.379014 0.920210 0.312087
Si Si3 0.033038 0.924199 0.698832
Si Si4 0.339998 0.080806 0.626082
Si Si5 0.293015 0.584181 0.170414
Si Si6 0.322808 0.575033 0.920095
Si Si7 0.305443 0.573522 0.463522
Si Si8 0.602244 0.423172 0.233322
O O1 0.882972 0.250000 0.456306
O O2 0.934221 0.483201 0.382520
O O3 0.815779 0.461813 0.392898
O O4 0.876400 0.512226 0.522236
O O5 0.399628 0.750000 0.311902
O O6 0.320092 0.948674 0.257126
O O7 0.357809 0.970862 0.399891
O O8 0.436426 0.011536 0.279307
O O9 0.043312 0.750000 0.702978
O O10 0.962582 0.969436 0.695278
O O11 0.357243 0.250000 0.603496
O O12 0.278952 0.072339 0.678401
O O13 0.331844 0.985801 0.546354
O O14 0.391098 0.012250 0.683798
O O15 0.312006 0.750000 0.140343
O O16 0.316013 0.750000 0.934307
O O17 0.258523 0.499379 0.939126
O O18 0.344645 0.538804 0.830087
O O19 0.295295 0.750000 0.466976
O O20 0.602837 0.250000 0.254978
#
# Coordination Sequence:
#
# PCOD8251299 Si02
#       8
#     8   8   8   8   8   8   8   8
#     4  10  19  32  55  84 113 148 187 230 279 333
#     4   9  19  35  57  83 109 143 184 231 283 334
#     4   9  20  39  59  81 111 150 196 238 278 332
#     4  11  22  36  57  84 114 147 187 233 286 343
#     4   9  17  32  53  78 111 143 176 224 281 337
#     4  11  22  36  56  85 119 152 187 230 283 339
#     4  11  22  37  58  86 118 148 183 231 287 342
#     4  10  23  41  58  79 113 154 193 236 284 333
#
# _framework density 19.400122
#
# number of rings (size 3 to 8) (size 9 to 14) (size 15 to 20)
#    0.000    2.000    1.250    2.250    0.000    5.000 
#    0.000    3.125    0.000    0.000    0.000    0.000 
#    0.000    0.000    0.000    0.000    0.000    0.000 
#
# Total GULP energy -793519.034910 kJ/mol
# GULP energy per Si atom -12398.734920 kJ/mol
# Density = 1.935597 g / cm^3
# Si number density = 19.400122 Si / 1000 Ang^3
#
#
#
# Elastic Constant Matrix: (Units=GPa)
#
#
# Indices 1 2 3 4 5 6 
#
# 1 56.6476 30.7934 32.6886 0.0000 0.0000 0.0000
# 2 30.7934 78.2522 48.9612 0.0000 0.0000 0.0000
# 3 32.6886 48.9612 108.7497 0.0000 0.0000 0.0000
# 4 0.0000 0.0000 0.0000 31.2949 0.0000 0.0000
# 5 0.0000 0.0000 0.0000 0.0000 22.6079 0.0000
# 6 0.0000 0.0000 0.0000 0.0000 0.0000 26.8792
#
#
#
# Elastic Compliance Matrix: (Units=1/GPa)
#
#
# Indices 1 2 3 4 5 6 
#
# 1 0.023683 -0.006774 -0.004069 0.000000 0.000000 0.000000
# 2 -0.006774 0.019728 -0.006846 0.000000 0.000000 0.000000
# 3 -0.004069 -0.006846 0.013501 0.000000 0.000000 0.000000
# 4 0.000000 0.000000 0.000000 0.031954 0.000000 0.000000
# 5 0.000000 0.000000 0.000000 0.000000 0.044232 0.000000
# 6 0.000000 0.000000 0.000000 0.000000 0.000000 0.037204
#
#
# Mechanical properties :
#
#
# Convention : Reuss Voigt Hill
#
# Bulk Modulus (GPa) = 46.43702 52.05953 49.24828
# Shear Modulus (GPa) = 23.48986 24.90348 24.19667
#
# Velocity S-wave (km/s) = 3.48344 3.58673 3.53546
# Velocity P-wave (km/s) = 6.33779 6.63670 6.48897
#
# Compressibility (1/GPa) = 0.02153454
#
# Stress axis : x y z
#
# Youngs Moduli (GPa) = 42.22390 50.68909 74.07001
#
# Poissons Ratio (x) = 0.34335 0.30141
# Poissons Ratio (y) = 0.28601 0.50708
# Poissons Ratio (z) = 0.17182 0.34701
#
# Static dielectric constant tensor:
#      x y z
#    x 3.399760 0.000000 0.000000 
#    y 0.000000 3.552340 0.000000 
#    z 0.000000 0.000000 3.638970 
# 
# 
# High freq. dielectric constant tensor:
#      x y z
#    x 1.737180 0.000000 0.000000 
#    y 0.000000 1.757080 0.000000 
#    z 0.000000 0.000000 1.757860 
# 
# From -- ./inp_files/24705.got.cif
#   From: 2010.03.12/outbox.cif.g09.slc.cpg/sg62_13_cif.got.tgz:24705.got - 2010.04.10 19:12:36.
