data_PCOD8251476
_publ_section_title
;
Structure prediction by ZEFSAII (Michael W. Deem and Ramdas Pophale) SiO2 
 PCOD8251476
Probable space group: P N M A
;
_chemical_formula_sum "Si O2"
_cell_formula_units_Z 64
_cell_length_a 20.275703
_cell_length_b 8.976735
_cell_length_c 19.548551
_cell_angle_alpha 90.000000
_cell_angle_beta 90.000000
_cell_angle_gamma 90.000000
_cell_volume 3558.024198
_symmetry_space_group_name_H-M "P N M A"
_symmetry_group_IT_number 62
_symmetry_cell_setting 'orthorhombic'
loop_
_space_group_symop_operation_xyz
x,y,z
1/2-x,-y,1/2+z
1/2+x,1/2-y,1/2-z
-x,1/2+y,-z
-x,-y,-z
1/2+x,y,1/2-z
1/2-x,1/2+y,1/2+z
x,1/2-y,z
loop_
_atom_site_type_symbol
_atom_site_label
_atom_site_fract_x
_atom_site_fract_y
_atom_site_fract_z
Si Si1 0.687458 0.574501 0.205137
Si Si2 0.575139 0.421564 0.286883
Si Si3 0.226896 0.574001 0.569208
Si Si4 0.121704 0.922628 0.932846
Si Si5 0.925020 0.078399 0.213239
Si Si6 0.621761 0.077393 0.433023
Si Si7 0.812736 0.574488 0.295051
Si Si8 0.226914 0.425978 0.430639
O O1 0.688776 0.750000 0.192470
O O2 0.620394 0.529566 0.242725
O O3 0.750123 0.522630 0.250053
O O4 0.686749 0.490941 0.132941
O O5 0.598379 0.250000 0.278031
O O6 0.500099 0.442558 0.262563
O O7 0.580148 0.468018 0.366478
O O8 0.216659 0.750000 0.565619
O O9 0.302920 0.527124 0.579186
O O10 0.186672 0.508969 0.632729
O O11 0.199000 0.500079 0.499899
O O12 0.117309 0.750000 0.947926
O O13 0.080158 0.968387 0.866304
O O14 0.197049 0.972697 0.920689
O O15 0.091367 0.999966 0.999937
O O16 0.901810 0.250000 0.222003
O O17 0.879848 0.970595 0.257592
O O18 0.617556 0.250000 0.448236
O O19 0.811440 0.750000 0.307671
O O20 0.216621 0.250000 0.434306
#
# Coordination Sequence:
#
# PCOD8251476 Si02
#       8
#     8   8   8   8   8   8   8   8
#     4  11  22  35  55  82 110 142 184 229 273 321
#     4  10  21  37  55  77 108 147 187 225 272 327
#     4  10  19  33  55  81 111 142 178 225 275 322
#     4   9  18  31  49  75 107 143 181 220 262 316
#     4  10  21  37  55  77 108 147 187 225 272 327
#     4   9  18  31  49  75 107 143 181 220 262 316
#     4  11  22  35  55  82 110 142 184 229 273 321
#     4  10  19  33  55  81 111 142 178 225 275 322
#
# _framework density 17.987511000000001
#
# number of rings (size 3 to 8) (size 9 to 14) (size 15 to 20)
#    0.000    2.000    2.500    1.500    0.000    4.000 
#    0.000    0.000    0.000    0.750    0.000    0.000 
#    0.000    0.000    0.000    0.000    0.000    0.000 
#
# Total GULP energy -793815.033799 kJ/mol
# GULP energy per Si atom -12403.359903 kJ/mol
# Density = 1.794657 g / cm^3
# Si number density = 17.987511 Si / 1000 Ang^3
#
#
#
# Elastic Constant Matrix: (Units=GPa)
#
#
# Indices 1 2 3 4 5 6 
#
# 1 67.7174 28.6762 37.0724 0.0000 0.0000 0.0000
# 2 28.6762 70.3551 48.6091 0.0000 0.0000 0.0000
# 3 37.0724 48.6091 114.4637 0.0000 0.0000 0.0000
# 4 0.0000 0.0000 0.0000 38.1193 0.0000 0.0000
# 5 0.0000 0.0000 0.0000 0.0000 22.1925 0.0000
# 6 0.0000 0.0000 0.0000 0.0000 0.0000 18.0298
#
#
#
# Elastic Compliance Matrix: (Units=1/GPa)
#
#
# Indices 1 2 3 4 5 6 
#
# 1 0.019104 -0.004970 -0.004077 0.000000 0.000000 0.000000
# 2 -0.004970 0.021409 -0.007482 0.000000 0.000000 0.000000
# 3 -0.004077 -0.007482 0.013234 0.000000 0.000000 0.000000
# 4 0.000000 0.000000 0.000000 0.026233 0.000000 0.000000
# 5 0.000000 0.000000 0.000000 0.000000 0.045060 0.000000
# 6 0.000000 0.000000 0.000000 0.000000 0.000000 0.055464
#
#
# Mechanical properties :
#
#
# Convention : Reuss Voigt Hill
#
# Bulk Modulus (GPa) = 48.33403 53.47239 50.90321
# Shear Modulus (GPa) = 22.68012 24.88022 23.78017
#
# Velocity S-wave (km/s) = 3.55474 3.72317 3.63993
# Velocity P-wave (km/s) = 6.61645 6.94800 6.78425
#
# Compressibility (1/GPa) = 0.02068936
#
# Stress axis : x y z
#
# Youngs Moduli (GPa) = 52.34598 46.71018 75.56237
#
# Poissons Ratio (x) = 0.23214 0.30805
# Poissons Ratio (y) = 0.26015 0.56535
# Poissons Ratio (z) = 0.21340 0.34948
#
# Static dielectric constant tensor:
#      x y z
#    x 3.060690 0.000000 0.000000 
#    y 0.000000 3.281030 0.000000 
#    z 0.000000 0.000000 3.387730 
# 
# 
# High freq. dielectric constant tensor:
#      x y z
#    x 1.666180 0.000000 0.000000 
#    y 0.000000 1.699160 0.000000 
#    z 0.000000 0.000000 1.702060 
# 
# From -- ./inp_files/24799.got.cif
#   From: 2010.03.12/outbox.cif.g09.slc.cpg/sg62_13_cif.got.tgz:24799.got - 2010.04.10 19:12:36.
