data_PCOD8251588
_publ_section_title
;
Structure prediction by ZEFSAII (Michael W. Deem and Ramdas Pophale) SiO2 
 PCOD8251588
Probable space group: P N M A
;
_chemical_formula_sum "Si O2"
_cell_formula_units_Z 64
_cell_length_a 12.549344
_cell_length_b 9.540669
_cell_length_c 27.642058
_cell_angle_alpha 90.000000
_cell_angle_beta 90.000000
_cell_angle_gamma 90.000000
_cell_volume 3309.559757
_symmetry_space_group_name_H-M "P N M A"
_symmetry_group_IT_number 62
_symmetry_cell_setting 'orthorhombic'
loop_
_space_group_symop_operation_xyz
x,y,z
1/2-x,-y,1/2+z
1/2+x,1/2-y,1/2-z
-x,1/2+y,-z
-x,-y,-z
1/2+x,y,1/2-z
1/2-x,1/2+y,1/2+z
x,1/2-y,z
loop_
_atom_site_type_symbol
_atom_site_label
_atom_site_fract_x
_atom_site_fract_y
_atom_site_fract_z
Si Si1 0.569151 0.596480 0.197988
Si Si2 0.143046 0.600998 0.404192
Si Si3 0.756779 0.411926 0.415364
Si Si4 0.629792 0.591280 0.817156
Si Si5 0.176474 0.588507 0.887111
Si Si6 0.748812 0.408978 0.218837
Si Si7 0.440482 0.585855 0.040632
Si Si8 0.978312 0.585909 0.951074
O O1 0.542549 0.750000 0.221055
O O2 0.647749 0.618576 0.153046
O O3 0.464151 0.519666 0.179446
O O4 0.642945 0.499496 0.231844
O O5 0.173053 0.750000 0.429467
O O6 0.230897 0.486686 0.419005
O O7 0.020409 0.563439 0.414733
O O8 0.780611 0.250000 0.428595
O O9 0.782007 0.439893 0.358603
O O10 0.828315 0.513371 0.448299
O O11 0.635352 0.451396 0.427402
O O12 0.586406 0.750000 0.823649
O O13 0.675293 0.570140 0.763963
O O14 0.197566 0.750000 0.896041
O O15 0.184617 0.550821 0.829935
O O16 0.063107 0.543220 0.909393
O O17 0.708344 0.250000 0.214009
O O18 0.422623 0.750000 0.027668
O O19 0.500000 0.500000 0.000000
O O20 0.986263 0.750000 0.963922
O O21 0.000000 0.500000 0.000000
#
# Coordination Sequence:
#
# PCOD8251588 Si02
#       8
#     8   8   8   8   8   8   8   8
#     4  10  19  34  54  79 113 149 184 231 286 344
#     4   9  19  35  55  79 110 145 180 227 284 338
#     4  10  22  40  60  86 119 153 192 239 294 354
#     4  10  20  35  59  86 114 150 190 236 290 351
#     4   9  19  36  58  83 112 147 191 241 288 341
#     4   9  19  35  57  86 114 149 194 239 291 350
#     4  11  23  38  57  85 117 149 187 237 292 350
#     4  10  23  41  59  82 114 155 200 246 292 343
#
# _framework density 19.33792
#
# number of rings (size 3 to 8) (size 9 to 14) (size 15 to 20)
#    0.000    2.250    1.250    0.750    1.750    4.000 
#    0.000    3.750    0.000    1.500    0.000    0.000 
#    0.000    0.000    0.000    0.000    0.000    0.000 
#
# Total GULP energy -792954.120047 kJ/mol
# GULP energy per Si atom -12389.908126 kJ/mol
# Density = 1.929391 g / cm^3
# Si number density = 19.337920 Si / 1000 Ang^3
#
#
#
# Elastic Constant Matrix: (Units=GPa)
#
#
# Indices 1 2 3 4 5 6 
#
# 1 142.9596 77.5671 42.2527 0.0000 0.0000 0.0000
# 2 77.5671 111.0001 47.2302 0.0000 0.0000 0.0000
# 3 42.2527 47.2302 78.0631 0.0000 0.0000 0.0000
# 4 0.0000 0.0000 0.0000 21.7108 0.0000 0.0000
# 5 0.0000 0.0000 0.0000 0.0000 22.3778 0.0000
# 6 0.0000 0.0000 0.0000 0.0000 0.0000 31.3698
#
#
#
# Elastic Compliance Matrix: (Units=1/GPa)
#
#
# Indices 1 2 3 4 5 6 
#
# 1 0.011457 -0.007229 -0.001828 0.000000 0.000000 0.000000
# 2 -0.007229 0.016693 -0.006187 0.000000 0.000000 0.000000
# 3 -0.001828 -0.006187 0.017543 0.000000 0.000000 0.000000
# 4 0.000000 0.000000 0.000000 0.046060 0.000000 0.000000
# 5 0.000000 0.000000 0.000000 0.000000 0.044687 0.000000
# 6 0.000000 0.000000 0.000000 0.000000 0.000000 0.031878
#
#
# Mechanical properties :
#
#
# Convention : Reuss Voigt Hill
#
# Bulk Modulus (GPa) = 65.76392 74.01365 69.88879
# Shear Modulus (GPa) = 24.52493 26.08986 25.30740
#
# Velocity S-wave (km/s) = 3.56509 3.67707 3.62151
# Velocity P-wave (km/s) = 7.14339 7.50898 7.32846
#
# Compressibility (1/GPa) = 0.01520591
#
# Stress axis : x y z
#
# Youngs Moduli (GPa) = 87.28009 59.90543 57.00315
#
# Poissons Ratio (x) = 0.43304 0.10420
# Poissons Ratio (y) = 0.63092 0.35268
# Poissons Ratio (z) = 0.15954 0.37064
#
# Static dielectric constant tensor:
#      x y z
#    x 3.087680 0.000000 0.000000 
#    y 0.000000 3.825640 0.000000 
#    z 0.000000 0.000000 3.385700 
# 
# 
# High freq. dielectric constant tensor:
#      x y z
#    x 1.748940 0.000000 0.000000 
#    y 0.000000 1.757730 0.000000 
#    z 0.000000 0.000000 1.741640 
# 
# From -- ./inp_files/32542.got.cif
#   From: 2010.03.12/outbox.cif.g09.slc.cpg/sg62_17_cif.got.tgz:32542.got - 2010.04.10 19:12:36.
