data_PCOD8251752
_publ_section_title
;
Structure prediction by ZEFSAII (Michael W. Deem and Ramdas Pophale) SiO2 
 PCOD8251752
Probable space group: P N M A
;
_chemical_formula_sum "Si O2"
_cell_formula_units_Z 48
_cell_length_a 7.468654
_cell_length_b 20.611245
_cell_length_c 17.748775
_cell_angle_alpha 90.000000
_cell_angle_beta 90.000000
_cell_angle_gamma 90.000000
_cell_volume 2732.215495
_symmetry_space_group_name_H-M "P N M A"
_symmetry_group_IT_number 62
_symmetry_cell_setting 'orthorhombic'
loop_
_space_group_symop_operation_xyz
x,y,z
1/2-x,-y,1/2+z
1/2+x,1/2-y,1/2-z
-x,1/2+y,-z
-x,-y,-z
1/2+x,y,1/2-z
1/2-x,1/2+y,1/2+z
x,1/2-y,z
loop_
_atom_site_type_symbol
_atom_site_label
_atom_site_fract_x
_atom_site_fract_y
_atom_site_fract_z
Si Si1 0.706532 0.521297 0.333654
Si Si2 0.706717 0.629176 0.666422
Si Si3 0.500000 0.177309 0.057334
Si Si4 0.206532 0.478703 0.833654
Si Si5 0.206717 0.370824 0.166422
Si Si6 0.500000 0.560923 0.055333
O O1 0.500000 0.532635 0.353590
O O2 0.750000 0.546960 0.250000
O O3 0.761414 0.446093 0.339347
O O4 0.822787 0.560734 0.393510
O O5 0.761414 0.553907 0.660653
O O6 0.500000 0.640402 0.646810
O O7 0.750000 0.654875 0.750000
O O8 0.822880 0.668776 0.607315
O O9 0.500000 0.250000 0.024489
O O10 0.322880 0.168776 0.107315
O O11 0.500000 0.128286 0.988167
O O12 0.322786 0.439266 0.893510
O O13 0.500000 0.500000 0.000000
#
# Coordination Sequence:
#
# PCOD8251752 Si02
#       6
#     8   8   8   8   8   8
#     4  10  19  34  63  92 115 145 190 241 289 342
#     4  10  19  35  58  84 118 155 193 229 277 349
#     4  12  26  40  54  82 123 160 192 239 287 337
#     4  10  19  34  63  92 115 145 190 241 289 342
#     4  10  19  35  58  84 118 155 193 229 277 349
#     4  12  22  38  60  88 120 151 190 242 294 335
#
# _framework density 17.568159999999999
#
# number of rings (size 3 to 8) (size 9 to 14) (size 15 to 20)
#    0.000    1.333    6.667    0.000    0.000    3.333 
#    0.000    0.000    0.000    1.000    0.000    0.000 
#    0.000    0.000    0.000    0.000    0.000    0.000 
#
# Total GULP energy -595430.548581 kJ/mol
# GULP energy per Si atom -12404.803095 kJ/mol
# Density = 1.752817 g / cm^3
# Si number density = 17.568160 Si / 1000 Ang^3
#
#
#
# Elastic Constant Matrix: (Units=GPa)
#
#
# Indices 1 2 3 4 5 6 
#
# 1 119.2421 39.4666 55.4011 0.0000 0.0000 0.0000
# 2 39.4666 98.7693 64.4779 0.0000 0.0000 0.0000
# 3 55.4011 64.4779 119.7116 0.0000 0.0000 0.0000
# 4 0.0000 0.0000 0.0000 20.7861 0.0000 0.0000
# 5 0.0000 0.0000 0.0000 0.0000 35.3304 0.0000
# 6 0.0000 0.0000 0.0000 0.0000 0.0000 9.4731
#
#
#
# Elastic Compliance Matrix: (Units=1/GPa)
#
#
# Indices 1 2 3 4 5 6 
#
# 1 0.010851 -0.001631 -0.004143 0.000000 0.000000 0.000000
# 2 -0.001631 0.015860 -0.007788 0.000000 0.000000 0.000000
# 3 -0.004143 -0.007788 0.014465 0.000000 0.000000 0.000000
# 4 0.000000 0.000000 0.000000 0.048109 0.000000 0.000000
# 5 0.000000 0.000000 0.000000 0.000000 0.028304 0.000000
# 6 0.000000 0.000000 0.000000 0.000000 0.000000 0.105562
#
#
# Mechanical properties :
#
#
# Convention : Reuss Voigt Hill
#
# Bulk Modulus (GPa) = 71.16059 72.93490 72.04775
# Shear Modulus (GPa) = 19.61091 25.00976 22.31033
#
# Velocity S-wave (km/s) = 3.34470 3.77713 3.56747
# Velocity P-wave (km/s) = 7.45046 7.78639 7.62028
#
# Compressibility (1/GPa) = 0.01405272
#
# Stress axis : x y z
#
# Youngs Moduli (GPa) = 92.15594 63.05065 69.13085
#
# Poissons Ratio (x) = 0.10285 0.28642
# Poissons Ratio (y) = 0.15033 0.53836
# Poissons Ratio (z) = 0.38182 0.49101
#
# Static dielectric constant tensor:
#      x y z
#    x 6.808810 0.000000 0.000000 
#    y 0.000000 2.890980 0.000000 
#    z 0.000000 0.000000 3.299890 
# 
# 
# High freq. dielectric constant tensor:
#      x y z
#    x 1.701160 0.000000 0.000000 
#    y 0.000000 1.632770 0.000000 
#    z 0.000000 0.000000 1.676700 
# 
# From -- ./inp_files/17070.got.cif
#   From: 2010.03.12/outbox.cif.g09.slc.cpg/sg62_9_cif.got.tgz:17070.got - 2010.04.10 19:12:36.
