data_PCOD8251802
_publ_section_title
;
Structure prediction by ZEFSAII (Michael W. Deem and Ramdas Pophale) SiO2 
 PCOD8251802
Probable space group: P N M A
;
_chemical_formula_sum "Si O2"
_cell_formula_units_Z 64
_cell_length_a 15.099767
_cell_length_b 9.053621
_cell_length_c 24.612867
_cell_angle_alpha 90.000000
_cell_angle_beta 90.000000
_cell_angle_gamma 90.000000
_cell_volume 3364.765179
_symmetry_space_group_name_H-M "P N M A"
_symmetry_group_IT_number 62
_symmetry_cell_setting 'orthorhombic'
loop_
_space_group_symop_operation_xyz
x,y,z
1/2-x,-y,1/2+z
1/2+x,1/2-y,1/2-z
-x,1/2+y,-z
-x,-y,-z
1/2+x,y,1/2-z
1/2-x,1/2+y,1/2+z
x,1/2-y,z
loop_
_atom_site_type_symbol
_atom_site_label
_atom_site_fract_x
_atom_site_fract_y
_atom_site_fract_z
Si Si1 0.498832 0.081583 0.662681
Si Si2 0.197822 0.425628 0.856137
Si Si3 0.494447 0.579125 0.886417
Si Si4 0.186371 0.076933 0.445286
Si Si5 0.672253 0.080348 0.357144
Si Si6 0.956824 0.578951 0.283112
Si Si7 0.820755 0.424088 0.440945
Si Si8 0.219628 0.922052 0.746883
O O1 0.487130 0.250000 0.646348
O O2 0.594930 0.025645 0.642955
O O3 0.489550 0.057544 0.727345
O O4 0.421446 0.996398 0.631407
O O5 0.208205 0.250000 0.853823
O O6 0.242998 0.490857 0.909028
O O7 0.243401 0.492706 0.802245
O O8 0.496309 0.750000 0.868972
O O9 0.412465 0.542411 0.925148
O O10 0.483342 0.480957 0.832326
O O11 0.583003 0.534052 0.918101
O O12 0.207605 0.250000 0.443301
O O13 0.197020 0.017355 0.505563
O O14 0.657112 0.250000 0.369473
O O15 0.747842 0.021444 0.397664
O O16 0.700245 0.053034 0.294869
O O17 0.932140 0.750000 0.291838
O O18 0.867482 0.484500 0.282003
O O19 0.814578 0.250000 0.453401
O O20 0.205019 0.750000 0.759717
#
# Coordination Sequence:
#
# PCOD8251802 Si02
#       8
#     8   8   8   8   8   8   8   8
#     4   9  21  38  56  83 118 152 193 241 290 343
#     4  10  22  41  60  83 117 157 196 243 297 349
#     4  10  21  38  58  83 120 157 193 238 290 350
#     4  11  24  39  60  89 114 152 202 246 295 349
#     4  10  21  36  59  87 115 153 195 234 293 349
#     4  10  20  34  54  85 119 155 194 232 286 347
#     4  10  21  41  61  83 118 156 193 239 294 351
#     4  10  19  35  57  84 118 154 190 237 291 347
#
# _framework density 19.020643
#
# number of rings (size 3 to 8) (size 9 to 14) (size 15 to 20)
#    0.000    2.000    1.250    2.625    1.750    6.000 
#    0.000    0.625    0.000    0.000    0.000    0.000 
#    0.000    0.000    0.000    0.000    0.000    0.000 
#
# Total GULP energy -793785.085542 kJ/mol
# GULP energy per Si atom -12402.891962 kJ/mol
# Density = 1.897735 g / cm^3
# Si number density = 19.020643 Si / 1000 Ang^3
#
#
#
# Elastic Constant Matrix: (Units=GPa)
#
#
# Indices 1 2 3 4 5 6 
#
# 1 115.9419 55.5138 61.9548 0.0000 0.0000 0.0000
# 2 55.5138 82.1841 49.2136 0.0000 0.0000 0.0000
# 3 61.9548 49.2136 98.0159 0.0000 0.0000 0.0000
# 4 0.0000 0.0000 0.0000 35.3920 0.0000 0.0000
# 5 0.0000 0.0000 0.0000 0.0000 21.4596 0.0000
# 6 0.0000 0.0000 0.0000 0.0000 0.0000 22.8731
#
#
#
# Elastic Compliance Matrix: (Units=1/GPa)
#
#
# Indices 1 2 3 4 5 6 
#
# 1 0.015056 -0.006394 -0.006307 0.000000 0.000000 0.000000
# 2 -0.006394 0.020114 -0.006058 0.000000 0.000000 0.000000
# 3 -0.006307 -0.006058 0.017231 0.000000 0.000000 0.000000
# 4 0.000000 0.000000 0.000000 0.028255 0.000000 0.000000
# 5 0.000000 0.000000 0.000000 0.000000 0.046599 0.000000
# 6 0.000000 0.000000 0.000000 0.000000 0.000000 0.043720
#
#
# Mechanical properties :
#
#
# Convention : Reuss Voigt Hill
#
# Bulk Modulus (GPa) = 67.18424 69.94514 68.56469
# Shear Modulus (GPa) = 23.42433 24.57558 23.99995
#
# Velocity S-wave (km/s) = 3.51311 3.59841 3.55601
# Velocity P-wave (km/s) = 7.20100 7.35648 7.27915
#
# Compressibility (1/GPa) = 0.01488444
#
# Stress axis : x y z
#
# Youngs Moduli (GPa) = 66.41680 49.71596 58.03659
#
# Poissons Ratio (x) = 0.31787 0.36602
# Poissons Ratio (y) = 0.42465 0.35158
# Poissons Ratio (z) = 0.41887 0.30118
#
# Static dielectric constant tensor:
#      x y z
#    x 3.456370 0.000000 0.000000 
#    y 0.000000 3.460560 0.000000 
#    z 0.000000 0.000000 3.402210 
# 
# 
# High freq. dielectric constant tensor:
#      x y z
#    x 1.738420 0.000000 0.000000 
#    y 0.000000 1.742860 0.000000 
#    z 0.000000 0.000000 1.732410 
# 
# From -- ./inp_files/29809.got.cif
#   From: 2010.03.12/outbox.cif.g09.slc.cpg/sg62_15_cif.got.tgz:29809.got - 2010.04.10 19:12:36.
