data_PCOD8251865
_publ_section_title
;
Structure prediction by ZEFSAII (Michael W. Deem and Ramdas Pophale) SiO2 
 PCOD8251865
Probable space group: P N M A
;
_chemical_formula_sum "Si O2"
_cell_formula_units_Z 56
_cell_length_a 21.914676
_cell_length_b 13.938599
_cell_length_c 9.346134
_cell_angle_alpha 90.000000
_cell_angle_beta 90.000000
_cell_angle_gamma 90.000000
_cell_volume 2854.868979
_symmetry_space_group_name_H-M "P N M A"
_symmetry_group_IT_number 62
_symmetry_cell_setting 'orthorhombic'
loop_
_space_group_symop_operation_xyz
x,y,z
1/2-x,-y,1/2+z
1/2+x,1/2-y,1/2-z
-x,1/2+y,-z
-x,-y,-z
1/2+x,y,1/2-z
1/2-x,1/2+y,1/2+z
x,1/2-y,z
loop_
_atom_site_type_symbol
_atom_site_label
_atom_site_fract_x
_atom_site_fract_y
_atom_site_fract_z
Si Si1 0.893311 0.362221 0.039282
Si Si2 0.806686 0.644967 0.231783
Si Si3 0.744641 0.646908 0.940077
Si Si4 0.978776 0.145653 0.777414
Si Si5 0.121660 0.583233 0.424963
Si Si6 0.585245 0.002121 0.790135
Si Si7 0.303731 0.463284 0.666368
O O1 0.873605 0.250000 0.056623
O O2 0.951293 0.369871 0.935142
O O3 0.839925 0.430280 0.975218
O O4 0.910891 0.405915 0.193712
O O5 0.828718 0.750000 0.282863
O O6 0.856628 0.567558 0.267933
O O7 0.742575 0.623635 0.307936
O O8 0.795173 0.644722 0.063223
O O9 0.749566 0.750000 0.859416
O O10 0.762560 0.558969 0.839780
O O11 0.675347 0.641035 0.996448
O O12 0.011754 0.250000 0.772852
O O13 0.925385 0.151448 0.658459
O O14 0.024397 0.059383 0.747771
O O15 0.083595 0.523696 0.542111
O O16 0.152042 0.516657 0.301752
#
# Coordination Sequence:
#
# PCOD8251865 Si02
#       7
#     8   8   8   8   8   8   8
#     4  10  22  39  62  88 114 153 202 245 290 346
#     4  10  20  34  57  85 116 153 192 236 294 351
#     4  10  19  35  59  86 116 155 196 239 287 344
#     4  10  22  41  61  82 113 158 202 240 291 352
#     4  10  22  37  59  83 121 155 195 237 294 349
#     4  12  21  37  59  89 118 150 194 251 294 342
#     4  10  19  39  58  85 121 157 191 239 288 360
#
# _framework density 19.615611999999999
#
# number of rings (size 3 to 8) (size 9 to 14) (size 15 to 20)
#    0.000    1.714    2.857    2.143    0.000    4.571 
#    0.000    1.429    0.000    0.000    0.000    0.000 
#    0.000    0.000    0.000    0.000    0.000    0.000 
#
# Total GULP energy -694046.969639 kJ/mol
# GULP energy per Si atom -12393.695886 kJ/mol
# Density = 1.957097 g / cm^3
# Si number density = 19.615612 Si / 1000 Ang^3
#
#
#
# Elastic Constant Matrix: (Units=GPa)
#
#
# Indices 1 2 3 4 5 6 
#
# 1 61.1678 22.5418 26.1402 0.0000 0.0000 0.0000
# 2 22.5418 116.3129 39.4649 0.0000 0.0000 0.0000
# 3 26.1402 39.4649 85.9911 0.0000 0.0000 0.0000
# 4 0.0000 0.0000 0.0000 16.5630 0.0000 0.0000
# 5 0.0000 0.0000 0.0000 0.0000 23.0917 0.0000
# 6 0.0000 0.0000 0.0000 0.0000 0.0000 16.9391
#
#
#
# Elastic Compliance Matrix: (Units=1/GPa)
#
#
# Indices 1 2 3 4 5 6 
#
# 1 0.019198 -0.002061 -0.004890 0.000000 0.000000 0.000000
# 2 -0.002061 0.010405 -0.004148 0.000000 0.000000 0.000000
# 3 -0.004890 -0.004148 0.015019 0.000000 0.000000 0.000000
# 4 0.000000 0.000000 0.000000 0.060376 0.000000 0.000000
# 5 0.000000 0.000000 0.000000 0.000000 0.043306 0.000000
# 6 0.000000 0.000000 0.000000 0.000000 0.000000 0.059035
#
#
# Mechanical properties :
#
#
# Convention : Reuss Voigt Hill
#
# Bulk Modulus (GPa) = 44.59823 48.86286 46.73055
# Shear Modulus (GPa) = 21.09602 23.00710 22.05156
#
# Velocity S-wave (km/s) = 3.28300 3.42847 3.35652
# Velocity P-wave (km/s) = 6.09559 6.37470 6.23671
#
# Compressibility (1/GPa) = 0.02242241
#
# Stress axis : x y z
#
# Youngs Moduli (GPa) = 52.08921 96.11154 66.58046
#
# Poissons Ratio (x) = 0.19813 0.32556
# Poissons Ratio (y) = 0.10738 0.27620
# Poissons Ratio (z) = 0.25471 0.39871
#
# Static dielectric constant tensor:
#      x y z
#    x 3.608620 0.000000 0.000000 
#    y 0.000000 3.669120 0.000000 
#    z 0.000000 0.000000 3.591780 
# 
# 
# High freq. dielectric constant tensor:
#      x y z
#    x 1.760550 0.000000 0.000000 
#    y 0.000000 1.765870 0.000000 
#    z 0.000000 0.000000 1.755200 
# 
# From -- ./inp_files/8712.got.cif
#   From: 2010.03.12/outbox.cif.g09.slc.cpg/sg62_5_cif.got.tgz:8712.got - 2010.04.10 19:12:36.
