data_PCOD8251326
_publ_section_title
;
Structure prediction by ZEFSAII (Michael W. Deem and Ramdas Pophale) SiO2 
 PCOD8251326
Probable space group: P N M A
;
_chemical_formula_sum "Si O2"
_cell_formula_units_Z 64
_cell_length_a 14.033747
_cell_length_b 9.504039
_cell_length_c 29.898886
_cell_angle_alpha 90.000000
_cell_angle_beta 90.000000
_cell_angle_gamma 90.000000
_cell_volume 3987.832054
_symmetry_space_group_name_H-M "P N M A"
_symmetry_group_IT_number 62
_symmetry_cell_setting 'orthorhombic'
loop_
_space_group_symop_operation_xyz
x,y,z
1/2-x,-y,1/2+z
1/2+x,1/2-y,1/2-z
-x,1/2+y,-z
-x,-y,-z
1/2+x,y,1/2-z
1/2-x,1/2+y,1/2+z
x,1/2-y,z
loop_
_atom_site_type_symbol
_atom_site_label
_atom_site_fract_x
_atom_site_fract_y
_atom_site_fract_z
Si Si1 0.891325 0.590713 0.960003
Si Si2 0.320554 0.410545 0.362139
Si Si3 0.353217 0.909231 0.637382
Si Si4 0.520672 0.410190 0.778602
Si Si5 0.845103 0.910498 0.702202
Si Si6 0.789301 0.087602 0.284710
Si Si7 0.018202 0.408819 0.824472
Si Si8 0.888741 0.412383 0.042520
O O1 0.886103 0.750000 0.977164
O O2 0.828428 0.569384 0.915119
O O3 0.000754 0.549952 0.948622
O O4 0.849056 0.495661 0.999607
O O5 0.357483 0.250000 0.357432
O O6 0.213171 0.424120 0.344123
O O7 0.383725 0.508762 0.330732
O O8 0.328116 0.458034 0.413856
O O9 0.391682 0.750000 0.645180
O O10 0.260885 0.935909 0.667473
O O11 0.435026 0.018507 0.648305
O O12 0.529182 0.250000 0.796369
O O13 0.436491 0.490692 0.804436
O O14 0.619892 0.488094 0.785962
O O15 0.490958 0.411698 0.727150
O O16 0.879140 0.750000 0.709979
O O17 0.780866 0.957986 0.744521
O O18 0.820547 0.250000 0.278019
O O19 0.030370 0.250000 0.842103
O O20 0.873802 0.250000 0.031689
#
# Coordination Sequence:
#
# PCOD8251326 Si02
#       8
#     8   8   8   8   8   8   8   8
#     4   9  17  29  46  68  97 127 156 194 238 285
#     4  10  19  33  50  70  95 129 167 203 236 275
#     4  10  19  33  50  70  95 129 167 203 236 275
#     4  11  23  35  47  68 103 134 159 200 247 286
#     4  10  20  33  53  73  92 126 170 204 234 281
#     4  10  20  33  53  73  92 126 170 204 234 281
#     4  11  21  29  44  70  99 132 163 196 236 286
#     4   9  17  29  46  68  97 127 156 194 238 285
#
# _framework density 16.048819000000002
#
# number of rings (size 3 to 8) (size 9 to 14) (size 15 to 20)
#    0.000    2.000    3.750    0.750    0.000    3.500 
#    0.000    0.000    0.000    0.000    0.000    0.875 
#    0.000    0.000    0.000    0.000    0.000    0.000 
#
# Total GULP energy -793605.764926 kJ/mol
# GULP energy per Si atom -12400.090077 kJ/mol
# Density = 1.601229 g / cm^3
# Si number density = 16.048819 Si / 1000 Ang^3
#
#
#
# Elastic Constant Matrix: (Units=GPa)
#
#
# Indices 1 2 3 4 5 6 
#
# 1 66.1330 42.4448 22.9888 0.0000 0.0000 0.0000
# 2 42.4448 82.7712 27.5877 0.0000 0.0000 0.0000
# 3 22.9888 27.5877 91.7549 0.0000 0.0000 0.0000
# 4 0.0000 0.0000 0.0000 25.6721 0.0000 0.0000
# 5 0.0000 0.0000 0.0000 0.0000 21.8650 0.0000
# 6 0.0000 0.0000 0.0000 0.0000 0.0000 9.6208
#
#
#
# Elastic Compliance Matrix: (Units=1/GPa)
#
#
# Indices 1 2 3 4 5 6 
#
# 1 0.023031 -0.010988 -0.002467 0.000000 0.000000 0.000000
# 2 -0.010988 0.018669 -0.002860 0.000000 0.000000 0.000000
# 3 -0.002467 -0.002860 0.012377 0.000000 0.000000 0.000000
# 4 0.000000 0.000000 0.000000 0.038953 0.000000 0.000000
# 5 0.000000 0.000000 0.000000 0.000000 0.045735 0.000000
# 6 0.000000 0.000000 0.000000 0.000000 0.000000 0.103942
#
#
# Mechanical properties :
#
#
# Convention : Reuss Voigt Hill
#
# Bulk Modulus (GPa) = 46.62633 47.41130 47.01881
# Shear Modulus (GPa) = 17.70005 21.27409 19.48707
#
# Velocity S-wave (km/s) = 3.32458 3.64481 3.48837
# Velocity P-wave (km/s) = 6.62216 6.87887 6.75174
#
# Compressibility (1/GPa) = 0.02144711
#
# Stress axis : x y z
#
# Youngs Moduli (GPa) = 43.42045 53.56352 80.79776
#
# Poissons Ratio (x) = 0.58855 0.19929
# Poissons Ratio (y) = 0.47710 0.23111
# Poissons Ratio (z) = 0.10710 0.15321
#
# Static dielectric constant tensor:
#      x y z
#    x 2.754910 0.000000 0.000000 
#    y 0.000000 3.150740 0.000000 
#    z 0.000000 0.000000 3.084230 
# 
# 
# High freq. dielectric constant tensor:
#      x y z
#    x 1.581120 0.000000 0.000000 
#    y 0.000000 1.623530 0.000000 
#    z 0.000000 0.000000 1.609470 
# 
# From -- ./inp_files/32615.got.cif
#   From: 2010.03.12/outbox.cif.g09.slc.cpg/sg62_17_cif.got.tgz:32615.got - 2010.04.10 19:12:36.
