data_PCOD8251914
_publ_section_title
;
Structure prediction by ZEFSAII (Michael W. Deem and Ramdas Pophale) SiO2 
 PCOD8251914
Probable space group: P N M A
;
_chemical_formula_sum "Si O2"
_cell_formula_units_Z 56
_cell_length_a 14.716796
_cell_length_b 8.509688
_cell_length_c 21.920021
_cell_angle_alpha 90.000000
_cell_angle_beta 90.000000
_cell_angle_gamma 90.000000
_cell_volume 2745.161334
_symmetry_space_group_name_H-M "P N M A"
_symmetry_group_IT_number 62
_symmetry_cell_setting 'orthorhombic'
loop_
_space_group_symop_operation_xyz
x,y,z
1/2-x,-y,1/2+z
1/2+x,1/2-y,1/2-z
-x,1/2+y,-z
-x,-y,-z
1/2+x,y,1/2-z
1/2-x,1/2+y,1/2+z
x,1/2-y,z
loop_
_atom_site_type_symbol
_atom_site_label
_atom_site_fract_x
_atom_site_fract_y
_atom_site_fract_z
Si Si1 0.620561 0.433585 0.756998
Si Si2 0.717564 0.065990 0.977235
Si Si3 0.181100 0.563159 0.278769
Si Si4 0.922544 0.432613 0.386295
Si Si5 0.387241 0.065208 0.909181
Si Si6 0.952860 0.433691 0.822481
Si Si7 0.922137 0.064182 0.956868
O O1 0.621511 0.250000 0.774842
O O2 0.717685 0.495327 0.734844
O O3 0.587304 0.529014 0.815282
O O4 0.554575 0.467105 0.700249
O O5 0.711266 0.250000 0.964005
O O6 0.670368 0.025324 0.040563
O O7 0.822661 0.010966 0.979948
O O8 0.669323 0.978391 0.921201
O O9 0.174729 0.750000 0.279750
O O10 0.147858 0.500662 0.344152
O O11 0.117246 0.491132 0.226030
O O12 0.942496 0.250000 0.395012
O O13 0.006191 0.527788 0.415904
O O14 0.371667 0.250000 0.917626
O O15 0.932180 0.250000 0.826166
O O16 0.938433 0.507762 0.889226
O O17 0.930819 0.250000 0.955617
O O18 0.000000 0.000000 0.000000
#
# Coordination Sequence:
#
# PCOD8251914 Si02
#       7
#     8   8   8   8   8   8   8
#     4  10  19  35  62  89 117 154 201 249 295 358
#     4  11  24  42  62  87 124 167 208 255 307 363
#     4   9  18  33  59  91 116 151 201 250 296 353
#     4  12  24  40  61  91 126 161 201 252 315 375
#     4  11  22  39  64  92 121 158 207 259 310 370
#     4   9  17  34  59  87 116 152 199 243 288 351
#     4  10  23  41  64  91 124 163 206 254 301 358
#
# _framework density 20.399528
#
# number of rings (size 3 to 8) (size 9 to 14) (size 15 to 20)
#    0.000    1.714    1.429    3.429    2.000    3.429 
#    0.000    2.143    0.000    0.000    0.000    0.000 
#    0.000    0.000    0.000    0.000    0.000    0.000 
#
# Total GULP energy -694576.405847 kJ/mol
# GULP energy per Si atom -12403.150104 kJ/mol
# Density = 2.035310 g / cm^3
# Si number density = 20.399528 Si / 1000 Ang^3
#
#
#
# Elastic Constant Matrix: (Units=GPa)
#
#
# Indices 1 2 3 4 5 6 
#
# 1 146.7791 16.7067 50.9289 0.0000 0.0000 0.0000
# 2 16.7067 34.0753 16.9633 0.0000 0.0000 0.0000
# 3 50.9289 16.9633 126.9453 0.0000 0.0000 0.0000
# 4 0.0000 0.0000 0.0000 30.2129 0.0000 0.0000
# 5 0.0000 0.0000 0.0000 0.0000 40.5466 0.0000
# 6 0.0000 0.0000 0.0000 0.0000 0.0000 21.8791
#
#
#
# Elastic Compliance Matrix: (Units=1/GPa)
#
#
# Indices 1 2 3 4 5 6 
#
# 1 0.008113 -0.002525 -0.002917 0.000000 0.000000 0.000000
# 2 -0.002525 0.032224 -0.003293 0.000000 0.000000 0.000000
# 3 -0.002917 -0.003293 0.009488 0.000000 0.000000 0.000000
# 4 0.000000 0.000000 0.000000 0.033098 0.000000 0.000000
# 5 0.000000 0.000000 0.000000 0.000000 0.024663 0.000000
# 6 0.000000 0.000000 0.000000 0.000000 0.000000 0.045706
#
#
# Mechanical properties :
#
#
# Convention : Reuss Voigt Hill
#
# Bulk Modulus (GPa) = 30.90833 52.99970 41.95402
# Shear Modulus (GPa) = 27.54107 33.40777 30.47442
#
# Velocity S-wave (km/s) = 3.67833 4.05121 3.86927
# Velocity P-wave (km/s) = 5.76408 6.92245 6.36965
#
# Compressibility (1/GPa) = 0.03235373
#
# Stress axis : x y z
#
# Youngs Moduli (GPa) = 123.26507 31.03263 105.39859
#
# Poissons Ratio (x) = 0.07836 0.30747
# Poissons Ratio (y) = 0.31127 0.34707
# Poissons Ratio (z) = 0.35959 0.10219
#
# Static dielectric constant tensor:
#      x y z
#    x 4.007880 0.000000 0.000000 
#    y 0.000000 3.339200 0.000000 
#    z 0.000000 0.000000 3.926480 
# 
# 
# High freq. dielectric constant tensor:
#      x y z
#    x 1.813040 0.000000 0.000000 
#    y 0.000000 1.761980 0.000000 
#    z 0.000000 0.000000 1.810030 
# 
# From -- ./inp_files/27152.got.cif
#   From: 2010.03.12/outbox.cif.g09.slc.cpg/sg62_14_cif.got.tgz:27152.got - 2010.04.10 19:12:36.
