data_PCOD8251118
_publ_section_title
;
Structure prediction by ZEFSAII (Michael W. Deem and Ramdas Pophale) SiO2 
 PCOD8251118
Probable space group: P N M A
;
_chemical_formula_sum "Si O2"
_cell_formula_units_Z 48
_cell_length_a 18.236418
_cell_length_b 8.582656
_cell_length_c 17.364555
_cell_angle_alpha 90.000000
_cell_angle_beta 90.000000
_cell_angle_gamma 90.000000
_cell_volume 2717.846360
_symmetry_space_group_name_H-M "P N M A"
_symmetry_group_IT_number 62
_symmetry_cell_setting 'orthorhombic'
loop_
_space_group_symop_operation_xyz
x,y,z
1/2-x,-y,1/2+z
1/2+x,1/2-y,1/2-z
-x,1/2+y,-z
-x,-y,-z
1/2+x,y,1/2-z
1/2-x,1/2+y,1/2+z
x,1/2-y,z
loop_
_atom_site_type_symbol
_atom_site_label
_atom_site_fract_x
_atom_site_fract_y
_atom_site_fract_z
Si Si1 0.300469 0.927701 0.321138
Si Si2 0.816739 0.570900 0.587901
Si Si3 0.678665 0.928175 0.925414
Si Si4 0.419301 0.933489 0.207150
Si Si5 0.294590 0.571079 0.693266
Si Si6 0.585852 0.932603 0.220141
O O1 0.297787 0.750000 0.348869
O O2 0.381631 0.973075 0.290284
O O3 0.268684 0.030962 0.391613
O O4 0.247743 0.951804 0.248284
O O5 0.832769 0.750000 0.603904
O O6 0.832278 0.535627 0.499190
O O7 0.871018 0.471560 0.641563
O O8 0.665930 0.750000 0.949781
O O9 0.761820 0.951039 0.892418
O O10 0.619202 0.972306 0.861245
O O11 0.411921 0.750000 0.189549
O O12 0.502650 0.990445 0.211605
O O13 0.282848 0.750000 0.719934
O O14 0.379595 0.521777 0.704971
O O15 0.588174 0.750000 0.235904
#
# Coordination Sequence:
#
# PCOD8251118 Si02
#       6
#     8   8   8   8   8   8
#     4   9  16  30  50  69  92 122 158 196 232 274
#     4  11  21  32  48  71  98 127 160 196 235 281
#     4  10  20  33  50  71  96 127 160 197 239 280
#     4   9  19  33  50  73  98 126 158 193 234 282
#     4   9  17  30  48  70  93 120 159 198 232 275
#     4  10  19  32  50  72  99 128 157 190 234 284
#
# _framework density 17.661042999999999
#
# number of rings (size 3 to 8) (size 9 to 14) (size 15 to 20)
#    0.000    2.333    0.000    5.500    0.000    4.667 
#    0.000    0.000    0.000    1.000    0.000    0.000 
#    0.000    0.000    0.000    0.000    0.000    0.000 
#
# Total GULP energy -594847.662525 kJ/mol
# GULP energy per Si atom -12392.659636 kJ/mol
# Density = 1.762085 g / cm^3
# Si number density = 17.661043 Si / 1000 Ang^3
#
#
#
# Elastic Constant Matrix: (Units=GPa)
#
#
# Indices 1 2 3 4 5 6 
#
# 1 112.0989 25.1471 50.4328 0.0000 0.0000 0.0000
# 2 25.1471 50.6357 13.9304 0.0000 0.0000 0.0000
# 3 50.4328 13.9304 29.1893 0.0000 0.0000 0.0000
# 4 0.0000 0.0000 0.0000 26.6258 0.0000 0.0000
# 5 0.0000 0.0000 0.0000 0.0000 18.1106 0.0000
# 6 0.0000 0.0000 0.0000 0.0000 0.0000 20.9030
#
#
#
# Elastic Compliance Matrix: (Units=1/GPa)
#
#
# Indices 1 2 3 4 5 6 
#
# 1 0.040104 -0.000983 -0.068821 0.000000 0.000000 0.000000
# 2 -0.000983 0.022758 -0.009162 0.000000 0.000000 0.000000
# 3 -0.068821 -0.009162 0.157540 0.000000 0.000000 0.000000
# 4 0.000000 0.000000 0.000000 0.037558 0.000000 0.000000
# 5 0.000000 0.000000 0.000000 0.000000 0.055216 0.000000
# 6 0.000000 0.000000 0.000000 0.000000 0.000000 0.047840
#
#
# Mechanical properties :
#
#
# Convention : Reuss Voigt Hill
#
# Bulk Modulus (GPa) = 16.00820 41.21604 28.61212
# Shear Modulus (GPa) = 9.26318 19.95543 14.60931
#
# Velocity S-wave (km/s) = 2.29268 3.36506 2.87924
# Velocity P-wave (km/s) = 4.01152 6.20372 5.22391
#
# Compressibility (1/GPa) = 0.06246799
#
# Stress axis : x y z
#
# Youngs Moduli (GPa) = 24.93544 43.94089 6.34760
#
# Poissons Ratio (x) = 0.04320 0.43685
# Poissons Ratio (y) = 0.02451 0.05816
# Poissons Ratio (z) = 1.71608 0.40260
#
# Static dielectric constant tensor:
#      x y z
#    x 3.581200 0.000000 0.000000 
#    y 0.000000 3.275520 0.000000 
#    z 0.000000 0.000000 3.140960 
# 
# 
# High freq. dielectric constant tensor:
#      x y z
#    x 1.672140 0.000000 0.000000 
#    y 0.000000 1.694150 0.000000 
#    z 0.000000 0.000000 1.655800 
# 
# From -- ./inp_files/19564.got.cif
#   From: 2010.03.12/outbox.cif.g09.slc.cpg/sg62_10_cif.got.tgz:19564.got - 2010.04.10 19:12:36.
