data_PCOD8251943
_publ_section_title
;
Structure prediction by ZEFSAII (Michael W. Deem and Ramdas Pophale) SiO2 
 PCOD8251943
Probable space group: P N M A
;
_chemical_formula_sum "Si O2"
_cell_formula_units_Z 64
_cell_length_a 20.081447
_cell_length_b 8.815664
_cell_length_c 18.857012
_cell_angle_alpha 90.000000
_cell_angle_beta 90.000000
_cell_angle_gamma 90.000000
_cell_volume 3338.281148
_symmetry_space_group_name_H-M "P N M A"
_symmetry_group_IT_number 62
_symmetry_cell_setting 'orthorhombic'
loop_
_space_group_symop_operation_xyz
x,y,z
1/2-x,-y,1/2+z
1/2+x,1/2-y,1/2-z
-x,1/2+y,-z
-x,-y,-z
1/2+x,y,1/2-z
1/2-x,1/2+y,1/2+z
x,1/2-y,z
loop_
_atom_site_type_symbol
_atom_site_label
_atom_site_fract_x
_atom_site_fract_y
_atom_site_fract_z
Si Si1 0.948178 0.570827 0.946194
Si Si2 0.910039 0.073648 0.305207
Si Si3 0.344207 0.930441 0.796535
Si Si4 0.028307 0.068700 0.212525
Si Si5 0.703485 0.070691 0.462817
Si Si6 0.316867 0.930052 0.954450
Si Si7 0.936550 0.426241 0.464633
Si Si8 0.262884 0.069051 0.186016
O O1 0.956384 0.750000 0.947220
O O2 0.963398 0.507867 0.867339
O O3 0.873715 0.523531 0.968676
O O4 0.000000 0.500000 0.000000
O O5 0.901009 0.250000 0.289972
O O6 0.944124 0.047226 0.381061
O O7 0.836671 0.998756 0.302600
O O8 0.958951 0.005226 0.245084
O O9 0.344999 0.750000 0.795910
O O10 0.411906 0.993893 0.761707
O O11 0.336128 0.991005 0.876421
O O12 0.282318 0.990857 0.750271
O O13 0.030162 0.250000 0.213668
O O14 0.712850 0.250000 0.470385
O O15 0.732150 0.011414 0.387926
O O16 0.743102 0.987979 0.525986
O O17 0.318928 0.750000 0.957373
O O18 0.368745 0.996711 0.010346
O O19 0.933535 0.250000 0.484038
O O20 0.000000 0.500000 0.500000
O O21 0.265031 0.250000 0.183812
#
# Coordination Sequence:
#
# PCOD8251943 Si02
#       8
#     8   8   8   8   8   8   8   8
#     4  10  21  36  59  85 111 146 186 230 283 337
#     4   9  17  28  50  80 104 132 181 235 273 311
#     4   9  17  30  51  79 108 137 182 235 275 316
#     4   9  16  30  51  78 107 137 181 234 276 315
#     4  10  19  36  58  79 108 151 191 227 279 342
#     4  11  22  34  54  87 117 143 180 236 288 332
#     4  11  21  35  54  80 113 151 187 227 277 335
#     4   9  15  29  52  76 101 137 184 230 272 317
#
# _framework density 19.171541999999999
#
# number of rings (size 3 to 8) (size 9 to 14) (size 15 to 20)
#    0.000    2.250    2.500    1.500    0.000    3.500 
#    0.000    2.500    0.000    6.000    0.000    0.000 
#    0.000    0.000    0.000    0.000    0.000    0.000 
#
# Total GULP energy -793533.919239 kJ/mol
# GULP energy per Si atom -12398.967488 kJ/mol
# Density = 1.912791 g / cm^3
# Si number density = 19.171542 Si / 1000 Ang^3
#
#
#
# Elastic Constant Matrix: (Units=GPa)
#
#
# Indices 1 2 3 4 5 6 
#
# 1 171.8252 29.4336 74.6528 0.0000 0.0000 0.0000
# 2 29.4336 31.0077 28.2089 0.0000 0.0000 0.0000
# 3 74.6528 28.2089 126.6023 0.0000 0.0000 0.0000
# 4 0.0000 0.0000 0.0000 20.3407 0.0000 0.0000
# 5 0.0000 0.0000 0.0000 0.0000 44.0980 0.0000
# 6 0.0000 0.0000 0.0000 0.0000 0.0000 25.4498
#
#
#
# Elastic Compliance Matrix: (Units=1/GPa)
#
#
# Indices 1 2 3 4 5 6 
#
# 1 0.008252 -0.004273 -0.003914 0.000000 0.000000 0.000000
# 2 -0.004273 0.042661 -0.006986 0.000000 0.000000 0.000000
# 3 -0.003914 -0.006986 0.011763 0.000000 0.000000 0.000000
# 4 0.000000 0.000000 0.000000 0.049163 0.000000 0.000000
# 5 0.000000 0.000000 0.000000 0.000000 0.022677 0.000000
# 6 0.000000 0.000000 0.000000 0.000000 0.000000 0.039293
#
#
# Mechanical properties :
#
#
# Convention : Reuss Voigt Hill
#
# Bulk Modulus (GPa) = 30.92977 66.00287 48.46632
# Shear Modulus (GPa) = 23.26314 31.12036 27.19175
#
# Velocity S-wave (km/s) = 3.48720 4.03334 3.77017
# Velocity P-wave (km/s) = 5.69054 7.49618 6.65488
#
# Compressibility (1/GPa) = 0.03233131
#
# Stress axis : x y z
#
# Youngs Moduli (GPa) = 121.17797 23.44039 85.00951
#
# Poissons Ratio (x) = 0.10015 0.33274
# Poissons Ratio (y) = 0.51775 0.59389
# Poissons Ratio (z) = 0.47430 0.16376
#
# Static dielectric constant tensor:
#      x y z
#    x 3.864060 0.000000 0.000000 
#    y 0.000000 2.985580 0.000000 
#    z 0.000000 0.000000 3.679910 
# 
# 
# High freq. dielectric constant tensor:
#      x y z
#    x 1.764060 0.000000 0.000000 
#    y 0.000000 1.688670 0.000000 
#    z 0.000000 0.000000 1.751970 
# 
# From -- ./inp_files/24721.got.cif
#   From: 2010.03.12/outbox.cif.g09.slc.cpg/sg62_13_cif.got.tgz:24721.got - 2010.04.10 19:12:36.
