data_PCOD8251642
_publ_section_title
;
Structure prediction by ZEFSAII (Michael W. Deem and Ramdas Pophale) SiO2 
 PCOD8251642
Probable space group: P N M A
;
_chemical_formula_sum "Si O2"
_cell_formula_units_Z 64
_cell_length_a 20.306029
_cell_length_b 31.154226
_cell_length_c 5.089277
_cell_angle_alpha 90.000000
_cell_angle_beta 90.000000
_cell_angle_gamma 90.000000
_cell_volume 3219.571375
_symmetry_space_group_name_H-M "P N M A"
_symmetry_group_IT_number 62
_symmetry_cell_setting 'orthorhombic'
loop_
_space_group_symop_operation_xyz
x,y,z
1/2-x,-y,1/2+z
1/2+x,1/2-y,1/2-z
-x,1/2+y,-z
-x,-y,-z
1/2+x,y,1/2-z
1/2-x,1/2+y,1/2+z
x,1/2-y,z
loop_
_atom_site_type_symbol
_atom_site_label
_atom_site_fract_x
_atom_site_fract_y
_atom_site_fract_z
Si Si1 0.854415 0.431161 0.711799
Si Si2 0.130609 0.476378 0.296487
Si Si3 0.876716 0.864418 0.208567
Si Si4 0.231533 0.299302 0.723383
Si Si5 0.203493 0.052409 0.792269
Si Si6 0.602545 0.881144 0.713716
Si Si7 0.684056 0.699903 0.783510
Si Si8 0.050886 0.392302 0.294658
O O1 0.897911 0.475086 0.736219
O O2 0.780830 0.448115 0.754091
O O3 0.859797 0.409464 0.428215
O O4 0.876372 0.396987 0.927251
O O5 0.167425 0.476400 0.575388
O O6 0.070150 0.442751 0.284484
O O7 0.184643 0.465190 0.077148
O O8 0.840702 0.819446 0.250368
O O9 0.819228 0.898861 0.243820
O O10 0.933532 0.871909 0.422993
O O11 0.909077 0.865831 0.922545
O O12 0.217916 0.250000 0.770632
O O13 0.262151 0.309092 0.440367
O O14 0.282778 0.315042 0.944736
O O15 0.620966 0.830698 0.738864
O O16 0.525503 0.887053 0.746249
O O17 0.661271 0.750000 0.784277
#
# Coordination Sequence:
#
# PCOD8251642 Si02
#       8
#     8   8   8   8   8   8   8   8
#     4  12  23  35  58  83 111 144 186 239 279 330
#     4  10  21  37  55  80 112 146 182 234 289 326
#     4  10  19  36  57  78 108 144 179 225 278 323
#     4  10  20  36  62  92 114 135 175 230 287 339
#     4  10  19  34  56  81 108 140 183 230 289 341
#     4  12  24  38  55  81 111 150 196 224 264 331
#     4  10  21  38  59  84 114 141 172 224 281 328
#     4  10  23  38  55  77 112 154 190 224 263 324
#
# _framework density 19.878422
#
# number of rings (size 3 to 8) (size 9 to 14) (size 15 to 20)
#    0.000    1.500    0.000    6.000    0.000    3.000 
#    0.000    1.250    0.000    0.000    0.000    0.000 
#    0.000    0.000    0.000    0.000    0.000    0.000 
#
# Total GULP energy -793823.767190 kJ/mol
# GULP energy per Si atom -12403.496362 kJ/mol
# Density = 1.983318 g / cm^3
# Si number density = 19.878422 Si / 1000 Ang^3
#
#
#
# Elastic Constant Matrix: (Units=GPa)
#
#
# Indices 1 2 3 4 5 6 
#
# 1 66.5910 44.5639 1.4676 0.0000 0.0000 0.0000
# 2 44.5639 84.9579 11.6466 0.0000 0.0000 0.0000
# 3 1.4676 11.6466 75.9335 0.0000 0.0000 0.0000
# 4 0.0000 0.0000 0.0000 23.9945 0.0000 0.0000
# 5 0.0000 0.0000 0.0000 0.0000 14.2786 0.0000
# 6 0.0000 0.0000 0.0000 0.0000 0.0000 21.3731
#
#
#
# Elastic Compliance Matrix: (Units=1/GPa)
#
#
# Indices 1 2 3 4 5 6 
#
# 1 0.023296 -0.012419 0.001455 0.000000 0.000000 0.000000
# 2 -0.012419 0.018644 -0.002620 0.000000 0.000000 0.000000
# 3 0.001455 -0.002620 0.013543 0.000000 0.000000 0.000000
# 4 0.000000 0.000000 0.000000 0.041676 0.000000 0.000000
# 5 0.000000 0.000000 0.000000 0.000000 0.070035 0.000000
# 6 0.000000 0.000000 0.000000 0.000000 0.000000 0.046788
#
#
# Mechanical properties :
#
#
# Convention : Reuss Voigt Hill
#
# Bulk Modulus (GPa) = 35.31707 38.09317 36.70512
# Shear Modulus (GPa) = 19.95301 23.24952 21.60127
#
# Velocity S-wave (km/s) = 3.17164 3.42363 3.30004
# Velocity P-wave (km/s) = 5.58726 5.90195 5.74676
#
# Compressibility (1/GPa) = 0.02831492
#
# Stress axis : x y z
#
# Youngs Moduli (GPa) = 42.92558 53.63650 73.83834
#
# Poissons Ratio (x) = 0.66612 -0.10740
# Poissons Ratio (y) = 0.53310 0.19342
# Poissons Ratio (z) = -0.06244 0.14050
#
# Static dielectric constant tensor:
#      x y z
#    x 3.325530 0.000000 0.000000 
#    y 0.000000 3.763200 0.000000 
#    z 0.000000 0.000000 3.954860 
# 
# 
# High freq. dielectric constant tensor:
#      x y z
#    x 1.753060 0.000000 0.000000 
#    y 0.000000 1.778810 0.000000 
#    z 0.000000 0.000000 1.797560 
# 
# From -- ./inp_files/1900.got.cif
#   From: 2010.03.12/outbox.cif.g09.slc.cpg/sg62_1_cif.got.tgz:1900.got - 2010.04.10 19:12:36.
