data_PCOD8251227
_publ_section_title
;
Structure prediction by ZEFSAII (Michael W. Deem and Ramdas Pophale) SiO2 
 PCOD8251227
Probable space group: P N M A
;
_chemical_formula_sum "Si O2"
_cell_formula_units_Z 64
_cell_length_a 18.415931
_cell_length_b 9.064363
_cell_length_c 20.530717
_cell_angle_alpha 90.000000
_cell_angle_beta 90.000000
_cell_angle_gamma 90.000000
_cell_volume 3427.165561
_symmetry_space_group_name_H-M "P N M A"
_symmetry_group_IT_number 62
_symmetry_cell_setting 'orthorhombic'
loop_
_space_group_symop_operation_xyz
x,y,z
1/2-x,-y,1/2+z
1/2+x,1/2-y,1/2-z
-x,1/2+y,-z
-x,-y,-z
1/2+x,y,1/2-z
1/2-x,1/2+y,1/2+z
x,1/2-y,z
loop_
_atom_site_type_symbol
_atom_site_label
_atom_site_fract_x
_atom_site_fract_y
_atom_site_fract_z
Si Si1 0.347485 0.087580 0.992752
Si Si2 0.921922 0.919828 0.251177
Si Si3 0.308632 0.422305 0.632220
Si Si4 0.682088 0.424055 0.635172
Si Si5 0.324173 0.912369 0.506591
Si Si6 0.911021 0.418966 0.748333
Si Si7 0.844217 0.424460 0.364630
Si Si8 0.664735 0.423983 0.134118
O O1 0.378691 0.250000 0.975199
O O2 0.261712 0.097822 0.000057
O O3 0.376130 0.034258 0.063614
O O4 0.368188 0.974376 0.935645
O O5 0.904798 0.750000 0.267821
O O6 0.875348 0.973004 0.189347
O O7 0.005454 0.943903 0.233166
O O8 0.902464 0.018316 0.313191
O O9 0.293055 0.250000 0.626691
O O10 0.344884 0.475974 0.564310
O O11 0.364681 0.462241 0.688717
O O12 0.233516 0.502105 0.648797
O O13 0.698755 0.250000 0.636897
O O14 0.647925 0.467370 0.564434
O O15 0.757096 0.506727 0.649222
O O16 0.355881 0.750000 0.523200
O O17 0.895950 0.250000 0.727689
O O18 0.891093 0.525470 0.689157
O O19 0.833673 0.250000 0.358389
O O20 0.672166 0.250000 0.133945
#
# Coordination Sequence:
#
# PCOD8251227 Si02
#       8
#     8   8   8   8   8   8   8   8
#     4   8  16  32  52  74 103 135 163 200 253 306
#     4  10  21  37  55  73  98 137 179 212 246 297
#     4  10  19  32  53  78 103 134 172 209 246 298
#     4   9  18  34  55  77 102 134 170 207 253 305
#     4   8  15  29  50  76 104 131 162 207 257 298
#     4  10  22  38  52  70 102 141 175 208 250 300
#     4  10  20  34  54  80 106 131 164 209 259 304
#     4  11  21  32  53  82 105 129 167 212 253 298
#
# _framework density 18.674323999999999
#
# number of rings (size 3 to 8) (size 9 to 14) (size 15 to 20)
#    0.000    2.500    0.000    4.125    0.000   10.000 
#    0.000    1.250    0.000    0.000    0.000    0.000 
#    0.000    0.000    0.000    0.000    0.000    0.000 
#
# Total GULP energy -793481.503790 kJ/mol
# GULP energy per Si atom -12398.148497 kJ/mol
# Density = 1.863182 g / cm^3
# Si number density = 18.674324 Si / 1000 Ang^3
#
#
#
# Elastic Constant Matrix: (Units=GPa)
#
#
# Indices 1 2 3 4 5 6 
#
# 1 44.5624 20.6827 26.6294 0.0000 0.0000 0.0000
# 2 20.6827 75.7237 43.9080 0.0000 0.0000 0.0000
# 3 26.6294 43.9080 123.5665 0.0000 0.0000 0.0000
# 4 0.0000 0.0000 0.0000 34.4074 0.0000 0.0000
# 5 0.0000 0.0000 0.0000 0.0000 4.0489 0.0000
# 6 0.0000 0.0000 0.0000 0.0000 0.0000 13.8370
#
#
#
# Elastic Compliance Matrix: (Units=1/GPa)
#
#
# Indices 1 2 3 4 5 6 
#
# 1 0.027226 -0.005081 -0.004062 0.000000 0.000000 0.000000
# 2 -0.005081 0.017581 -0.005152 0.000000 0.000000 0.000000
# 3 -0.004062 -0.005152 0.010799 0.000000 0.000000 0.000000
# 4 0.000000 0.000000 0.000000 0.029064 0.000000 0.000000
# 5 0.000000 0.000000 0.000000 0.000000 0.246981 0.000000
# 6 0.000000 0.000000 0.000000 0.000000 0.000000 0.072270
#
#
# Mechanical properties :
#
#
# Convention : Reuss Voigt Hill
#
# Bulk Modulus (GPa) = 37.01549 47.36586 42.19068
# Shear Modulus (GPa) = 11.32459 20.63414 15.97937
#
# Velocity S-wave (km/s) = 2.46524 3.32768 2.92839
# Velocity P-wave (km/s) = 5.28846 6.33907 5.83745
#
# Compressibility (1/GPa) = 0.02701572
#
# Stress axis : x y z
#
# Youngs Moduli (GPa) = 36.72958 56.87879 92.60134
#
# Poissons Ratio (x) = 0.28901 0.37614
# Poissons Ratio (y) = 0.18663 0.47711
# Poissons Ratio (z) = 0.14919 0.29306
#
# Static dielectric constant tensor:
#      x y z
#    x 3.054060 0.000000 0.000000 
#    y 0.000000 3.429260 0.000000 
#    z 0.000000 0.000000 4.077080 
# 
# 
# High freq. dielectric constant tensor:
#      x y z
#    x 1.685830 0.000000 0.000000 
#    y 0.000000 1.720880 0.000000 
#    z 0.000000 0.000000 1.744440 
# 
# From -- ./inp_files/27908.got.cif
#   From: 2010.03.12/outbox.cif.g09.slc.cpg/sg62_14_cif.got.tgz:27908.got - 2010.04.10 19:12:36.
