data_PCOD8251555
_publ_section_title
;
Structure prediction by ZEFSAII (Michael W. Deem and Ramdas Pophale) SiO2 
 PCOD8251555
Probable space group: P N M A
;
_chemical_formula_sum "Si O2"
_cell_formula_units_Z 64
_cell_length_a 23.268632
_cell_length_b 8.836089
_cell_length_c 18.870304
_cell_angle_alpha 90.000000
_cell_angle_beta 90.000000
_cell_angle_gamma 90.000000
_cell_volume 3879.804384
_symmetry_space_group_name_H-M "P N M A"
_symmetry_group_IT_number 62
_symmetry_cell_setting 'orthorhombic'
loop_
_space_group_symop_operation_xyz
x,y,z
1/2-x,-y,1/2+z
1/2+x,1/2-y,1/2-z
-x,1/2+y,-z
-x,-y,-z
1/2+x,y,1/2-z
1/2-x,1/2+y,1/2+z
x,1/2-y,z
loop_
_atom_site_type_symbol
_atom_site_label
_atom_site_fract_x
_atom_site_fract_y
_atom_site_fract_z
Si Si1 0.253144 0.071805 0.996778
Si Si2 0.265538 0.076334 0.354664
Si Si3 0.775439 0.428097 0.861788
Si Si4 0.058473 0.925938 0.637802
Si Si5 0.672880 0.923445 0.784451
Si Si6 0.656973 0.427562 0.239944
Si Si7 0.383596 0.429458 0.993805
Si Si8 0.061365 0.928819 0.348570
O O1 0.250545 0.250000 0.008893
O O2 0.217819 0.989870 0.058628
O O3 0.318555 0.009200 0.996464
O O4 0.223904 0.030060 0.922020
O O5 0.264981 0.250000 0.379537
O O6 0.316898 0.045172 0.298771
O O7 0.205429 0.032262 0.317874
O O8 0.782998 0.250000 0.861095
O O9 0.712634 0.471166 0.832556
O O10 0.825898 0.500684 0.814957
O O11 0.041270 0.750000 0.632915
O O12 0.106644 0.953595 0.697672
O O13 0.081714 0.986847 0.562377
O O14 0.004392 0.024324 0.660813
O O15 0.690220 0.750000 0.802753
O O16 0.650182 0.250000 0.250438
O O17 0.596954 0.497584 0.215176
O O18 0.381740 0.250000 0.993471
O O19 0.415186 0.491708 0.923778
O O20 0.067694 0.750000 0.344009
#
# Coordination Sequence:
#
# PCOD8251555 Si02
#       8
#     8   8   8   8   8   8   8   8
#     4  11  19  32  51  72 100 136 168 200 247 305
#     4   9  18  31  49  74  98 124 163 210 251 294
#     4  11  21  32  50  75 101 127 163 211 255 296
#     4  10  19  34  51  68  95 139 178 207 245 295
#     4   9  18  34  52  70  98 133 170 208 251 301
#     4  10  20  35  52  71  97 133 170 205 250 304
#     4   9  18  31  47  67  99 137 173 205 241 288
#     4  11  21  33  48  73 102 133 173 217 252 286
#
# _framework density 16.495677000000001
#
# number of rings (size 3 to 8) (size 9 to 14) (size 15 to 20)
#    0.000    2.000    2.500    3.375    0.000    2.500 
#    0.000    0.625    0.000    0.000    0.000    0.875 
#    0.000    0.000    0.000    0.000    0.000    0.000 
#
# Total GULP energy -793787.496062 kJ/mol
# GULP energy per Si atom -12402.929626 kJ/mol
# Density = 1.645813 g / cm^3
# Si number density = 16.495677 Si / 1000 Ang^3
#
#
#
# Elastic Constant Matrix: (Units=GPa)
#
#
# Indices 1 2 3 4 5 6 
#
# 1 81.2809 29.9250 52.1741 0.0000 0.0000 0.0000
# 2 29.9250 75.2773 42.3449 0.0000 0.0000 0.0000
# 3 52.1741 42.3449 107.2778 0.0000 0.0000 0.0000
# 4 0.0000 0.0000 0.0000 27.6565 0.0000 0.0000
# 5 0.0000 0.0000 0.0000 0.0000 26.2918 0.0000
# 6 0.0000 0.0000 0.0000 0.0000 0.0000 23.9287
#
#
#
# Elastic Compliance Matrix: (Units=1/GPa)
#
#
# Indices 1 2 3 4 5 6 
#
# 1 0.018376 -0.002928 -0.007781 0.000000 0.000000 0.000000
# 2 -0.002928 0.017542 -0.005500 0.000000 0.000000 0.000000
# 3 -0.007781 -0.005500 0.015277 0.000000 0.000000 0.000000
# 4 0.000000 0.000000 0.000000 0.036158 0.000000 0.000000
# 5 0.000000 0.000000 0.000000 0.000000 0.038035 0.000000
# 6 0.000000 0.000000 0.000000 0.000000 0.000000 0.041791
#
#
# Mechanical properties :
#
#
# Convention : Reuss Voigt Hill
#
# Bulk Modulus (GPa) = 53.25915 56.96934 55.11424
# Shear Modulus (GPa) = 24.28882 24.86820 24.57851
#
# Velocity S-wave (km/s) = 3.84140 3.88694 3.86424
# Velocity P-wave (km/s) = 7.21332 7.39968 7.30709
#
# Compressibility (1/GPa) = 0.01877612
#
# Stress axis : x y z
#
# Youngs Moduli (GPa) = 54.41958 57.00554 65.45739
#
# Poissons Ratio (x) = 0.16690 0.50934
# Poissons Ratio (y) = 0.15933 0.36004
# Poissons Ratio (z) = 0.42346 0.31355
#
# Static dielectric constant tensor:
#      x y z
#    x 2.940520 0.000000 0.000000 
#    y 0.000000 2.993990 0.000000 
#    z 0.000000 0.000000 3.185520 
# 
# 
# High freq. dielectric constant tensor:
#      x y z
#    x 1.607530 0.000000 0.000000 
#    y 0.000000 1.632870 0.000000 
#    z 0.000000 0.000000 1.632250 
# 
# From -- ./inp_files/24958.got.cif
#   From: 2010.03.12/outbox.cif.g09.slc.cpg/sg62_13_cif.got.tgz:24958.got - 2010.04.10 19:12:36.
