data_PCOD8251434
_publ_section_title
;
Structure prediction by ZEFSAII (Michael W. Deem and Ramdas Pophale) SiO2 
 PCOD8251434
Probable space group: P N M A
;
_chemical_formula_sum "Si O2"
_cell_formula_units_Z 48
_cell_length_a 9.961755
_cell_length_b 10.423796
_cell_length_c 25.653951
_cell_angle_alpha 90.000000
_cell_angle_beta 90.000000
_cell_angle_gamma 90.000000
_cell_volume 2663.888363
_symmetry_space_group_name_H-M "P N M A"
_symmetry_group_IT_number 62
_symmetry_cell_setting 'orthorhombic'
loop_
_space_group_symop_operation_xyz
x,y,z
1/2-x,-y,1/2+z
1/2+x,1/2-y,1/2-z
-x,1/2+y,-z
-x,-y,-z
1/2+x,y,1/2-z
1/2-x,1/2+y,1/2+z
x,1/2-y,z
loop_
_atom_site_type_symbol
_atom_site_label
_atom_site_fract_x
_atom_site_fract_y
_atom_site_fract_z
Si Si1 0.193255 0.111372 0.303713
Si Si2 0.168479 0.099611 0.639580
Si Si3 0.741863 0.396696 0.616879
Si Si4 0.438132 0.017500 0.243615
Si Si5 0.479565 0.101273 0.954404
Si Si6 0.538501 0.898262 0.348346
O O1 0.208330 0.250000 0.332350
O O2 0.312653 0.100151 0.262384
O O3 0.054327 0.115189 0.272514
O O4 0.188469 0.992543 0.342849
O O5 0.176061 0.250000 0.634114
O O6 0.319071 0.036116 0.635750
O O7 0.075467 0.050987 0.592200
O O8 0.103678 0.069587 0.695059
O O9 0.753826 0.250000 0.638439
O O10 0.822760 0.407795 0.562836
O O11 0.583571 0.434863 0.611634
O O12 0.492833 0.928653 0.289924
O O13 0.511259 0.250000 0.970728
O O14 0.500000 0.000000 0.000000
O O15 0.568357 0.750000 0.351138
#
# Coordination Sequence:
#
# PCOD8251434 Si02
#       6
#     8   8   8   8   8   8
#     4  11  22  33  49  75 112 149 179 212 261 317
#     4  10  19  33  54  81 109 140 183 226 266 316
#     4   9  19  36  57  78 105 138 180 224 263 313
#     4  11  19  33  49  76 113 148 181 213 261 312
#     4  10  21  38  59  82 105 134 178 232 283 329
#     4   9  18  31  53  82 110 143 178 217 259 310
#
# _framework density 18.018772999999999
#
# number of rings (size 3 to 8) (size 9 to 14) (size 15 to 20)
#    0.000    2.000    3.333    1.000    0.000    2.000 
#    0.000    0.833    0.000    0.000    0.000    0.000 
#    0.000    0.000    0.000    0.000    0.000    0.000 
#
# Total GULP energy -594702.167206 kJ/mol
# GULP energy per Si atom -12389.628483 kJ/mol
# Density = 1.797776 g / cm^3
# Si number density = 18.018773 Si / 1000 Ang^3
#
#
#
# Elastic Constant Matrix: (Units=GPa)
#
#
# Indices 1 2 3 4 5 6 
#
# 1 134.0687 24.3056 45.1657 0.0000 0.0000 0.0000
# 2 24.3056 45.9227 26.0733 0.0000 0.0000 0.0000
# 3 45.1657 26.0733 78.7305 0.0000 0.0000 0.0000
# 4 0.0000 0.0000 0.0000 24.3090 0.0000 0.0000
# 5 0.0000 0.0000 0.0000 0.0000 16.4611 0.0000
# 6 0.0000 0.0000 0.0000 0.0000 0.0000 4.9502
#
#
#
# Elastic Compliance Matrix: (Units=1/GPa)
#
#
# Indices 1 2 3 4 5 6 
#
# 1 0.009450 -0.002369 -0.004637 0.000000 0.000000 0.000000
# 2 -0.002369 0.027412 -0.007719 0.000000 0.000000 0.000000
# 3 -0.004637 -0.007719 0.017918 0.000000 0.000000 0.000000
# 4 0.000000 0.000000 0.000000 0.041137 0.000000 0.000000
# 5 0.000000 0.000000 0.000000 0.000000 0.060749 0.000000
# 6 0.000000 0.000000 0.000000 0.000000 0.000000 0.202013
#
#
# Mechanical properties :
#
#
# Convention : Reuss Voigt Hill
#
# Bulk Modulus (GPa) = 39.47813 49.97900 44.72856
# Shear Modulus (GPa) = 12.60800 20.02254 16.31527
#
# Velocity S-wave (km/s) = 2.64808 3.33709 3.01235
# Velocity P-wave (km/s) = 5.59525 6.53036 6.08081
#
# Compressibility (1/GPa) = 0.02533048
#
# Stress axis : x y z
#
# Youngs Moduli (GPa) = 105.81483 36.48006 55.81008
#
# Poissons Ratio (x) = 0.08643 0.25878
# Poissons Ratio (y) = 0.25070 0.43080
# Poissons Ratio (z) = 0.49065 0.28159
#
# Static dielectric constant tensor:
#      x y z
#    x 4.158810 0.000000 0.000000 
#    y 0.000000 3.134080 0.000000 
#    z 0.000000 0.000000 3.060960 
# 
# 
# High freq. dielectric constant tensor:
#      x y z
#    x 1.727050 0.000000 0.000000 
#    y 0.000000 1.681830 0.000000 
#    z 0.000000 0.000000 1.656230 
# 
# From -- ./inp_files/28793.got.cif
#   From: 2010.03.12/outbox.cif.g09.slc.cpg/sg62_15_cif.got.tgz:28793.got - 2010.04.10 19:12:36.
