data_PCOD8251864
_publ_section_title
;
Structure prediction by ZEFSAII (Michael W. Deem and Ramdas Pophale) SiO2 
 PCOD8251864
Probable space group: P N M A
;
_chemical_formula_sum "Si O2"
_cell_formula_units_Z 64
_cell_length_a 30.404515
_cell_length_b 9.202377
_cell_length_c 11.777879
_cell_angle_alpha 90.000000
_cell_angle_beta 90.000000
_cell_angle_gamma 90.000000
_cell_volume 3295.377634
_symmetry_space_group_name_H-M "P N M A"
_symmetry_group_IT_number 62
_symmetry_cell_setting 'orthorhombic'
loop_
_space_group_symop_operation_xyz
x,y,z
1/2-x,-y,1/2+z
1/2+x,1/2-y,1/2-z
-x,1/2+y,-z
-x,-y,-z
1/2+x,y,1/2-z
1/2-x,1/2+y,1/2+z
x,1/2-y,z
loop_
_atom_site_type_symbol
_atom_site_label
_atom_site_fract_x
_atom_site_fract_y
_atom_site_fract_z
Si Si1 0.462846 0.082042 0.241997
Si Si2 0.951288 0.421126 0.740738
Si Si3 0.703687 0.077471 0.235444
Si Si4 0.575487 0.581390 0.994402
Si Si5 0.793840 0.582461 0.266940
Si Si6 0.865923 0.082275 0.879355
Si Si7 0.128049 0.581636 0.854248
Si Si8 0.337400 0.914984 0.001187
O O1 0.471754 0.250000 0.266460
O O2 0.419241 0.030747 0.307622
O O3 0.504539 0.993927 0.289232
O O4 0.458349 0.050355 0.107347
O O5 0.958318 0.250000 0.744794
O O6 0.943405 0.479353 0.612707
O O7 0.910314 0.470351 0.817376
O O8 0.707023 0.250000 0.247950
O O9 0.751963 0.011713 0.235002
O O10 0.675028 0.013333 0.337995
O O11 0.682045 0.028490 0.117109
O O12 0.585930 0.750000 0.007047
O O13 0.621188 0.508445 0.961580
O O14 0.786974 0.750000 0.231099
O O15 0.835417 0.519983 0.200327
O O16 0.800509 0.569813 0.402146
O O17 0.856028 0.250000 0.849937
O O18 0.871966 0.057603 0.011849
O O19 0.136978 0.750000 0.822044
O O20 0.353433 0.750000 0.988635
#
# Coordination Sequence:
#
# PCOD8251864 Si02
#       8
#     8   8   8   8   8   8   8   8
#     4  10  21  36  57  86 117 153 194 240 292 349
#     4  10  21  36  57  86 117 153 194 240 292 349
#     4  11  24  41  62  90 120 155 196 241 293 351
#     4  10  19  35  59  86 116 152 196 239 291 349
#     4  11  24  41  62  90 120 155 196 241 293 351
#     4  10  22  41  62  85 118 157 198 246 295 344
#     4  10  22  41  62  85 118 157 198 246 295 344
#     4  10  22  39  61  88 119 152 191 241 294 341
#
# _framework density 19.421143000000001
#
# number of rings (size 3 to 8) (size 9 to 14) (size 15 to 20)
#    0.000    1.750    2.500    1.125    1.750    4.000 
#    0.000    0.000    0.000    0.000    0.000    0.000 
#    0.000    0.000    0.000    0.000    0.000    0.000 
#
# Total GULP energy -793874.453486 kJ/mol
# GULP energy per Si atom -12404.288336 kJ/mol
# Density = 1.937694 g / cm^3
# Si number density = 19.421143 Si / 1000 Ang^3
#
#
#
# Elastic Constant Matrix: (Units=GPa)
#
#
# Indices 1 2 3 4 5 6 
#
# 1 117.8519 47.1475 24.1250 0.0000 0.0000 0.0000
# 2 47.1475 63.9924 26.7995 0.0000 0.0000 0.0000
# 3 24.1250 26.7995 83.2073 0.0000 0.0000 0.0000
# 4 0.0000 0.0000 0.0000 22.8926 0.0000 0.0000
# 5 0.0000 0.0000 0.0000 0.0000 23.1136 0.0000
# 6 0.0000 0.0000 0.0000 0.0000 0.0000 41.7476
#
#
#
# Elastic Compliance Matrix: (Units=1/GPa)
#
#
# Indices 1 2 3 4 5 6 
#
# 1 0.012070 -0.008585 -0.000734 0.000000 0.000000 0.000000
# 2 -0.008585 0.024170 -0.005295 0.000000 0.000000 0.000000
# 3 -0.000734 -0.005295 0.013937 0.000000 0.000000 0.000000
# 4 0.000000 0.000000 0.000000 0.043682 0.000000 0.000000
# 5 0.000000 0.000000 0.000000 0.000000 0.043265 0.000000
# 6 0.000000 0.000000 0.000000 0.000000 0.000000 0.023953
#
#
# Mechanical properties :
#
#
# Convention : Reuss Voigt Hill
#
# Bulk Modulus (GPa) = 47.74103 51.24396 49.49249
# Shear Modulus (GPa) = 25.34342 28.68273 27.01307
#
# Velocity S-wave (km/s) = 3.61631 3.84719 3.73354
# Velocity P-wave (km/s) = 6.48632 6.79540 6.64266
#
# Compressibility (1/GPa) = 0.02094634
#
# Stress axis : x y z
#
# Youngs Moduli (GPa) = 82.84860 41.37360 71.75310
#
# Poissons Ratio (x) = 0.35521 0.05270
# Poissons Ratio (y) = 0.71129 0.37997
# Poissons Ratio (z) = 0.06085 0.21909
#
# Static dielectric constant tensor:
#      x y z
#    x 3.493130 0.000000 0.000000 
#    y 0.000000 3.529080 0.000000 
#    z 0.000000 0.000000 3.668240 
# 
# 
# High freq. dielectric constant tensor:
#      x y z
#    x 1.761740 0.000000 0.000000 
#    y 0.000000 1.751390 0.000000 
#    z 0.000000 0.000000 1.761950 
# 
# From -- ./inp_files/15828.got.cif
#   From: 2010.03.12/outbox.cif.g09.slc.cpg/sg62_8_cif.got.tgz:15828.got - 2010.04.10 19:12:36.
