data_PCOD8251248
_publ_section_title
;
Structure prediction by ZEFSAII (Michael W. Deem and Ramdas Pophale) SiO2 
 PCOD8251248
Probable space group: P N M A
;
_chemical_formula_sum "Si O2"
_cell_formula_units_Z 48
_cell_length_a 14.716764
_cell_length_b 9.233450
_cell_length_c 19.701255
_cell_angle_alpha 90.000000
_cell_angle_beta 90.000000
_cell_angle_gamma 90.000000
_cell_volume 2677.134677
_symmetry_space_group_name_H-M "P N M A"
_symmetry_group_IT_number 62
_symmetry_cell_setting 'orthorhombic'
loop_
_space_group_symop_operation_xyz
x,y,z
1/2-x,-y,1/2+z
1/2+x,1/2-y,1/2-z
-x,1/2+y,-z
-x,-y,-z
1/2+x,y,1/2-z
1/2-x,1/2+y,1/2+z
x,1/2-y,z
loop_
_atom_site_type_symbol
_atom_site_label
_atom_site_fract_x
_atom_site_fract_y
_atom_site_fract_z
Si Si1 0.699569 0.919010 0.669614
Si Si2 0.558769 0.582763 0.445754
Si Si3 0.480563 0.919987 0.302703
Si Si4 0.916609 0.417998 0.532462
Si Si5 0.120900 0.917256 0.312591
Si Si6 0.740206 0.584325 0.515867
O O1 0.697618 0.750000 0.686593
O O2 0.696324 0.949907 0.589144
O O3 0.613152 0.993842 0.704146
O O4 0.790430 0.986743 0.701752
O O5 0.500000 0.500000 0.500000
O O6 0.536011 0.750000 0.456382
O O7 0.534427 0.531701 0.370201
O O8 0.665308 0.552812 0.458415
O O9 0.458410 0.750000 0.303161
O O10 0.542683 0.964127 0.239308
O O11 0.923192 0.250000 0.514170
O O12 0.918123 0.446356 0.612717
O O13 0.824187 0.479988 0.500222
O O14 0.000000 0.500000 0.500000
O O15 0.148522 0.750000 0.302852
O O16 0.774516 0.750000 0.513588
#
# Coordination Sequence:
#
# PCOD8251248 Si02
#       6
#     8   8   8   8   8   8
#     4  10  19  33  55  79 106 140 174 215 267 316
#     4  10  19  32  53  81 110 140 174 213 260 310
#     4  10  20  35  56  79 106 142 180 218 259 313
#     4  10  20  36  58  79 102 137 179 223 267 313
#     4   9  20  38  56  77 105 140 182 220 259 314
#     4   9  18  33  52  77 108 139 172 213 260 312
#
# _framework density 17.929618000000001
#
# number of rings (size 3 to 8) (size 9 to 14) (size 15 to 20)
#    0.000    2.333    1.667    1.000    0.000    2.667 
#    3.000    0.000    0.000    0.000    0.000    0.000 
#    0.000    0.000    0.000    0.000    0.000    0.000 
#
# Total GULP energy -595357.154623 kJ/mol
# GULP energy per Si atom -12403.274055 kJ/mol
# Density = 1.788881 g / cm^3
# Si number density = 17.929618 Si / 1000 Ang^3
#
#
#
# Elastic Constant Matrix: (Units=GPa)
#
#
# Indices 1 2 3 4 5 6 
#
# 1 154.8385 83.6663 65.6682 0.0000 0.0000 0.0000
# 2 83.6663 93.0947 45.0888 0.0000 0.0000 0.0000
# 3 65.6682 45.0888 70.1671 0.0000 0.0000 0.0000
# 4 0.0000 0.0000 0.0000 23.3655 0.0000 0.0000
# 5 0.0000 0.0000 0.0000 0.0000 31.7751 0.0000
# 6 0.0000 0.0000 0.0000 0.0000 0.0000 39.3920
#
#
#
# Elastic Compliance Matrix: (Units=1/GPa)
#
#
# Indices 1 2 3 4 5 6 
#
# 1 0.015024 -0.009716 -0.007817 0.000000 0.000000 0.000000
# 2 -0.009716 0.021879 -0.004966 0.000000 0.000000 0.000000
# 3 -0.007817 -0.004966 0.024759 0.000000 0.000000 0.000000
# 4 0.000000 0.000000 0.000000 0.042798 0.000000 0.000000
# 5 0.000000 0.000000 0.000000 0.000000 0.031471 0.000000
# 6 0.000000 0.000000 0.000000 0.000000 0.000000 0.025386
#
#
# Mechanical properties :
#
#
# Convention : Reuss Voigt Hill
#
# Bulk Modulus (GPa) = 60.01320 78.54965 69.28142
# Shear Modulus (GPa) = 23.59949 27.15166 25.37558
#
# Velocity S-wave (km/s) = 3.63192 3.89568 3.76611
# Velocity P-wave (km/s) = 7.15067 8.00876 7.59185
#
# Compressibility (1/GPa) = 0.01666300
#
# Stress axis : x y z
#
# Youngs Moduli (GPa) = 66.56212 45.70565 40.39006
#
# Poissons Ratio (x) = 0.44408 0.31572
# Poissons Ratio (y) = 0.64672 0.20059
# Poissons Ratio (z) = 0.52030 0.22698
#
# Static dielectric constant tensor:
#      x y z
#    x 3.361220 0.000000 0.000000 
#    y 0.000000 3.170230 0.000000 
#    z 0.000000 0.000000 3.314850 
# 
# 
# High freq. dielectric constant tensor:
#      x y z
#    x 1.700870 0.000000 0.000000 
#    y 0.000000 1.696900 0.000000 
#    z 0.000000 0.000000 1.677830 
# 
# From -- ./inp_files/23746.got.cif
#   From: 2010.03.12/outbox.cif.g09.slc.cpg/sg62_12_cif.got.tgz:23746.got - 2010.04.10 19:12:36.
