data_PCOD8251640
_publ_section_title
;
Structure prediction by ZEFSAII (Michael W. Deem and Ramdas Pophale) SiO2 
 PCOD8251640
Probable space group: P N M A
;
_chemical_formula_sum "Si O2"
_cell_formula_units_Z 64
_cell_length_a 14.684060
_cell_length_b 9.102732
_cell_length_c 25.695637
_cell_angle_alpha 90.000000
_cell_angle_beta 90.000000
_cell_angle_gamma 90.000000
_cell_volume 3434.608935
_symmetry_space_group_name_H-M "P N M A"
_symmetry_group_IT_number 62
_symmetry_cell_setting 'orthorhombic'
loop_
_space_group_symop_operation_xyz
x,y,z
1/2-x,-y,1/2+z
1/2+x,1/2-y,1/2-z
-x,1/2+y,-z
-x,-y,-z
1/2+x,y,1/2-z
1/2-x,1/2+y,1/2+z
x,1/2-y,z
loop_
_atom_site_type_symbol
_atom_site_label
_atom_site_fract_x
_atom_site_fract_y
_atom_site_fract_z
Si Si1 0.174609 0.576175 0.105268
Si Si2 0.357601 0.918126 0.872613
Si Si3 0.016939 0.918922 0.446783
Si Si4 0.904135 0.421409 0.001692
Si Si5 0.506993 0.924244 0.324337
Si Si6 0.348857 0.080741 0.383447
Si Si7 0.499494 0.421442 0.215232
Si Si8 0.869455 0.579291 0.359624
O O1 0.181461 0.750000 0.105538
O O2 0.269629 0.514119 0.127508
O O3 0.091985 0.521367 0.141217
O O4 0.157930 0.520612 0.046171
O O5 0.371696 0.750000 0.889975
O O6 0.252064 0.952694 0.862616
O O7 0.411808 0.952210 0.819780
O O8 0.393169 0.018353 0.919363
O O9 0.034446 0.750000 0.458821
O O10 0.929570 0.944384 0.410757
O O11 0.000000 0.000000 0.500000
O O12 0.923852 0.250000 0.994750
O O13 0.852296 0.456271 0.055239
O O14 0.000000 0.500000 0.000000
O O15 0.504884 0.750000 0.318210
O O16 0.414789 0.975245 0.351769
O O17 0.517933 0.997008 0.268642
O O18 0.376450 0.250000 0.373485
O O19 0.483180 0.250000 0.225285
O O20 0.409391 0.486762 0.188260
O O21 0.867035 0.750000 0.343172
#
# Coordination Sequence:
#
# PCOD8251640 Si02
#       8
#     8   8   8   8   8   8   8   8
#     4   9  19  35  56  83 112 145 185 225 270 324
#     4   9  20  38  58  80 110 145 183 230 281 332
#     4  10  20  33  54  81 112 148 187 229 273 329
#     4  10  19  34  56  80 113 150 183 224 273 326
#     4  11  22  37  58  81 110 145 186 231 274 328
#     4  10  21  36  58  85 113 148 187 227 277 331
#     4  10  21  39  59  80 111 142 179 232 282 329
#     4   9  19  37  59  81 108 145 187 226 273 329
#
# _framework density 18.633853999999999
#
# number of rings (size 3 to 8) (size 9 to 14) (size 15 to 20)
#    0.000    2.250    1.250    1.125    1.750    2.500 
#    0.000    4.375    0.000    0.000    0.000    0.000 
#    0.000    0.000    0.000    0.000    0.000    0.000 
#
# Total GULP energy -793761.472047 kJ/mol
# GULP energy per Si atom -12402.523001 kJ/mol
# Density = 1.859144 g / cm^3
# Si number density = 18.633854 Si / 1000 Ang^3
#
#
#
# Elastic Constant Matrix: (Units=GPa)
#
#
# Indices 1 2 3 4 5 6 
#
# 1 126.9897 38.9158 49.3743 0.0000 0.0000 0.0000
# 2 38.9158 78.3600 54.0677 0.0000 0.0000 0.0000
# 3 49.3743 54.0677 127.0203 0.0000 0.0000 0.0000
# 4 0.0000 0.0000 0.0000 31.2623 0.0000 0.0000
# 5 0.0000 0.0000 0.0000 0.0000 8.8896 0.0000
# 6 0.0000 0.0000 0.0000 0.0000 0.0000 28.2159
#
#
#
# Elastic Compliance Matrix: (Units=1/GPa)
#
#
# Indices 1 2 3 4 5 6 
#
# 1 0.009803 -0.003170 -0.002461 0.000000 0.000000 0.000000
# 2 -0.003170 0.019094 -0.006895 0.000000 0.000000 0.000000
# 3 -0.002461 -0.006895 0.011764 0.000000 0.000000 0.000000
# 4 0.000000 0.000000 0.000000 0.031987 0.000000 0.000000
# 5 0.000000 0.000000 0.000000 0.000000 0.112491 0.000000
# 6 0.000000 0.000000 0.000000 0.000000 0.000000 0.035441
#
#
# Mechanical properties :
#
#
# Convention : Reuss Voigt Hill
#
# Bulk Modulus (GPa) = 64.06940 68.56506 66.31723
# Shear Modulus (GPa) = 19.93329 26.34105 23.13717
#
# Velocity S-wave (km/s) = 3.27423 3.76388 3.52756
# Velocity P-wave (km/s) = 6.98227 7.46759 7.22900
#
# Compressibility (1/GPa) = 0.01560808
#
# Stress axis : x y z
#
# Youngs Moduli (GPa) = 102.00864 52.37344 85.00245
#
# Poissons Ratio (x) = 0.16604 0.20920
# Poissons Ratio (y) = 0.32341 0.58610
# Poissons Ratio (z) = 0.25105 0.36112
#
# Static dielectric constant tensor:
#      x y z
#    x 3.697620 0.000000 0.000000 
#    y 0.000000 3.385110 0.000000 
#    z 0.000000 0.000000 3.532300 
# 
# 
# High freq. dielectric constant tensor:
#      x y z
#    x 1.727380 0.000000 0.000000 
#    y 0.000000 1.714070 0.000000 
#    z 0.000000 0.000000 1.730040 
# 
# From -- ./inp_files/29901.got.cif
#   From: 2010.03.12/outbox.cif.g09.slc.cpg/sg62_15_cif.got.tgz:29901.got - 2010.04.10 19:12:36.
