data_PCOD8251088
_publ_section_title
;
Structure prediction by ZEFSAII (Michael W. Deem and Ramdas Pophale) SiO2 
 PCOD8251088
Probable space group: P N M A
;
_chemical_formula_sum "Si O2"
_cell_formula_units_Z 56
_cell_length_a 21.313145
_cell_length_b 8.667481
_cell_length_c 15.394766
_cell_angle_alpha 90.000000
_cell_angle_beta 90.000000
_cell_angle_gamma 90.000000
_cell_volume 2843.894818
_symmetry_space_group_name_H-M "P N M A"
_symmetry_group_IT_number 62
_symmetry_cell_setting 'orthorhombic'
loop_
_space_group_symop_operation_xyz
x,y,z
1/2-x,-y,1/2+z
1/2+x,1/2-y,1/2-z
-x,1/2+y,-z
-x,-y,-z
1/2+x,y,1/2-z
1/2-x,1/2+y,1/2+z
x,1/2-y,z
loop_
_atom_site_type_symbol
_atom_site_label
_atom_site_fract_x
_atom_site_fract_y
_atom_site_fract_z
Si Si1 0.054462 0.571093 0.555990
Si Si2 0.100492 0.422779 0.031109
Si Si3 0.817106 0.932507 0.504069
Si Si4 0.487410 0.580033 0.391047
Si Si5 0.162794 0.933291 0.310032
Si Si6 0.289262 0.429133 0.624937
Si Si7 0.482459 0.077209 0.802870
O O1 0.066730 0.750000 0.537047
O O2 0.116010 0.476573 0.533419
O O3 0.000000 0.500000 0.500000
O O4 0.029924 0.542473 0.652531
O O5 0.125871 0.250000 0.048954
O O6 0.149514 0.545733 0.066380
O O7 0.034311 0.446142 0.079529
O O8 0.083167 0.449924 0.929233
O O9 0.810267 0.750000 0.512718
O O10 0.768038 0.000010 0.431982
O O11 0.806551 0.001326 0.601206
O O12 0.509790 0.750000 0.424492
O O13 0.484965 0.582753 0.289043
O O14 0.167297 0.750000 0.312173
O O15 0.199660 0.997018 0.223269
O O16 0.089527 0.983884 0.302899
O O17 0.277268 0.250000 0.636507
O O18 0.483416 0.250000 0.844671
#
# Coordination Sequence:
#
# PCOD8251088 Si02
#       7
#     8   8   8   8   8   8   8
#     4  12  24  39  61  88 119 150 189 244 302 355
#     4  10  19  31  55  87 116 151 194 244 290 340
#     4  11  24  42  64  88 118 156 199 248 301 356
#     4   9  18  34  54  81 118 156 194 237 291 348
#     4  10  20  38  65  88 112 154 200 240 291 352
#     4  10  22  42  63  84 118 163 201 241 298 362
#     4  10  19  35  61  86 115 152 193 238 289 352
#
# _framework density 19.691305
#
# number of rings (size 3 to 8) (size 9 to 14) (size 15 to 20)
#    0.000    1.714    2.857    2.143    0.000    2.857 
#    2.571    0.000    0.000    0.000    0.000    0.000 
#    0.000    0.000    0.000    0.000    0.000    0.000 
#
# Total GULP energy -693796.910134 kJ/mol
# GULP energy per Si atom -12389.230538 kJ/mol
# Density = 1.964649 g / cm^3
# Si number density = 19.691305 Si / 1000 Ang^3
#
#
#
# Elastic Constant Matrix: (Units=GPa)
#
#
# Indices 1 2 3 4 5 6 
#
# 1 95.8684 8.0806 69.4905 0.0000 0.0000 0.0000
# 2 8.0806 26.3617 27.4182 0.0000 0.0000 0.0000
# 3 69.4905 27.4182 148.2558 0.0000 0.0000 0.0000
# 4 0.0000 0.0000 0.0000 29.2885 0.0000 0.0000
# 5 0.0000 0.0000 0.0000 0.0000 35.7979 0.0000
# 6 0.0000 0.0000 0.0000 0.0000 0.0000 22.2283
#
#
#
# Elastic Compliance Matrix: (Units=1/GPa)
#
#
# Indices 1 2 3 4 5 6 
#
# 1 0.016070 0.003601 -0.008198 0.000000 0.000000 0.000000
# 2 0.003601 0.047775 -0.010523 0.000000 0.000000 0.000000
# 3 -0.008198 -0.010523 0.012534 0.000000 0.000000 0.000000
# 4 0.000000 0.000000 0.000000 0.034143 0.000000 0.000000
# 5 0.000000 0.000000 0.000000 0.000000 0.027935 0.000000
# 6 0.000000 0.000000 0.000000 0.000000 0.000000 0.044988
#
#
# Mechanical properties :
#
#
# Convention : Reuss Voigt Hill
#
# Bulk Modulus (GPa) = 21.67425 53.38493 37.52959
# Shear Modulus (GPa) = 21.82789 28.49605 25.16197
#
# Velocity S-wave (km/s) = 3.33303 3.80825 3.57854
# Velocity P-wave (km/s) = 5.08361 6.81959 6.01456
#
# Compressibility (1/GPa) = 0.04613769
#
# Stress axis : x y z
#
# Youngs Moduli (GPa) = 62.22781 20.93148 79.78331
#
# Poissons Ratio (x) = -0.07537 0.65409
# Poissons Ratio (y) = -0.22408 0.83958
# Poissons Ratio (z) = 0.51016 0.22027
#
# Static dielectric constant tensor:
#      x y z
#    x 3.497250 0.000000 0.000000 
#    y 0.000000 3.595210 0.000000 
#    z 0.000000 0.000000 3.883840 
# 
# 
# High freq. dielectric constant tensor:
#      x y z
#    x 1.746860 0.000000 0.000000 
#    y 0.000000 1.757850 0.000000 
#    z 0.000000 0.000000 1.782100 
# 
# From -- ./inp_files/20312.got.cif
#   From: 2010.03.12/outbox.cif.g09.slc.cpg/sg62_11_cif.got.tgz:20312.got - 2010.04.10 19:12:36.
