data_PCOD8251890
_publ_section_title
;
Structure prediction by ZEFSAII (Michael W. Deem and Ramdas Pophale) SiO2 
 PCOD8251890
Probable space group: P N M A
;
_chemical_formula_sum "Si O2"
_cell_formula_units_Z 40
_cell_length_a 13.122751
_cell_length_b 13.705049
_cell_length_c 11.957102
_cell_angle_alpha 90.000000
_cell_angle_beta 90.000000
_cell_angle_gamma 90.000000
_cell_volume 2150.460228
_symmetry_space_group_name_H-M "P N M A"
_symmetry_group_IT_number 62
_symmetry_cell_setting 'orthorhombic'
loop_
_space_group_symop_operation_xyz
x,y,z
1/2-x,-y,1/2+z
1/2+x,1/2-y,1/2-z
-x,1/2+y,-z
-x,-y,-z
1/2+x,y,1/2-z
1/2-x,1/2+y,1/2+z
x,1/2-y,z
loop_
_atom_site_type_symbol
_atom_site_label
_atom_site_fract_x
_atom_site_fract_y
_atom_site_fract_z
Si Si1 0.784571 0.863896 0.517038
Si Si2 0.542561 0.140264 0.838698
Si Si3 0.639388 0.994272 0.200093
Si Si4 0.183712 0.360166 0.860015
Si Si5 0.613257 0.493043 0.454952
O O1 0.768050 0.750000 0.539198
O O2 0.862725 0.885107 0.417441
O O3 0.674975 0.908357 0.484070
O O4 0.830379 0.911007 0.629268
O O5 0.502443 0.250000 0.864194
O O6 0.454501 0.061548 0.859045
O O7 0.578699 0.133916 0.709756
O O8 0.732174 0.919252 0.208877
O O9 0.610923 0.029962 0.323749
O O10 0.222297 0.250000 0.872068
O O11 0.169004 0.403109 0.983772
O O12 0.500000 0.500000 0.500000
#
# Coordination Sequence:
#
# PCOD8251890 Si02
#       5
#     8   8   8   8   8
#     4  10  23  40  58  84 121 159 194 236 293 353
#     4  10  19  35  60  86 113 152 196 239 284 339
#     4  11  21  37  62  84 119 151 200 239 292 343
#     4  10  21  36  56  85 115 149 191 242 290 341
#     4  11  22  37  59  87 117 151 192 245 296 342
#
# _framework density 18.600669
#
# number of rings (size 3 to 8) (size 9 to 14) (size 15 to 20)
#    0.000    1.600    4.000    1.200    0.000    2.400 
#    0.000    0.000    0.000    0.000    0.000    0.000 
#    0.000    0.000    0.000    0.000    0.000    0.000 
#
# Total GULP energy -496096.174654 kJ/mol
# GULP energy per Si atom -12402.404366 kJ/mol
# Density = 1.855833 g / cm^3
# Si number density = 18.600669 Si / 1000 Ang^3
#
#
#
# Elastic Constant Matrix: (Units=GPa)
#
#
# Indices 1 2 3 4 5 6 
#
# 1 88.7295 32.2745 32.8558 0.0000 0.0000 0.0000
# 2 32.2745 102.6151 45.7840 0.0000 0.0000 0.0000
# 3 32.8558 45.7840 115.1147 0.0000 0.0000 0.0000
# 4 0.0000 0.0000 0.0000 19.5111 0.0000 0.0000
# 5 0.0000 0.0000 0.0000 0.0000 28.0570 0.0000
# 6 0.0000 0.0000 0.0000 0.0000 0.0000 21.3238
#
#
#
# Elastic Compliance Matrix: (Units=1/GPa)
#
#
# Indices 1 2 3 4 5 6 
#
# 1 0.013337 -0.003035 -0.002599 0.000000 0.000000 0.000000
# 2 -0.003035 0.012538 -0.004121 0.000000 0.000000 0.000000
# 3 -0.002599 -0.004121 0.011068 0.000000 0.000000 0.000000
# 4 0.000000 0.000000 0.000000 0.051253 0.000000 0.000000
# 5 0.000000 0.000000 0.000000 0.000000 0.035642 0.000000
# 6 0.000000 0.000000 0.000000 0.000000 0.000000 0.046896
#
#
# Mechanical properties :
#
#
# Convention : Reuss Voigt Hill
#
# Bulk Modulus (GPa) = 57.36294 58.69864 58.03079
# Shear Modulus (GPa) = 25.50322 26.81472 26.15897
#
# Velocity S-wave (km/s) = 3.70684 3.80096 3.75420
# Velocity P-wave (km/s) = 7.01620 7.13364 7.07516
#
# Compressibility (1/GPa) = 0.01743286
#
# Stress axis : x y z
#
# Youngs Moduli (GPa) = 74.98124 79.75670 90.35241
#
# Poissons Ratio (x) = 0.24205 0.23487
# Poissons Ratio (y) = 0.22755 0.37230
# Poissons Ratio (z) = 0.19491 0.32864
#
# Static dielectric constant tensor:
#      x y z
#    x 3.433820 0.000000 0.000000 
#    y 0.000000 3.355810 0.000000 
#    z 0.000000 0.000000 3.464060 
# 
# 
# High freq. dielectric constant tensor:
#      x y z
#    x 1.727440 0.000000 0.000000 
#    y 0.000000 1.717030 0.000000 
#    z 0.000000 0.000000 1.723780 
# 
# From -- ./inp_files/6092.got.cif
#   From: 2010.03.12/outbox.cif.g09.slc.cpg/sg62_4_cif.got.tgz:6092.got - 2010.04.10 19:12:36.
