data_PCOD8251057
_publ_section_title
;
Structure prediction by ZEFSAII (Michael W. Deem and Ramdas Pophale) SiO2 
 PCOD8251057
Probable space group: P N M A
;
_chemical_formula_sum "Si O2"
_cell_formula_units_Z 56
_cell_length_a 21.425476
_cell_length_b 9.363428
_cell_length_c 14.405205
_cell_angle_alpha 90.000000
_cell_angle_beta 90.000000
_cell_angle_gamma 90.000000
_cell_volume 2889.913193
_symmetry_space_group_name_H-M "P N M A"
_symmetry_group_IT_number 62
_symmetry_cell_setting 'orthorhombic'
loop_
_space_group_symop_operation_xyz
x,y,z
1/2-x,-y,1/2+z
1/2+x,1/2-y,1/2-z
-x,1/2+y,-z
-x,-y,-z
1/2+x,y,1/2-z
1/2-x,1/2+y,1/2+z
x,1/2-y,z
loop_
_atom_site_type_symbol
_atom_site_label
_atom_site_fract_x
_atom_site_fract_y
_atom_site_fract_z
Si Si1 0.388781 0.415474 0.299819
Si Si2 0.635329 0.414141 0.338949
Si Si3 0.723292 0.915937 0.827619
Si Si4 0.434114 0.418494 0.502670
Si Si5 0.420097 0.586739 0.859064
Si Si6 0.345497 0.591023 0.028840
Si Si7 0.963312 0.911184 0.341333
O O1 0.400889 0.250000 0.277398
O O2 0.320860 0.464282 0.259092
O O3 0.394113 0.445160 0.409176
O O4 0.443247 0.504198 0.250772
O O5 0.632683 0.250000 0.374436
O O6 0.705368 0.458099 0.309103
O O7 0.608980 0.519750 0.416255
O O8 0.593930 0.434634 0.248495
O O9 0.715244 0.750000 0.843538
O O10 0.704151 0.986864 0.924940
O O11 0.500000 0.500000 0.500000
O O12 0.446435 0.250000 0.517973
O O13 0.439275 0.750000 0.880955
O O14 0.476237 0.483259 0.886414
O O15 0.359588 0.547550 0.922102
O O16 0.317051 0.750000 0.034153
O O17 0.410869 0.582369 0.081315
O O18 0.978863 0.750000 0.311432
#
# Coordination Sequence:
#
# PCOD8251057 Si02
#       7
#     8   8   8   8   8   8   8
#     4   9  19  36  57  78 103 141 182 216 261 322
#     4  10  22  38  55  77 106 139 177 222 267 314
#     4   9  19  37  57  77 103 136 176 220 265 316
#     4  11  23  38  58  83 111 145 185 229 275 323
#     4  10  20  34  52  74 104 141 174 207 255 314
#     4   9  19  34  53  78 106 137 172 212 258 310
#     4  10  19  31  51  81 111 135 167 214 262 307
#
# _framework density 19.377745000000001
#
# number of rings (size 3 to 8) (size 9 to 14) (size 15 to 20)
#    0.000    2.286    0.000    2.143    0.000    8.000 
#    0.000    2.857    0.000    0.000    0.000    0.000 
#    0.000    0.000    0.000    0.000    0.000    0.000 
#
# Total GULP energy -694359.276642 kJ/mol
# GULP energy per Si atom -12399.272797 kJ/mol
# Density = 1.933364 g / cm^3
# Si number density = 19.377745 Si / 1000 Ang^3
#
#
#
# Elastic Constant Matrix: (Units=GPa)
#
#
# Indices 1 2 3 4 5 6 
#
# 1 75.8548 36.6968 11.9240 0.0000 0.0000 0.0000
# 2 36.6968 74.1949 35.9838 0.0000 0.0000 0.0000
# 3 11.9240 35.9838 88.8622 0.0000 0.0000 0.0000
# 4 0.0000 0.0000 0.0000 30.8526 0.0000 0.0000
# 5 0.0000 0.0000 0.0000 0.0000 19.0172 0.0000
# 6 0.0000 0.0000 0.0000 0.0000 0.0000 29.5833
#
#
#
# Elastic Compliance Matrix: (Units=1/GPa)
#
#
# Indices 1 2 3 4 5 6 
#
# 1 0.017476 -0.009341 0.001437 0.000000 0.000000 0.000000
# 2 -0.009341 0.021764 -0.007560 0.000000 0.000000 0.000000
# 3 0.001437 -0.007560 0.014122 0.000000 0.000000 0.000000
# 4 0.000000 0.000000 0.000000 0.032412 0.000000 0.000000
# 5 0.000000 0.000000 0.000000 0.000000 0.052584 0.000000
# 6 0.000000 0.000000 0.000000 0.000000 0.000000 0.033803
#
#
# Mechanical properties :
#
#
# Convention : Reuss Voigt Hill
#
# Bulk Modulus (GPa) = 44.57168 45.34677 44.95923
# Shear Modulus (GPa) = 23.74552 26.17778 24.96165
#
# Velocity S-wave (km/s) = 3.50437 3.67947 3.59299
# Velocity P-wave (km/s) = 6.27898 6.44233 6.36118
#
# Compressibility (1/GPa) = 0.02243577
#
# Stress axis : x y z
#
# Youngs Moduli (GPa) = 57.22143 45.94655 70.81255
#
# Poissons Ratio (x) = 0.42918 -0.10179
# Poissons Ratio (y) = 0.53449 0.53533
# Poissons Ratio (z) = -0.08225 0.34735
#
# Static dielectric constant tensor:
#      x y z
#    x 3.539390 0.000000 0.000000 
#    y 0.000000 3.706810 0.000000 
#    z 0.000000 0.000000 3.652790 
# 
# 
# High freq. dielectric constant tensor:
#      x y z
#    x 1.748260 0.000000 0.000000 
#    y 0.000000 1.752330 0.000000 
#    z 0.000000 0.000000 1.757080 
# 
# From -- ./inp_files/20315.got.cif
#   From: 2010.03.12/outbox.cif.g09.slc.cpg/sg62_11_cif.got.tgz:20315.got - 2010.04.10 19:12:36.
