data_PCOD8251625
_publ_section_title
;
Structure prediction by ZEFSAII (Michael W. Deem and Ramdas Pophale) SiO2 
 PCOD8251625
Probable space group: P N M A
;
_chemical_formula_sum "Si O2"
_cell_formula_units_Z 56
_cell_length_a 16.377789
_cell_length_b 8.804387
_cell_length_c 19.261763
_cell_angle_alpha 90.000000
_cell_angle_beta 90.000000
_cell_angle_gamma 90.000000
_cell_volume 2777.476739
_symmetry_space_group_name_H-M "P N M A"
_symmetry_group_IT_number 62
_symmetry_cell_setting 'orthorhombic'
loop_
_space_group_symop_operation_xyz
x,y,z
1/2-x,-y,1/2+z
1/2+x,1/2-y,1/2-z
-x,1/2+y,-z
-x,-y,-z
1/2+x,y,1/2-z
1/2-x,1/2+y,1/2+z
x,1/2-y,z
loop_
_atom_site_type_symbol
_atom_site_label
_atom_site_fract_x
_atom_site_fract_y
_atom_site_fract_z
Si Si1 0.809657 0.574456 0.131794
Si Si2 0.717550 0.570595 0.393510
Si Si3 0.474306 0.072329 0.142505
Si Si4 0.590132 0.069387 0.494762
Si Si5 0.319519 0.070515 0.222323
Si Si6 0.354045 0.580865 0.878135
Si Si7 0.381824 0.915790 0.035051
O O1 0.825477 0.750000 0.148540
O O2 0.861357 0.521498 0.064896
O O3 0.829194 0.470743 0.197469
O O4 0.713854 0.547551 0.119500
O O5 0.701890 0.750000 0.387949
O O6 0.636096 0.494888 0.426323
O O7 0.741074 0.505709 0.316527
O O8 0.791058 0.524805 0.445153
O O9 0.470399 0.250000 0.147807
O O10 0.403624 0.002772 0.191003
O O11 0.566475 0.023474 0.165801
O O12 0.452455 0.024042 0.064051
O O13 0.584512 0.250000 0.488044
O O14 0.500000 0.000000 0.500000
O O15 0.310479 0.250000 0.213251
O O16 0.322704 0.750000 0.853541
O O17 0.391910 0.597179 0.953748
O O18 0.392673 0.750000 0.069633
#
# Coordination Sequence:
#
# PCOD8251625 Si02
#       7
#     8   8   8   8   8   8   8
#     4  11  24  41  61  87 118 157 204 256 309 363
#     4  10  19  36  62  90 120 155 198 247 303 366
#     4   9  19  33  53  82 115 150 191 233 281 348
#     4  11  24  42  65  92 121 159 210 264 318 374
#     4  10  21  39  61  86 120 162 202 249 307 366
#     4  10  19  34  55  83 117 151 189 234 291 354
#     4   9  17  29  52  83 115 150 182 223 281 341
#
# _framework density 20.162184
#
# number of rings (size 3 to 8) (size 9 to 14) (size 15 to 20)
#    0.000    2.000    1.429    2.143    0.000    4.000 
#    2.571    0.000    0.000    0.000    0.000    0.000 
#    0.000    0.000    0.000    0.000    0.000    0.000 
#
# Total GULP energy -693912.359348 kJ/mol
# GULP energy per Si atom -12391.292131 kJ/mol
# Density = 2.011629 g / cm^3
# Si number density = 20.162184 Si / 1000 Ang^3
#
#
#
# Elastic Constant Matrix: (Units=GPa)
#
#
# Indices 1 2 3 4 5 6 
#
# 1 131.2486 40.9884 33.7608 0.0000 0.0000 0.0000
# 2 40.9884 62.4218 26.2580 0.0000 0.0000 0.0000
# 3 33.7608 26.2580 80.6899 0.0000 0.0000 0.0000
# 4 0.0000 0.0000 0.0000 30.4675 0.0000 0.0000
# 5 0.0000 0.0000 0.0000 0.0000 14.5525 0.0000
# 6 0.0000 0.0000 0.0000 0.0000 0.0000 28.8898
#
#
#
# Elastic Compliance Matrix: (Units=1/GPa)
#
#
# Indices 1 2 3 4 5 6 
#
# 1 0.009959 -0.005546 -0.002362 0.000000 0.000000 0.000000
# 2 -0.005546 0.021649 -0.004725 0.000000 0.000000 0.000000
# 3 -0.002362 -0.004725 0.014919 0.000000 0.000000 0.000000
# 4 0.000000 0.000000 0.000000 0.032822 0.000000 0.000000
# 5 0.000000 0.000000 0.000000 0.000000 0.068717 0.000000
# 6 0.000000 0.000000 0.000000 0.000000 0.000000 0.034614
#
#
# Mechanical properties :
#
#
# Convention : Reuss Voigt Hill
#
# Bulk Modulus (GPa) = 47.03269 52.93052 49.98161
# Shear Modulus (GPa) = 23.25243 26.33883 24.79563
#
# Velocity S-wave (km/s) = 3.39967 3.61827 3.51067
# Velocity P-wave (km/s) = 6.22801 6.61552 6.42469
#
# Compressibility (1/GPa) = 0.02126181
#
# Stress axis : x y z
#
# Youngs Moduli (GPa) = 100.41606 46.19174 67.02897
#
# Poissons Ratio (x) = 0.25616 0.15833
# Poissons Ratio (y) = 0.55686 0.31669
# Poissons Ratio (z) = 0.23719 0.21824
#
# Static dielectric constant tensor:
#      x y z
#    x 3.934200 0.000000 0.000000 
#    y 0.000000 3.682280 0.000000 
#    z 0.000000 0.000000 3.602110 
# 
# 
# High freq. dielectric constant tensor:
#      x y z
#    x 1.792070 0.000000 0.000000 
#    y 0.000000 1.784920 0.000000 
#    z 0.000000 0.000000 1.771430 
# 
# From -- ./inp_files/27099.got.cif
#   From: 2010.03.12/outbox.cif.g09.slc.cpg/sg62_14_cif.got.tgz:27099.got - 2010.04.10 19:12:36.
