data_PCOD8251689
_publ_section_title
;
Structure prediction by ZEFSAII (Michael W. Deem and Ramdas Pophale) SiO2 
 PCOD8251689
Probable space group: P N M A
;
_chemical_formula_sum "Si O2"
_cell_formula_units_Z 64
_cell_length_a 24.923689
_cell_length_b 8.814432
_cell_length_c 15.025570
_cell_angle_alpha 90.000000
_cell_angle_beta 90.000000
_cell_angle_gamma 90.000000
_cell_volume 3300.939854
_symmetry_space_group_name_H-M "P N M A"
_symmetry_group_IT_number 62
_symmetry_cell_setting 'orthorhombic'
loop_
_space_group_symop_operation_xyz
x,y,z
1/2-x,-y,1/2+z
1/2+x,1/2-y,1/2-z
-x,1/2+y,-z
-x,-y,-z
1/2+x,y,1/2-z
1/2-x,1/2+y,1/2+z
x,1/2-y,z
loop_
_atom_site_type_symbol
_atom_site_label
_atom_site_fract_x
_atom_site_fract_y
_atom_site_fract_z
Si Si1 0.643056 0.927682 0.322167
Si Si2 0.560698 0.070245 0.186198
Si Si3 0.831692 0.573528 0.996127
Si Si4 0.348902 0.926420 0.303105
Si Si5 0.776854 0.923489 0.528844
Si Si6 0.395306 0.930147 0.000381
Si Si7 0.448019 0.571650 0.181221
Si Si8 0.240730 0.422753 0.265209
O O1 0.634387 0.750000 0.312732
O O2 0.600534 0.011578 0.260925
O O3 0.634017 0.979230 0.424248
O O4 0.703466 0.973293 0.296110
O O5 0.562917 0.250000 0.186551
O O6 0.577867 0.004535 0.089508
O O7 0.501369 0.014873 0.209427
O O8 0.838359 0.750000 0.975596
O O9 0.854392 0.529582 0.093198
O O10 0.768943 0.530812 0.989484
O O11 0.334488 0.750000 0.292208
O O12 0.404216 0.968478 0.255642
O O13 0.301654 0.020613 0.256652
O O14 0.764572 0.750000 0.500619
O O15 0.833520 0.982918 0.490629
O O16 0.780585 0.936976 0.634825
O O17 0.395768 0.750000 0.996965
O O18 0.428084 0.990073 0.085423
O O19 0.459480 0.750000 0.177364
O O20 0.237312 0.250000 0.231542
#
# Coordination Sequence:
#
# PCOD8251689 Si02
#       8
#     8   8   8   8   8   8   8   8
#     4  12  24  38  59  85 113 153 200 244 296 354
#     4  11  22  40  60  84 118 155 196 246 294 342
#     4  10  21  37  56  84 119 153 191 243 294 345
#     4   9  20  38  59  85 120 156 195 240 291 349
#     4   9  17  33  55  83 118 158 189 223 281 347
#     4   9  18  34  57  84 120 158 190 228 284 345
#     4  10  21  38  60  86 115 155 198 239 286 349
#     4  10  19  34  57  84 119 154 190 237 289 344
#
# _framework density 19.388417
#
# number of rings (size 3 to 8) (size 9 to 14) (size 15 to 20)
#    0.000    2.000    1.250    2.625    1.750    1.500 
#    0.000    1.875    0.000    0.000    0.000    0.000 
#    0.000    0.000    0.000    0.000    0.000    0.000 
#
# Total GULP energy -793821.664029 kJ/mol
# GULP energy per Si atom -12403.463500 kJ/mol
# Density = 1.934429 g / cm^3
# Si number density = 19.388417 Si / 1000 Ang^3
#
#
#
# Elastic Constant Matrix: (Units=GPa)
#
#
# Indices 1 2 3 4 5 6 
#
# 1 111.8265 36.8736 69.5148 0.0000 0.0000 0.0000
# 2 36.8736 61.2005 31.3538 0.0000 0.0000 0.0000
# 3 69.5148 31.3538 105.1979 0.0000 0.0000 0.0000
# 4 0.0000 0.0000 0.0000 24.5509 0.0000 0.0000
# 5 0.0000 0.0000 0.0000 0.0000 20.4323 0.0000
# 6 0.0000 0.0000 0.0000 0.0000 0.0000 33.4047
#
#
#
# Elastic Compliance Matrix: (Units=1/GPa)
#
#
# Indices 1 2 3 4 5 6 
#
# 1 0.016432 -0.005119 -0.009332 0.000000 0.000000 0.000000
# 2 -0.005119 0.020879 -0.002840 0.000000 0.000000 0.000000
# 3 -0.009332 -0.002840 0.016519 0.000000 0.000000 0.000000
# 4 0.000000 0.000000 0.000000 0.040732 0.000000 0.000000
# 5 0.000000 0.000000 0.000000 0.000000 0.048942 0.000000
# 6 0.000000 0.000000 0.000000 0.000000 0.000000 0.029936
#
#
# Mechanical properties :
#
#
# Convention : Reuss Voigt Hill
#
# Bulk Modulus (GPa) = 51.95698 61.52325 56.74012
# Shear Modulus (GPa) = 23.31670 25.04308 24.17989
#
# Velocity S-wave (km/s) = 3.47163 3.59785 3.53530
# Velocity P-wave (km/s) = 6.55177 7.00430 6.78181
#
# Compressibility (1/GPa) = 0.01924669
#
# Stress axis : x y z
#
# Youngs Moduli (GPa) = 60.85820 47.89476 60.53553
#
# Poissons Ratio (x) = 0.24518 0.56494
# Poissons Ratio (y) = 0.31154 0.17194
# Poissons Ratio (z) = 0.56795 0.13603
#
# Static dielectric constant tensor:
#      x y z
#    x 3.451670 0.000000 0.000000 
#    y 0.000000 3.402160 0.000000 
#    z 0.000000 0.000000 3.722740 
# 
# 
# High freq. dielectric constant tensor:
#      x y z
#    x 1.747190 0.000000 0.000000 
#    y 0.000000 1.743150 0.000000 
#    z 0.000000 0.000000 1.761160 
# 
# From -- ./inp_files/20812.got.cif
#   From: 2010.03.12/outbox.cif.g09.slc.cpg/sg62_11_cif.got.tgz:20812.got - 2010.04.10 19:12:36.
