data_PCOD8251581
_publ_section_title
;
Structure prediction by ZEFSAII (Michael W. Deem and Ramdas Pophale) SiO2 
 PCOD8251581
Probable space group: P N M A
;
_chemical_formula_sum "Si O2"
_cell_formula_units_Z 56
_cell_length_a 15.279261
_cell_length_b 9.236155
_cell_length_c 21.342472
_cell_angle_alpha 90.000000
_cell_angle_beta 90.000000
_cell_angle_gamma 90.000000
_cell_volume 3011.884285
_symmetry_space_group_name_H-M "P N M A"
_symmetry_group_IT_number 62
_symmetry_cell_setting 'orthorhombic'
loop_
_space_group_symop_operation_xyz
x,y,z
1/2-x,-y,1/2+z
1/2+x,1/2-y,1/2-z
-x,1/2+y,-z
-x,-y,-z
1/2+x,y,1/2-z
1/2-x,1/2+y,1/2+z
x,1/2-y,z
loop_
_atom_site_type_symbol
_atom_site_label
_atom_site_fract_x
_atom_site_fract_y
_atom_site_fract_z
Si Si1 0.776801 0.579971 0.094896
Si Si2 0.523986 0.079834 0.564132
Si Si3 0.595464 0.422254 0.780283
Si Si4 0.525087 0.416901 0.911022
Si Si5 0.131597 0.083093 0.467079
Si Si6 0.555338 0.921994 0.307830
Si Si7 0.776723 0.422169 0.733315
O O1 0.764239 0.750000 0.085256
O O2 0.878971 0.538657 0.088836
O O3 0.724771 0.495446 0.040553
O O4 0.733426 0.529199 0.160873
O O5 0.517860 0.250000 0.551031
O O6 0.454486 0.033337 0.618800
O O7 0.500000 0.000000 0.500000
O O8 0.597751 0.250000 0.777375
O O9 0.564662 0.477433 0.847318
O O10 0.530010 0.482302 0.727585
O O11 0.691981 0.484067 0.768849
O O12 0.495075 0.250000 0.906544
O O13 0.439670 0.510984 0.922332
O O14 0.600966 0.437909 0.961815
O O15 0.141227 0.250000 0.448846
O O16 0.558676 0.750000 0.303175
O O17 0.639963 0.986918 0.271259
O O18 0.780514 0.250000 0.735458
#
# Coordination Sequence:
#
# PCOD8251581 Si02
#       7
#     8   8   8   8   8   8   8
#     4  10  19  34  54  77 104 138 178 220 269 322
#     4  10  21  36  54  77 107 141 180 221 266 323
#     4   9  15  27  48  75 101 124 164 219 265 304
#     4   9  18  32  51  76 105 135 169 215 265 309
#     4  10  20  32  49  76 108 139 172 208 253 319
#     4   9  16  28  48  75 104 132 168 220 269 309
#     4   9  16  27  50  79 102 127 168 225 276 307
#
# _framework density 18.593012000000002
#
# number of rings (size 3 to 8) (size 9 to 14) (size 15 to 20)
#    0.000    2.571    1.429    1.286    0.000    4.571 
#    0.000    2.857    0.000    4.286    0.000    0.000 
#    0.000    0.000    0.000    0.000    0.000    0.000 
#
# Total GULP energy -694088.298457 kJ/mol
# GULP energy per Si atom -12394.433901 kJ/mol
# Density = 1.855069 g / cm^3
# Si number density = 18.593012 Si / 1000 Ang^3
#
#
#
# Elastic Constant Matrix: (Units=GPa)
#
#
# Indices 1 2 3 4 5 6 
#
# 1 118.5118 27.6306 68.5280 0.0000 0.0000 0.0000
# 2 27.6306 35.4542 30.8078 0.0000 0.0000 0.0000
# 3 68.5280 30.8078 129.4569 0.0000 0.0000 0.0000
# 4 0.0000 0.0000 0.0000 19.7346 0.0000 0.0000
# 5 0.0000 0.0000 0.0000 0.0000 31.7398 0.0000
# 6 0.0000 0.0000 0.0000 0.0000 0.0000 19.8597
#
#
#
# Elastic Compliance Matrix: (Units=1/GPa)
#
#
# Indices 1 2 3 4 5 6 
#
# 1 0.012874 -0.005183 -0.005581 0.000000 0.000000 0.000000
# 2 -0.005183 0.037645 -0.006215 0.000000 0.000000 0.000000
# 3 -0.005581 -0.006215 0.012158 0.000000 0.000000 0.000000
# 4 0.000000 0.000000 0.000000 0.050672 0.000000 0.000000
# 5 0.000000 0.000000 0.000000 0.000000 0.031506 0.000000
# 6 0.000000 0.000000 0.000000 0.000000 0.000000 0.050353
#
#
# Mechanical properties :
#
#
# Convention : Reuss Voigt Hill
#
# Bulk Modulus (GPa) = 34.82102 59.70620 47.26361
# Shear Modulus (GPa) = 20.94328 24.69728 22.82028
#
# Velocity S-wave (km/s) = 3.35984 3.64855 3.50717
# Velocity P-wave (km/s) = 5.81550 7.06620 6.47113
#
# Compressibility (1/GPa) = 0.02871828
#
# Stress axis : x y z
#
# Youngs Moduli (GPa) = 77.67795 26.56376 82.25012
#
# Poissons Ratio (x) = 0.13768 0.45906
# Poissons Ratio (y) = 0.40261 0.51119
# Poissons Ratio (z) = 0.43354 0.16509
#
# Static dielectric constant tensor:
#      x y z
#    x 3.657390 0.000000 0.000000 
#    y 0.000000 2.945350 0.000000 
#    z 0.000000 0.000000 3.545710 
# 
# 
# High freq. dielectric constant tensor:
#      x y z
#    x 1.731140 0.000000 0.000000 
#    y 0.000000 1.664290 0.000000 
#    z 0.000000 0.000000 1.730890 
# 
# From -- ./inp_files/27212.got.cif
#   From: 2010.03.12/outbox.cif.g09.slc.cpg/sg62_14_cif.got.tgz:27212.got - 2010.04.10 19:12:36.
