data_PCOD8251971
_publ_section_title
;
Structure prediction by ZEFSAII (Michael W. Deem and Ramdas Pophale) SiO2 
 PCOD8251971
Probable space group: P N M A
;
_chemical_formula_sum "Si O2"
_cell_formula_units_Z 64
_cell_length_a 20.599250
_cell_length_b 29.240852
_cell_length_c 5.191376
_cell_angle_alpha 90.000000
_cell_angle_beta 90.000000
_cell_angle_gamma 90.000000
_cell_volume 3126.971450
_symmetry_space_group_name_H-M "P N M A"
_symmetry_group_IT_number 62
_symmetry_cell_setting 'orthorhombic'
loop_
_space_group_symop_operation_xyz
x,y,z
1/2-x,-y,1/2+z
1/2+x,1/2-y,1/2-z
-x,1/2+y,-z
-x,-y,-z
1/2+x,y,1/2-z
1/2-x,1/2+y,1/2+z
x,1/2-y,z
loop_
_atom_site_type_symbol
_atom_site_label
_atom_site_fract_x
_atom_site_fract_y
_atom_site_fract_z
Si Si1 0.278651 0.131953 0.446633
Si Si2 0.006989 0.301757 0.915901
Si Si3 0.612542 0.614638 0.945629
Si Si4 0.527538 0.142562 0.102434
Si Si5 0.136771 0.698759 0.195818
Si Si6 0.312630 0.970772 0.383055
Si Si7 0.179408 0.550263 0.226947
Si Si8 0.846771 0.915196 0.622135
O O1 0.332451 0.108358 0.266650
O O2 0.301374 0.183278 0.520904
O O3 0.281050 0.097726 0.687894
O O4 0.203805 0.128002 0.361674
O O5 0.031821 0.250000 0.882041
O O6 0.024738 0.329187 0.660265
O O7 0.929399 0.302379 0.971060
O O8 0.042952 0.323681 0.160458
O O9 0.539725 0.616201 0.836705
O O10 0.628282 0.663708 0.072750
O O11 0.615394 0.568627 0.124464
O O12 0.582302 0.104540 0.077365
O O13 0.150263 0.750000 0.300421
O O14 0.233517 0.976725 0.398956
O O15 0.341760 0.937498 0.598899
O O16 0.339305 0.021193 0.470173
O O17 0.335562 0.953714 0.100324
#
# Coordination Sequence:
#
# PCOD8251971 Si02
#       8
#     8   8   8   8   8   8   8   8
#     4  10  19  36  59  84 116 153 195 247 302 353
#     4  10  20  37  63  88 112 156 211 250 286 350
#     4  10  20  36  60  87 116 159 203 247 300 357
#     4  11  22  40  60  86 123 163 197 248 305 367
#     4   9  19  34  56  88 118 147 194 251 298 349
#     4  11  22  38  61  90 117 156 202 252 296 355
#     4  10  21  36  61  90 116 149 207 252 293 355
#     4  11  24  39  60  86 124 160 199 242 311 362
#
# _framework density 20.467085999999998
#
# number of rings (size 3 to 8) (size 9 to 14) (size 15 to 20)
#    0.000    1.750    2.500    2.625    1.750    1.000 
#    0.000    2.500    0.000    0.000    0.000    0.000 
#    0.000    0.000    0.000    0.000    0.000    0.000 
#
# Total GULP energy -792835.254307 kJ/mol
# GULP energy per Si atom -12388.050849 kJ/mol
# Density = 2.042050 g / cm^3
# Si number density = 20.467086 Si / 1000 Ang^3
#
#
#
# Elastic Constant Matrix: (Units=GPa)
#
#
# Indices 1 2 3 4 5 6 
#
# 1 88.8418 33.8572 22.3681 0.0000 0.0000 0.0000
# 2 33.8572 89.4397 19.2813 0.0000 0.0000 0.0000
# 3 22.3681 19.2813 79.1044 0.0000 0.0000 0.0000
# 4 0.0000 0.0000 0.0000 29.0946 0.0000 0.0000
# 5 0.0000 0.0000 0.0000 0.0000 18.4191 0.0000
# 6 0.0000 0.0000 0.0000 0.0000 0.0000 27.0085
#
#
#
# Elastic Compliance Matrix: (Units=1/GPa)
#
#
# Indices 1 2 3 4 5 6 
#
# 1 0.013700 -0.004592 -0.002754 0.000000 0.000000 0.000000
# 2 -0.004592 0.013340 -0.001953 0.000000 0.000000 0.000000
# 3 -0.002754 -0.001953 0.013896 0.000000 0.000000 0.000000
# 4 0.000000 0.000000 0.000000 0.034371 0.000000 0.000000
# 5 0.000000 0.000000 0.000000 0.000000 0.054291 0.000000
# 6 0.000000 0.000000 0.000000 0.000000 0.000000 0.037025
#
#
# Mechanical properties :
#
#
# Convention : Reuss Voigt Hill
#
# Bulk Modulus (GPa) = 44.76931 45.37768 45.07349
# Shear Modulus (GPa) = 25.95134 27.02974 26.49054
#
# Velocity S-wave (km/s) = 3.56470 3.63801 3.60154
# Velocity P-wave (km/s) = 6.23410 6.31395 6.27416
#
# Compressibility (1/GPa) = 0.02233673
#
# Stress axis : x y z
#
# Youngs Moduli (GPa) = 72.99536 74.96201 71.96091
#
# Poissons Ratio (x) = 0.34423 0.19821
# Poissons Ratio (y) = 0.33520 0.14055
# Poissons Ratio (z) = 0.20106 0.14641
#
# Static dielectric constant tensor:
#      x y z
#    x 3.668970 0.000000 0.000000 
#    y 0.000000 3.833380 0.000000 
#    z 0.000000 0.000000 3.703850 
# 
# 
# High freq. dielectric constant tensor:
#      x y z
#    x 1.766970 0.000000 0.000000 
#    y 0.000000 1.801090 0.000000 
#    z 0.000000 0.000000 1.805240 
# 
# From -- ./inp_files/2887.got.cif
#   From: 2010.03.12/outbox.cif.g09.slc.cpg/sg62_2_cif.got.tgz:2887.got - 2010.04.10 19:12:36.
