data_PCOD8251125
_publ_section_title
;
Structure prediction by ZEFSAII (Michael W. Deem and Ramdas Pophale) SiO2 
 PCOD8251125
Probable space group: P N M A
;
_chemical_formula_sum "Si O2"
_cell_formula_units_Z 64
_cell_length_a 19.800744
_cell_length_b 9.067741
_cell_length_c 19.147557
_cell_angle_alpha 90.000000
_cell_angle_beta 90.000000
_cell_angle_gamma 90.000000
_cell_volume 3437.905913
_symmetry_space_group_name_H-M "P N M A"
_symmetry_group_IT_number 62
_symmetry_cell_setting 'orthorhombic'
loop_
_space_group_symop_operation_xyz
x,y,z
1/2-x,-y,1/2+z
1/2+x,1/2-y,1/2-z
-x,1/2+y,-z
-x,-y,-z
1/2+x,y,1/2-z
1/2-x,1/2+y,1/2+z
x,1/2-y,z
loop_
_atom_site_type_symbol
_atom_site_label
_atom_site_fract_x
_atom_site_fract_y
_atom_site_fract_z
Si Si1 0.347982 0.078883 0.537671
Si Si2 0.995379 0.575492 0.735465
Si Si3 0.025403 0.577612 0.124059
Si Si4 0.788552 0.919918 0.390658
Si Si5 0.364819 0.578721 0.246349
Si Si6 0.970186 0.080977 0.603923
Si Si7 0.594882 0.919721 0.962453
Si Si8 0.371793 0.580367 0.401725
O O1 0.352483 0.250000 0.522254
O O2 0.418723 0.021281 0.569241
O O3 0.289291 0.042309 0.593528
O O4 0.333231 0.005513 0.462811
O O5 0.995352 0.750000 0.737480
O O6 0.071361 0.517403 0.722864
O O7 0.949943 0.516239 0.671159
O O8 0.962668 0.513415 0.805613
O O9 0.034436 0.750000 0.141155
O O10 0.951441 0.543447 0.094004
O O11 0.804873 0.750000 0.408883
O O12 0.804289 0.950370 0.308553
O O13 0.831484 0.025709 0.440611
O O14 0.387383 0.750000 0.247409
O O15 0.342906 0.533510 0.325251
O O16 0.980296 0.250000 0.626580
O O17 0.911489 0.065176 0.546246
O O18 0.040907 0.024229 0.573909
O O19 0.583386 0.750000 0.939357
O O20 0.357628 0.750000 0.415833
#
# Coordination Sequence:
#
# PCOD8251125 Si02
#       8
#     8   8   8   8   8   8   8   8
#     4  10  21  36  55  80 107 142 181 218 268 329
#     4  11  20  30  51  82 109 134 175 223 269 315
#     4   9  19  36  55  76 107 142 179 221 272 329
#     4  10  20  35  55  76 106 145 180 217 266 322
#     4   9  18  34  54  76 103 139 176 211 263 322
#     4  10  19  32  50  74 108 143 175 218 268 314
#     4  10  20  32  50  77 104 137 182 223 262 309
#     4   9  18  33  55  79 103 136 177 224 272 316
#
# _framework density 18.615981999999999
#
# number of rings (size 3 to 8) (size 9 to 14) (size 15 to 20)
#    0.000    2.250    1.250    3.000    0.000    4.500 
#    0.000    1.250    0.000    3.000    0.000    0.000 
#    0.000    0.000    0.000    0.000    0.000    0.000 
#
# Total GULP energy -793547.413772 kJ/mol
# GULP energy per Si atom -12399.178340 kJ/mol
# Density = 1.857361 g / cm^3
# Si number density = 18.615982 Si / 1000 Ang^3
#
#
#
# Elastic Constant Matrix: (Units=GPa)
#
#
# Indices 1 2 3 4 5 6 
#
# 1 62.1104 23.9786 47.1657 0.0000 0.0000 0.0000
# 2 23.9786 77.1089 53.2112 0.0000 0.0000 0.0000
# 3 47.1657 53.2112 145.8564 0.0000 0.0000 0.0000
# 4 0.0000 0.0000 0.0000 33.0729 0.0000 0.0000
# 5 0.0000 0.0000 0.0000 0.0000 26.3587 0.0000
# 6 0.0000 0.0000 0.0000 0.0000 0.0000 19.4979
#
#
#
# Elastic Compliance Matrix: (Units=1/GPa)
#
#
# Indices 1 2 3 4 5 6 
#
# 1 0.021709 -0.002548 -0.006091 0.000000 0.000000 0.000000
# 2 -0.002548 0.017631 -0.005608 0.000000 0.000000 0.000000
# 3 -0.006091 -0.005608 0.010872 0.000000 0.000000 0.000000
# 4 0.000000 0.000000 0.000000 0.030236 0.000000 0.000000
# 5 0.000000 0.000000 0.000000 0.000000 0.037938 0.000000
# 6 0.000000 0.000000 0.000000 0.000000 0.000000 0.051287
#
#
# Mechanical properties :
#
#
# Convention : Reuss Voigt Hill
#
# Bulk Modulus (GPa) = 46.04405 59.30961 52.67683
# Shear Modulus (GPa) = 24.34196 26.50058 25.42127
#
# Velocity S-wave (km/s) = 3.61998 3.77708 3.69936
# Velocity P-wave (km/s) = 6.50074 7.13796 6.82679
#
# Compressibility (1/GPa) = 0.02171833
#
# Stress axis : x y z
#
# Youngs Moduli (GPa) = 46.06357 56.71782 91.98311
#
# Poissons Ratio (x) = 0.14451 0.56023
# Poissons Ratio (y) = 0.11737 0.51586
# Poissons Ratio (z) = 0.28055 0.31809
#
# Static dielectric constant tensor:
#      x y z
#    x 3.146550 0.000000 0.000000 
#    y 0.000000 3.357990 0.000000 
#    z 0.000000 0.000000 3.680250 
# 
# 
# High freq. dielectric constant tensor:
#      x y z
#    x 1.682640 0.000000 0.000000 
#    y 0.000000 1.720910 0.000000 
#    z 0.000000 0.000000 1.736710 
# 
# From -- ./inp_files/27724.got.cif
#   From: 2010.03.12/outbox.cif.g09.slc.cpg/sg62_14_cif.got.tgz:27724.got - 2010.04.10 19:12:36.
