data_PCOD8251407
_publ_section_title
;
Structure prediction by ZEFSAII (Michael W. Deem and Ramdas Pophale) SiO2 
 PCOD8251407
Probable space group: P N M A
;
_chemical_formula_sum "Si O2"
_cell_formula_units_Z 48
_cell_length_a 9.088248
_cell_length_b 15.071636
_cell_length_c 19.381504
_cell_angle_alpha 90.000000
_cell_angle_beta 90.000000
_cell_angle_gamma 90.000000
_cell_volume 2654.776970
_symmetry_space_group_name_H-M "P N M A"
_symmetry_group_IT_number 62
_symmetry_cell_setting 'orthorhombic'
loop_
_space_group_symop_operation_xyz
x,y,z
1/2-x,-y,1/2+z
1/2+x,1/2-y,1/2-z
-x,1/2+y,-z
-x,-y,-z
1/2+x,y,1/2-z
1/2-x,1/2+y,1/2+z
x,1/2-y,z
loop_
_atom_site_type_symbol
_atom_site_label
_atom_site_fract_x
_atom_site_fract_y
_atom_site_fract_z
Si Si1 0.846397 0.531084 0.471844
Si Si2 0.602569 0.417826 0.515211
Si Si3 0.369716 0.848732 0.158590
Si Si4 0.624479 0.580771 0.247427
Si Si5 0.143385 0.848637 0.937880
Si Si6 0.876568 0.991811 0.158409
O O1 0.751630 0.439375 0.472794
O O2 0.860402 0.572011 0.396228
O O3 0.776402 0.606324 0.520403
O O4 0.000000 0.500000 0.500000
O O5 0.500000 0.500000 0.500000
O O6 0.506883 0.336721 0.484683
O O7 0.629590 0.415892 0.597880
O O8 0.367910 0.750000 0.124969
O O9 0.229331 0.855051 0.208564
O O10 0.521891 0.858064 0.199905
O O11 0.521917 0.520859 0.296080
O O12 0.726966 0.516014 0.202078
O O13 0.191087 0.750000 0.915217
O O14 0.112997 0.908388 0.870691
#
# Coordination Sequence:
#
# PCOD8251407 Si02
#       6
#     8   8   8   8   8   8
#     4  10  19  33  54  76 101 132 165 205 259 310
#     4   8  16  32  52  72  95 129 166 198 243 305
#     4  11  20  32  49  75 103 129 164 208 248 292
#     4  10  20  33  51  70  99 139 168 195 243 307
#     4  10  19  34  54  76  99 130 171 216 253 292
#     4   9  18  34  52  71  96 131 170 200 243 306
#
# _framework density 18.080615999999999
#
# number of rings (size 3 to 8) (size 9 to 14) (size 15 to 20)
#    0.000    2.667    0.000    6.000    0.000    0.000 
#    0.000    8.333    0.000    0.000    0.000    0.000 
#    0.000    0.000    0.000    0.000    0.000    0.000 
#
# Total GULP energy -594726.258415 kJ/mol
# GULP energy per Si atom -12390.130384 kJ/mol
# Density = 1.803946 g / cm^3
# Si number density = 18.080616 Si / 1000 Ang^3
#
#
#
# Elastic Constant Matrix: (Units=GPa)
#
#
# Indices 1 2 3 4 5 6 
#
# 1 145.3394 36.3874 49.7124 0.0000 0.0000 0.0000
# 2 36.3874 79.7300 31.0972 0.0000 0.0000 0.0000
# 3 49.7124 31.0972 102.3448 0.0000 0.0000 0.0000
# 4 0.0000 0.0000 0.0000 19.2122 0.0000 0.0000
# 5 0.0000 0.0000 0.0000 0.0000 26.0779 0.0000
# 6 0.0000 0.0000 0.0000 0.0000 0.0000 12.1172
#
#
#
# Elastic Compliance Matrix: (Units=1/GPa)
#
#
# Indices 1 2 3 4 5 6 
#
# 1 0.008715 -0.002639 -0.003431 0.000000 0.000000 0.000000
# 2 -0.002639 0.015028 -0.003284 0.000000 0.000000 0.000000
# 3 -0.003431 -0.003284 0.012435 0.000000 0.000000 0.000000
# 4 0.000000 0.000000 0.000000 0.052050 0.000000 0.000000
# 5 0.000000 0.000000 0.000000 0.000000 0.038347 0.000000
# 6 0.000000 0.000000 0.000000 0.000000 0.000000 0.082527
#
#
# Mechanical properties :
#
#
# Convention : Reuss Voigt Hill
#
# Bulk Modulus (GPa) = 57.24437 62.42314 59.83376
# Shear Modulus (GPa) = 21.40100 25.49596 23.44848
#
# Velocity S-wave (km/s) = 3.44414 3.75924 3.60514
# Velocity P-wave (km/s) = 6.89533 7.31043 7.10591
#
# Compressibility (1/GPa) = 0.01746897
#
# Stress axis : x y z
#
# Youngs Moduli (GPa) = 114.74763 66.54387 80.41521
#
# Poissons Ratio (x) = 0.17561 0.27592
# Poissons Ratio (y) = 0.30282 0.26410
# Poissons Ratio (z) = 0.39372 0.21855
#
# Static dielectric constant tensor:
#      x y z
#    x 3.950600 0.000000 0.000000 
#    y 0.000000 4.049720 0.000000 
#    z 0.000000 0.000000 3.590210 
# 
# 
# High freq. dielectric constant tensor:
#      x y z
#    x 1.718500 0.000000 0.000000 
#    y 0.000000 1.666120 0.000000 
#    z 0.000000 0.000000 1.698300 
# 
# From -- ./inp_files/22332.got.cif
#   From: 2010.03.12/outbox.cif.g09.slc.cpg/sg62_12_cif.got.tgz:22332.got - 2010.04.10 19:12:36.
