data_PCOD8251977
_publ_section_title
;
Structure prediction by ZEFSAII (Michael W. Deem and Ramdas Pophale) SiO2 
 PCOD8251977
Probable space group: P N M A
;
_chemical_formula_sum "Si O2"
_cell_formula_units_Z 64
_cell_length_a 17.434545
_cell_length_b 18.121409
_cell_length_c 9.381639
_cell_angle_alpha 90.000000
_cell_angle_beta 90.000000
_cell_angle_gamma 90.000000
_cell_volume 2964.021147
_symmetry_space_group_name_H-M "P N M A"
_symmetry_group_IT_number 62
_symmetry_cell_setting 'orthorhombic'
loop_
_space_group_symop_operation_xyz
x,y,z
1/2-x,-y,1/2+z
1/2+x,1/2-y,1/2-z
-x,1/2+y,-z
-x,-y,-z
1/2+x,y,1/2-z
1/2-x,1/2+y,1/2+z
x,1/2-y,z
loop_
_atom_site_type_symbol
_atom_site_label
_atom_site_fract_x
_atom_site_fract_y
_atom_site_fract_z
Si Si1 0.057859 0.421752 0.705018
Si Si2 0.299733 0.426158 0.457345
Si Si3 0.727568 0.330790 0.506999
Si Si4 0.960879 0.417281 0.188914
Si Si5 0.806106 0.835616 0.703308
Si Si6 0.049134 0.331502 0.966620
Si Si7 0.764058 0.941277 0.240452
Si Si8 0.968595 0.836991 0.577813
O O1 0.024131 0.502073 0.745043
O O2 0.022034 0.364063 0.816432
O O3 0.150219 0.425386 0.704250
O O4 0.027017 0.391067 0.556505
O O5 0.386810 0.413760 0.411833
O O6 0.250590 0.352203 0.428598
O O7 0.259936 0.485172 0.353281
O O8 0.293251 0.447007 0.624267
O O9 0.767389 0.250000 0.508165
O O10 0.729417 0.370216 0.350412
O O11 0.639144 0.322983 0.545089
O O12 0.767096 0.378675 0.631514
O O13 0.959102 0.359057 0.321288
O O14 0.030023 0.391035 0.088075
O O15 0.809253 0.750000 0.735989
O O16 0.892144 0.859853 0.664783
O O17 0.012053 0.250000 0.994672
O O18 0.970456 0.750000 0.537028
#
# Coordination Sequence:
#
# PCOD8251977 Si02
#       8
#     8   8   8   8   8   8   8   8
#     4  10  21  38  60  91 121 161 216 262 303 368
#     4  11  23  40  59  89 124 164 200 255 317 370
#     4   9  18  35  61  88 114 155 209 258 298 355
#     4  11  23  38  60  92 128 163 205 260 327 378
#     4  10  20  36  61  89 118 162 210 253 303 371
#     4  10  19  36  59  86 122 161 206 260 311 368
#     4  10  21  38  60  87 122 162 206 253 305 368
#     4  11  21  39  64  91 124 164 210 262 314 372
#
# _framework density 21.592286999999999
#
# number of rings (size 3 to 8) (size 9 to 14) (size 15 to 20)
#    0.000    1.750    2.500    2.250    0.000    2.000 
#    2.250    1.250    0.000    1.500    0.000    0.000 
#    0.000    0.000    0.000    0.000    0.000    0.000 
#
# Total GULP energy -793047.353122 kJ/mol
# GULP energy per Si atom -12391.364893 kJ/mol
# Density = 2.154314 g / cm^3
# Si number density = 21.592287 Si / 1000 Ang^3
#
#
#
# Elastic Constant Matrix: (Units=GPa)
#
#
# Indices 1 2 3 4 5 6 
#
# 1 25.4475 29.5610 26.9639 0.0000 0.0000 0.0000
# 2 29.5610 84.4951 55.0202 0.0000 0.0000 0.0000
# 3 26.9639 55.0202 156.3001 0.0000 0.0000 0.0000
# 4 0.0000 0.0000 0.0000 39.9952 0.0000 0.0000
# 5 0.0000 0.0000 0.0000 0.0000 31.1785 0.0000
# 6 0.0000 0.0000 0.0000 0.0000 0.0000 18.7249
#
#
#
# Elastic Compliance Matrix: (Units=1/GPa)
#
#
# Indices 1 2 3 4 5 6 
#
# 1 0.068440 -0.021090 -0.004383 0.000000 0.000000 0.000000
# 2 -0.021090 0.021854 -0.004055 0.000000 0.000000 0.000000
# 3 -0.004383 -0.004055 0.008581 0.000000 0.000000 0.000000
# 4 0.000000 0.000000 0.000000 0.025003 0.000000 0.000000
# 5 0.000000 0.000000 0.000000 0.000000 0.032073 0.000000
# 6 0.000000 0.000000 0.000000 0.000000 0.000000 0.053405
#
#
# Mechanical properties :
#
#
# Convention : Reuss Voigt Hill
#
# Bulk Modulus (GPa) = 25.11299 54.37031 39.74165
# Shear Modulus (GPa) = 17.75041 28.29290 23.02166
#
# Velocity S-wave (km/s) = 2.87029 3.62377 3.26881
# Velocity P-wave (km/s) = 4.75821 6.53789 5.71772
#
# Compressibility (1/GPa) = 0.03982003
#
# Stress axis : x y z
#
# Youngs Moduli (GPa) = 14.61140 45.75910 116.53269
#
# Poissons Ratio (x) = 0.96506 0.51073
# Poissons Ratio (y) = 0.30815 0.47248
# Poissons Ratio (z) = 0.06404 0.18553
#
# Static dielectric constant tensor:
#      x y z
#    x 3.419340 0.000000 0.000000 
#    y 0.000000 4.214500 0.000000 
#    z 0.000000 0.000000 4.147660 
# 
# 
# High freq. dielectric constant tensor:
#      x y z
#    x 1.803150 0.000000 0.000000 
#    y 0.000000 1.853380 0.000000 
#    z 0.000000 0.000000 1.866420 
# 
# From -- ./inp_files/8877.got.cif
#   From: 2010.03.12/outbox.cif.g09.slc.cpg/sg62_5_cif.got.tgz:8877.got - 2010.04.10 19:12:36.
