data_PCOD8251049
_publ_section_title
;
Structure prediction by ZEFSAII (Michael W. Deem and Ramdas Pophale) SiO2 
 PCOD8251049
Probable space group: P N M A
;
_chemical_formula_sum "Si O2"
_cell_formula_units_Z 56
_cell_length_a 22.710484
_cell_length_b 9.039222
_cell_length_c 14.337161
_cell_angle_alpha 90.000000
_cell_angle_beta 90.000000
_cell_angle_gamma 90.000000
_cell_volume 2943.205624
_symmetry_space_group_name_H-M "P N M A"
_symmetry_group_IT_number 62
_symmetry_cell_setting 'orthorhombic'
loop_
_space_group_symop_operation_xyz
x,y,z
1/2-x,-y,1/2+z
1/2+x,1/2-y,1/2-z
-x,1/2+y,-z
-x,-y,-z
1/2+x,y,1/2-z
1/2-x,1/2+y,1/2+z
x,1/2-y,z
loop_
_atom_site_type_symbol
_atom_site_label
_atom_site_fract_x
_atom_site_fract_y
_atom_site_fract_z
Si Si1 0.223825 0.919323 0.109576
Si Si2 0.880153 0.579151 0.793316
Si Si3 0.217459 0.581532 0.898668
Si Si4 0.652284 0.078491 0.092122
Si Si5 0.496914 0.574072 0.600356
Si Si6 0.390999 0.075813 0.287576
Si Si7 0.346695 0.076608 0.091868
O O1 0.236807 0.750000 0.136088
O O2 0.176034 0.984146 0.179294
O O3 0.283726 0.010029 0.118556
O O4 0.197389 0.932342 0.005799
O O5 0.867079 0.750000 0.816233
O O6 0.889681 0.557713 0.681738
O O7 0.937674 0.522996 0.847221
O O8 0.222426 0.750000 0.865327
O O9 0.282512 0.511375 0.885396
O O10 0.167279 0.502999 0.835685
O O11 0.658658 0.250000 0.063166
O O12 0.626047 0.993549 0.002393
O O13 0.500000 0.500000 0.500000
O O14 0.499066 0.750000 0.588793
O O15 0.550476 0.512400 0.663630
O O16 0.389562 0.250000 0.305932
O O17 0.391217 0.040885 0.177181
O O18 0.338984 0.250000 0.076913
#
# Coordination Sequence:
#
# PCOD8251049 Si02
#       7
#     8   8   8   8   8   8   8
#     4  10  19  31  51  79 109 138 169 211 263 313
#     4  10  20  34  53  75 102 139 179 216 257 308
#     4   8  14  26  46  70  96 130 165 198 247 305
#     4   9  18  33  50  71 102 137 173 216 265 309
#     4  10  21  37  56  79 105 135 173 213 254 305
#     4   9  17  31  51  73 101 137 172 207 252 305
#     4  10  19  32  52  77 104 136 175 215 256 309
#
# _framework density 19.026873999999999
#
# number of rings (size 3 to 8) (size 9 to 14) (size 15 to 20)
#    0.000    2.571    0.000    3.429    0.000    4.571 
#    0.000    2.143    0.000    4.286    0.000    0.000 
#    0.000    0.000    0.000    0.000    0.000    0.000 
#
# Total GULP energy -694205.052535 kJ/mol
# GULP energy per Si atom -12396.518795 kJ/mol
# Density = 1.898357 g / cm^3
# Si number density = 19.026874 Si / 1000 Ang^3
#
#
#
# Elastic Constant Matrix: (Units=GPa)
#
#
# Indices 1 2 3 4 5 6 
#
# 1 72.4845 26.9295 63.4566 0.0000 0.0000 0.0000
# 2 26.9295 58.5921 46.5820 0.0000 0.0000 0.0000
# 3 63.4566 46.5820 141.1395 0.0000 0.0000 0.0000
# 4 0.0000 0.0000 0.0000 32.0175 0.0000 0.0000
# 5 0.0000 0.0000 0.0000 0.0000 35.7656 0.0000
# 6 0.0000 0.0000 0.0000 0.0000 0.0000 15.3212
#
#
#
# Elastic Compliance Matrix: (Units=1/GPa)
#
#
# Indices 1 2 3 4 5 6 
#
# 1 0.023188 -0.003212 -0.009365 0.000000 0.000000 0.000000
# 2 -0.003212 0.023583 -0.006339 0.000000 0.000000 0.000000
# 3 -0.009365 -0.006339 0.013388 0.000000 0.000000 0.000000
# 4 0.000000 0.000000 0.000000 0.031233 0.000000 0.000000
# 5 0.000000 0.000000 0.000000 0.000000 0.027960 0.000000
# 6 0.000000 0.000000 0.000000 0.000000 0.000000 0.065269
#
#
# Mechanical properties :
#
#
# Convention : Reuss Voigt Hill
#
# Bulk Modulus (GPa) = 44.79010 60.68360 52.73685
# Shear Modulus (GPa) = 21.74886 25.63741 23.69314
#
# Velocity S-wave (km/s) = 3.38459 3.67472 3.53263
# Velocity P-wave (km/s) = 6.23421 7.06878 6.66457
#
# Compressibility (1/GPa) = 0.02232636
#
# Stress axis : x y z
#
# Youngs Moduli (GPa) = 43.12517 42.40282 74.69252
#
# Poissons Ratio (x) = 0.13619 0.69953
# Poissons Ratio (y) = 0.13851 0.47351
# Poissons Ratio (z) = 0.40389 0.26881
#
# Static dielectric constant tensor:
#      x y z
#    x 3.453940 0.000000 0.000000 
#    y 0.000000 3.202500 0.000000 
#    z 0.000000 0.000000 3.645750 
# 
# 
# High freq. dielectric constant tensor:
#      x y z
#    x 1.719890 0.000000 0.000000 
#    y 0.000000 1.707620 0.000000 
#    z 0.000000 0.000000 1.753890 
# 
# From -- ./inp_files/20190.got.cif
#   From: 2010.03.12/outbox.cif.g09.slc.cpg/sg62_11_cif.got.tgz:20190.got - 2010.04.10 19:12:36.
