data_PCOD8251314
_publ_section_title
;
Structure prediction by ZEFSAII (Michael W. Deem and Ramdas Pophale) SiO2 
 PCOD8251314
Probable space group: P N M A
;
_chemical_formula_sum "Si O2"
_cell_formula_units_Z 64
_cell_length_a 25.562789
_cell_length_b 9.057539
_cell_length_c 13.860519
_cell_angle_alpha 90.000000
_cell_angle_beta 90.000000
_cell_angle_gamma 90.000000
_cell_volume 3209.208549
_symmetry_space_group_name_H-M "P N M A"
_symmetry_group_IT_number 62
_symmetry_cell_setting 'orthorhombic'
loop_
_space_group_symop_operation_xyz
x,y,z
1/2-x,-y,1/2+z
1/2+x,1/2-y,1/2-z
-x,1/2+y,-z
-x,-y,-z
1/2+x,y,1/2-z
1/2-x,1/2+y,1/2+z
x,1/2-y,z
loop_
_atom_site_type_symbol
_atom_site_label
_atom_site_fract_x
_atom_site_fract_y
_atom_site_fract_z
Si Si1 0.340262 0.421617 0.493043
Si Si2 0.224601 0.923094 0.802523
Si Si3 0.175004 0.590419 0.305262
Si Si4 0.449036 0.578941 0.542141
Si Si5 0.915983 0.916891 0.751314
Si Si6 0.550227 0.421015 0.037376
Si Si7 0.855176 0.090500 0.488155
Si Si8 0.735212 0.077591 0.897991
O O1 0.354949 0.250000 0.498022
O O2 0.317121 0.459679 0.386448
O O3 0.393528 0.513307 0.506205
O O4 0.295931 0.458183 0.574932
O O5 0.223654 0.750000 0.776856
O O6 0.281662 0.972262 0.837638
O O7 0.217043 0.022997 0.707406
O O8 0.196817 0.750000 0.263970
O O9 0.134702 0.519795 0.228831
O O10 0.141448 0.624472 0.398989
O O11 0.500000 0.500000 0.500000
O O12 0.450136 0.750000 0.511340
O O13 0.454339 0.560474 0.657911
O O14 0.894846 0.750000 0.747349
O O15 0.944933 0.954508 0.651502
O O16 0.545772 0.250000 0.016154
O O17 0.596616 0.481869 0.968291
O O18 0.500000 0.500000 0.000000
O O19 0.860267 0.250000 0.433445
O O20 0.800242 0.013581 0.470208
O O21 0.723588 0.250000 0.911307
#
# Coordination Sequence:
#
# PCOD8251314 Si02
#       8
#     8   8   8   8   8   8   8   8
#     4  10  23  42  63  88 123 162 201 250 309 368
#     4  11  22  37  57  85 121 161 196 236 297 362
#     4  10  19  32  56  88 119 151 193 244 289 346
#     4  11  24  43  66  89 116 156 207 261 311 364
#     4   9  20  38  61  88 117 157 201 245 304 365
#     4  10  20  37  60  87 120 156 199 249 302 364
#     4  10  20  35  56  83 117 156 194 238 295 357
#     4  11  22  38  60  90 124 159 200 247 300 362
#
# _framework density 19.942612
#
# number of rings (size 3 to 8) (size 9 to 14) (size 15 to 20)
#    0.000    1.750    1.250    3.000    0.000    6.500 
#    2.250    0.000    0.000    0.000    0.000    0.000 
#    0.000    0.000    0.000    0.000    0.000    0.000 
#
# Total GULP energy -792901.866817 kJ/mol
# GULP energy per Si atom -12389.091669 kJ/mol
# Density = 1.989722 g / cm^3
# Si number density = 19.942612 Si / 1000 Ang^3
#
#
#
# Elastic Constant Matrix: (Units=GPa)
#
#
# Indices 1 2 3 4 5 6 
#
# 1 133.8059 78.3027 35.9720 0.0000 0.0000 0.0000
# 2 78.3027 142.1354 46.7718 0.0000 0.0000 0.0000
# 3 35.9720 46.7718 74.3490 0.0000 0.0000 0.0000
# 4 0.0000 0.0000 0.0000 28.5816 0.0000 0.0000
# 5 0.0000 0.0000 0.0000 0.0000 30.5715 0.0000
# 6 0.0000 0.0000 0.0000 0.0000 0.0000 40.4669
#
#
#
# Elastic Compliance Matrix: (Units=1/GPa)
#
#
# Indices 1 2 3 4 5 6 
#
# 1 0.011248 -0.005556 -0.001947 0.000000 0.000000 0.000000
# 2 -0.005556 0.011617 -0.004620 0.000000 0.000000 0.000000
# 3 -0.001947 -0.004620 0.017298 0.000000 0.000000 0.000000
# 4 0.000000 0.000000 0.000000 0.034988 0.000000 0.000000
# 5 0.000000 0.000000 0.000000 0.000000 0.032710 0.000000
# 6 0.000000 0.000000 0.000000 0.000000 0.000000 0.024712
#
#
# Mechanical properties :
#
#
# Convention : Reuss Voigt Hill
#
# Bulk Modulus (GPa) = 62.82301 74.70925 68.76613
# Shear Modulus (GPa) = 30.84066 32.54025 31.69046
#
# Velocity S-wave (km/s) = 3.93679 4.04381 3.99065
# Velocity P-wave (km/s) = 7.22735 7.70367 7.46931
#
# Compressibility (1/GPa) = 0.01591773
#
# Stress axis : x y z
#
# Youngs Moduli (GPa) = 88.90224 86.08419 57.80939
#
# Poissons Ratio (x) = 0.47829 0.11256
# Poissons Ratio (y) = 0.49394 0.26706
# Poissons Ratio (z) = 0.17309 0.39768
#
# Static dielectric constant tensor:
#      x y z
#    x 3.507250 0.000000 0.000000 
#    y 0.000000 5.614580 0.000000 
#    z 0.000000 0.000000 3.726720 
# 
# 
# High freq. dielectric constant tensor:
#      x y z
#    x 1.763470 0.000000 0.000000 
#    y 0.000000 1.794740 0.000000 
#    z 0.000000 0.000000 1.776480 
# 
# From -- ./inp_files/20975.got.cif
#   From: 2010.03.12/outbox.cif.g09.slc.cpg/sg62_11_cif.got.tgz:20975.got - 2010.04.10 19:12:36.
