data_PCOD8251009
_publ_section_title
;
Structure prediction by ZEFSAII (Michael W. Deem and Ramdas Pophale) SiO2 
 PCOD8251009
Probable space group: P N M A
;
_chemical_formula_sum "Si O2"
_cell_formula_units_Z 64
_cell_length_a 20.084231
_cell_length_b 9.456104
_cell_length_c 17.466015
_cell_angle_alpha 90.000000
_cell_angle_beta 90.000000
_cell_angle_gamma 90.000000
_cell_volume 3317.120716
_symmetry_space_group_name_H-M "P N M A"
_symmetry_group_IT_number 62
_symmetry_cell_setting 'orthorhombic'
loop_
_space_group_symop_operation_xyz
x,y,z
1/2-x,-y,1/2+z
1/2+x,1/2-y,1/2-z
-x,1/2+y,-z
-x,-y,-z
1/2+x,y,1/2-z
1/2-x,1/2+y,1/2+z
x,1/2-y,z
loop_
_atom_site_type_symbol
_atom_site_label
_atom_site_fract_x
_atom_site_fract_y
_atom_site_fract_z
Si Si1 0.477604 0.084412 0.771801
Si Si2 0.852971 0.913891 0.666939
Si Si3 0.529534 0.094929 0.609357
Si Si4 0.681662 0.412365 0.995946
Si Si5 0.796536 0.588129 0.935265
Si Si6 0.267159 0.410838 0.228941
Si Si7 0.907325 0.094177 0.998674
Si Si8 0.117579 0.413852 0.662822
O O1 0.461348 0.250000 0.777772
O O2 0.493860 0.037964 0.685304
O O3 0.541184 0.042101 0.823538
O O4 0.412933 0.001317 0.797821
O O5 0.864219 0.750000 0.687585
O O6 0.854911 0.939947 0.576006
O O7 0.781591 0.962286 0.702419
O O8 0.561779 0.250000 0.626311
O O9 0.478172 0.113248 0.540519
O O10 0.585509 0.983531 0.581325
O O11 0.706026 0.250000 0.989867
O O12 0.744239 0.516238 0.992713
O O13 0.632247 0.449780 0.925895
O O14 0.806756 0.750000 0.960235
O O15 0.774783 0.574284 0.848240
O O16 0.864464 0.502247 0.942116
O O17 0.290286 0.250000 0.242481
O O18 0.333687 0.504656 0.221808
O O19 0.875327 0.250000 0.011998
O O20 0.128645 0.250000 0.681191
#
# Coordination Sequence:
#
# PCOD8251009 Si02
#       8
#     8   8   8   8   8   8   8   8
#     4  10  21  36  54  78 107 139 177 219 262 311
#     4  10  21  36  55  80 108 137 172 216 262 309
#     4   9  19  34  49  70 102 136 172 212 254 306
#     4   9  19  36  54  74 102 134 171 214 259 307
#     4  10  19  32  52  75 100 131 167 209 256 308
#     4   9  19  35  54  77 104 135 173 215 259 309
#     4  10  19  31  50  74 101 135 170 208 257 311
#     4   9  19  36  56  77 104 139 176 215 261 311
#
# _framework density 19.293841
#
# number of rings (size 3 to 8) (size 9 to 14) (size 15 to 20)
#    0.000    2.500    0.000    1.500    0.000    4.500 
#    0.000    2.500    0.000    0.000    0.000    0.000 
#    0.000    0.000    0.000    0.000    0.000    0.000 
#
# Total GULP energy -793494.700703 kJ/mol
# GULP energy per Si atom -12398.354698 kJ/mol
# Density = 1.924993 g / cm^3
# Si number density = 19.293841 Si / 1000 Ang^3
#
#
#
# Elastic Constant Matrix: (Units=GPa)
#
#
# Indices 1 2 3 4 5 6 
#
# 1 44.8861 22.0894 14.0659 0.0000 0.0000 0.0000
# 2 22.0894 82.4398 23.0987 0.0000 0.0000 0.0000
# 3 14.0659 23.0987 84.7127 0.0000 0.0000 0.0000
# 4 0.0000 0.0000 0.0000 24.1490 0.0000 0.0000
# 5 0.0000 0.0000 0.0000 0.0000 20.2148 0.0000
# 6 0.0000 0.0000 0.0000 0.0000 0.0000 34.1877
#
#
#
# Elastic Compliance Matrix: (Units=1/GPa)
#
#
# Indices 1 2 3 4 5 6 
#
# 1 0.026196 -0.006280 -0.002637 0.000000 0.000000 0.000000
# 2 -0.006280 0.014639 -0.002949 0.000000 0.000000 0.000000
# 3 -0.002637 -0.002949 0.013047 0.000000 0.000000 0.000000
# 4 0.000000 0.000000 0.000000 0.041410 0.000000 0.000000
# 5 0.000000 0.000000 0.000000 0.000000 0.049469 0.000000
# 6 0.000000 0.000000 0.000000 0.000000 0.000000 0.029250
#
#
# Mechanical properties :
#
#
# Convention : Reuss Voigt Hill
#
# Bulk Modulus (GPa) = 33.16870 36.72737 34.94804
# Shear Modulus (GPa) = 24.06258 25.89596 24.97927
#
# Velocity S-wave (km/s) = 3.53535 3.66756 3.60206
# Velocity P-wave (km/s) = 5.82182 6.08373 5.95422
#
# Compressibility (1/GPa) = 0.03014891
#
# Stress axis : x y z
#
# Youngs Moduli (GPa) = 38.17436 68.31052 76.64853
#
# Poissons Ratio (x) = 0.42900 0.20214
# Poissons Ratio (y) = 0.23974 0.22603
# Poissons Ratio (z) = 0.10067 0.20144
#
# Static dielectric constant tensor:
#      x y z
#    x 3.351680 0.000000 0.000000 
#    y 0.000000 3.798350 0.000000 
#    z 0.000000 0.000000 3.535000 
# 
# 
# High freq. dielectric constant tensor:
#      x y z
#    x 1.737350 0.000000 0.000000 
#    y 0.000000 1.752670 0.000000 
#    z 0.000000 0.000000 1.750920 
# 
# From -- ./inp_files/24728.got.cif
#   From: 2010.03.12/outbox.cif.g09.slc.cpg/sg62_13_cif.got.tgz:24728.got - 2010.04.10 19:12:36.
