data_PCOD8251210
_publ_section_title
;
Structure prediction by ZEFSAII (Michael W. Deem and Ramdas Pophale) SiO2 
 PCOD8251210
Probable space group: P N M A
;
_chemical_formula_sum "Si O2"
_cell_formula_units_Z 40
_cell_length_a 10.395831
_cell_length_b 8.704091
_cell_length_c 23.172166
_cell_angle_alpha 90.000000
_cell_angle_beta 90.000000
_cell_angle_gamma 90.000000
_cell_volume 2096.762615
_symmetry_space_group_name_H-M "P N M A"
_symmetry_group_IT_number 62
_symmetry_cell_setting 'orthorhombic'
loop_
_space_group_symop_operation_xyz
x,y,z
1/2-x,-y,1/2+z
1/2+x,1/2-y,1/2-z
-x,1/2+y,-z
-x,-y,-z
1/2+x,y,1/2-z
1/2-x,1/2+y,1/2+z
x,1/2-y,z
loop_
_atom_site_type_symbol
_atom_site_label
_atom_site_fract_x
_atom_site_fract_y
_atom_site_fract_z
Si Si1 0.736574 0.567588 0.382179
Si Si2 0.502438 0.432902 0.693637
Si Si3 0.998150 0.566967 0.323613
Si Si4 0.758420 0.932419 0.120614
Si Si5 0.358541 0.931665 0.501798
O O1 0.732431 0.750000 0.389142
O O2 0.623486 0.509215 0.340175
O O3 0.870644 0.508828 0.355823
O O4 0.722206 0.492430 0.444510
O O5 0.504655 0.250000 0.694689
O O6 0.499960 0.498483 0.758528
O O7 0.628353 0.497956 0.661371
O O8 0.000187 0.750000 0.321932
O O9 0.122071 0.501680 0.357554
O O10 0.758486 0.750000 0.124855
O O11 0.782074 0.985953 0.055169
O O12 0.371294 0.750000 0.504297
O O13 0.500000 0.000000 0.500000
#
# Coordination Sequence:
#
# PCOD8251210 Si02
#       5
#     8   8   8   8   8
#     4  10  19  32  52  80 105 130 170 212 250 300
#     4   9  15  27  48  75 105 133 164 206 252 296
#     4   9  17  28  47  77 108 132 161 208 258 298
#     4   9  17  29  46  72 103 132 164 205 252 299
#     4  11  21  35  54  74 101 136 173 213 256 306
#
# _framework density 19.077029
#
# number of rings (size 3 to 8) (size 9 to 14) (size 15 to 20)
#    0.000    2.400    2.000    1.800    0.000    5.600 
#    0.000    0.000    0.000    2.400    0.000    0.000 
#    0.000    0.000    0.000    0.000    0.000    0.000 
#
# Total GULP energy -495997.162511 kJ/mol
# GULP energy per Si atom -12399.929063 kJ/mol
# Density = 1.903361 g / cm^3
# Si number density = 19.077029 Si / 1000 Ang^3
#
#
#
# Elastic Constant Matrix: (Units=GPa)
#
#
# Indices 1 2 3 4 5 6 
#
# 1 201.7013 16.3256 116.5663 0.0000 0.0000 0.0000
# 2 16.3256 19.1125 23.5273 0.0000 0.0000 0.0000
# 3 116.5663 23.5273 214.2574 0.0000 0.0000 0.0000
# 4 0.0000 0.0000 0.0000 25.3980 0.0000 0.0000
# 5 0.0000 0.0000 0.0000 0.0000 34.0260 0.0000
# 6 0.0000 0.0000 0.0000 0.0000 0.0000 10.1580
#
#
#
# Elastic Compliance Matrix: (Units=1/GPa)
#
#
# Indices 1 2 3 4 5 6 
#
# 1 0.007271 -0.001551 -0.003785 0.000000 0.000000 0.000000
# 2 -0.001551 0.060830 -0.005836 0.000000 0.000000 0.000000
# 3 -0.003785 -0.005836 0.007368 0.000000 0.000000 0.000000
# 4 0.000000 0.000000 0.000000 0.039373 0.000000 0.000000
# 5 0.000000 0.000000 0.000000 0.000000 0.029389 0.000000
# 6 0.000000 0.000000 0.000000 0.000000 0.000000 0.098445
#
#
# Mechanical properties :
#
#
# Convention : Reuss Voigt Hill
#
# Bulk Modulus (GPa) = 18.82372 83.10104 50.96238
# Shear Modulus (GPa) = 17.68476 32.49320 25.08898
#
# Velocity S-wave (km/s) = 3.04800 4.13154 3.63042
# Velocity P-wave (km/s) = 4.71972 8.14953 6.65922
#
# Compressibility (1/GPa) = 0.05312447
#
# Stress axis : x y z
#
# Youngs Moduli (GPa) = 137.53167 16.43913 135.72919
#
# Poissons Ratio (x) = 0.02550 0.51380
# Poissons Ratio (y) = 0.21330 0.79211
# Poissons Ratio (z) = 0.52063 0.09594
#
# Static dielectric constant tensor:
#      x y z
#    x 3.695010 0.000000 0.000000 
#    y 0.000000 2.865630 0.000000 
#    z 0.000000 0.000000 3.782280 
# 
# 
# High freq. dielectric constant tensor:
#      x y z
#    x 1.753960 0.000000 0.000000 
#    y 0.000000 1.675300 0.000000 
#    z 0.000000 0.000000 1.760630 
# 
# From -- ./inp_files/26448.got.cif
#   From: 2010.03.12/outbox.cif.g09.slc.cpg/sg62_14_cif.got.tgz:26448.got - 2010.04.10 19:12:36.
