data_PCOD8251561
_publ_section_title
;
Structure prediction by ZEFSAII (Michael W. Deem and Ramdas Pophale) SiO2 
 PCOD8251561
Probable space group: P N M A
;
_chemical_formula_sum "Si O2"
_cell_formula_units_Z 64
_cell_length_a 19.085303
_cell_length_b 9.372133
_cell_length_c 19.358515
_cell_angle_alpha 90.000000
_cell_angle_beta 90.000000
_cell_angle_gamma 90.000000
_cell_volume 3462.657541
_symmetry_space_group_name_H-M "P N M A"
_symmetry_group_IT_number 62
_symmetry_cell_setting 'orthorhombic'
loop_
_space_group_symop_operation_xyz
x,y,z
1/2-x,-y,1/2+z
1/2+x,1/2-y,1/2-z
-x,1/2+y,-z
-x,-y,-z
1/2+x,y,1/2-z
1/2-x,1/2+y,1/2+z
x,1/2-y,z
loop_
_atom_site_type_symbol
_atom_site_label
_atom_site_fract_x
_atom_site_fract_y
_atom_site_fract_z
Si Si1 0.772613 0.582072 0.882697
Si Si2 0.859852 0.083475 0.471884
Si Si3 0.239859 0.419863 0.270479
Si Si4 0.975630 0.418095 0.367436
Si Si5 0.102543 0.416637 0.026743
Si Si6 0.544544 0.585903 0.591326
Si Si7 0.133174 0.079584 0.388530
Si Si8 0.896455 0.417479 0.235112
O O1 0.783532 0.750000 0.879635
O O2 0.782717 0.522095 0.805128
O O3 0.696752 0.543931 0.913125
O O4 0.832099 0.516834 0.932101
O O5 0.855107 0.250000 0.491999
O O6 0.935432 0.044898 0.438809
O O7 0.844427 0.989787 0.539120
O O8 0.238174 0.250000 0.272592
O O9 0.186719 0.476463 0.329432
O O10 0.318942 0.478510 0.281654
O O11 0.978502 0.250000 0.356301
O O12 0.933297 0.486573 0.302639
O O13 0.055045 0.476377 0.370043
O O14 0.111149 0.250000 0.012103
O O15 0.098886 0.494074 0.953252
O O16 0.034620 0.451976 0.072219
O O17 0.562523 0.750000 0.576873
O O18 0.553284 0.546975 0.671232
O O19 0.135557 0.250000 0.396369
O O20 0.887842 0.250000 0.248281
#
# Coordination Sequence:
#
# PCOD8251561 Si02
#       8
#     8   8   8   8   8   8   8   8
#     4   9  17  30  49  71  95 127 165 198 232 281
#     4  10  19  34  53  71  97 136 167 192 238 301
#     4   9  17  30  47  72 100 123 155 200 242 279
#     4   9  17  31  50  74  99 127 164 204 244 286
#     4   9  18  31  47  70  97 124 158 199 236 280
#     4   9  18  30  48  72  96 124 157 196 242 286
#     4  10  21  32  51  80 102 120 157 213 253 277
#     4   9  16  28  47  71  98 125 157 197 239 284
#
# _framework density 18.482914000000001
#
# number of rings (size 3 to 8) (size 9 to 14) (size 15 to 20)
#    0.000    2.750    1.250    0.375    3.500    0.000 
#    0.000    0.000    0.000    3.000    0.000    0.000 
#    0.000    0.000    0.000    0.000    0.000    0.000 
#
# Total GULP energy -793343.051803 kJ/mol
# GULP energy per Si atom -12395.985184 kJ/mol
# Density = 1.844085 g / cm^3
# Si number density = 18.482914 Si / 1000 Ang^3
#
#
#
# Elastic Constant Matrix: (Units=GPa)
#
#
# Indices 1 2 3 4 5 6 
#
# 1 80.6755 16.9637 42.7056 0.0000 0.0000 0.0000
# 2 16.9637 18.3949 25.8566 0.0000 0.0000 0.0000
# 3 42.7056 25.8566 122.7093 0.0000 0.0000 0.0000
# 4 0.0000 0.0000 0.0000 21.2455 0.0000 0.0000
# 5 0.0000 0.0000 0.0000 0.0000 33.1942 0.0000
# 6 0.0000 0.0000 0.0000 0.0000 0.0000 12.9568
#
#
#
# Elastic Compliance Matrix: (Units=1/GPa)
#
#
# Indices 1 2 3 4 5 6 
#
# 1 0.016417 -0.010100 -0.003585 0.000000 0.000000 0.000000
# 2 -0.010100 0.083455 -0.014070 0.000000 0.000000 0.000000
# 3 -0.003585 -0.014070 0.012362 0.000000 0.000000 0.000000
# 4 0.000000 0.000000 0.000000 0.047069 0.000000 0.000000
# 5 0.000000 0.000000 0.000000 0.000000 0.030126 0.000000
# 6 0.000000 0.000000 0.000000 0.000000 0.000000 0.077180
#
#
# Mechanical properties :
#
#
# Convention : Reuss Voigt Hill
#
# Bulk Modulus (GPa) = 17.62965 43.64796 30.63880
# Shear Modulus (GPa) = 14.66164 22.56287 18.61226
#
# Velocity S-wave (km/s) = 2.81953 3.49770 3.17677
# Velocity P-wave (km/s) = 4.48985 6.32285 5.48348
#
# Compressibility (1/GPa) = 0.05672263
#
# Stress axis : x y z
#
# Youngs Moduli (GPa) = 60.91276 11.98257 80.89405
#
# Poissons Ratio (x) = 0.12102 0.29002
# Poissons Ratio (y) = 0.61522 1.13818
# Poissons Ratio (z) = 0.21839 0.16860
#
# Static dielectric constant tensor:
#      x y z
#    x 3.645500 0.000000 0.000000 
#    y 0.000000 2.832460 0.000000 
#    z 0.000000 0.000000 3.557080 
# 
# 
# High freq. dielectric constant tensor:
#      x y z
#    x 1.729850 0.000000 0.000000 
#    y 0.000000 1.648120 0.000000 
#    z 0.000000 0.000000 1.729110 
# 
# From -- ./inp_files/24485.got.cif
#   From: 2010.03.12/outbox.cif.g09.slc.cpg/sg62_13_cif.got.tgz:24485.got - 2010.04.10 19:12:36.
