data_PCOD8251179
_publ_section_title
;
Structure prediction by ZEFSAII (Michael W. Deem and Ramdas Pophale) SiO2 
 PCOD8251179
Probable space group: P N M A
;
_chemical_formula_sum "Si O2"
_cell_formula_units_Z 56
_cell_length_a 19.343029
_cell_length_b 9.639369
_cell_length_c 17.337622
_cell_angle_alpha 90.000000
_cell_angle_beta 90.000000
_cell_angle_gamma 90.000000
_cell_volume 3232.679273
_symmetry_space_group_name_H-M "P N M A"
_symmetry_group_IT_number 62
_symmetry_cell_setting 'orthorhombic'
loop_
_space_group_symop_operation_xyz
x,y,z
1/2-x,-y,1/2+z
1/2+x,1/2-y,1/2-z
-x,1/2+y,-z
-x,-y,-z
1/2+x,y,1/2-z
1/2-x,1/2+y,1/2+z
x,1/2-y,z
loop_
_atom_site_type_symbol
_atom_site_label
_atom_site_fract_x
_atom_site_fract_y
_atom_site_fract_z
Si Si1 0.197086 0.910294 0.067416
Si Si2 0.563901 0.909379 0.527370
Si Si3 0.108818 0.591586 0.208818
Si Si4 0.519268 0.592950 0.690877
Si Si5 0.911426 0.410299 0.618989
Si Si6 0.830051 0.411402 0.468111
Si Si7 0.456323 0.411488 0.137904
O O1 0.215485 0.750000 0.052295
O O2 0.176630 0.935744 0.157061
O O3 0.262246 0.002216 0.048021
O O4 0.134386 0.959405 0.012480
O O5 0.548839 0.750000 0.504553
O O6 0.572650 0.926102 0.620152
O O7 0.500000 0.000000 0.500000
O O8 0.084865 0.750000 0.199912
O O9 0.123708 0.555466 0.298294
O O10 0.046765 0.501723 0.174926
O O11 0.491564 0.750000 0.694775
O O12 0.556232 0.554580 0.771638
O O13 0.934270 0.250000 0.613142
O O14 0.855354 0.446338 0.554275
O O15 0.979169 0.502352 0.605492
O O16 0.812325 0.250000 0.458535
O O17 0.888232 0.458276 0.407312
O O18 0.472190 0.250000 0.123028
#
# Coordination Sequence:
#
# PCOD8251179 Si02
#       7
#     8   8   8   8   8   8   8
#     4  10  21  35  50  71 102 137 170 206 249 297
#     4  10  19  32  52  75  99 129 166 207 249 294
#     4   9  17  32  52  73  99 128 162 204 248 294
#     4   9  17  30  51  77 101 124 159 205 251 296
#     4   9  18  33  55  78 100 129 167 210 252 296
#     4  10  21  36  51  73 104 136 169 206 252 300
#     4   9  18  33  53  77 103 130 164 209 253 298
#
# _framework density 17.323093
#
# number of rings (size 3 to 8) (size 9 to 14) (size 15 to 20)
#    0.000    2.571    1.429    0.429    0.000    2.286 
#    2.571    0.000    0.000    0.000    0.000    0.000 
#    0.000    0.000    0.000    0.000    0.000    0.000 
#
# Total GULP energy -694334.606607 kJ/mol
# GULP energy per Si atom -12398.832261 kJ/mol
# Density = 1.728366 g / cm^3
# Si number density = 17.323093 Si / 1000 Ang^3
#
#
#
# Elastic Constant Matrix: (Units=GPa)
#
#
# Indices 1 2 3 4 5 6 
#
# 1 135.9423 68.0348 77.5725 0.0000 0.0000 0.0000
# 2 68.0348 65.0957 47.1307 0.0000 0.0000 0.0000
# 3 77.5725 47.1307 120.8246 0.0000 0.0000 0.0000
# 4 0.0000 0.0000 0.0000 21.7674 0.0000 0.0000
# 5 0.0000 0.0000 0.0000 0.0000 22.4666 0.0000
# 6 0.0000 0.0000 0.0000 0.0000 0.0000 36.2304
#
#
#
# Elastic Compliance Matrix: (Units=1/GPa)
#
#
# Indices 1 2 3 4 5 6 
#
# 1 0.017989 -0.014548 -0.005875 0.000000 0.000000 0.000000
# 2 -0.014548 0.033173 -0.003600 0.000000 0.000000 0.000000
# 3 -0.005875 -0.003600 0.013452 0.000000 0.000000 0.000000
# 4 0.000000 0.000000 0.000000 0.045940 0.000000 0.000000
# 5 0.000000 0.000000 0.000000 0.000000 0.044510 0.000000
# 6 0.000000 0.000000 0.000000 0.000000 0.000000 0.027601
#
#
# Mechanical properties :
#
#
# Convention : Reuss Voigt Hill
#
# Bulk Modulus (GPa) = 60.35132 78.59319 69.47225
# Shear Modulus (GPa) = 21.16542 24.70119 22.93331
#
# Velocity S-wave (km/s) = 3.49922 3.78022 3.64243
# Velocity P-wave (km/s) = 7.15824 8.03249 7.60793
#
# Compressibility (1/GPa) = 0.01656965
#
# Stress axis : x y z
#
# Youngs Moduli (GPa) = 55.58937 30.14493 74.33623
#
# Poissons Ratio (x) = 0.43854 0.43670
# Poissons Ratio (y) = 0.80871 0.26760
# Poissons Ratio (z) = 0.32657 0.10852
#
# Static dielectric constant tensor:
#      x y z
#    x 2.920020 0.000000 0.000000 
#    y 0.000000 3.244720 0.000000 
#    z 0.000000 0.000000 3.679530 
# 
# 
# High freq. dielectric constant tensor:
#      x y z
#    x 1.637340 0.000000 0.000000 
#    y 0.000000 1.669950 0.000000 
#    z 0.000000 0.000000 1.691410 
# 
# From -- ./inp_files/24574.got.cif
#   From: 2010.03.12/outbox.cif.g09.slc.cpg/sg62_13_cif.got.tgz:24574.got - 2010.04.10 19:12:36.
