data_PCOD8251068
_publ_section_title
;
Structure prediction by ZEFSAII (Michael W. Deem and Ramdas Pophale) SiO2 
 PCOD8251068
Probable space group: P N M A
;
_chemical_formula_sum "Si O2"
_cell_formula_units_Z 64
_cell_length_a 15.065462
_cell_length_b 9.140194
_cell_length_c 24.281298
_cell_angle_alpha 90.000000
_cell_angle_beta 90.000000
_cell_angle_gamma 90.000000
_cell_volume 3343.564974
_symmetry_space_group_name_H-M "P N M A"
_symmetry_group_IT_number 62
_symmetry_cell_setting 'orthorhombic'
loop_
_space_group_symop_operation_xyz
x,y,z
1/2-x,-y,1/2+z
1/2+x,1/2-y,1/2-z
-x,1/2+y,-z
-x,-y,-z
1/2+x,y,1/2-z
1/2-x,1/2+y,1/2+z
x,1/2-y,z
loop_
_atom_site_type_symbol
_atom_site_label
_atom_site_fract_x
_atom_site_fract_y
_atom_site_fract_z
Si Si1 0.711322 0.922984 0.815097
Si Si2 0.627234 0.081279 0.529679
Si Si3 0.112638 0.922239 0.197397
Si Si4 0.028040 0.418408 0.399415
Si Si5 0.794907 0.916678 0.543258
Si Si6 0.481597 0.416218 0.224884
Si Si7 0.062843 0.918333 0.073865
Si Si8 0.645619 0.418347 0.920078
O O1 0.724521 0.750000 0.821276
O O2 0.622715 0.957831 0.779779
O O3 0.796676 0.994554 0.785144
O O4 0.702496 0.991950 0.875736
O O5 0.646893 0.250000 0.521321
O O6 0.541683 0.051423 0.567261
O O7 0.709684 0.009440 0.561661
O O8 0.617581 0.013428 0.469149
O O9 0.125504 0.750000 0.205907
O O10 0.090943 0.963804 0.134751
O O11 0.029636 0.974719 0.233512
O O12 0.010941 0.250000 0.416860
O O13 0.120774 0.476787 0.423221
O O14 0.028615 0.434698 0.333896
O O15 0.952786 0.517984 0.426441
O O16 0.777558 0.750000 0.560079
O O17 0.806947 0.934291 0.478203
O O18 0.491856 0.250000 0.246065
O O19 0.085925 0.750000 0.061565
O O20 0.640709 0.250000 0.901021
#
# Coordination Sequence:
#
# PCOD8251068 Si02
#       8
#     8   8   8   8   8   8   8   8
#     4  10  21  38  59  82 111 145 184 228 273 328
#     4  10  20  34  54  79 108 141 178 219 264 321
#     4  11  22  37  60  85 110 142 181 230 280 327
#     4   9  19  36  54  73 106 147 184 223 271 325
#     4  10  20  33  50  77 111 146 179 217 270 328
#     4   9  20  39  58  78 108 144 184 231 273 320
#     4   9  20  38  55  76 109 141 173 219 272 322
#     4  10  19  31  52  81 111 140 179 227 273 321
#
# _framework density 19.141245999999999
#
# number of rings (size 3 to 8) (size 9 to 14) (size 15 to 20)
#    0.000    2.250    0.000    3.375    0.000    8.500 
#    2.250    0.000    0.000    0.000    0.000    0.000 
#    0.000    0.000    0.000    0.000    0.000    0.000 
#
# Total GULP energy -793778.974169 kJ/mol
# GULP energy per Si atom -12402.796471 kJ/mol
# Density = 1.909768 g / cm^3
# Si number density = 19.141246 Si / 1000 Ang^3
#
#
#
# Elastic Constant Matrix: (Units=GPa)
#
#
# Indices 1 2 3 4 5 6 
#
# 1 126.4311 62.4326 37.9856 0.0000 0.0000 0.0000
# 2 62.4326 94.8348 33.3540 0.0000 0.0000 0.0000
# 3 37.9856 33.3540 36.2914 0.0000 0.0000 0.0000
# 4 0.0000 0.0000 0.0000 26.8715 0.0000 0.0000
# 5 0.0000 0.0000 0.0000 0.0000 23.7782 0.0000
# 6 0.0000 0.0000 0.0000 0.0000 0.0000 38.1683
#
#
#
# Elastic Compliance Matrix: (Units=1/GPa)
#
#
# Indices 1 2 3 4 5 6 
#
# 1 0.013356 -0.005727 -0.008716 0.000000 0.000000 0.000000
# 2 -0.005727 0.018037 -0.010582 0.000000 0.000000 0.000000
# 3 -0.008716 -0.010582 0.046403 0.000000 0.000000 0.000000
# 4 0.000000 0.000000 0.000000 0.037214 0.000000 0.000000
# 5 0.000000 0.000000 0.000000 0.000000 0.042055 0.000000
# 6 0.000000 0.000000 0.000000 0.000000 0.000000 0.026200
#
#
# Mechanical properties :
#
#
# Convention : Reuss Voigt Hill
#
# Bulk Modulus (GPa) = 36.04218 58.34465 47.19342
# Shear Modulus (GPa) = 20.61292 26.01594 23.31443
#
# Velocity S-wave (km/s) = 3.28515 3.69067 3.49380
# Velocity P-wave (km/s) = 5.76716 6.97916 6.40191
#
# Compressibility (1/GPa) = 0.02774527
#
# Stress axis : x y z
#
# Youngs Moduli (GPa) = 74.87059 55.44135 21.55010
#
# Poissons Ratio (x) = 0.31754 0.18783
# Poissons Ratio (y) = 0.42882 0.22805
# Poissons Ratio (z) = 0.65257 0.58670
#
# Static dielectric constant tensor:
#      x y z
#    x 3.670560 0.000000 0.000000 
#    y 0.000000 3.532020 0.000000 
#    z 0.000000 0.000000 3.259790 
# 
# 
# High freq. dielectric constant tensor:
#      x y z
#    x 1.759280 0.000000 0.000000 
#    y 0.000000 1.748370 0.000000 
#    z 0.000000 0.000000 1.720940 
# 
# From -- ./inp_files/29947.got.cif
#   From: 2010.03.12/outbox.cif.g09.slc.cpg/sg62_15_cif.got.tgz:29947.got - 2010.04.10 19:12:36.
