data_PCOD8251840
_publ_section_title
;
Structure prediction by ZEFSAII (Michael W. Deem and Ramdas Pophale) SiO2 
 PCOD8251840
Probable space group: P N M A
;
_chemical_formula_sum "Si O2"
_cell_formula_units_Z 40
_cell_length_a 8.925245
_cell_length_b 9.989990
_cell_length_c 22.069565
_cell_angle_alpha 90.000000
_cell_angle_beta 90.000000
_cell_angle_gamma 90.000000
_cell_volume 1967.791014
_symmetry_space_group_name_H-M "P N M A"
_symmetry_group_IT_number 62
_symmetry_cell_setting 'orthorhombic'
loop_
_space_group_symop_operation_xyz
x,y,z
1/2-x,-y,1/2+z
1/2+x,1/2-y,1/2-z
-x,1/2+y,-z
-x,-y,-z
1/2+x,y,1/2-z
1/2-x,1/2+y,1/2+z
x,1/2-y,z
loop_
_atom_site_type_symbol
_atom_site_label
_atom_site_fract_x
_atom_site_fract_y
_atom_site_fract_z
Si Si1 0.197395 0.098286 0.672920
Si Si2 0.936380 0.974658 0.748047
Si Si3 0.336951 0.596262 0.439503
Si Si4 0.315943 0.392512 0.334960
Si Si5 0.190812 0.597210 0.044770
O O1 0.155292 0.250000 0.664398
O O2 0.235506 0.040515 0.606346
O O3 0.339509 0.088429 0.717868
O O4 0.050286 0.029710 0.698488
O O5 0.819345 0.881608 0.712891
O O6 0.026910 0.895389 0.799282
O O7 0.275421 0.750000 0.438898
O O8 0.294939 0.522517 0.376864
O O9 0.261120 0.508360 0.492878
O O10 0.513454 0.597392 0.447145
O O11 0.317195 0.250000 0.371310
O O12 0.242421 0.750000 0.029378
#
# Coordination Sequence:
#
# PCOD8251840 Si02
#       5
#     8   8   8   8   8
#     4  10  19  35  58  87 119 151 187 234 287 340
#     4  10  22  36  56  86 116 153 192 231 282 345
#     4  10  20  35  57  86 113 147 193 239 285 338
#     4  11  22  39  59  84 117 154 190 236 284 340
#     4   9  18  35  56  84 115 149 189 234 285 340
#
# _framework density 20.327362000000001
#
# number of rings (size 3 to 8) (size 9 to 14) (size 15 to 20)
#    0.000    2.000    2.000    1.800    0.000    4.800 
#    0.000    3.000    0.000    0.000    0.000    0.000 
#    0.000    0.000    0.000    0.000    0.000    0.000 
#
# Total GULP energy -495685.271081 kJ/mol
# GULP energy per Si atom -12392.131777 kJ/mol
# Density = 2.028110 g / cm^3
# Si number density = 20.327362 Si / 1000 Ang^3
#
#
#
# Elastic Constant Matrix: (Units=GPa)
#
#
# Indices 1 2 3 4 5 6 
#
# 1 66.7842 21.2882 17.7406 0.0000 0.0000 0.0000
# 2 21.2882 137.7267 63.7967 0.0000 0.0000 0.0000
# 3 17.7406 63.7967 108.9993 0.0000 0.0000 0.0000
# 4 0.0000 0.0000 0.0000 28.4416 0.0000 0.0000
# 5 0.0000 0.0000 0.0000 0.0000 20.7028 0.0000
# 6 0.0000 0.0000 0.0000 0.0000 0.0000 3.2705
#
#
#
# Elastic Compliance Matrix: (Units=1/GPa)
#
#
# Indices 1 2 3 4 5 6 
#
# 1 0.015946 -0.001732 -0.001582 0.000000 0.000000 0.000000
# 2 -0.001732 0.010150 -0.005659 0.000000 0.000000 0.000000
# 3 -0.001582 -0.005659 0.012744 0.000000 0.000000 0.000000
# 4 0.000000 0.000000 0.000000 0.035160 0.000000 0.000000
# 5 0.000000 0.000000 0.000000 0.000000 0.048303 0.000000
# 6 0.000000 0.000000 0.000000 0.000000 0.000000 0.305767
#
#
# Mechanical properties :
#
#
# Convention : Reuss Voigt Hill
#
# Bulk Modulus (GPa) = 47.85905 57.68459 52.77182
# Shear Modulus (GPa) = 11.03806 24.52862 17.78334
#
# Velocity S-wave (km/s) = 2.33280 3.47750 2.96099
# Velocity P-wave (km/s) = 5.55438 6.67558 6.14063
#
# Compressibility (1/GPa) = 0.02089469
#
# Stress axis : x y z
#
# Youngs Moduli (GPa) = 62.71216 98.52579 78.46993
#
# Poissons Ratio (x) = 0.17066 0.12410
# Poissons Ratio (y) = 0.10863 0.44403
# Poissons Ratio (z) = 0.09918 0.55752
#
# Static dielectric constant tensor:
#      x y z
#    x 3.502900 0.000000 0.000000 
#    y 0.000000 3.723390 0.000000 
#    z 0.000000 0.000000 3.953160 
# 
# 
# High freq. dielectric constant tensor:
#      x y z
#    x 1.774250 0.000000 0.000000 
#    y 0.000000 1.791920 0.000000 
#    z 0.000000 0.000000 1.797610 
# 
# From -- ./inp_files/28591.got.cif
#   From: 2010.03.12/outbox.cif.g09.slc.cpg/sg62_15_cif.got.tgz:28591.got - 2010.04.10 19:12:36.
