data_PCOD8251946
_publ_section_title
;
Structure prediction by ZEFSAII (Michael W. Deem and Ramdas Pophale) SiO2 
 PCOD8251946
Probable space group: P N M A
;
_chemical_formula_sum "Si O2"
_cell_formula_units_Z 56
_cell_length_a 10.382250
_cell_length_b 21.748090
_cell_length_c 13.835154
_cell_angle_alpha 90.000000
_cell_angle_beta 90.000000
_cell_angle_gamma 90.000000
_cell_volume 3123.896248
_symmetry_space_group_name_H-M "P N M A"
_symmetry_group_IT_number 62
_symmetry_cell_setting 'orthorhombic'
loop_
_space_group_symop_operation_xyz
x,y,z
1/2-x,-y,1/2+z
1/2+x,1/2-y,1/2-z
-x,1/2+y,-z
-x,-y,-z
1/2+x,y,1/2-z
1/2-x,1/2+y,1/2+z
x,1/2-y,z
loop_
_atom_site_type_symbol
_atom_site_label
_atom_site_fract_x
_atom_site_fract_y
_atom_site_fract_z
Si Si1 0.180975 0.533605 0.568557
Si Si2 0.317812 0.596871 0.409434
Si Si3 0.080486 0.680941 0.360325
Si Si4 0.087117 0.628697 0.157578
Si Si5 0.098336 0.068594 0.425600
Si Si6 0.294484 0.012632 0.756988
Si Si7 0.679473 0.177613 0.968923
O O1 0.301172 0.564670 0.513293
O O2 0.151620 0.468480 0.518294
O O3 0.217225 0.527007 0.679874
O O4 0.054990 0.576477 0.563587
O O5 0.199955 0.643368 0.400235
O O6 0.456804 0.628319 0.405716
O O7 0.309253 0.548057 0.322325
O O8 0.110066 0.750000 0.390097
O O9 0.067696 0.675616 0.245190
O O10 0.944381 0.660191 0.404458
O O11 0.114500 0.560730 0.200196
O O12 0.196396 0.655648 0.089126
O O13 0.164208 0.136510 0.432899
O O14 0.125047 0.033741 0.324886
O O15 0.688427 0.250000 0.994706
#
# Coordination Sequence:
#
# PCOD8251946 Si02
#       7
#     8   8   8   8   8   8   8
#     4  10  19  36  58  82 113 149 186 236 288 334
#     4  10  21  34  55  83 117 145 183 233 281 341
#     4  10  20  35  55  78 109 154 194 224 277 344
#     4  11  21  33  52  88 120 143 180 236 293 343
#     4  10  20  36  58  83 113 153 192 232 285 345
#     4  10  20  34  56  85 116 145 185 237 290 338
#     4  11  22  38  58  80 115 158 195 232 283 351
#
# _framework density 17.926331000000001
#
# number of rings (size 3 to 8) (size 9 to 14) (size 15 to 20)
#    0.000    1.714    2.857    3.000    2.000    2.857 
#    2.571    0.000    0.000    1.714    0.000    0.000 
#    0.000    0.000    0.000    0.000    0.000    0.000 
#
# Total GULP energy -694276.620695 kJ/mol
# GULP energy per Si atom -12397.796798 kJ/mol
# Density = 1.788553 g / cm^3
# Si number density = 17.926331 Si / 1000 Ang^3
#
#
#
# Elastic Constant Matrix: (Units=GPa)
#
#
# Indices 1 2 3 4 5 6 
#
# 1 112.2974 51.0744 32.9581 0.0000 0.0000 0.0000
# 2 51.0744 90.1104 39.2205 0.0000 0.0000 0.0000
# 3 32.9581 39.2205 73.3235 0.0000 0.0000 0.0000
# 4 0.0000 0.0000 0.0000 25.0836 0.0000 0.0000
# 5 0.0000 0.0000 0.0000 0.0000 23.0324 0.0000
# 6 0.0000 0.0000 0.0000 0.0000 0.0000 15.1330
#
#
#
# Elastic Compliance Matrix: (Units=1/GPa)
#
#
# Indices 1 2 3 4 5 6 
#
# 1 0.012300 -0.005951 -0.002346 0.000000 0.000000 0.000000
# 2 -0.005951 0.017344 -0.006603 0.000000 0.000000 0.000000
# 3 -0.002346 -0.006603 0.018224 0.000000 0.000000 0.000000
# 4 0.000000 0.000000 0.000000 0.039867 0.000000 0.000000
# 5 0.000000 0.000000 0.000000 0.000000 0.043417 0.000000
# 6 0.000000 0.000000 0.000000 0.000000 0.000000 0.066081
#
#
# Mechanical properties :
#
#
# Convention : Reuss Voigt Hill
#
# Bulk Modulus (GPa) = 55.33895 58.02638 56.68267
# Shear Modulus (GPa) = 21.45428 22.81500 22.13464
#
# Velocity S-wave (km/s) = 3.46324 3.57138 3.51772
# Velocity P-wave (km/s) = 6.85049 7.03178 6.94173
#
# Compressibility (1/GPa) = 0.01807046
#
# Stress axis : x y z
#
# Youngs Moduli (GPa) = 81.30256 57.65684 54.87197
#
# Poissons Ratio (x) = 0.34309 0.12871
# Poissons Ratio (y) = 0.48379 0.36230
# Poissons Ratio (z) = 0.19071 0.38068
#
# Static dielectric constant tensor:
#      x y z
#    x 3.288650 0.000000 0.000000 
#    y 0.000000 3.285710 0.000000 
#    z 0.000000 0.000000 3.181540 
# 
# 
# High freq. dielectric constant tensor:
#      x y z
#    x 1.700420 0.000000 0.000000 
#    y 0.000000 1.682520 0.000000 
#    z 0.000000 0.000000 1.673530 
# 
# From -- ./inp_files/17193.got.cif
#   From: 2010.03.12/outbox.cif.g09.slc.cpg/sg62_9_cif.got.tgz:17193.got - 2010.04.10 19:12:36.
