data_PCOD8251910
_publ_section_title
;
Structure prediction by ZEFSAII (Michael W. Deem and Ramdas Pophale) SiO2 
 PCOD8251910
Probable space group: P N M A
;
_chemical_formula_sum "Si O2"
_cell_formula_units_Z 44
_cell_length_a 11.151668
_cell_length_b 7.850290
_cell_length_c 26.822820
_cell_angle_alpha 90.000000
_cell_angle_beta 90.000000
_cell_angle_gamma 90.000000
_cell_volume 2348.172335
_symmetry_space_group_name_H-M "P N M A"
_symmetry_group_IT_number 62
_symmetry_cell_setting 'orthorhombic'
loop_
_space_group_symop_operation_xyz
x,y,z
1/2-x,-y,1/2+z
1/2+x,1/2-y,1/2-z
-x,1/2+y,-z
-x,-y,-z
1/2+x,y,1/2-z
1/2-x,1/2+y,1/2+z
x,1/2-y,z
loop_
_atom_site_type_symbol
_atom_site_label
_atom_site_fract_x
_atom_site_fract_y
_atom_site_fract_z
Si Si1 0.826523 0.561306 0.112156
Si Si2 0.364806 0.750000 0.142028
Si Si3 0.753494 0.060611 0.408813
Si Si4 0.636706 0.944158 0.504225
Si Si5 0.139536 0.750000 0.334530
Si Si6 0.953750 0.940015 0.831898
Si Si7 0.653726 0.750000 0.279560
O O1 0.884244 0.750000 0.103560
O O2 0.812713 0.466762 0.059748
O O3 0.695366 0.582602 0.137959
O O4 0.910246 0.455215 0.149394
O O5 0.348855 0.581281 0.108280
O O6 0.497433 0.750000 0.163807
O O7 0.276087 0.750000 0.189023
O O8 0.805636 0.250000 0.398032
O O9 0.629962 0.029278 0.379626
O O10 0.722093 0.049567 0.467202
O O11 0.646868 0.750000 0.487769
O O12 0.500000 0.000000 0.500000
O O13 0.187023 0.750000 0.278108
O O14 0.935241 0.750000 0.809395
O O15 0.924257 0.080610 0.790306
#
# Coordination Sequence:
#
# PCOD8251910 Si02
#       7
#     8   4   8   8   4   8   4
#     4  10  21  36  57  89 130 156 195 254 308 364
#     4  10  22  42  64  86 124 164 216 251 307 378
#     4  10  20  36  60  92 121 160 208 254 302 373
#     4  12  21  32  58  95 129 163 202 252 318 368
#     4  10  25  42  65  86 124 169 214 256 315 366
#     4  10  19  35  61  95 125 151 196 261 317 367
#     4  10  21  40  69  88 116 165 208 259 322 366
#
# _framework density 18.737977000000001
#
# number of rings (size 3 to 8) (size 9 to 14) (size 15 to 20)
#    0.545    1.091    3.636    2.182    2.545    0.000 
#    0.000    5.455    0.000    0.000    0.000    0.000 
#    0.000    0.000    0.000    0.000    0.000    0.000 
#
# Total GULP energy -545549.885114 kJ/mol
# GULP energy per Si atom -12398.861025 kJ/mol
# Density = 1.869533 g / cm^3
# Si number density = 18.737977 Si / 1000 Ang^3
#
#
#
# Elastic Constant Matrix: (Units=GPa)
#
#
# Indices 1 2 3 4 5 6 
#
# 1 82.7698 26.5757 37.1692 0.0000 0.0000 0.0000
# 2 26.5757 126.6211 27.8511 0.0000 0.0000 0.0000
# 3 37.1692 27.8511 107.7945 0.0000 0.0000 0.0000
# 4 0.0000 0.0000 0.0000 23.1969 0.0000 0.0000
# 5 0.0000 0.0000 0.0000 0.0000 23.7139 0.0000
# 6 0.0000 0.0000 0.0000 0.0000 0.0000 19.8478
#
#
#
# Elastic Compliance Matrix: (Units=1/GPa)
#
#
# Indices 1 2 3 4 5 6 
#
# 1 0.014806 -0.002104 -0.004562 0.000000 0.000000 0.000000
# 2 -0.002104 0.008672 -0.001515 0.000000 0.000000 0.000000
# 3 -0.004562 -0.001515 0.011241 0.000000 0.000000 0.000000
# 4 0.000000 0.000000 0.000000 0.043109 0.000000 0.000000
# 5 0.000000 0.000000 0.000000 0.000000 0.042169 0.000000
# 6 0.000000 0.000000 0.000000 0.000000 0.000000 0.050383
#
#
# Mechanical properties :
#
#
# Convention : Reuss Voigt Hill
#
# Bulk Modulus (GPa) = 54.47309 55.59749 55.03529
# Shear Modulus (GPa) = 25.92518 28.39100 27.15809
#
# Velocity S-wave (km/s) = 3.72366 3.89673 3.81118
# Velocity P-wave (km/s) = 6.90084 7.06975 6.98581
#
# Compressibility (1/GPa) = 0.01835769
#
# Stress axis : x y z
#
# Youngs Moduli (GPa) = 67.54125 115.30729 88.95760
#
# Poissons Ratio (x) = 0.24262 0.40579
# Poissons Ratio (y) = 0.14212 0.13479
# Poissons Ratio (z) = 0.30810 0.17471
#
# Static dielectric constant tensor:
#      x y z
#    x 3.019550 0.000000 0.000000 
#    y 0.000000 3.600810 0.000000 
#    z 0.000000 0.000000 3.310730 
# 
# 
# High freq. dielectric constant tensor:
#      x y z
#    x 1.691670 0.000000 0.000000 
#    y 0.000000 1.736850 0.000000 
#    z 0.000000 0.000000 1.720980 
# 
# From -- ./inp_files/29208.got.cif
#   From: 2010.03.12/outbox.cif.g09.slc.cpg/sg62_15_cif.got.tgz:29208.got - 2010.04.10 19:12:36.
