data_PCOD8251548
_publ_section_title
;
Structure prediction by ZEFSAII (Michael W. Deem and Ramdas Pophale) SiO2 
 PCOD8251548
Probable space group: P N M A
;
_chemical_formula_sum "Si O2"
_cell_formula_units_Z 48
_cell_length_a 13.949648
_cell_length_b 18.598660
_cell_length_c 9.469688
_cell_angle_alpha 90.000000
_cell_angle_beta 90.000000
_cell_angle_gamma 90.000000
_cell_volume 2456.860933
_symmetry_space_group_name_H-M "P N M A"
_symmetry_group_IT_number 62
_symmetry_cell_setting 'orthorhombic'
loop_
_space_group_symop_operation_xyz
x,y,z
1/2-x,-y,1/2+z
1/2+x,1/2-y,1/2-z
-x,1/2+y,-z
-x,-y,-z
1/2+x,y,1/2-z
1/2-x,1/2+y,1/2+z
x,1/2-y,z
loop_
_atom_site_type_symbol
_atom_site_label
_atom_site_fract_x
_atom_site_fract_y
_atom_site_fract_z
Si Si1 0.854367 0.589103 0.049317
Si Si2 0.348208 0.570692 0.773102
Si Si3 0.650391 0.902541 0.180989
Si Si4 0.359598 0.431945 0.351896
Si Si5 0.031010 0.927286 0.572235
Si Si6 0.045635 0.665953 0.069238
O O1 0.760049 0.611214 0.136362
O O2 0.879184 0.505391 0.065368
O O3 0.941298 0.635902 0.112374
O O4 0.841956 0.603947 0.882935
O O5 0.364095 0.484722 0.769189
O O6 0.252096 0.589327 0.858561
O O7 0.436715 0.608421 0.856650
O O8 0.623707 0.851235 0.310483
O O9 0.581173 0.880149 0.049995
O O10 0.388951 0.443174 0.189816
O O11 0.421935 0.369539 0.422118
O O12 0.000000 0.000000 0.500000
O O13 0.039082 0.750000 0.044209
#
# Coordination Sequence:
#
# PCOD8251548 Si02
#       6
#     8   8   8   8   8   8
#     4  11  20  38  67  92 120 161 210 260 312 367
#     4  10  19  34  64  98 120 153 204 260 316 361
#     4  10  22  37  60  95 125 156 201 267 311 367
#     4  11  21  37  64  94 123 157 210 263 308 367
#     4  10  19  33  59  94 124 151 198 259 317 359
#     4  12  26  42  60  88 129 174 207 251 318 379
#
# _framework density 19.537126000000001
#
# number of rings (size 3 to 8) (size 9 to 14) (size 15 to 20)
#    0.000    1.333    5.000    2.500    0.000    2.000 
#    0.000    1.667    0.000    0.000    0.000    0.000 
#    0.000    0.000    0.000    0.000    0.000    0.000 
#
# Total GULP energy -595233.508072 kJ/mol
# GULP energy per Si atom -12400.698085 kJ/mol
# Density = 1.949266 g / cm^3
# Si number density = 19.537126 Si / 1000 Ang^3
#
#
#
# Elastic Constant Matrix: (Units=GPa)
#
#
# Indices 1 2 3 4 5 6 
#
# 1 129.6680 48.3144 34.8650 0.0000 0.0000 0.0000
# 2 48.3144 61.5591 22.5073 0.0000 0.0000 0.0000
# 3 34.8650 22.5073 99.7469 0.0000 0.0000 0.0000
# 4 0.0000 0.0000 0.0000 16.6304 0.0000 0.0000
# 5 0.0000 0.0000 0.0000 0.0000 35.4276 0.0000
# 6 0.0000 0.0000 0.0000 0.0000 0.0000 11.9019
#
#
#
# Elastic Compliance Matrix: (Units=1/GPa)
#
#
# Indices 1 2 3 4 5 6 
#
# 1 0.011297 -0.008090 -0.002123 0.000000 0.000000 0.000000
# 2 -0.008090 0.023499 -0.002475 0.000000 0.000000 0.000000
# 3 -0.002123 -0.002475 0.011326 0.000000 0.000000 0.000000
# 4 0.000000 0.000000 0.000000 0.060131 0.000000 0.000000
# 5 0.000000 0.000000 0.000000 0.000000 0.028227 0.000000
# 6 0.000000 0.000000 0.000000 0.000000 0.000000 0.084020
#
#
# Mechanical properties :
#
#
# Convention : Reuss Voigt Hill
#
# Bulk Modulus (GPa) = 48.20236 55.81638 52.00937
# Shear Modulus (GPa) = 19.93686 25.14447 22.54067
#
# Velocity S-wave (km/s) = 3.19793 3.59138 3.40035
# Velocity P-wave (km/s) = 6.19366 6.76970 6.48807
#
# Compressibility (1/GPa) = 0.02074587
#
# Stress axis : x y z
#
# Youngs Moduli (GPa) = 88.51601 42.55500 88.29318
#
# Poissons Ratio (x) = 0.34429 0.18747
# Poissons Ratio (y) = 0.71613 0.21849
# Poissons Ratio (z) = 0.18794 0.10530
#
# Static dielectric constant tensor:
#      x y z
#    x 4.003430 0.000000 0.000000 
#    y 0.000000 2.980130 0.000000 
#    z 0.000000 0.000000 3.799620 
# 
# 
# High freq. dielectric constant tensor:
#      x y z
#    x 1.785990 0.000000 0.000000 
#    y 0.000000 1.691170 0.000000 
#    z 0.000000 0.000000 1.776170 
# 
# From -- ./inp_files/6466.got.cif
#   From: 2010.03.12/outbox.cif.g09.slc.cpg/sg62_4_cif.got.tgz:6466.got - 2010.04.10 19:12:36.
