data_PCOD8251403
_publ_section_title
;
Structure prediction by ZEFSAII (Michael W. Deem and Ramdas Pophale) SiO2 
 PCOD8251403
Probable space group: P N M A
;
_chemical_formula_sum "Si O2"
_cell_formula_units_Z 48
_cell_length_a 17.099924
_cell_length_b 18.180238
_cell_length_c 8.518077
_cell_angle_alpha 90.000000
_cell_angle_beta 90.000000
_cell_angle_gamma 90.000000
_cell_volume 2648.105639
_symmetry_space_group_name_H-M "P N M A"
_symmetry_group_IT_number 62
_symmetry_cell_setting 'orthorhombic'
loop_
_space_group_symop_operation_xyz
x,y,z
1/2-x,-y,1/2+z
1/2+x,1/2-y,1/2-z
-x,1/2+y,-z
-x,-y,-z
1/2+x,y,1/2-z
1/2-x,1/2+y,1/2+z
x,1/2-y,z
loop_
_atom_site_type_symbol
_atom_site_label
_atom_site_fract_x
_atom_site_fract_y
_atom_site_fract_z
Si Si1 0.631043 0.334486 0.885726
Si Si2 0.816825 0.534300 0.799085
Si Si3 0.278129 0.098289 0.482251
Si Si4 0.593946 0.416306 0.568854
Si Si5 0.941409 0.412172 0.105591
Si Si6 0.963499 0.937983 0.606284
O O1 0.607918 0.250000 0.866937
O O2 0.623932 0.373800 0.719221
O O3 0.718974 0.339942 0.954213
O O4 0.571709 0.371999 0.005865
O O5 0.752021 0.563606 0.680587
O O6 0.898107 0.518936 0.707531
O O7 0.783207 0.460909 0.877674
O O8 0.839460 0.594228 0.934122
O O9 0.363047 0.133535 0.439914
O O10 0.584695 0.503156 0.593111
O O11 0.509210 0.386520 0.514208
O O12 0.970947 0.400298 0.283283
O O13 0.000000 0.000000 0.500000
#
# Coordination Sequence:
#
# PCOD8251403 Si02
#       6
#     8   8   8   8   8   8
#     4  11  23  38  54  79 119 158 187 229 295 357
#     4   9  19  30  55  86 110 140 179 234 281 331
#     4  10  19  33  53  83 115 144 181 229 282 335
#     4   9  17  34  54  82 111 141 190 232 284 335
#     4   9  17  32  58  86 104 135 189 246 278 316
#     4  10  19  34  59  87 110 145 189 239 280 338
#
# _framework density 18.126163999999999
#
# number of rings (size 3 to 8) (size 9 to 14) (size 15 to 20)
#    0.000    2.333    1.667    3.000    2.333    0.000 
#    0.000    9.167    0.000    0.000    0.000    0.000 
#    0.000    0.000    0.000    0.000    0.000    0.000 
#
# Total GULP energy -594888.738308 kJ/mol
# GULP energy per Si atom -12393.515381 kJ/mol
# Density = 1.808491 g / cm^3
# Si number density = 18.126164 Si / 1000 Ang^3
#
#
#
# Elastic Constant Matrix: (Units=GPa)
#
#
# Indices 1 2 3 4 5 6 
#
# 1 90.2387 12.4140 37.5168 0.0000 0.0000 0.0000
# 2 12.4140 45.1014 21.8396 0.0000 0.0000 0.0000
# 3 37.5168 21.8396 116.9126 0.0000 0.0000 0.0000
# 4 0.0000 0.0000 0.0000 10.1008 0.0000 0.0000
# 5 0.0000 0.0000 0.0000 0.0000 33.2806 0.0000
# 6 0.0000 0.0000 0.0000 0.0000 0.0000 14.5958
#
#
#
# Elastic Compliance Matrix: (Units=1/GPa)
#
#
# Indices 1 2 3 4 5 6 
#
# 1 0.012905 -0.001701 -0.003824 0.000000 0.000000 0.000000
# 2 -0.001701 0.024601 -0.004050 0.000000 0.000000 0.000000
# 3 -0.003824 -0.004050 0.010537 0.000000 0.000000 0.000000
# 4 0.000000 0.000000 0.000000 0.099002 0.000000 0.000000
# 5 0.000000 0.000000 0.000000 0.000000 0.030048 0.000000
# 6 0.000000 0.000000 0.000000 0.000000 0.000000 0.068513
#
#
# Mechanical properties :
#
#
# Convention : Reuss Voigt Hill
#
# Bulk Modulus (GPa) = 34.60753 43.97707 39.29230
# Shear Modulus (GPa) = 18.22248 23.62760 20.92504
#
# Velocity S-wave (km/s) = 3.17411 3.61433 3.40135
# Velocity P-wave (km/s) = 5.70678 6.46004 6.09506
#
# Compressibility (1/GPa) = 0.02889544
#
# Stress axis : x y z
#
# Youngs Moduli (GPa) = 77.48735 40.64805 94.90454
#
# Poissons Ratio (x) = 0.06913 0.36288
# Poissons Ratio (y) = 0.13178 0.38435
# Poissons Ratio (z) = 0.29628 0.16462
#
# Static dielectric constant tensor:
#      x y z
#    x 3.835420 0.000000 0.000000 
#    y 0.000000 3.606220 0.000000 
#    z 0.000000 0.000000 3.824490 
# 
# 
# High freq. dielectric constant tensor:
#      x y z
#    x 1.720060 0.000000 0.000000 
#    y 0.000000 1.634640 0.000000 
#    z 0.000000 0.000000 1.725660 
# 
# From -- ./inp_files/7796.got.cif
#   From: 2010.03.12/outbox.cif.g09.slc.cpg/sg62_4_cif.got.tgz:7796.got - 2010.04.10 19:12:36.
