data_PCOD8251141
_publ_section_title
;
Structure prediction by ZEFSAII (Michael W. Deem and Ramdas Pophale) SiO2 
 PCOD8251141
Probable space group: P N M A
;
_chemical_formula_sum "Si O2"
_cell_formula_units_Z 56
_cell_length_a 18.662082
_cell_length_b 9.286317
_cell_length_c 18.095543
_cell_angle_alpha 90.000000
_cell_angle_beta 90.000000
_cell_angle_gamma 90.000000
_cell_volume 3135.993962
_symmetry_space_group_name_H-M "P N M A"
_symmetry_group_IT_number 62
_symmetry_cell_setting 'orthorhombic'
loop_
_space_group_symop_operation_xyz
x,y,z
1/2-x,-y,1/2+z
1/2+x,1/2-y,1/2-z
-x,1/2+y,-z
-x,-y,-z
1/2+x,y,1/2-z
1/2-x,1/2+y,1/2+z
x,1/2-y,z
loop_
_atom_site_type_symbol
_atom_site_label
_atom_site_fract_x
_atom_site_fract_y
_atom_site_fract_z
Si Si1 0.648820 0.081127 0.548406
Si Si2 0.737076 0.591420 0.342014
Si Si3 0.392199 0.583488 0.618106
Si Si4 0.050088 0.921551 0.835527
Si Si5 0.391593 0.580139 0.197526
Si Si6 0.433284 0.581721 0.032804
Si Si7 0.280275 0.910072 0.988198
O O1 0.647105 0.250000 0.566768
O O2 0.616711 0.045581 0.468058
O O3 0.602934 0.994122 0.606735
O O4 0.730690 0.025081 0.554247
O O5 0.714488 0.750000 0.314954
O O6 0.668312 0.490354 0.330909
O O7 0.806956 0.539344 0.296363
O O8 0.759539 0.596725 0.426675
O O9 0.381519 0.750000 0.632372
O O10 0.469908 0.530873 0.643374
O O11 0.059826 0.750000 0.837674
O O12 0.065361 0.982742 0.754738
O O13 0.402059 0.750000 0.213349
O O14 0.422200 0.537018 0.117731
O O15 0.448019 0.750000 0.027098
O O16 0.500000 0.500000 0.000000
O O17 0.363182 0.540855 0.984014
O O18 0.270079 0.750000 0.953670
#
# Coordination Sequence:
#
# PCOD8251141 Si02
#       7
#     8   8   8   8   8   8   8
#     4  10  19  32  51  74 100 133 170 210 251 297
#     4   8  15  30  53  73  91 121 161 201 243 291
#     4   9  19  33  50  75 103 130 168 210 248 294
#     4  11  22  34  49  73 105 138 168 205 252 302
#     4   9  19  36  53  73 101 133 169 207 250 303
#     4   9  18  33  55  79 103 131 167 213 260 304
#     4   8  15  30  50  73  99 126 158 200 247 295
#
# _framework density 17.857177
#
# number of rings (size 3 to 8) (size 9 to 14) (size 15 to 20)
#    0.000    2.857    0.000    3.000    0.000    3.429 
#    0.000    4.286    0.000    3.429    0.000    0.000 
#    0.000    0.000    0.000    0.000    0.000    0.000 
#
# Total GULP energy -694201.014163 kJ/mol
# GULP energy per Si atom -12396.446681 kJ/mol
# Density = 1.781653 g / cm^3
# Si number density = 17.857177 Si / 1000 Ang^3
#
#
#
# Elastic Constant Matrix: (Units=GPa)
#
#
# Indices 1 2 3 4 5 6 
#
# 1 160.5593 71.4849 60.6075 0.0000 0.0000 0.0000
# 2 71.4849 78.2536 45.0890 0.0000 0.0000 0.0000
# 3 60.6075 45.0890 60.8877 0.0000 0.0000 0.0000
# 4 0.0000 0.0000 0.0000 28.4735 0.0000 0.0000
# 5 0.0000 0.0000 0.0000 0.0000 14.7822 0.0000
# 6 0.0000 0.0000 0.0000 0.0000 0.0000 37.6349
#
#
#
# Elastic Compliance Matrix: (Units=1/GPa)
#
#
# Indices 1 2 3 4 5 6 
#
# 1 0.011841 -0.007021 -0.006587 0.000000 0.000000 0.000000
# 2 -0.007021 0.026453 -0.012600 0.000000 0.000000 0.000000
# 3 -0.006587 -0.012600 0.032311 0.000000 0.000000 0.000000
# 4 0.000000 0.000000 0.000000 0.035120 0.000000 0.000000
# 5 0.000000 0.000000 0.000000 0.000000 0.067649 0.000000
# 6 0.000000 0.000000 0.000000 0.000000 0.000000 0.026571
#
#
# Mechanical properties :
#
#
# Convention : Reuss Voigt Hill
#
# Bulk Modulus (GPa) = 54.98092 72.67371 63.82732
# Shear Modulus (GPa) = 19.34806 24.34609 21.84707
#
# Velocity S-wave (km/s) = 3.29521 3.69640 3.50156
# Velocity P-wave (km/s) = 6.73305 7.68137 7.22279
#
# Compressibility (1/GPa) = 0.01818813
#
# Stress axis : x y z
#
# Youngs Moduli (GPa) = 84.45559 37.80282 30.94929
#
# Poissons Ratio (x) = 0.26542 0.20385
# Poissons Ratio (y) = 0.59298 0.38997
# Poissons Ratio (z) = 0.55628 0.47633
#
# Static dielectric constant tensor:
#      x y z
#    x 3.694210 0.000000 0.000000 
#    y 0.000000 3.450810 0.000000 
#    z 0.000000 0.000000 3.070460 
# 
# 
# High freq. dielectric constant tensor:
#      x y z
#    x 1.701760 0.000000 0.000000 
#    y 0.000000 1.691130 0.000000 
#    z 0.000000 0.000000 1.660790 
# 
# From -- ./inp_files/27563.got.cif
#   From: 2010.03.12/outbox.cif.g09.slc.cpg/sg62_14_cif.got.tgz:27563.got - 2010.04.10 19:12:36.
