data_PCOD8251768
_publ_section_title
;
Structure prediction by ZEFSAII (Michael W. Deem and Ramdas Pophale) SiO2 
 PCOD8251768
Probable space group: P N M A
;
_chemical_formula_sum "Si O2"
_cell_formula_units_Z 64
_cell_length_a 24.860619
_cell_length_b 9.346110
_cell_length_c 14.879018
_cell_angle_alpha 90.000000
_cell_angle_beta 90.000000
_cell_angle_gamma 90.000000
_cell_volume 3457.141020
_symmetry_space_group_name_H-M "P N M A"
_symmetry_group_IT_number 62
_symmetry_cell_setting 'orthorhombic'
loop_
_space_group_symop_operation_xyz
x,y,z
1/2-x,-y,1/2+z
1/2+x,1/2-y,1/2-z
-x,1/2+y,-z
-x,-y,-z
1/2+x,y,1/2-z
1/2-x,1/2+y,1/2+z
x,1/2-y,z
loop_
_atom_site_type_symbol
_atom_site_label
_atom_site_fract_x
_atom_site_fract_y
_atom_site_fract_z
Si Si1 0.562741 0.579313 0.193141
Si Si2 0.826783 0.585154 0.016570
Si Si3 0.758388 0.913265 0.740489
Si Si4 0.605606 0.417087 0.022383
Si Si5 0.226055 0.410889 0.466201
Si Si6 0.131324 0.084748 0.168890
Si Si7 0.154815 0.419688 0.783073
Si Si8 0.557983 0.080930 0.836934
O O1 0.568626 0.750000 0.191327
O O2 0.592424 0.514034 0.107507
O O3 0.588180 0.517885 0.284429
O O4 0.500805 0.528576 0.192272
O O5 0.811772 0.750000 0.023460
O O6 0.770959 0.510133 0.989191
O O7 0.871313 0.558909 0.938913
O O8 0.849512 0.530581 0.112479
O O9 0.740852 0.750000 0.756969
O O10 0.778290 0.939290 0.639667
O O11 0.808315 0.956862 0.802528
O O12 0.707539 0.013079 0.763211
O O13 0.596149 0.250000 0.046845
O O14 0.667362 0.442343 0.992735
O O15 0.569492 0.469951 0.938819
O O16 0.244111 0.250000 0.486810
O O17 0.118994 0.250000 0.194188
O O18 0.159390 0.250000 0.773804
O O19 0.102052 0.480558 0.732715
O O20 0.561729 0.250000 0.834721
#
# Coordination Sequence:
#
# PCOD8251768 Si02
#       8
#     8   8   8   8   8   8   8   8
#     4  11  22  36  54  79 106 137 183 233 266 305
#     4   9  19  33  53  78 107 141 176 218 262 310
#     4   9  17  31  49  72 103 137 169 210 262 314
#     4  10  19  35  55  76 107 147 177 208 269 334
#     4   9  17  30  50  75 105 139 169 205 260 319
#     4  10  20  36  54  75 108 146 177 213 270 323
#     4   9  18  35  55  77 105 137 176 220 265 314
#     4   9  20  36  55  77 106 142 180 222 271 322
#
# _framework density 18.512405999999999
#
# number of rings (size 3 to 8) (size 9 to 14) (size 15 to 20)
#    0.000    2.500    1.250    0.750    1.750    1.500 
#    0.000    3.125    0.000    0.000    0.000    0.000 
#    0.000    0.000    0.000    0.000    0.000    0.000 
#
# Total GULP energy -793544.336055 kJ/mol
# GULP energy per Si atom -12399.130251 kJ/mol
# Density = 1.847027 g / cm^3
# Si number density = 18.512406 Si / 1000 Ang^3
#
#
#
# Elastic Constant Matrix: (Units=GPa)
#
#
# Indices 1 2 3 4 5 6 
#
# 1 87.8050 33.8317 25.2676 0.0000 0.0000 0.0000
# 2 33.8317 48.3738 18.2733 0.0000 0.0000 0.0000
# 3 25.2676 18.2733 47.0519 0.0000 0.0000 0.0000
# 4 0.0000 0.0000 0.0000 17.8355 0.0000 0.0000
# 5 0.0000 0.0000 0.0000 0.0000 28.5885 0.0000
# 6 0.0000 0.0000 0.0000 0.0000 0.0000 26.6481
#
#
#
# Elastic Compliance Matrix: (Units=1/GPa)
#
#
# Indices 1 2 3 4 5 6 
#
# 1 0.016595 -0.009656 -0.005162 0.000000 0.000000 0.000000
# 2 -0.009656 0.029845 -0.006405 0.000000 0.000000 0.000000
# 3 -0.005162 -0.006405 0.026513 0.000000 0.000000 0.000000
# 4 0.000000 0.000000 0.000000 0.056068 0.000000 0.000000
# 5 0.000000 0.000000 0.000000 0.000000 0.034979 0.000000
# 6 0.000000 0.000000 0.000000 0.000000 0.000000 0.037526
#
#
# Mechanical properties :
#
#
# Convention : Reuss Voigt Hill
#
# Bulk Modulus (GPa) = 32.77989 37.55287 35.16638
# Shear Modulus (GPa) = 19.67411 21.67162 20.67286
#
# Velocity S-wave (km/s) = 3.26353 3.42519 3.34534
# Velocity P-wave (km/s) = 5.65210 5.99766 5.82744
#
# Compressibility (1/GPa) = 0.03050651
#
# Stress axis : x y z
#
# Youngs Moduli (GPa) = 60.25964 33.50598 37.71803
#
# Poissons Ratio (x) = 0.32355 0.19468
# Poissons Ratio (y) = 0.58189 0.24159
# Poissons Ratio (z) = 0.31103 0.21461
#
# Static dielectric constant tensor:
#      x y z
#    x 3.494680 0.000000 0.000000 
#    y 0.000000 3.254310 0.000000 
#    z 0.000000 0.000000 3.513150 
# 
# 
# High freq. dielectric constant tensor:
#      x y z
#    x 1.708010 0.000000 0.000000 
#    y 0.000000 1.700280 0.000000 
#    z 0.000000 0.000000 1.721870 
# 
# From -- ./inp_files/20984.got.cif
#   From: 2010.03.12/outbox.cif.g09.slc.cpg/sg62_11_cif.got.tgz:20984.got - 2010.04.10 19:12:36.
