data_PCOD8251721
_publ_section_title
;
Structure prediction by ZEFSAII (Michael W. Deem and Ramdas Pophale) SiO2 
 PCOD8251721
Probable space group: P N M A
;
_chemical_formula_sum "Si O2"
_cell_formula_units_Z 64
_cell_length_a 24.835856
_cell_length_b 8.819698
_cell_length_c 14.390288
_cell_angle_alpha 90.000000
_cell_angle_beta 90.000000
_cell_angle_gamma 90.000000
_cell_volume 3152.117030
_symmetry_space_group_name_H-M "P N M A"
_symmetry_group_IT_number 62
_symmetry_cell_setting 'orthorhombic'
loop_
_space_group_symop_operation_xyz
x,y,z
1/2-x,-y,1/2+z
1/2+x,1/2-y,1/2-z
-x,1/2+y,-z
-x,-y,-z
1/2+x,y,1/2-z
1/2-x,1/2+y,1/2+z
x,1/2-y,z
loop_
_atom_site_type_symbol
_atom_site_label
_atom_site_fract_x
_atom_site_fract_y
_atom_site_fract_z
Si Si1 0.140171 0.574577 0.073540
Si Si2 0.179756 0.075666 0.242240
Si Si3 0.235327 0.420379 0.986442
Si Si4 0.910206 0.930314 0.249109
Si Si5 0.950237 0.571729 0.447107
Si Si6 0.789050 0.577634 0.228911
Si Si7 0.658627 0.424538 0.045305
Si Si8 0.948853 0.928761 0.049615
O O1 0.124328 0.750000 0.063536
O O2 0.137720 0.521872 0.180681
O O3 0.201121 0.541628 0.043670
O O4 0.102677 0.471424 0.010263
O O5 0.176295 0.250000 0.212848
O O6 0.158632 0.047986 0.345197
O O7 0.241722 0.023543 0.226772
O O8 0.227676 0.250000 0.025084
O O9 0.216322 0.429378 0.881150
O O10 0.296804 0.469443 0.001231
O O11 0.907113 0.750000 0.244899
O O12 0.943312 0.985784 0.340146
O O13 0.848156 0.988645 0.255200
O O14 0.940267 0.989766 0.155567
O O15 0.958588 0.750000 0.447447
O O16 0.898005 0.522954 0.504725
O O17 0.000000 0.500000 0.500000
O O18 0.782142 0.750000 0.264789
O O19 0.671068 0.250000 0.020790
O O20 0.956452 0.750000 0.050809
O O21 0.000000 0.000000 0.000000
#
# Coordination Sequence:
#
# PCOD8251721 Si02
#       8
#     8   8   8   8   8   8   8   8
#     4  12  24  38  58  87 122 165 208 249 302 366
#     4  10  21  36  55  87 127 164 200 250 304 360
#     4  10  19  34  58  87 122 157 194 246 302 359
#     4   9  19  38  63  87 118 158 199 243 301 367
#     4  10  22  41  63  87 116 157 203 249 298 354
#     4   9  17  34  58  86 118 159 200 241 297 366
#     4   9  20  38  59  86 120 158 200 247 304 364
#     4  11  23  43  65  91 123 161 206 256 308 368
#
# _framework density 20.303815
#
# number of rings (size 3 to 8) (size 9 to 14) (size 15 to 20)
#    0.000    2.000    1.250    2.250    1.750    2.500 
#    0.000    4.375    0.000    0.000    0.000    0.000 
#    0.000    0.000    0.000    0.000    0.000    0.000 
#
# Total GULP energy -793516.461252 kJ/mol
# GULP energy per Si atom -12398.694707 kJ/mol
# Density = 2.025760 g / cm^3
# Si number density = 20.303815 Si / 1000 Ang^3
#
#
#
# Elastic Constant Matrix: (Units=GPa)
#
#
# Indices 1 2 3 4 5 6 
#
# 1 121.5744 30.3042 74.9460 0.0000 0.0000 0.0000
# 2 30.3042 58.9013 26.2399 0.0000 0.0000 0.0000
# 3 74.9460 26.2399 118.1327 0.0000 0.0000 0.0000
# 4 0.0000 0.0000 0.0000 26.3857 0.0000 0.0000
# 5 0.0000 0.0000 0.0000 0.0000 31.4332 0.0000
# 6 0.0000 0.0000 0.0000 0.0000 0.0000 37.2069
#
#
#
# Elastic Compliance Matrix: (Units=1/GPa)
#
#
# Indices 1 2 3 4 5 6 
#
# 1 0.014182 -0.003649 -0.008187 0.000000 0.000000 0.000000
# 2 -0.003649 0.019781 -0.002079 0.000000 0.000000 0.000000
# 3 -0.008187 -0.002079 0.014121 0.000000 0.000000 0.000000
# 4 0.000000 0.000000 0.000000 0.037899 0.000000 0.000000
# 5 0.000000 0.000000 0.000000 0.000000 0.031814 0.000000
# 6 0.000000 0.000000 0.000000 0.000000 0.000000 0.026877
#
#
# Mechanical properties :
#
#
# Convention : Reuss Voigt Hill
#
# Bulk Modulus (GPa) = 49.37229 62.39872 55.88550
# Shear Modulus (GPa) = 27.89341 30.14637 29.01989
#
# Velocity S-wave (km/s) = 3.71050 3.85744 3.78469
# Velocity P-wave (km/s) = 6.53656 7.11611 6.83249
#
# Compressibility (1/GPa) = 0.02025428
#
# Stress axis : x y z
#
# Youngs Moduli (GPa) = 70.51270 50.55327 70.81868
#
# Poissons Ratio (x) = 0.18449 0.57977
# Poissons Ratio (y) = 0.25733 0.14720
# Poissons Ratio (z) = 0.57726 0.10508
#
# Static dielectric constant tensor:
#      x y z
#    x 3.944310 0.000000 0.000000 
#    y 0.000000 3.572170 0.000000 
#    z 0.000000 0.000000 4.064350 
# 
# 
# High freq. dielectric constant tensor:
#      x y z
#    x 1.786800 0.000000 0.000000 
#    y 0.000000 1.775640 0.000000 
#    z 0.000000 0.000000 1.808560 
# 
# From -- ./inp_files/20803.got.cif
#   From: 2010.03.12/outbox.cif.g09.slc.cpg/sg62_11_cif.got.tgz:20803.got - 2010.04.10 19:12:36.
