data_PCOD8251858
_publ_section_title
;
Structure prediction by ZEFSAII (Michael W. Deem and Ramdas Pophale) SiO2 
 PCOD8251858
Probable space group: P N M A
;
_chemical_formula_sum "Si O2"
_cell_formula_units_Z 64
_cell_length_a 15.192725
_cell_length_b 8.717201
_cell_length_c 24.841188
_cell_angle_alpha 90.000000
_cell_angle_beta 90.000000
_cell_angle_gamma 90.000000
_cell_volume 3289.918189
_symmetry_space_group_name_H-M "P N M A"
_symmetry_group_IT_number 62
_symmetry_cell_setting 'orthorhombic'
loop_
_space_group_symop_operation_xyz
x,y,z
1/2-x,-y,1/2+z
1/2+x,1/2-y,1/2-z
-x,1/2+y,-z
-x,-y,-z
1/2+x,y,1/2-z
1/2-x,1/2+y,1/2+z
x,1/2-y,z
loop_
_atom_site_type_symbol
_atom_site_label
_atom_site_fract_x
_atom_site_fract_y
_atom_site_fract_z
Si Si1 0.698847 0.433481 0.142965
Si Si2 0.336330 0.068110 0.444276
Si Si3 0.665792 0.567354 0.861401
Si Si4 0.487079 0.929486 0.610726
Si Si5 0.235402 0.424073 0.240700
Si Si6 0.812765 0.069026 0.934433
Si Si7 0.013219 0.570677 0.339816
Si Si8 0.534087 0.077750 0.270335
O O1 0.692348 0.250000 0.145248
O O2 0.759520 0.495153 0.094691
O O3 0.739246 0.498239 0.199519
O O4 0.600923 0.497462 0.135166
O O5 0.336213 0.250000 0.440933
O O6 0.431636 0.008988 0.424762
O O7 0.319132 0.008767 0.504260
O O8 0.665086 0.750000 0.861319
O O9 0.700754 0.499479 0.803786
O O10 0.728607 0.512216 0.909054
O O11 0.568849 0.501526 0.871784
O O12 0.466922 0.750000 0.600979
O O13 0.513800 0.957980 0.673213
O O14 0.401887 0.027002 0.596129
O O15 0.266140 0.250000 0.246708
O O16 0.137335 0.437332 0.217489
O O17 0.798894 0.250000 0.931982
O O18 0.015119 0.750000 0.349878
O O19 0.003166 0.537305 0.276055
O O20 0.511653 0.250000 0.250206
#
# Coordination Sequence:
#
# PCOD8251858 Si02
#       8
#     8   8   8   8   8   8   8   8
#     4   9  18  38  61  82 108 147 195 242 281 332
#     4   9  20  36  60  86 111 148 196 242 285 332
#     4  11  21  37  60  85 109 151 202 237 274 337
#     4  10  19  35  59  85 113 155 200 234 269 332
#     4   8  15  29  54  82 104 134 185 236 270 311
#     4  11  22  37  55  85 123 152 183 237 296 341
#     4  11  23  37  54  84 121 151 180 234 303 352
#     4   9  17  33  56  82 111 148 192 229 264 327
#
# _framework density 19.453372999999999
#
# number of rings (size 3 to 8) (size 9 to 14) (size 15 to 20)
#    0.000    2.250    1.250    3.000    1.750    0.500 
#    0.000    3.750    0.000    0.000    0.000    0.000 
#    0.000    0.000    0.000    0.000    0.000    0.000 
#
# Total GULP energy -793491.105164 kJ/mol
# GULP energy per Si atom -12398.298518 kJ/mol
# Density = 1.940910 g / cm^3
# Si number density = 19.453373 Si / 1000 Ang^3
#
#
#
# Elastic Constant Matrix: (Units=GPa)
#
#
# Indices 1 2 3 4 5 6 
#
# 1 91.6482 22.1843 41.0897 0.0000 0.0000 0.0000
# 2 22.1843 55.5337 20.0545 0.0000 0.0000 0.0000
# 3 41.0897 20.0545 88.4671 0.0000 0.0000 0.0000
# 4 0.0000 0.0000 0.0000 22.7376 0.0000 0.0000
# 5 0.0000 0.0000 0.0000 0.0000 29.3505 0.0000
# 6 0.0000 0.0000 0.0000 0.0000 0.0000 20.3467
#
#
#
# Elastic Compliance Matrix: (Units=1/GPa)
#
#
# Indices 1 2 3 4 5 6 
#
# 1 0.014427 -0.003641 -0.005875 0.000000 0.000000 0.000000
# 2 -0.003641 0.020532 -0.002963 0.000000 0.000000 0.000000
# 3 -0.005875 -0.002963 0.014704 0.000000 0.000000 0.000000
# 4 0.000000 0.000000 0.000000 0.043980 0.000000 0.000000
# 5 0.000000 0.000000 0.000000 0.000000 0.034071 0.000000
# 6 0.000000 0.000000 0.000000 0.000000 0.000000 0.049148
#
#
# Mechanical properties :
#
#
# Convention : Reuss Voigt Hill
#
# Bulk Modulus (GPa) = 40.48038 44.70067 42.59052
# Shear Modulus (GPa) = 23.80323 24.64167 24.22245
#
# Velocity S-wave (km/s) = 3.50180 3.56294 3.53250
# Velocity P-wave (km/s) = 6.09953 6.32094 6.21122
#
# Compressibility (1/GPa) = 0.02470333
#
# Stress axis : x y z
#
# Youngs Moduli (GPa) = 69.31513 48.70509 68.00799
#
# Poissons Ratio (x) = 0.17736 0.39957
# Poissons Ratio (y) = 0.25241 0.20151
# Poissons Ratio (z) = 0.40725 0.14431
#
# Static dielectric constant tensor:
#      x y z
#    x 3.596170 0.000000 0.000000 
#    y 0.000000 3.210250 0.000000 
#    z 0.000000 0.000000 3.687270 
# 
# 
# High freq. dielectric constant tensor:
#      x y z
#    x 1.762190 0.000000 0.000000 
#    y 0.000000 1.723610 0.000000 
#    z 0.000000 0.000000 1.753810 
# 
# From -- ./inp_files/29750.got.cif
#   From: 2010.03.12/outbox.cif.g09.slc.cpg/sg62_15_cif.got.tgz:29750.got - 2010.04.10 19:12:36.
