data_PCOD8251185
_publ_section_title
;
Structure prediction by ZEFSAII (Michael W. Deem and Ramdas Pophale) SiO2 
 PCOD8251185
Probable space group: P N M A
;
_chemical_formula_sum "Si O2"
_cell_formula_units_Z 48
_cell_length_a 5.044906
_cell_length_b 18.017665
_cell_length_c 28.406239
_cell_angle_alpha 90.000000
_cell_angle_beta 90.000000
_cell_angle_gamma 90.000000
_cell_volume 2582.054015
_symmetry_space_group_name_H-M "P N M A"
_symmetry_group_IT_number 62
_symmetry_cell_setting 'orthorhombic'
loop_
_space_group_symop_operation_xyz
x,y,z
1/2-x,-y,1/2+z
1/2+x,1/2-y,1/2-z
-x,1/2+y,-z
-x,-y,-z
1/2+x,y,1/2-z
1/2-x,1/2+y,1/2+z
x,1/2-y,z
loop_
_atom_site_type_symbol
_atom_site_label
_atom_site_fract_x
_atom_site_fract_y
_atom_site_fract_z
Si Si1 0.986504 0.624651 0.150640
Si Si2 0.978172 0.250000 0.778951
Si Si3 0.967392 0.066569 0.536098
Si Si4 0.521924 0.665002 0.453986
Si Si5 0.437523 0.589814 0.782904
Si Si6 0.967356 0.250000 0.278638
Si Si7 0.493689 0.965823 0.142250
O O1 0.088476 0.677428 0.191454
O O2 0.982284 0.669547 0.102014
O O3 0.188414 0.556015 0.148582
O O4 0.692365 0.596103 0.163133
O O5 0.787346 0.250000 0.734130
O O6 0.708642 0.114836 0.523193
O O7 0.940543 0.026624 0.586882
O O8 0.204567 0.125308 0.533172
O O9 0.000000 0.000000 0.500000
O O10 0.518307 0.750000 0.473254
O O11 0.663852 0.574583 0.744159
O O12 0.456106 0.673402 0.804653
O O13 0.458892 0.541127 0.829606
O O14 0.152980 0.250000 0.231581
#
# Coordination Sequence:
#
# PCOD8251185 Si02
#       7
#     8   4   8   8   8   4   8
#     4  10  21  36  49  74 103 137 188 216 257 318
#     4  12  24  34  48  70 108 150 178 230 274 298
#     4  10  21  36  57  86 111 142 180 230 277 329
#     4  10  19  36  61  79 104 144 187 224 262 326
#     4  10  19  32  52  76 102 135 176 217 256 316
#     4   8  16  30  48  70  92 124 166 204 252 306
#     4  10  21  34  55  77 104 143 172 221 270 312
#
# _framework density 18.589849999999998
#
# number of rings (size 3 to 8) (size 9 to 14) (size 15 to 20)
#    0.000    2.000    0.833    3.000    0.000    4.000 
#    0.000    0.000    3.667    0.000    4.333    0.000 
#    0.000    0.000    0.000    0.000    0.000    0.000 
#
# Total GULP energy -595036.203729 kJ/mol
# GULP energy per Si atom -12396.587578 kJ/mol
# Density = 1.854754 g / cm^3
# Si number density = 18.589850 Si / 1000 Ang^3
#
#
#
# Elastic Constant Matrix: (Units=GPa)
#
#
# Indices 1 2 3 4 5 6 
#
# 1 89.3538 16.7640 7.4535 0.0000 0.0000 0.0000
# 2 16.7640 124.4309 49.1984 0.0000 0.0000 0.0000
# 3 7.4535 49.1984 53.5386 0.0000 0.0000 0.0000
# 4 0.0000 0.0000 0.0000 26.2611 0.0000 0.0000
# 5 0.0000 0.0000 0.0000 0.0000 19.0165 0.0000
# 6 0.0000 0.0000 0.0000 0.0000 0.0000 20.0126
#
#
#
# Elastic Compliance Matrix: (Units=1/GPa)
#
#
# Indices 1 2 3 4 5 6 
#
# 1 0.011484 -0.001437 -0.000278 0.000000 0.000000 0.000000
# 2 -0.001437 0.012803 -0.011565 0.000000 0.000000 0.000000
# 3 -0.000278 -0.011565 0.029344 0.000000 0.000000 0.000000
# 4 0.000000 0.000000 0.000000 0.038079 0.000000 0.000000
# 5 0.000000 0.000000 0.000000 0.000000 0.052586 0.000000
# 6 0.000000 0.000000 0.000000 0.000000 0.000000 0.049968
#
#
# Mechanical properties :
#
#
# Convention : Reuss Voigt Hill
#
# Bulk Modulus (GPa) = 36.94000 46.01724 41.47862
# Shear Modulus (GPa) = 21.75340 25.98518 23.86929
#
# Velocity S-wave (km/s) = 3.42450 3.74279 3.58718
# Velocity P-wave (km/s) = 5.96242 6.59437 6.28634
#
# Compressibility (1/GPa) = 0.02707093
#
# Stress axis : x y z
#
# Youngs Moduli (GPa) = 87.07527 78.10772 34.07829
#
# Poissons Ratio (x) = 0.11226 0.00948
# Poissons Ratio (y) = 0.12515 0.39411
# Poissons Ratio (z) = 0.02421 0.90331
#
# Static dielectric constant tensor:
#      x y z
#    x 3.616860 0.000000 0.000000 
#    y 0.000000 3.447020 0.000000 
#    z 0.000000 0.000000 3.095660 
# 
# 
# High freq. dielectric constant tensor:
#      x y z
#    x 1.744780 0.000000 0.000000 
#    y 0.000000 1.726740 0.000000 
#    z 0.000000 0.000000 1.679970 
# 
# From -- ./inp_files/30433.got.cif
#   From: 2010.03.12/outbox.cif.g09.slc.cpg/sg62_16_cif.got.tgz:30433.got - 2010.04.10 19:12:36.
