data_PCOD8251816
_publ_section_title
;
Structure prediction by ZEFSAII (Michael W. Deem and Ramdas Pophale) SiO2 
 PCOD8251816
Probable space group: P N M A
;
_chemical_formula_sum "Si O2"
_cell_formula_units_Z 64
_cell_length_a 12.295785
_cell_length_b 14.693607
_cell_length_c 18.060861
_cell_angle_alpha 90.000000
_cell_angle_beta 90.000000
_cell_angle_gamma 90.000000
_cell_volume 3263.045508
_symmetry_space_group_name_H-M "P N M A"
_symmetry_group_IT_number 62
_symmetry_cell_setting 'orthorhombic'
loop_
_space_group_symop_operation_xyz
x,y,z
1/2-x,-y,1/2+z
1/2+x,1/2-y,1/2-z
-x,1/2+y,-z
-x,-y,-z
1/2+x,y,1/2-z
1/2-x,1/2+y,1/2+z
x,1/2-y,z
loop_
_atom_site_type_symbol
_atom_site_label
_atom_site_fract_x
_atom_site_fract_y
_atom_site_fract_z
Si Si1 0.214848 0.148936 0.675915
Si Si2 0.424331 0.856915 0.809899
Si Si3 0.970017 0.094350 0.037258
Si Si4 0.676076 0.350902 0.655664
Si Si5 0.216130 0.543178 0.853820
Si Si6 0.560510 0.650773 0.380286
Si Si7 0.859118 0.038704 0.315582
Si Si8 0.155194 0.146311 0.147894
O O1 0.189433 0.250000 0.639645
O O2 0.219437 0.164553 0.762839
O O3 0.329728 0.103190 0.649347
O O4 0.128666 0.068032 0.658652
O O5 0.434884 0.750000 0.826619
O O6 0.325307 0.897822 0.857523
O O7 0.532086 0.908338 0.836404
O O8 0.408138 0.877151 0.723338
O O9 0.867319 0.090975 0.090949
O O10 0.075254 0.130837 0.079451
O O11 0.940440 0.159503 0.969146
O O12 0.000000 0.000000 0.000000
O O13 0.685646 0.250000 0.615290
O O14 0.741486 0.437211 0.621220
O O15 0.551515 0.390470 0.651959
O O16 0.166018 0.543951 0.771646
O O17 0.568497 0.750000 0.344707
O O18 0.761695 0.084831 0.361493
O O19 0.195106 0.250000 0.149676
#
# Coordination Sequence:
#
# PCOD8251816 Si02
#       8
#     8   8   8   8   8   8   8   8
#     4   9  19  33  54  81 112 146 190 238 291 346
#     4  10  21  37  57  82 117 155 198 244 291 346
#     4  12  21  34  56  85 122 153 190 236 290 348
#     4   9  18  33  53  79 110 144 185 234 287 339
#     4  10  21  34  54  84 116 151 192 236 289 346
#     4  10  20  34  53  82 115 149 184 231 289 348
#     4  10  19  35  58  81 116 149 196 245 296 340
#     4  10  21  35  55  86 117 154 196 244 296 347
#
# _framework density 19.613579000000001
#
# number of rings (size 3 to 8) (size 9 to 14) (size 15 to 20)
#    0.000    2.000    2.500    1.500    0.000    4.500 
#    0.000    1.875    0.000    3.000    0.000    1.750 
#    0.000    0.000    0.000    0.000    0.000    0.000 
#
# Total GULP energy -792836.158059 kJ/mol
# GULP energy per Si atom -12388.064970 kJ/mol
# Density = 1.956894 g / cm^3
# Si number density = 19.613579 Si / 1000 Ang^3
#
#
#
# Elastic Constant Matrix: (Units=GPa)
#
#
# Indices 1 2 3 4 5 6 
#
# 1 124.6225 61.6973 44.5817 0.0000 0.0000 0.0000
# 2 61.6973 123.7159 5.4910 0.0000 0.0000 0.0000
# 3 44.5817 5.4910 64.2834 0.0000 0.0000 0.0000
# 4 0.0000 0.0000 0.0000 21.7384 0.0000 0.0000
# 5 0.0000 0.0000 0.0000 0.0000 31.0042 0.0000
# 6 0.0000 0.0000 0.0000 0.0000 0.0000 32.6512
#
#
#
# Elastic Compliance Matrix: (Units=1/GPa)
#
#
# Indices 1 2 3 4 5 6 
#
# 1 0.015035 -0.007062 -0.009824 0.000000 0.000000 0.000000
# 2 -0.007062 0.011431 0.003921 0.000000 0.000000 0.000000
# 3 -0.009824 0.003921 0.022034 0.000000 0.000000 0.000000
# 4 0.000000 0.000000 0.000000 0.046001 0.000000 0.000000
# 5 0.000000 0.000000 0.000000 0.000000 0.032254 0.000000
# 6 0.000000 0.000000 0.000000 0.000000 0.000000 0.030627
#
#
# Mechanical properties :
#
#
# Convention : Reuss Voigt Hill
#
# Bulk Modulus (GPa) = 44.30503 59.57353 51.93928
# Shear Modulus (GPa) = 26.20090 30.46888 28.33489
#
# Velocity S-wave (km/s) = 3.65890 3.94567 3.80499
# Velocity P-wave (km/s) = 6.36302 7.15523 6.77072
#
# Compressibility (1/GPa) = 0.02257080
#
# Stress axis : x y z
#
# Youngs Moduli (GPa) = 66.51367 87.48378 45.38444
#
# Poissons Ratio (x) = 0.61779 0.44583
# Poissons Ratio (y) = 0.46970 -0.17795
# Poissons Ratio (z) = 0.65340 -0.34303
#
# Static dielectric constant tensor:
#      x y z
#    x 3.573300 0.000000 0.000000 
#    y 0.000000 4.053230 0.000000 
#    z 0.000000 0.000000 6.009590 
# 
# 
# High freq. dielectric constant tensor:
#      x y z
#    x 1.749480 0.000000 0.000000 
#    y 0.000000 1.791990 0.000000 
#    z 0.000000 0.000000 1.721610 
# 
# From -- ./inp_files/23211.got.cif
#   From: 2010.03.12/outbox.cif.g09.slc.cpg/sg62_12_cif.got.tgz:23211.got - 2010.04.10 19:12:36.
