data_PCOD8251818
_publ_section_title
;
Structure prediction by ZEFSAII (Michael W. Deem and Ramdas Pophale) SiO2 
 PCOD8251818
Probable space group: P N M A
;
_chemical_formula_sum "Si O2"
_cell_formula_units_Z 48
_cell_length_a 17.297042
_cell_length_b 16.390229
_cell_length_c 8.970597
_cell_angle_alpha 90.000000
_cell_angle_beta 90.000000
_cell_angle_gamma 90.000000
_cell_volume 2543.186491
_symmetry_space_group_name_H-M "P N M A"
_symmetry_group_IT_number 62
_symmetry_cell_setting 'orthorhombic'
loop_
_space_group_symop_operation_xyz
x,y,z
1/2-x,-y,1/2+z
1/2+x,1/2-y,1/2-z
-x,1/2+y,-z
-x,-y,-z
1/2+x,y,1/2-z
1/2-x,1/2+y,1/2+z
x,1/2-y,z
loop_
_atom_site_type_symbol
_atom_site_label
_atom_site_fract_x
_atom_site_fract_y
_atom_site_fract_z
Si Si1 0.584889 0.998636 0.221647
Si Si2 0.075936 0.938235 0.844522
Si Si3 0.129422 0.158715 0.797202
Si Si4 0.950571 0.340816 0.879605
Si Si5 0.320448 0.947106 0.534813
Si Si6 0.345125 0.992606 0.087288
O O1 0.596238 0.904718 0.276601
O O2 0.502393 0.030830 0.271047
O O3 0.652878 0.056093 0.292599
O O4 0.592304 0.004080 0.044383
O O5 0.136500 0.934119 0.705957
O O6 0.108116 0.005229 0.958204
O O7 0.062910 0.856832 0.941967
O O8 0.150816 0.250000 0.744038
O O9 0.181069 0.138608 0.945616
O O10 0.040213 0.152690 0.840538
O O11 0.149858 0.095940 0.664886
O O12 0.919121 0.250000 0.846310
O O13 0.239288 0.993104 0.518693
#
# Coordination Sequence:
#
# PCOD8251818 Si02
#       6
#     8   8   8   8   8   8
#     4  11  18  35  59  83 109 145 192 231 278 336
#     4  10  19  36  55  80 108 148 193 225 273 341
#     4  10  20  38  59  83 110 147 191 231 281 339
#     4  10  19  35  58  82 107 147 193 235 275 330
#     4  10  19  37  56  81 109 153 191 218 273 348
#     4  11  22  33  58  88 116 144 183 239 287 335
#
# _framework density 18.873961000000001
#
# number of rings (size 3 to 8) (size 9 to 14) (size 15 to 20)
#    0.000    1.667    5.000    3.500    0.000    0.000 
#    0.000   10.833    0.000    0.000    0.000    0.000 
#    0.000    0.000    0.000    0.000    0.000    0.000 
#
# Total GULP energy -594722.581776 kJ/mol
# GULP energy per Si atom -12390.053787 kJ/mol
# Density = 1.883100 g / cm^3
# Si number density = 18.873961 Si / 1000 Ang^3
#
#
#
# Elastic Constant Matrix: (Units=GPa)
#
#
# Indices 1 2 3 4 5 6 
#
# 1 67.2654 24.2787 14.7957 0.0000 0.0000 0.0000
# 2 24.2787 109.1127 49.8656 0.0000 0.0000 0.0000
# 3 14.7957 49.8656 102.8308 0.0000 0.0000 0.0000
# 4 0.0000 0.0000 0.0000 22.7621 0.0000 0.0000
# 5 0.0000 0.0000 0.0000 0.0000 25.5287 0.0000
# 6 0.0000 0.0000 0.0000 0.0000 0.0000 18.3366
#
#
#
# Elastic Compliance Matrix: (Units=1/GPa)
#
#
# Indices 1 2 3 4 5 6 
#
# 1 0.016210 -0.003264 -0.000749 0.000000 0.000000 0.000000
# 2 -0.003264 0.012432 -0.005559 0.000000 0.000000 0.000000
# 3 -0.000749 -0.005559 0.012528 0.000000 0.000000 0.000000
# 4 0.000000 0.000000 0.000000 0.043933 0.000000 0.000000
# 5 0.000000 0.000000 0.000000 0.000000 0.039172 0.000000
# 6 0.000000 0.000000 0.000000 0.000000 0.000000 0.054536
#
#
# Mechanical properties :
#
#
# Convention : Reuss Voigt Hill
#
# Bulk Modulus (GPa) = 45.40414 50.78766 48.09590
# Shear Modulus (GPa) = 24.35512 26.01007 25.18260
#
# Velocity S-wave (km/s) = 3.59612 3.71629 3.65670
# Velocity P-wave (km/s) = 6.43051 6.73660 6.58533
#
# Compressibility (1/GPa) = 0.02202442
#
# Stress axis : x y z
#
# Youngs Moduli (GPa) = 61.69209 80.44030 79.82040
#
# Poissons Ratio (x) = 0.26258 0.05981
# Poissons Ratio (y) = 0.20138 0.44370
# Poissons Ratio (z) = 0.04623 0.44715
#
# Static dielectric constant tensor:
#      x y z
#    x 3.366350 0.000000 0.000000 
#    y 0.000000 3.576880 0.000000 
#    z 0.000000 0.000000 3.790200 
# 
# 
# High freq. dielectric constant tensor:
#      x y z
#    x 1.733370 0.000000 0.000000 
#    y 0.000000 1.697670 0.000000 
#    z 0.000000 0.000000 1.740790 
# 
# From -- ./inp_files/7788.got.cif
#   From: 2010.03.12/outbox.cif.g09.slc.cpg/sg62_4_cif.got.tgz:7788.got - 2010.04.10 19:12:36.
