data_PCOD8251099
_publ_section_title
;
Structure prediction by ZEFSAII (Michael W. Deem and Ramdas Pophale) SiO2 
 PCOD8251099
Probable space group: P N M A
;
_chemical_formula_sum "Si O2"
_cell_formula_units_Z 64
_cell_length_a 9.396621
_cell_length_b 16.394290
_cell_length_c 21.641719
_cell_angle_alpha 90.000000
_cell_angle_beta 90.000000
_cell_angle_gamma 90.000000
_cell_volume 3333.926932
_symmetry_space_group_name_H-M "P N M A"
_symmetry_group_IT_number 62
_symmetry_cell_setting 'orthorhombic'
loop_
_space_group_symop_operation_xyz
x,y,z
1/2-x,-y,1/2+z
1/2+x,1/2-y,1/2-z
-x,1/2+y,-z
-x,-y,-z
1/2+x,y,1/2-z
1/2-x,1/2+y,1/2+z
x,1/2-y,z
loop_
_atom_site_type_symbol
_atom_site_label
_atom_site_fract_x
_atom_site_fract_y
_atom_site_fract_z
Si Si1 0.802936 0.659219 0.954866
Si Si2 0.743772 0.160367 0.219641
Si Si3 0.739416 0.657865 0.470211
Si Si4 0.425061 0.839264 0.417257
Si Si5 0.606788 0.869539 0.595638
Si Si6 0.038286 0.558930 0.712977
Si Si7 0.199852 0.495338 0.605507
Si Si8 0.004766 0.021820 0.841674
O O1 0.730059 0.750000 0.946616
O O2 0.713262 0.583403 0.928327
O O3 0.957640 0.670172 0.923925
O O4 0.817388 0.638201 0.027598
O O5 0.691528 0.250000 0.240453
O O6 0.842419 0.170382 0.159526
O O7 0.833462 0.123312 0.276712
O O8 0.609822 0.104463 0.204103
O O9 0.802626 0.750000 0.457523
O O10 0.582500 0.651362 0.443924
O O11 0.728610 0.643671 0.543998
O O12 0.829773 0.582707 0.439812
O O13 0.392294 0.750000 0.392530
O O14 0.414913 0.893862 0.356065
O O15 0.578834 0.964277 0.607551
O O16 0.066837 0.504828 0.652055
O O17 0.035161 0.499544 0.771489
O O18 0.336607 0.476447 0.647328
#
# Coordination Sequence:
#
# PCOD8251099 Si02
#       8
#     8   8   8   8   8   8   8   8
#     4   9  16  27  48  79 109 133 165 211 263 316
#     4  11  22  36  53  73 102 136 175 213 252 302
#     4   9  16  29  51  77 103 131 172 216 260 311
#     4   8  14  26  48  78 103 127 166 218 266 306
#     4   9  17  30  51  77 102 135 170 211 256 309
#     4  11  22  37  49  74 101 141 177 210 250 306
#     4  10  19  32  49  73 105 138 169 213 262 303
#     4   9  17  31  49  70 102 136 171 215 256 297
#
# _framework density 19.196581999999999
#
# number of rings (size 3 to 8) (size 9 to 14) (size 15 to 20)
#    0.000    2.500    1.250    3.000    0.000    4.000 
#    0.000    1.250    0.000    0.000    0.000    2.625 
#    0.000    0.000    0.000    0.000    0.000    0.000 
#
# Total GULP energy -792993.039663 kJ/mol
# GULP energy per Si atom -12390.516245 kJ/mol
# Density = 1.915289 g / cm^3
# Si number density = 19.196582 Si / 1000 Ang^3
#
#
#
# Elastic Constant Matrix: (Units=GPa)
#
#
# Indices 1 2 3 4 5 6 
#
# 1 32.4824 6.8058 -3.1564 0.0000 0.0000 0.0000
# 2 6.8058 98.4770 27.5948 0.0000 0.0000 0.0000
# 3 -3.1564 27.5948 47.0883 0.0000 0.0000 0.0000
# 4 0.0000 0.0000 0.0000 12.4781 0.0000 0.0000
# 5 0.0000 0.0000 0.0000 0.0000 19.8573 0.0000
# 6 0.0000 0.0000 0.0000 0.0000 0.0000 9.1641
#
#
#
# Elastic Compliance Matrix: (Units=1/GPa)
#
#
# Indices 1 2 3 4 5 6 
#
# 1 0.031887 -0.003353 0.004103 0.000000 0.000000 0.000000
# 2 -0.003353 0.012502 -0.007551 0.000000 0.000000 0.000000
# 3 0.004103 -0.007551 0.025937 0.000000 0.000000 0.000000
# 4 0.000000 0.000000 0.000000 0.080140 0.000000 0.000000
# 5 0.000000 0.000000 0.000000 0.000000 0.050359 0.000000
# 6 0.000000 0.000000 0.000000 0.000000 0.000000 0.109121
#
#
# Mechanical properties :
#
#
# Convention : Reuss Voigt Hill
#
# Bulk Modulus (GPa) = 17.62981 26.72624 22.17803
# Shear Modulus (GPa) = 14.60026 18.08680 16.34353
#
# Velocity S-wave (km/s) = 2.76083 3.07284 2.92100
# Velocity P-wave (km/s) = 4.40076 5.15193 4.79109
#
# Compressibility (1/GPa) = 0.05672211
#
# Stress axis : x y z
#
# Youngs Moduli (GPa) = 31.36055 79.98432 38.55489
#
# Poissons Ratio (x) = 0.26822 -0.15817
# Poissons Ratio (y) = 0.10516 0.29115
# Poissons Ratio (z) = -0.12866 0.60400
#
# Static dielectric constant tensor:
#      x y z
#    x 3.040260 0.000000 0.000000 
#    y 0.000000 3.813070 0.000000 
#    z 0.000000 0.000000 3.484420 
# 
# 
# High freq. dielectric constant tensor:
#      x y z
#    x 1.696740 0.000000 0.000000 
#    y 0.000000 1.755040 0.000000 
#    z 0.000000 0.000000 1.738850 
# 
# From -- ./inp_files/26174.got.cif
#   From: 2010.03.12/outbox.cif.g09.slc.cpg/sg62_14_cif.got.tgz:26174.got - 2010.04.10 19:12:36.
