data_PCOD8251219
_publ_section_title
;
Structure prediction by ZEFSAII (Michael W. Deem and Ramdas Pophale) SiO2 
 PCOD8251219
Probable space group: P N M A
;
_chemical_formula_sum "Si O2"
_cell_formula_units_Z 64
_cell_length_a 19.187212
_cell_length_b 8.951350
_cell_length_c 20.636846
_cell_angle_alpha 90.000000
_cell_angle_beta 90.000000
_cell_angle_gamma 90.000000
_cell_volume 3544.408227
_symmetry_space_group_name_H-M "P N M A"
_symmetry_group_IT_number 62
_symmetry_cell_setting 'orthorhombic'
loop_
_space_group_symop_operation_xyz
x,y,z
1/2-x,-y,1/2+z
1/2+x,1/2-y,1/2-z
-x,1/2+y,-z
-x,-y,-z
1/2+x,y,1/2-z
1/2-x,1/2+y,1/2+z
x,1/2-y,z
loop_
_atom_site_type_symbol
_atom_site_label
_atom_site_fract_x
_atom_site_fract_y
_atom_site_fract_z
Si Si1 0.466734 0.578490 0.806520
Si Si2 0.034987 0.574441 0.061087
Si Si3 0.169695 0.574314 0.755401
Si Si4 0.456114 0.926002 0.309739
Si Si5 0.324583 0.579837 0.749646
Si Si6 0.461626 0.073679 0.059826
Si Si7 0.667488 0.427740 0.882735
Si Si8 0.823848 0.424931 0.883028
O O1 0.486323 0.750000 0.790617
O O2 0.501595 0.473376 0.753642
O O3 0.382953 0.554121 0.804686
O O4 0.492709 0.533328 0.877304
O O5 0.028190 0.750000 0.052419
O O6 0.116627 0.524679 0.065774
O O7 0.996066 0.520841 0.126058
O O8 0.000000 0.500000 0.000000
O O9 0.156734 0.750000 0.747659
O O10 0.119130 0.506762 0.809937
O O11 0.248573 0.535326 0.777305
O O12 0.151300 0.496640 0.687321
O O13 0.445010 0.750000 0.308547
O O14 0.322357 0.750000 0.726180
O O15 0.344418 0.486659 0.686811
O O16 0.454092 0.250000 0.049264
O O17 0.385125 0.000278 0.065771
O O18 0.500000 0.000000 0.000000
O O19 0.657563 0.250000 0.880126
O O20 0.746120 0.473354 0.904917
O O21 0.827278 0.250000 0.873992
#
# Coordination Sequence:
#
# PCOD8251219 Si02
#       8
#     8   8   8   8   8   8   8   8
#     4  10  20  35  56  81 108 139 179 226 275 326
#     4  10  22  38  55  80 112 147 187 228 275 327
#     4  10  19  32  52  81 113 142 179 224 273 328
#     4  11  21  34  55  81 110 142 181 226 274 325
#     4   9  18  32  53  81 109 140 179 225 275 326
#     4  11  23  38  56  80 113 148 187 229 277 331
#     4  10  19  33  56  81 108 142 182 225 274 326
#     4   9  18  34  54  79 109 142 180 225 273 326
#
# _framework density 18.056609999999999
#
# number of rings (size 3 to 8) (size 9 to 14) (size 15 to 20)
#    0.000    2.000    2.500    1.500    0.000    3.000 
#    0.000    1.250    0.000    6.000    0.000    0.000 
#    0.000    0.000    0.000    0.000    0.000    0.000 
#
# Total GULP energy -793517.971114 kJ/mol
# GULP energy per Si atom -12398.718299 kJ/mol
# Density = 1.801551 g / cm^3
# Si number density = 18.056610 Si / 1000 Ang^3
#
#
#
# Elastic Constant Matrix: (Units=GPa)
#
#
# Indices 1 2 3 4 5 6 
#
# 1 156.0445 52.1679 73.5244 0.0000 0.0000 0.0000
# 2 52.1679 62.1704 45.2209 0.0000 0.0000 0.0000
# 3 73.5244 45.2209 103.9349 0.0000 0.0000 0.0000
# 4 0.0000 0.0000 0.0000 28.6283 0.0000 0.0000
# 5 0.0000 0.0000 0.0000 0.0000 30.1283 0.0000
# 6 0.0000 0.0000 0.0000 0.0000 0.0000 28.9199
#
#
#
# Elastic Compliance Matrix: (Units=1/GPa)
#
#
# Indices 1 2 3 4 5 6 
#
# 1 0.010587 -0.005027 -0.005302 0.000000 0.000000 0.000000
# 2 -0.005027 0.025919 -0.007721 0.000000 0.000000 0.000000
# 3 -0.005302 -0.007721 0.016732 0.000000 0.000000 0.000000
# 4 0.000000 0.000000 0.000000 0.034930 0.000000 0.000000
# 5 0.000000 0.000000 0.000000 0.000000 0.033191 0.000000
# 6 0.000000 0.000000 0.000000 0.000000 0.000000 0.034578
#
#
# Mechanical properties :
#
#
# Convention : Reuss Voigt Hill
#
# Bulk Modulus (GPa) = 58.35212 73.77513 66.06362
# Shear Modulus (GPa) = 25.28425 27.61773 26.45099
#
# Velocity S-wave (km/s) = 3.74609 3.91514 3.83154
# Velocity P-wave (km/s) = 7.14823 7.83480 7.49938
#
# Compressibility (1/GPa) = 0.01713734
#
# Stress axis : x y z
#
# Youngs Moduli (GPa) = 94.45132 38.58153 59.76741
#
# Poissons Ratio (x) = 0.19396 0.31691
# Poissons Ratio (y) = 0.47484 0.46145
# Poissons Ratio (z) = 0.50081 0.29788
#
# Static dielectric constant tensor:
#      x y z
#    x 3.906390 0.000000 0.000000 
#    y 0.000000 3.370250 0.000000 
#    z 0.000000 0.000000 3.097200 
# 
# 
# High freq. dielectric constant tensor:
#      x y z
#    x 1.722880 0.000000 0.000000 
#    y 0.000000 1.705150 0.000000 
#    z 0.000000 0.000000 1.662550 
# 
# From -- ./inp_files/27699.got.cif
#   From: 2010.03.12/outbox.cif.g09.slc.cpg/sg62_14_cif.got.tgz:27699.got - 2010.04.10 19:12:36.
