data_PCOD8251524
_publ_section_title
;
Structure prediction by ZEFSAII (Michael W. Deem and Ramdas Pophale) SiO2 
 PCOD8251524
Probable space group: P N M A
;
_chemical_formula_sum "Si O2"
_cell_formula_units_Z 40
_cell_length_a 18.733617
_cell_length_b 19.009802
_cell_length_c 6.297598
_cell_angle_alpha 90.000000
_cell_angle_beta 90.000000
_cell_angle_gamma 90.000000
_cell_volume 2242.715399
_symmetry_space_group_name_H-M "P N M A"
_symmetry_group_IT_number 62
_symmetry_cell_setting 'orthorhombic'
loop_
_space_group_symop_operation_xyz
x,y,z
1/2-x,-y,1/2+z
1/2+x,1/2-y,1/2-z
-x,1/2+y,-z
-x,-y,-z
1/2+x,y,1/2-z
1/2-x,1/2+y,1/2+z
x,1/2-y,z
loop_
_atom_site_type_symbol
_atom_site_label
_atom_site_fract_x
_atom_site_fract_y
_atom_site_fract_z
Si Si1 0.992972 0.574978 0.110902
Si Si2 0.204818 0.573769 0.095455
Si Si3 0.101252 0.667609 0.857028
Si Si4 0.652304 0.459734 0.718600
Si Si5 0.099745 0.576637 0.475200
O O1 0.908289 0.593848 0.129505
O O2 0.026789 0.570783 0.345068
O O3 0.000000 0.500000 0.000000
O O4 0.032837 0.634062 0.974120
O O5 0.289509 0.581400 0.139077
O O6 0.167479 0.573987 0.322579
O O7 0.175541 0.638283 0.955402
O O8 0.190792 0.500027 0.975468
O O9 0.098824 0.750000 0.892418
O O10 0.099087 0.649744 0.607025
O O11 0.605878 0.514017 0.856637
#
# Coordination Sequence:
#
# PCOD8251524 Si02
#       5
#     8   8   8   8   8
#     4  11  20  34  59  91 113 144 195 249 287 337
#     4  10  20  33  58  85 117 146 185 237 286 348
#     4  10  23  40  55  80 118 161 197 230 286 356
#     4  11  19  32  55  92 115 139 186 240 294 330
#     4  10  19  33  57  82 114 149 184 236 290 334
#
# _framework density 17.835523999999999
#
# number of rings (size 3 to 8) (size 9 to 14) (size 15 to 20)
#    0.000    1.600    8.000    0.600    0.000    3.200 
#    0.000    1.000    0.000    2.400    0.000    0.000 
#    0.000    0.000    0.000    0.000    0.000    0.000 
#
# Total GULP energy -495879.270837 kJ/mol
# GULP energy per Si atom -12396.981771 kJ/mol
# Density = 1.779493 g / cm^3
# Si number density = 17.835524 Si / 1000 Ang^3
#
#
#
# Elastic Constant Matrix: (Units=GPa)
#
#
# Indices 1 2 3 4 5 6 
#
# 1 151.2640 47.2847 46.6549 0.0000 0.0000 0.0000
# 2 47.2847 99.3545 34.2295 0.0000 0.0000 0.0000
# 3 46.6549 34.2295 105.7793 0.0000 0.0000 0.0000
# 4 0.0000 0.0000 0.0000 17.3237 0.0000 0.0000
# 5 0.0000 0.0000 0.0000 0.0000 28.8425 0.0000
# 6 0.0000 0.0000 0.0000 0.0000 0.0000 17.4993
#
#
#
# Elastic Compliance Matrix: (Units=1/GPa)
#
#
# Indices 1 2 3 4 5 6 
#
# 1 0.008407 -0.003065 -0.002716 0.000000 0.000000 0.000000
# 2 -0.003065 0.012445 -0.002675 0.000000 0.000000 0.000000
# 3 -0.002716 -0.002675 0.011517 0.000000 0.000000 0.000000
# 4 0.000000 0.000000 0.000000 0.057725 0.000000 0.000000
# 5 0.000000 0.000000 0.000000 0.000000 0.034671 0.000000
# 6 0.000000 0.000000 0.000000 0.000000 0.000000 0.057145
#
#
# Mechanical properties :
#
#
# Convention : Reuss Voigt Hill
#
# Bulk Modulus (GPa) = 64.69799 68.08177 66.38988
# Shear Modulus (GPa) = 24.51273 27.94835 26.23054
#
# Velocity S-wave (km/s) = 3.71128 3.96284 3.83912
# Velocity P-wave (km/s) = 7.39719 7.69374 7.54692
#
# Compressibility (1/GPa) = 0.01545643
#
# Stress axis : x y z
#
# Youngs Moduli (GPa) = 118.95046 80.35048 86.82604
#
# Poissons Ratio (x) = 0.24630 0.23582
# Poissons Ratio (y) = 0.36461 0.23229
# Poissons Ratio (z) = 0.32307 0.21496
#
# Static dielectric constant tensor:
#      x y z
#    x 3.505370 0.000000 0.000000 
#    y 0.000000 2.905160 0.000000 
#    z 0.000000 0.000000 3.605390 
# 
# 
# High freq. dielectric constant tensor:
#      x y z
#    x 1.697210 0.000000 0.000000 
#    y 0.000000 1.636000 0.000000 
#    z 0.000000 0.000000 1.711100 
# 
# From -- ./inp_files/1554.got.cif
#   From: 2010.03.12/outbox.cif.g09.slc.cpg/sg62_1_cif.got.tgz:1554.got - 2010.04.10 19:12:36.
