data_PCOD8251773
_publ_section_title
;
Structure prediction by ZEFSAII (Michael W. Deem and Ramdas Pophale) SiO2 
 PCOD8251773
Probable space group: P N M A
;
_chemical_formula_sum "Si O2"
_cell_formula_units_Z 64
_cell_length_a 21.311556
_cell_length_b 9.654689
_cell_length_c 17.170493
_cell_angle_alpha 90.000000
_cell_angle_beta 90.000000
_cell_angle_gamma 90.000000
_cell_volume 3532.939603
_symmetry_space_group_name_H-M "P N M A"
_symmetry_group_IT_number 62
_symmetry_cell_setting 'orthorhombic'
loop_
_space_group_symop_operation_xyz
x,y,z
1/2-x,-y,1/2+z
1/2+x,1/2-y,1/2-z
-x,1/2+y,-z
-x,-y,-z
1/2+x,y,1/2-z
1/2-x,1/2+y,1/2+z
x,1/2-y,z
loop_
_atom_site_type_symbol
_atom_site_label
_atom_site_fract_x
_atom_site_fract_y
_atom_site_fract_z
Si Si1 0.871288 0.407135 0.385527
Si Si2 0.040256 0.409829 0.214906
Si Si3 0.299073 0.086881 0.963084
Si Si4 0.397430 0.402876 0.836211
Si Si5 0.837684 0.912084 0.079393
Si Si6 0.520707 0.097818 0.931995
Si Si7 0.395165 0.093105 0.285002
Si Si8 0.446682 0.592042 0.536472
O O1 0.894599 0.250000 0.406618
O O2 0.817600 0.452111 0.447470
O O3 0.924476 0.521338 0.387545
O O4 0.852755 0.411136 0.294116
O O5 0.049060 0.250000 0.237415
O O6 0.091690 0.494678 0.264254
O O7 0.060037 0.441781 0.126892
O O8 0.967618 0.453237 0.229645
O O9 0.297546 0.250000 0.955755
O O10 0.349226 0.030453 0.899514
O O11 0.230564 0.027142 0.943258
O O12 0.373785 0.250000 0.808030
O O13 0.464098 0.381451 0.874431
O O14 0.835251 0.750000 0.100683
O O15 0.863282 0.991560 0.154124
O O16 0.880878 0.940298 0.004726
O O17 0.542531 0.250000 0.962110
O O18 0.500000 0.000000 0.000000
O O19 0.395737 0.250000 0.318493
O O20 0.500000 0.500000 0.500000
O O21 0.467206 0.750000 0.523309
#
# Coordination Sequence:
#
# PCOD8251773 Si02
#       8
#     8   8   8   8   8   8   8   8
#     4  10  19  35  56  78 108 146 183 222 277 334
#     4  10  20  34  53  83 117 138 170 226 283 329
#     4   9  19  38  57  75 105 149 193 225 260 326
#     4  10  20  34  54  78 108 146 184 221 268 324
#     4  10  21  38  60  78 103 147 193 228 268 329
#     4  11  20  30  50  79 108 141 181 225 271 324
#     4  10  20  34  56  84 113 140 170 226 290 332
#     4  10  20  35  57  83 107 139 179 226 278 327
#
# _framework density 18.115226
#
# number of rings (size 3 to 8) (size 9 to 14) (size 15 to 20)
#    0.000    2.000    3.750    0.375    0.000    2.000 
#    2.250    1.250    0.000    0.000    0.000    0.000 
#    0.000    0.000    0.000    0.000    0.000    0.000 
#
# Total GULP energy -793160.659784 kJ/mol
# GULP energy per Si atom -12393.135309 kJ/mol
# Density = 1.807399 g / cm^3
# Si number density = 18.115226 Si / 1000 Ang^3
#
#
#
# Elastic Constant Matrix: (Units=GPa)
#
#
# Indices 1 2 3 4 5 6 
#
# 1 94.9668 37.7092 57.6525 0.0000 0.0000 0.0000
# 2 37.7092 77.2438 53.3830 0.0000 0.0000 0.0000
# 3 57.6525 53.3830 135.1949 0.0000 0.0000 0.0000
# 4 0.0000 0.0000 0.0000 31.8563 0.0000 0.0000
# 5 0.0000 0.0000 0.0000 0.0000 18.4138 0.0000
# 6 0.0000 0.0000 0.0000 0.0000 0.0000 15.8188
#
#
#
# Elastic Compliance Matrix: (Units=1/GPa)
#
#
# Indices 1 2 3 4 5 6 
#
# 1 0.015059 -0.004007 -0.004840 0.000000 0.000000 0.000000
# 2 -0.004007 0.018871 -0.005743 0.000000 0.000000 0.000000
# 3 -0.004840 -0.005743 0.011728 0.000000 0.000000 0.000000
# 4 0.000000 0.000000 0.000000 0.031391 0.000000 0.000000
# 5 0.000000 0.000000 0.000000 0.000000 0.054307 0.000000
# 6 0.000000 0.000000 0.000000 0.000000 0.000000 0.063216
#
#
# Mechanical properties :
#
#
# Convention : Reuss Voigt Hill
#
# Bulk Modulus (GPa) = 60.68094 67.21056 63.94575
# Shear Modulus (GPa) = 21.81085 23.79517 22.80301
#
# Velocity S-wave (km/s) = 3.47364 3.62822 3.55177
# Velocity P-wave (km/s) = 7.04686 7.39826 7.22469
#
# Compressibility (1/GPa) = 0.01647964
#
# Stress axis : x y z
#
# Youngs Moduli (GPa) = 66.40497 52.99168 85.26557
#
# Poissons Ratio (x) = 0.21234 0.41265
# Poissons Ratio (y) = 0.26608 0.48965
# Poissons Ratio (z) = 0.32137 0.30431
#
# Static dielectric constant tensor:
#      x y z
#    x 3.521890 0.000000 0.000000 
#    y 0.000000 3.352030 0.000000 
#    z 0.000000 0.000000 3.446920 
# 
# 
# High freq. dielectric constant tensor:
#      x y z
#    x 1.680530 0.000000 0.000000 
#    y 0.000000 1.693550 0.000000 
#    z 0.000000 0.000000 1.708030 
# 
# From -- ./inp_files/24776.got.cif
#   From: 2010.03.12/outbox.cif.g09.slc.cpg/sg62_13_cif.got.tgz:24776.got - 2010.04.10 19:12:36.
