data_PCOD8251771
_publ_section_title
;
Structure prediction by ZEFSAII (Michael W. Deem and Ramdas Pophale) SiO2 
 PCOD8251771
Probable space group: P N M A
;
_chemical_formula_sum "Si O2"
_cell_formula_units_Z 56
_cell_length_a 19.313173
_cell_length_b 8.694166
_cell_length_c 18.800504
_cell_angle_alpha 90.000000
_cell_angle_beta 90.000000
_cell_angle_gamma 90.000000
_cell_volume 3156.828950
_symmetry_space_group_name_H-M "P N M A"
_symmetry_group_IT_number 62
_symmetry_cell_setting 'orthorhombic'
loop_
_space_group_symop_operation_xyz
x,y,z
1/2-x,-y,1/2+z
1/2+x,1/2-y,1/2-z
-x,1/2+y,-z
-x,-y,-z
1/2+x,y,1/2-z
1/2-x,1/2+y,1/2+z
x,1/2-y,z
loop_
_atom_site_type_symbol
_atom_site_label
_atom_site_fract_x
_atom_site_fract_y
_atom_site_fract_z
Si Si1 0.209459 0.930864 0.644994
Si Si2 0.524333 0.433019 0.215284
Si Si3 0.698559 0.930666 0.016141
Si Si4 0.454715 0.068042 0.937235
Si Si5 0.673126 0.070056 0.253922
Si Si6 0.279084 0.431913 0.362596
Si Si7 0.886193 0.931413 0.236178
O O1 0.193736 0.750000 0.651802
O O2 0.202041 0.990006 0.564806
O O3 0.287510 0.968969 0.672275
O O4 0.153469 0.016810 0.692828
O O5 0.519283 0.250000 0.215502
O O6 0.518801 0.491500 0.134814
O O7 0.595549 0.497069 0.250974
O O8 0.463486 0.502621 0.262597
O O9 0.711663 0.750000 0.019413
O O10 0.625012 0.977092 0.049458
O O11 0.760558 0.014330 0.058058
O O12 0.464924 0.250000 0.933558
O O13 0.500000 0.000000 0.000000
O O14 0.667287 0.250000 0.242173
O O15 0.718546 0.003521 0.188942
O O16 0.286726 0.250000 0.358994
O O17 0.350779 0.505203 0.335694
O O18 0.888653 0.750000 0.233085
#
# Coordination Sequence:
#
# PCOD8251771 Si02
#       7
#     8   8   8   8   8   8   8
#     4   9  18  35  55  78 107 141 177 217 265 318
#     4  11  20  34  53  75 103 140 180 222 266 317
#     4  10  20  33  52  78 109 140 173 218 267 314
#     4  11  22  33  48  76 112 148 179 213 263 323
#     4   8  16  31  53  76  98 133 178 218 260 311
#     4  10  19  35  56  77 102 138 180 219 263 320
#     4  11  22  35  52  78 107 138 176 222 270 319
#
# _framework density 17.739321
#
# number of rings (size 3 to 8) (size 9 to 14) (size 15 to 20)
#    0.000    2.000    1.429    4.286    0.000    2.286 
#    0.000    0.714    0.000    0.857    0.000    0.000 
#    0.000    0.000    0.000    0.000    0.000    0.000 
#
# Total GULP energy -694418.004025 kJ/mol
# GULP energy per Si atom -12400.321500 kJ/mol
# Density = 1.769895 g / cm^3
# Si number density = 17.739321 Si / 1000 Ang^3
#
#
#
# Elastic Constant Matrix: (Units=GPa)
#
#
# Indices 1 2 3 4 5 6 
#
# 1 96.7165 28.2796 8.7680 0.0000 0.0000 0.0000
# 2 28.2796 72.0364 15.6254 0.0000 0.0000 0.0000
# 3 8.7680 15.6254 32.5417 0.0000 0.0000 0.0000
# 4 0.0000 0.0000 0.0000 25.9938 0.0000 0.0000
# 5 0.0000 0.0000 0.0000 0.0000 30.9762 0.0000
# 6 0.0000 0.0000 0.0000 0.0000 0.0000 22.2575
#
#
#
# Elastic Compliance Matrix: (Units=1/GPa)
#
#
# Indices 1 2 3 4 5 6 
#
# 1 0.011713 -0.004369 -0.001058 0.000000 0.000000 0.000000
# 2 -0.004369 0.017125 -0.007046 0.000000 0.000000 0.000000
# 3 -0.001058 -0.007046 0.034398 0.000000 0.000000 0.000000
# 4 0.000000 0.000000 0.000000 0.038471 0.000000 0.000000
# 5 0.000000 0.000000 0.000000 0.000000 0.032283 0.000000
# 6 0.000000 0.000000 0.000000 0.000000 0.000000 0.044929
#
#
# Mechanical properties :
#
#
# Convention : Reuss Voigt Hill
#
# Bulk Modulus (GPa) = 26.11600 34.07118 30.09359
# Shear Modulus (GPa) = 23.08113 25.75360 24.41736
#
# Velocity S-wave (km/s) = 3.61103 3.81436 3.71408
# Velocity P-wave (km/s) = 5.66922 6.21670 5.94926
#
# Compressibility (1/GPa) = 0.03829070
#
# Stress axis : x y z
#
# Youngs Moduli (GPa) = 85.37672 58.39362 29.07142
#
# Poissons Ratio (x) = 0.25510 0.03076
# Poissons Ratio (y) = 0.37298 0.20483
# Poissons Ratio (z) = 0.09035 0.41143
#
# Static dielectric constant tensor:
#      x y z
#    x 3.516830 0.000000 0.000000 
#    y 0.000000 3.181420 0.000000 
#    z 0.000000 0.000000 3.275750 
# 
# 
# High freq. dielectric constant tensor:
#      x y z
#    x 1.685770 0.000000 0.000000 
#    y 0.000000 1.681980 0.000000 
#    z 0.000000 0.000000 1.672060 
# 
# From -- ./inp_files/24634.got.cif
#   From: 2010.03.12/outbox.cif.g09.slc.cpg/sg62_13_cif.got.tgz:24634.got - 2010.04.10 19:12:36.
