data_PCOD8251252
_publ_section_title
;
Structure prediction by ZEFSAII (Michael W. Deem and Ramdas Pophale) SiO2 
 PCOD8251252
Probable space group: P N M A
;
_chemical_formula_sum "Si O2"
_cell_formula_units_Z 64
_cell_length_a 7.837539
_cell_length_b 16.560645
_cell_length_c 23.818760
_cell_angle_alpha 90.000000
_cell_angle_beta 90.000000
_cell_angle_gamma 90.000000
_cell_volume 3091.548834
_symmetry_space_group_name_H-M "P N M A"
_symmetry_group_IT_number 62
_symmetry_cell_setting 'orthorhombic'
loop_
_space_group_symop_operation_xyz
x,y,z
1/2-x,-y,1/2+z
1/2+x,1/2-y,1/2-z
-x,1/2+y,-z
-x,-y,-z
1/2+x,y,1/2-z
1/2-x,1/2+y,1/2+z
x,1/2-y,z
loop_
_atom_site_type_symbol
_atom_site_label
_atom_site_fract_x
_atom_site_fract_y
_atom_site_fract_z
Si Si1 0.793337 0.570580 0.241650
Si Si2 0.634712 0.653790 0.454109
Si Si3 0.041892 0.054063 0.264120
Si Si4 0.042048 0.153976 0.481179
Si Si5 0.579542 0.654626 0.328114
Si Si6 0.443252 0.656964 0.657002
Si Si7 0.164370 0.153956 0.034376
Si Si8 0.842805 0.841689 0.638272
O O1 0.610185 0.538042 0.219896
O O2 0.750241 0.628353 0.294527
O O3 0.850129 0.476875 0.253855
O O4 0.904617 0.616563 0.195573
O O5 0.631111 0.750000 0.456427
O O6 0.598012 0.622907 0.391477
O O7 0.487946 0.618744 0.495557
O O8 0.823627 0.622069 0.472028
O O9 0.043770 0.112890 0.316315
O O10 0.112941 0.099769 0.208307
O O11 0.043074 0.250000 0.481732
O O12 0.847292 0.123115 0.490106
O O13 0.112911 0.121424 0.422111
O O14 0.561169 0.750000 0.324636
O O15 0.392298 0.750000 0.670095
O O16 0.355815 0.626124 0.599183
O O17 0.644927 0.649399 0.649922
O O18 0.153795 0.250000 0.032990
O O19 0.904767 0.750000 0.641215
#
# Coordination Sequence:
#
# PCOD8251252 Si02
#       8
#     8   8   8   8   8   8   8   8
#     4  10  23  39  59  82 114 148 182 240 307 367
#     4   9  17  34  59  87 117 146 182 242 307 364
#     4  11  21  37  52  81 118 165 203 236 291 346
#     4   9  17  30  51  84 120 154 195 244 291 333
#     4  10  21  42  68  90 109 138 185 246 312 381
#     4  10  19  32  53  82 122 169 213 249 274 319
#     4   9  17  30  51  85 123 156 196 244 292 335
#     4  10  19  32  53  81 120 166 209 247 276 320
#
# _framework density 20.701599999999999
#
# number of rings (size 3 to 8) (size 9 to 14) (size 15 to 20)
#    0.000    2.250    2.500    0.750    1.750    0.000 
#    4.500    0.000    0.000    7.500    0.000    0.000 
#    0.000    0.000    0.000    0.000    0.000    0.000 
#
# Total GULP energy -792875.175136 kJ/mol
# GULP energy per Si atom -12388.674612 kJ/mol
# Density = 2.065448 g / cm^3
# Si number density = 20.701600 Si / 1000 Ang^3
#
#
#
# Elastic Constant Matrix: (Units=GPa)
#
#
# Indices 1 2 3 4 5 6 
#
# 1 56.9795 18.3937 31.5389 0.0000 0.0000 0.0000
# 2 18.3937 50.1973 28.6479 0.0000 0.0000 0.0000
# 3 31.5389 28.6479 109.5637 0.0000 0.0000 0.0000
# 4 0.0000 0.0000 0.0000 0.2634 0.0000 0.0000
# 5 0.0000 0.0000 0.0000 0.0000 32.5923 0.0000
# 6 0.0000 0.0000 0.0000 0.0000 0.0000 27.0516
#
#
#
# Elastic Compliance Matrix: (Units=1/GPa)
#
#
# Indices 1 2 3 4 5 6 
#
# 1 0.021983 -0.005223 -0.004962 0.000000 0.000000 0.000000
# 2 -0.005223 0.024657 -0.004943 0.000000 0.000000 0.000000
# 3 -0.004962 -0.004943 0.011848 0.000000 0.000000 0.000000
# 4 0.000000 0.000000 0.000000 3.795861 0.000000 0.000000
# 5 0.000000 0.000000 0.000000 0.000000 0.030682 0.000000
# 6 0.000000 0.000000 0.000000 0.000000 0.000000 0.036966
#
#
# Mechanical properties :
#
#
# Convention : Reuss Voigt Hill
#
# Bulk Modulus (GPa) = 35.42357 41.54463 38.48410
# Shear Modulus (GPa) = 1.26210 21.19214 11.22712
#
# Velocity S-wave (km/s) = 0.78165 3.20300 2.33133
# Velocity P-wave (km/s) = 4.23831 5.81298 5.08695
#
# Compressibility (1/GPa) = 0.02822979
#
# Stress axis : x y z
#
# Youngs Moduli (GPa) = 45.48977 40.55715 84.40151
#
# Poissons Ratio (x) = 0.21184 0.41882
# Poissons Ratio (y) = 0.23760 0.41724
# Poissons Ratio (z) = 0.22573 0.20049
#
# Static dielectric constant tensor:
#      x y z
#    x 4.029300 0.000000 0.000000 
#    y 0.000000 3.399440 0.000000 
#    z 0.000000 0.000000 3.765100 
# 
# 
# High freq. dielectric constant tensor:
#      x y z
#    x 1.829160 0.000000 0.000000 
#    y 0.000000 1.775510 0.000000 
#    z 0.000000 0.000000 1.801460 
# 
# From -- ./inp_files/26182.got.cif
#   From: 2010.03.12/outbox.cif.g09.slc.cpg/sg62_14_cif.got.tgz:26182.got - 2010.04.10 19:12:36.
