data_PCOD8251076
_publ_section_title
;
Structure prediction by ZEFSAII (Michael W. Deem and Ramdas Pophale) SiO2 
 PCOD8251076
Probable space group: P N M A
;
_chemical_formula_sum "Si O2"
_cell_formula_units_Z 64
_cell_length_a 9.550468
_cell_length_b 14.135089
_cell_length_c 26.387853
_cell_angle_alpha 90.000000
_cell_angle_beta 90.000000
_cell_angle_gamma 90.000000
_cell_volume 3562.273475
_symmetry_space_group_name_H-M "P N M A"
_symmetry_group_IT_number 62
_symmetry_cell_setting 'orthorhombic'
loop_
_space_group_symop_operation_xyz
x,y,z
1/2-x,-y,1/2+z
1/2+x,1/2-y,1/2-z
-x,1/2+y,-z
-x,-y,-z
1/2+x,y,1/2-z
1/2-x,1/2+y,1/2+z
x,1/2-y,z
loop_
_atom_site_type_symbol
_atom_site_label
_atom_site_fract_x
_atom_site_fract_y
_atom_site_fract_z
Si Si1 0.655980 0.037253 0.401983
Si Si2 0.081268 0.642686 0.955323
Si Si3 0.667245 0.052301 0.100599
Si Si4 0.735279 0.860413 0.701782
Si Si5 0.197177 0.646389 0.439621
Si Si6 0.974513 0.353705 0.930930
Si Si7 0.422264 0.072214 0.036523
Si Si8 0.590970 0.139742 0.301335
O O1 0.569895 0.104724 0.439529
O O2 0.807393 0.024188 0.427055
O O3 0.663016 0.083027 0.346711
O O4 0.586002 0.934061 0.394330
O O5 0.098585 0.750000 0.935410
O O6 0.192452 0.574702 0.929586
O O7 0.102547 0.635954 0.015150
O O8 0.687479 0.078566 0.158875
O O9 0.540089 0.112740 0.075383
O O10 0.633741 0.939401 0.094174
O O11 0.750065 0.750000 0.688468
O O12 0.817635 0.886496 0.752546
O O13 0.571826 0.888970 0.706446
O O14 0.156601 0.750000 0.416729
O O15 0.362540 0.633260 0.440110
O O16 0.145289 0.648171 0.498346
O O17 0.942137 0.250000 0.907563
O O18 0.500000 0.000000 0.000000
O O19 0.602380 0.250000 0.313940
#
# Coordination Sequence:
#
# PCOD8251076 Si02
#       8
#     8   8   8   8   8   8   8   8
#     4  12  20  36  57  77 110 147 188 231 272 336
#     4  11  20  32  54  80 107 142 183 226 270 324
#     4  11  21  37  54  79 111 150 186 226 280 336
#     4  10  21  38  57  80 111 141 184 238 288 341
#     4  10  19  33  52  80 113 144 183 227 271 328
#     4  10  19  31  53  81 106 140 182 224 267 317
#     4  10  23  35  51  81 116 152 188 225 275 329
#     4  10  22  37  57  84 108 140 183 234 291 339
#
# _framework density 17.966055000000001
#
# number of rings (size 3 to 8) (size 9 to 14) (size 15 to 20)
#    0.000    1.500    3.750    2.625    1.750    1.500 
#    0.000    3.750    0.000    0.750    0.000    0.000 
#    0.000    0.000    0.000    0.000    0.000    0.000 
#
# Total GULP energy -793325.706627 kJ/mol
# GULP energy per Si atom -12395.714166 kJ/mol
# Density = 1.792516 g / cm^3
# Si number density = 17.966055 Si / 1000 Ang^3
#
#
#
# Elastic Constant Matrix: (Units=GPa)
#
#
# Indices 1 2 3 4 5 6 
#
# 1 92.4909 25.2217 54.9246 0.0000 0.0000 0.0000
# 2 25.2217 96.8357 47.2256 0.0000 0.0000 0.0000
# 3 54.9246 47.2256 103.7155 0.0000 0.0000 0.0000
# 4 0.0000 0.0000 0.0000 24.4814 0.0000 0.0000
# 5 0.0000 0.0000 0.0000 0.0000 26.2693 0.0000
# 6 0.0000 0.0000 0.0000 0.0000 0.0000 9.2143
#
#
#
# Elastic Compliance Matrix: (Units=1/GPa)
#
#
# Indices 1 2 3 4 5 6 
#
# 1 0.015772 -0.000044 -0.008332 0.000000 0.000000 0.000000
# 2 -0.000044 0.013275 -0.006021 0.000000 0.000000 0.000000
# 3 -0.008332 -0.006021 0.016796 0.000000 0.000000 0.000000
# 4 0.000000 0.000000 0.000000 0.040847 0.000000 0.000000
# 5 0.000000 0.000000 0.000000 0.000000 0.038067 0.000000
# 6 0.000000 0.000000 0.000000 0.000000 0.000000 0.108527
#
#
# Mechanical properties :
#
#
# Convention : Reuss Voigt Hill
#
# Bulk Modulus (GPa) = 58.66004 60.86511 59.76258
# Shear Modulus (GPa) = 18.67333 23.03769 20.85551
#
# Velocity S-wave (km/s) = 3.22742 3.58479 3.41079
# Velocity P-wave (km/s) = 6.82713 7.14743 6.98911
#
# Compressibility (1/GPa) = 0.01704738
#
# Stress axis : x y z
#
# Youngs Moduli (GPa) = 63.40387 75.33143 59.53895
#
# Poissons Ratio (x) = 0.00335 0.49608
# Poissons Ratio (y) = 0.00282 0.35848
# Poissons Ratio (z) = 0.52829 0.45356
#
# Static dielectric constant tensor:
#      x y z
#    x 3.487650 0.000000 0.000000 
#    y 0.000000 3.432370 0.000000 
#    z 0.000000 0.000000 3.198060 
# 
# 
# High freq. dielectric constant tensor:
#      x y z
#    x 1.704010 0.000000 0.000000 
#    y 0.000000 1.686290 0.000000 
#    z 0.000000 0.000000 1.670140 
# 
# From -- ./inp_files/28966.got.cif
#   From: 2010.03.12/outbox.cif.g09.slc.cpg/sg62_15_cif.got.tgz:28966.got - 2010.04.10 19:12:36.
