data_PCOD8251322
_publ_section_title
;
Structure prediction by ZEFSAII (Michael W. Deem and Ramdas Pophale) SiO2 
 PCOD8251322
Probable space group: P N M A
;
_chemical_formula_sum "Si O2"
_cell_formula_units_Z 48
_cell_length_a 8.929045
_cell_length_b 20.442864
_cell_length_c 14.868257
_cell_angle_alpha 90.000000
_cell_angle_beta 90.000000
_cell_angle_gamma 90.000000
_cell_volume 2713.981047
_symmetry_space_group_name_H-M "P N M A"
_symmetry_group_IT_number 62
_symmetry_cell_setting 'orthorhombic'
loop_
_space_group_symop_operation_xyz
x,y,z
1/2-x,-y,1/2+z
1/2+x,1/2-y,1/2-z
-x,1/2+y,-z
-x,-y,-z
1/2+x,y,1/2-z
1/2-x,1/2+y,1/2+z
x,1/2-y,z
loop_
_atom_site_type_symbol
_atom_site_label
_atom_site_fract_x
_atom_site_fract_y
_atom_site_fract_z
Si Si1 0.419843 0.955915 0.310763
Si Si2 0.423213 0.046711 0.867282
Si Si3 0.927758 0.429966 0.980946
Si Si4 0.967905 0.391504 0.165635
Si Si5 0.157082 0.327030 0.313810
Si Si6 0.413734 0.585114 0.966647
O O1 0.245925 0.944470 0.332811
O O2 0.461356 0.931867 0.211000
O O3 0.517514 0.911642 0.380765
O O4 0.470904 0.031342 0.314386
O O5 0.454227 0.972294 0.896687
O O6 0.462156 0.091414 0.954467
O O7 0.992714 0.381072 0.057921
O O8 0.747634 0.430518 0.988550
O O9 0.000000 0.500000 0.000000
O O10 0.810313 0.364172 0.193890
O O11 0.083404 0.349232 0.221158
O O12 0.175752 0.250000 0.315573
O O13 0.076573 0.349047 0.406834
#
# Coordination Sequence:
#
# PCOD8251322 Si02
#       6
#     8   8   8   8   8   8
#     4  11  18  33  50  78 102 141 158 211 261 315
#     4  11  20  30  51  73 108 130 170 205 268 312
#     4   9  17  31  48  69 103 131 170 200 256 302
#     4  10  19  33  47  74 102 136 174 206 243 305
#     4  11  21  35  51  71 103 143 179 210 246 292
#     4  10  20  33  46  76 101 139 171 211 251 312
#
# _framework density 17.686197
#
# number of rings (size 3 to 8) (size 9 to 14) (size 15 to 20)
#    0.000    1.667    6.667    1.500    0.000    2.667 
#    0.000    0.000    0.000    0.000    0.000   11.667 
#    0.000    0.000    0.000    0.000    0.000    0.000 
#
# Total GULP energy -594717.230407 kJ/mol
# GULP energy per Si atom -12389.942300 kJ/mol
# Density = 1.764594 g / cm^3
# Si number density = 17.686197 Si / 1000 Ang^3
#
#
#
# Elastic Constant Matrix: (Units=GPa)
#
#
# Indices 1 2 3 4 5 6 
#
# 1 87.0843 41.5959 76.8830 0.0000 0.0000 0.0000
# 2 41.5959 77.1275 42.8434 0.0000 0.0000 0.0000
# 3 76.8830 42.8434 156.4971 0.0000 0.0000 0.0000
# 4 0.0000 0.0000 0.0000 15.3783 0.0000 0.0000
# 5 0.0000 0.0000 0.0000 0.0000 38.8365 0.0000
# 6 0.0000 0.0000 0.0000 0.0000 0.0000 52.6159
#
#
#
# Elastic Compliance Matrix: (Units=1/GPa)
#
#
# Indices 1 2 3 4 5 6 
#
# 1 0.023333 -0.007331 -0.009456 0.000000 0.000000 0.000000
# 2 -0.007331 0.017594 -0.001215 0.000000 0.000000 0.000000
# 3 -0.009456 -0.001215 0.011368 0.000000 0.000000 0.000000
# 4 0.000000 0.000000 0.000000 0.065027 0.000000 0.000000
# 5 0.000000 0.000000 0.000000 0.000000 0.025749 0.000000
# 6 0.000000 0.000000 0.000000 0.000000 0.000000 0.019006
#
#
# Mechanical properties :
#
#
# Convention : Reuss Voigt Hill
#
# Bulk Modulus (GPa) = 61.38356 71.48374 66.43365
# Shear Modulus (GPa) = 24.56862 31.99190 28.28026
#
# Velocity S-wave (km/s) = 3.73116 4.25769 4.00309
# Velocity P-wave (km/s) = 7.30373 8.04214 7.68181
#
# Compressibility (1/GPa) = 0.01629101
#
# Stress axis : x y z
#
# Youngs Moduli (GPa) = 42.85746 56.83645 87.96617
#
# Poissons Ratio (x) = 0.41668 0.83180
# Poissons Ratio (y) = 0.31420 0.10688
# Poissons Ratio (z) = 0.40526 0.06906
#
# Static dielectric constant tensor:
#      x y z
#    x 3.311700 0.000000 0.000000 
#    y 0.000000 2.856290 0.000000 
#    z 0.000000 0.000000 4.144380 
# 
# 
# High freq. dielectric constant tensor:
#      x y z
#    x 1.689180 0.000000 0.000000 
#    y 0.000000 1.615840 0.000000 
#    z 0.000000 0.000000 1.708900 
# 
# From -- ./inp_files/17086.got.cif
#   From: 2010.03.12/outbox.cif.g09.slc.cpg/sg62_9_cif.got.tgz:17086.got - 2010.04.10 19:12:36.
