data_PCOD8251827
_publ_section_title
;
Structure prediction by ZEFSAII (Michael W. Deem and Ramdas Pophale) SiO2 
 PCOD8251827
Probable space group: P N M A
;
_chemical_formula_sum "Si O2"
_cell_formula_units_Z 48
_cell_length_a 20.322408
_cell_length_b 9.089658
_cell_length_c 14.385013
_cell_angle_alpha 90.000000
_cell_angle_beta 90.000000
_cell_angle_gamma 90.000000
_cell_volume 2657.253379
_symmetry_space_group_name_H-M "P N M A"
_symmetry_group_IT_number 62
_symmetry_cell_setting 'orthorhombic'
loop_
_space_group_symop_operation_xyz
x,y,z
1/2-x,-y,1/2+z
1/2+x,1/2-y,1/2-z
-x,1/2+y,-z
-x,-y,-z
1/2+x,y,1/2-z
1/2-x,1/2+y,1/2+z
x,1/2-y,z
loop_
_atom_site_type_symbol
_atom_site_label
_atom_site_fract_x
_atom_site_fract_y
_atom_site_fract_z
Si Si1 0.228717 0.077608 0.992662
Si Si2 0.876627 0.075739 0.505748
Si Si3 0.192005 0.577547 0.812529
Si Si4 0.431887 0.076307 0.188104
Si Si5 0.434242 0.424549 0.799142
Si Si6 0.319161 0.577950 0.696656
O O1 0.230616 0.250000 0.972894
O O2 0.187208 0.001805 0.911400
O O3 0.302655 0.011799 0.993771
O O4 0.193897 0.041582 0.089462
O O5 0.871822 0.250000 0.499810
O O6 0.915664 0.018003 0.415662
O O7 0.914141 0.021788 0.597654
O O8 0.193966 0.750000 0.829593
O O9 0.128400 0.532260 0.753814
O O10 0.256650 0.525845 0.756822
O O11 0.445222 0.250000 0.189232
O O12 0.495404 0.992118 0.226114
O O13 0.437094 0.250000 0.792075
O O14 0.382125 0.484179 0.725350
O O15 0.333077 0.750000 0.711969
#
# Coordination Sequence:
#
# PCOD8251827 Si02
#       6
#     8   8   8   8   8   8
#     4  10  19  35  58  83 111 143 180 223 274 325
#     4   9  17  32  55  82 112 143 174 220 276 324
#     4  10  20  35  57  83 109 141 184 228 267 319
#     4  10  20  37  57  78 112 151 184 219 270 334
#     4  11  22  35  54  83 116 145 181 228 276 320
#     4  10  20  36  58  81 108 147 186 218 268 334
#
# _framework density 18.063766000000001
#
# number of rings (size 3 to 8) (size 9 to 14) (size 15 to 20)
#    0.000    2.000    3.333    1.000    0.000    1.333 
#    0.000    2.500    0.000    0.000    0.000    0.000 
#    0.000    0.000    0.000    0.000    0.000    0.000 
#
# Total GULP energy -595357.856504 kJ/mol
# GULP energy per Si atom -12403.288677 kJ/mol
# Density = 1.802265 g / cm^3
# Si number density = 18.063766 Si / 1000 Ang^3
#
#
#
# Elastic Constant Matrix: (Units=GPa)
#
#
# Indices 1 2 3 4 5 6 
#
# 1 116.3103 35.1195 49.4693 0.0000 0.0000 0.0000
# 2 35.1195 33.9885 35.5244 0.0000 0.0000 0.0000
# 3 49.4693 35.5244 112.5468 0.0000 0.0000 0.0000
# 4 0.0000 0.0000 0.0000 30.6509 0.0000 0.0000
# 5 0.0000 0.0000 0.0000 0.0000 24.9190 0.0000
# 6 0.0000 0.0000 0.0000 0.0000 0.0000 24.7968
#
#
#
# Elastic Compliance Matrix: (Units=1/GPa)
#
#
# Indices 1 2 3 4 5 6 
#
# 1 0.012843 -0.010999 -0.002173 0.000000 0.000000 0.000000
# 2 -0.010999 0.053326 -0.011997 0.000000 0.000000 0.000000
# 3 -0.002173 -0.011997 0.013627 0.000000 0.000000 0.000000
# 4 0.000000 0.000000 0.000000 0.032626 0.000000 0.000000
# 5 0.000000 0.000000 0.000000 0.000000 0.040130 0.000000
# 6 0.000000 0.000000 0.000000 0.000000 0.000000 0.040328
#
#
# Mechanical properties :
#
#
# Convention : Reuss Voigt Hill
#
# Bulk Modulus (GPa) = 33.94751 55.89689 44.92220
# Shear Modulus (GPa) = 19.75980 25.58882 22.67431
#
# Velocity S-wave (km/s) = 3.31099 3.76784 3.54678
# Velocity P-wave (km/s) = 5.78367 7.06683 6.45720
#
# Compressibility (1/GPa) = 0.02945724
#
# Stress axis : x y z
#
# Youngs Moduli (GPa) = 77.86231 18.75247 73.38146
#
# Poissons Ratio (x) = 0.20626 0.15949
# Poissons Ratio (y) = 0.85640 0.88039
# Poissons Ratio (z) = 0.16923 0.22498
#
# Static dielectric constant tensor:
#      x y z
#    x 3.318740 0.000000 0.000000 
#    y 0.000000 3.054600 0.000000 
#    z 0.000000 0.000000 3.368100 
# 
# 
# High freq. dielectric constant tensor:
#      x y z
#    x 1.701880 0.000000 0.000000 
#    y 0.000000 1.678880 0.000000 
#    z 0.000000 0.000000 1.702750 
# 
# From -- ./inp_files/19517.got.cif
#   From: 2010.03.12/outbox.cif.g09.slc.cpg/sg62_10_cif.got.tgz:19517.got - 2010.04.10 19:12:36.
