data_PCOD8251522
_publ_section_title
;
Structure prediction by ZEFSAII (Michael W. Deem and Ramdas Pophale) SiO2 
 PCOD8251522
Probable space group: P N M A
;
_chemical_formula_sum "Si O2"
_cell_formula_units_Z 64
_cell_length_a 9.922045
_cell_length_b 13.585961
_cell_length_c 22.209404
_cell_angle_alpha 90.000000
_cell_angle_beta 90.000000
_cell_angle_gamma 90.000000
_cell_volume 2993.839128
_symmetry_space_group_name_H-M "P N M A"
_symmetry_group_IT_number 62
_symmetry_cell_setting 'orthorhombic'
loop_
_space_group_symop_operation_xyz
x,y,z
1/2-x,-y,1/2+z
1/2+x,1/2-y,1/2-z
-x,1/2+y,-z
-x,-y,-z
1/2+x,y,1/2-z
1/2-x,1/2+y,1/2+z
x,1/2-y,z
loop_
_atom_site_type_symbol
_atom_site_label
_atom_site_fract_x
_atom_site_fract_y
_atom_site_fract_z
Si Si1 0.050086 0.366368 0.482719
Si Si2 0.819530 0.547850 0.305300
Si Si3 0.449465 0.642339 0.593541
Si Si4 0.960241 0.365343 0.611070
Si Si5 0.352575 0.361238 0.119968
Si Si6 0.555858 0.940291 0.367223
Si Si7 0.699697 0.362439 0.679501
Si Si8 0.653575 0.862026 0.488390
O O1 0.031792 0.250000 0.484830
O O2 0.985160 0.411913 0.544373
O O3 0.969242 0.404085 0.423960
O O4 0.208117 0.395382 0.478320
O O5 0.844802 0.433051 0.321965
O O6 0.665068 0.580795 0.315690
O O7 0.842562 0.567679 0.235030
O O8 0.913677 0.616195 0.345830
O O9 0.489027 0.750000 0.620651
O O10 0.288108 0.637408 0.583416
O O11 0.493958 0.554435 0.638198
O O12 0.524244 0.626805 0.530502
O O13 0.940080 0.250000 0.603245
O O14 0.825587 0.407894 0.642884
O O15 0.385060 0.250000 0.142385
O O16 0.431296 0.865648 0.363380
O O17 0.630679 0.930876 0.431152
O O18 0.726802 0.250000 0.700080
O O19 0.670999 0.750000 0.465779
#
# Coordination Sequence:
#
# PCOD8251522 Si02
#       8
#     8   8   8   8   8   8   8   8
#     4   9  18  34  56  85 120 154 190 235 292 354
#     4  11  22  39  59  83 114 157 199 243 292 344
#     4   9  20  37  57  83 117 154 191 237 290 343
#     4  10  21  37  56  85 121 156 191 235 291 355
#     4   9  20  38  60  85 117 154 195 244 294 349
#     4  11  22  38  58  85 115 153 199 242 286 347
#     4  11  25  40  60  86 117 154 195 245 294 351
#     4  10  19  33  56  86 120 154 189 234 289 351
#
# _framework density 21.377234999999999
#
# number of rings (size 3 to 8) (size 9 to 14) (size 15 to 20)
#    0.000    2.000    1.250    1.875    1.750    4.000 
#    0.000    0.625    0.000    2.250    0.000    0.000 
#    0.000    0.000    0.000    0.000    0.000    0.000 
#
# Total GULP energy -793413.541290 kJ/mol
# GULP energy per Si atom -12397.086583 kJ/mol
# Density = 2.132858 g / cm^3
# Si number density = 21.377235 Si / 1000 Ang^3
#
#
#
# Elastic Constant Matrix: (Units=GPa)
#
#
# Indices 1 2 3 4 5 6 
#
# 1 97.5079 31.7800 33.2923 0.0000 0.0000 0.0000
# 2 31.7800 63.0463 22.5157 0.0000 0.0000 0.0000
# 3 33.2923 22.5157 68.8616 0.0000 0.0000 0.0000
# 4 0.0000 0.0000 0.0000 23.8679 0.0000 0.0000
# 5 0.0000 0.0000 0.0000 0.0000 27.2826 0.0000
# 6 0.0000 0.0000 0.0000 0.0000 0.0000 25.9659
#
#
#
# Elastic Compliance Matrix: (Units=1/GPa)
#
#
# Indices 1 2 3 4 5 6 
#
# 1 0.013592 -0.005100 -0.004904 0.000000 0.000000 0.000000
# 2 -0.005100 0.019872 -0.004032 0.000000 0.000000 0.000000
# 3 -0.004904 -0.004032 0.018211 0.000000 0.000000 0.000000
# 4 0.000000 0.000000 0.000000 0.041897 0.000000 0.000000
# 5 0.000000 0.000000 0.000000 0.000000 0.036653 0.000000
# 6 0.000000 0.000000 0.000000 0.000000 0.000000 0.038512
#
#
# Mechanical properties :
#
#
# Convention : Reuss Voigt Hill
#
# Bulk Modulus (GPa) = 42.36618 44.95465 43.66042
# Shear Modulus (GPa) = 24.42869 24.87846 24.65357
#
# Velocity S-wave (km/s) = 3.38412 3.41513 3.39966
# Velocity P-wave (km/s) = 5.92714 6.05191 5.98985
#
# Compressibility (1/GPa) = 0.02360373
#
# Stress axis : x y z
#
# Youngs Moduli (GPa) = 73.57194 50.32180 54.91197
#
# Poissons Ratio (x) = 0.25665 0.26927
# Poissons Ratio (y) = 0.37523 0.22139
# Poissons Ratio (z) = 0.36078 0.20289
#
# Static dielectric constant tensor:
#      x y z
#    x 4.005020 0.000000 0.000000 
#    y 0.000000 3.967330 0.000000 
#    z 0.000000 0.000000 3.550320 
# 
# 
# High freq. dielectric constant tensor:
#      x y z
#    x 1.849300 0.000000 0.000000 
#    y 0.000000 1.846360 0.000000 
#    z 0.000000 0.000000 1.803100 
# 
# From -- ./inp_files/29012.got.cif
#   From: 2010.03.12/outbox.cif.g09.slc.cpg/sg62_15_cif.got.tgz:29012.got - 2010.04.10 19:12:36.
