data_PCOD8251510
_publ_section_title
;
Structure prediction by ZEFSAII (Michael W. Deem and Ramdas Pophale) SiO2 
 PCOD8251510
Probable space group: P N M A
;
_chemical_formula_sum "Si O2"
_cell_formula_units_Z 48
_cell_length_a 28.735236
_cell_length_b 8.890279
_cell_length_c 10.278094
_cell_angle_alpha 90.000000
_cell_angle_beta 90.000000
_cell_angle_gamma 90.000000
_cell_volume 2625.685731
_symmetry_space_group_name_H-M "P N M A"
_symmetry_group_IT_number 62
_symmetry_cell_setting 'orthorhombic'
loop_
_space_group_symop_operation_xyz
x,y,z
1/2-x,-y,1/2+z
1/2+x,1/2-y,1/2-z
-x,1/2+y,-z
-x,-y,-z
1/2+x,y,1/2-z
1/2-x,1/2+y,1/2+z
x,1/2-y,z
loop_
_atom_site_type_symbol
_atom_site_label
_atom_site_fract_x
_atom_site_fract_y
_atom_site_fract_z
Si Si1 0.971967 0.426219 0.883104
Si Si2 0.474228 0.573264 0.119982
Si Si3 0.109757 0.926821 0.740373
Si Si4 0.112762 0.427172 0.013483
Si Si5 0.716287 0.574299 0.766698
Si Si6 0.281352 0.573283 0.503804
O O1 0.968750 0.250000 0.908054
O O2 0.919958 0.496459 0.878052
O O3 0.996087 0.464668 0.747549
O O4 0.000000 0.500000 0.000000
O O5 0.468092 0.750000 0.097775
O O6 0.423473 0.496396 0.130286
O O7 0.500000 0.500000 0.000000
O O8 0.101001 0.750000 0.755539
O O9 0.162774 0.962570 0.700370
O O10 0.097213 0.008230 0.874618
O O11 0.104423 0.250000 0.011670
O O12 0.166054 0.469898 0.043917
O O13 0.724764 0.750000 0.749497
O O14 0.732697 0.498920 0.633071
O O15 0.747425 0.509743 0.884435
O O16 0.275546 0.750000 0.487088
#
# Coordination Sequence:
#
# PCOD8251510 Si02
#       6
#     8   8   8   8   8   8
#     4  11  22  36  58  84 110 142 182 227 271 323
#     4  11  24  40  57  80 112 147 184 227 275 331
#     4  10  19  34  58  81 109 147 185 225 272 326
#     4  10  19  33  56  83 111 143 184 228 271 322
#     4   9  19  36  57  82 111 143 182 225 271 325
#     4   9  19  36  56  80 112 144 180 226 271 322
#
# _framework density 18.280937999999999
#
# number of rings (size 3 to 8) (size 9 to 14) (size 15 to 20)
#    0.000    2.000    1.667    2.000    0.000    4.000 
#    3.000    0.000    0.000    0.000    0.000    0.000 
#    0.000    0.000    0.000    0.000    0.000    0.000 
#
# Total GULP energy -595339.035534 kJ/mol
# GULP energy per Si atom -12402.896574 kJ/mol
# Density = 1.823933 g / cm^3
# Si number density = 18.280938 Si / 1000 Ang^3
#
#
#
# Elastic Constant Matrix: (Units=GPa)
#
#
# Indices 1 2 3 4 5 6 
#
# 1 122.7702 49.2205 81.5983 0.0000 0.0000 0.0000
# 2 49.2205 75.7251 58.8991 0.0000 0.0000 0.0000
# 3 81.5983 58.8991 125.1244 0.0000 0.0000 0.0000
# 4 0.0000 0.0000 0.0000 31.2578 0.0000 0.0000
# 5 0.0000 0.0000 0.0000 0.0000 37.6547 0.0000
# 6 0.0000 0.0000 0.0000 0.0000 0.0000 27.2582
#
#
#
# Elastic Compliance Matrix: (Units=1/GPa)
#
#
# Indices 1 2 3 4 5 6 
#
# 1 0.014898 -0.003355 -0.008136 0.000000 0.000000 0.000000
# 2 -0.003355 0.021589 -0.007974 0.000000 0.000000 0.000000
# 3 -0.008136 -0.007974 0.017052 0.000000 0.000000 0.000000
# 4 0.000000 0.000000 0.000000 0.031992 0.000000 0.000000
# 5 0.000000 0.000000 0.000000 0.000000 0.026557 0.000000
# 6 0.000000 0.000000 0.000000 0.000000 0.000000 0.036686
#
#
# Mechanical properties :
#
#
# Convention : Reuss Voigt Hill
#
# Bulk Modulus (GPa) = 68.45966 78.11726 73.28846
# Shear Modulus (GPa) = 25.96389 28.16094 27.06241
#
# Velocity S-wave (km/s) = 3.77274 3.92912 3.85172
# Velocity P-wave (km/s) = 7.51718 7.96293 7.74326
#
# Compressibility (1/GPa) = 0.01460714
#
# Stress axis : x y z
#
# Youngs Moduli (GPa) = 67.12233 46.31977 58.64500
#
# Poissons Ratio (x) = 0.15541 0.47715
# Poissons Ratio (y) = 0.22521 0.46766
# Poissons Ratio (z) = 0.54612 0.36937
#
# Static dielectric constant tensor:
#      x y z
#    x 3.663560 0.000000 0.000000 
#    y 0.000000 3.420330 0.000000 
#    z 0.000000 0.000000 3.323990 
# 
# 
# High freq. dielectric constant tensor:
#      x y z
#    x 1.720210 0.000000 0.000000 
#    y 0.000000 1.717570 0.000000 
#    z 0.000000 0.000000 1.691760 
# 
# From -- ./inp_files/10162.got.cif
#   From: 2010.03.12/outbox.cif.g09.slc.cpg/sg62_6_cif.got.tgz:10162.got - 2010.04.10 19:12:36.
