data_PCOD8251039
_publ_section_title
;
Structure prediction by ZEFSAII (Michael W. Deem and Ramdas Pophale) SiO2 
 PCOD8251039
Probable space group: P N M A
;
_chemical_formula_sum "Si O2"
_cell_formula_units_Z 56
_cell_length_a 22.071015
_cell_length_b 9.133838
_cell_length_c 14.611165
_cell_angle_alpha 90.000000
_cell_angle_beta 90.000000
_cell_angle_gamma 90.000000
_cell_volume 2945.509689
_symmetry_space_group_name_H-M "P N M A"
_symmetry_group_IT_number 62
_symmetry_cell_setting 'orthorhombic'
loop_
_space_group_symop_operation_xyz
x,y,z
1/2-x,-y,1/2+z
1/2+x,1/2-y,1/2-z
-x,1/2+y,-z
-x,-y,-z
1/2+x,y,1/2-z
1/2-x,1/2+y,1/2+z
x,1/2-y,z
loop_
_atom_site_type_symbol
_atom_site_label
_atom_site_fract_x
_atom_site_fract_y
_atom_site_fract_z
Si Si1 0.380595 0.422685 0.291692
Si Si2 0.645738 0.576749 0.343760
Si Si3 0.718087 0.075475 0.819832
Si Si4 0.435013 0.423467 0.488200
Si Si5 0.402676 0.420544 0.846869
Si Si6 0.359992 0.585622 0.010827
Si Si7 0.961172 0.916335 0.350441
O O1 0.371494 0.250000 0.281985
O O2 0.316727 0.500747 0.265952
O O3 0.402241 0.465899 0.393408
O O4 0.433048 0.475182 0.223662
O O5 0.649382 0.750000 0.351107
O O6 0.713796 0.516276 0.330613
O O7 0.610592 0.517348 0.432912
O O8 0.609172 0.522504 0.255289
O O9 0.713417 0.250000 0.805865
O O10 0.686522 0.025073 0.913957
O O11 0.500000 0.500000 0.500000
O O12 0.445696 0.250000 0.495842
O O13 0.390252 0.250000 0.853626
O O14 0.470791 0.465453 0.871129
O O15 0.356382 0.492665 0.918377
O O16 0.342520 0.750000 0.983893
O O17 0.427046 0.574958 0.053164
O O18 0.958513 0.750000 0.311149
#
# Coordination Sequence:
#
# PCOD8251039 Si02
#       7
#     8   8   8   8   8   8   8
#     4  10  20  33  54  82 106 132 170 219 266 301
#     4   9  19  36  55  74 101 138 177 214 254 311
#     4   9  19  37  56  73  99 139 178 207 252 318
#     4  10  21  37  57  81 109 142 180 222 269 319
#     4  10  19  31  51  76  99 129 168 207 248 294
#     4   9  18  31  49  73 101 134 167 202 249 304
#     4   9  18  33  52  75 104 138 169 197 245 313
#
# _framework density 19.011990000000001
#
# number of rings (size 3 to 8) (size 9 to 14) (size 15 to 20)
#    0.000    2.571    0.000    2.571    0.000    6.286 
#    0.000    3.571    0.000    0.000    0.000    0.000 
#    0.000    0.000    0.000    0.000    0.000    0.000 
#
# Total GULP energy -694241.540385 kJ/mol
# GULP energy per Si atom -12397.170364 kJ/mol
# Density = 1.896872 g / cm^3
# Si number density = 19.011990 Si / 1000 Ang^3
#
#
#
# Elastic Constant Matrix: (Units=GPa)
#
#
# Indices 1 2 3 4 5 6 
#
# 1 109.1834 30.3791 37.7633 0.0000 0.0000 0.0000
# 2 30.3791 44.5628 39.7342 0.0000 0.0000 0.0000
# 3 37.7633 39.7342 119.8009 0.0000 0.0000 0.0000
# 4 0.0000 0.0000 0.0000 30.4056 0.0000 0.0000
# 5 0.0000 0.0000 0.0000 0.0000 22.4356 0.0000
# 6 0.0000 0.0000 0.0000 0.0000 0.0000 22.2225
#
#
#
# Elastic Compliance Matrix: (Units=1/GPa)
#
#
# Indices 1 2 3 4 5 6 
#
# 1 0.011478 -0.006530 -0.001452 0.000000 0.000000 0.000000
# 2 -0.006530 0.035578 -0.009742 0.000000 0.000000 0.000000
# 3 -0.001452 -0.009742 0.012036 0.000000 0.000000 0.000000
# 4 0.000000 0.000000 0.000000 0.032889 0.000000 0.000000
# 5 0.000000 0.000000 0.000000 0.000000 0.044572 0.000000
# 6 0.000000 0.000000 0.000000 0.000000 0.000000 0.044999
#
#
# Mechanical properties :
#
#
# Convention : Reuss Voigt Hill
#
# Bulk Modulus (GPa) = 42.29375 54.36670 48.33023
# Shear Modulus (GPa) = 22.23397 26.05746 24.14572
#
# Velocity S-wave (km/s) = 3.42346 3.70615 3.56761
# Velocity P-wave (km/s) = 6.15800 6.85362 6.51510
#
# Compressibility (1/GPa) = 0.02364415
#
# Stress axis : x y z
#
# Youngs Moduli (GPa) = 87.12268 28.10738 83.08392
#
# Poissons Ratio (x) = 0.18353 0.12067
# Poissons Ratio (y) = 0.56889 0.80938
# Poissons Ratio (z) = 0.12653 0.27382
#
# Static dielectric constant tensor:
#      x y z
#    x 3.581150 0.000000 0.000000 
#    y 0.000000 3.238690 0.000000 
#    z 0.000000 0.000000 3.524220 
# 
# 
# High freq. dielectric constant tensor:
#      x y z
#    x 1.742130 0.000000 0.000000 
#    y 0.000000 1.713720 0.000000 
#    z 0.000000 0.000000 1.743500 
# 
# From -- ./inp_files/20317.got.cif
#   From: 2010.03.12/outbox.cif.g09.slc.cpg/sg62_11_cif.got.tgz:20317.got - 2010.04.10 19:12:36.
