data_PCOD8251639
_publ_section_title
;
Structure prediction by ZEFSAII (Michael W. Deem and Ramdas Pophale) SiO2 
 PCOD8251639
Probable space group: P N M A
;
_chemical_formula_sum "Si O2"
_cell_formula_units_Z 48
_cell_length_a 14.886302
_cell_length_b 8.652714
_cell_length_c 20.127287
_cell_angle_alpha 90.000000
_cell_angle_beta 90.000000
_cell_angle_gamma 90.000000
_cell_volume 2592.533720
_symmetry_space_group_name_H-M "P N M A"
_symmetry_group_IT_number 62
_symmetry_cell_setting 'orthorhombic'
loop_
_space_group_symop_operation_xyz
x,y,z
1/2-x,-y,1/2+z
1/2+x,1/2-y,1/2-z
-x,1/2+y,-z
-x,-y,-z
1/2+x,y,1/2-z
1/2-x,1/2+y,1/2+z
x,1/2-y,z
loop_
_atom_site_type_symbol
_atom_site_label
_atom_site_fract_x
_atom_site_fract_y
_atom_site_fract_z
Si Si1 0.996421 0.430616 0.188467
Si Si2 0.769655 0.431407 0.983972
Si Si3 0.692780 0.071753 0.346329
Si Si4 0.612719 0.568788 0.812993
Si Si5 0.917636 0.432902 0.460216
Si Si6 0.568377 0.068056 0.552962
O O1 0.974282 0.250000 0.177302
O O2 0.103728 0.455562 0.197569
O O3 0.946560 0.501238 0.253223
O O4 0.962121 0.527541 0.126632
O O5 0.758681 0.250000 0.991925
O O6 0.813129 0.469666 0.912536
O O7 0.673561 0.510509 0.994399
O O8 0.833673 0.495425 0.041677
O O9 0.700676 0.250000 0.369600
O O10 0.781430 0.027000 0.303629
O O11 0.597360 0.750000 0.811701
O O12 0.579253 0.504491 0.884189
O O13 0.920783 0.250000 0.462095
O O14 0.000000 0.500000 0.500000
O O15 0.572283 0.250000 0.543075
O O16 0.500000 0.000000 0.500000
#
# Coordination Sequence:
#
# PCOD8251639 Si02
#       6
#     8   8   8   8   8   8
#     4  10  19  34  56  80 110 147 188 231 279 336
#     4  11  21  35  57  83 110 146 189 232 281 336
#     4   9  17  32  55  77 106 147 186 227 276 330
#     4   8  17  34  54  80 110 147 189 227 274 336
#     4  10  20  38  61  86 117 151 191 235 280 332
#     4  12  23  36  55  83 116 147 184 231 285 339
#
# _framework density 18.514706
#
# number of rings (size 3 to 8) (size 9 to 14) (size 15 to 20)
#    0.000    2.000    1.667    4.500    0.000    0.000 
#    3.000    4.167    0.000    0.000    0.000    0.000 
#    0.000    0.000    0.000    0.000    0.000    0.000 
#
# Total GULP energy -595183.425322 kJ/mol
# GULP energy per Si atom -12399.654694 kJ/mol
# Density = 1.847257 g / cm^3
# Si number density = 18.514706 Si / 1000 Ang^3
#
#
#
# Elastic Constant Matrix: (Units=GPa)
#
#
# Indices 1 2 3 4 5 6 
#
# 1 160.9664 36.2272 83.0996 0.0000 0.0000 0.0000
# 2 36.2272 78.7262 27.0518 0.0000 0.0000 0.0000
# 3 83.0996 27.0518 104.8823 0.0000 0.0000 0.0000
# 4 0.0000 0.0000 0.0000 23.5171 0.0000 0.0000
# 5 0.0000 0.0000 0.0000 0.0000 38.2483 0.0000
# 6 0.0000 0.0000 0.0000 0.0000 0.0000 28.1044
#
#
#
# Elastic Compliance Matrix: (Units=1/GPa)
#
#
# Indices 1 2 3 4 5 6 
#
# 1 0.010861 -0.002239 -0.008027 0.000000 0.000000 0.000000
# 2 -0.002239 0.014399 -0.001940 0.000000 0.000000 0.000000
# 3 -0.008027 -0.001940 0.016395 0.000000 0.000000 0.000000
# 4 0.000000 0.000000 0.000000 0.042522 0.000000 0.000000
# 5 0.000000 0.000000 0.000000 0.000000 0.026145 0.000000
# 6 0.000000 0.000000 0.000000 0.000000 0.000000 0.035582
#
#
# Mechanical properties :
#
#
# Convention : Reuss Voigt Hill
#
# Bulk Modulus (GPa) = 57.99792 70.81467 64.40630
# Shear Modulus (GPa) = 28.39874 31.18704 29.79289
#
# Velocity S-wave (km/s) = 3.92069 4.10865 4.01577
# Velocity P-wave (km/s) = 7.20340 7.79993 7.50759
#
# Compressibility (1/GPa) = 0.01724200
#
# Stress axis : x y z
#
# Youngs Moduli (GPa) = 92.07525 69.44819 60.99396
#
# Poissons Ratio (x) = 0.15552 0.48963
# Poissons Ratio (y) = 0.20619 0.11831
# Poissons Ratio (z) = 0.73913 0.13471
#
# Static dielectric constant tensor:
#      x y z
#    x 3.751350 0.000000 0.000000 
#    y 0.000000 3.281770 0.000000 
#    z 0.000000 0.000000 3.627290 
# 
# 
# High freq. dielectric constant tensor:
#      x y z
#    x 1.733310 0.000000 0.000000 
#    y 0.000000 1.707110 0.000000 
#    z 0.000000 0.000000 1.698320 
# 
# From -- ./inp_files/26887.got.cif
#   From: 2010.03.12/outbox.cif.g09.slc.cpg/sg62_14_cif.got.tgz:26887.got - 2010.04.10 19:12:36.
