data_PCOD8251571
_publ_section_title
;
Structure prediction by ZEFSAII (Michael W. Deem and Ramdas Pophale) SiO2 
 PCOD8251571
Probable space group: P N M A
;
_chemical_formula_sum "Si O2"
_cell_formula_units_Z 64
_cell_length_a 16.730272
_cell_length_b 8.898288
_cell_length_c 21.236796
_cell_angle_alpha 90.000000
_cell_angle_beta 90.000000
_cell_angle_gamma 90.000000
_cell_volume 3161.538355
_symmetry_space_group_name_H-M "P N M A"
_symmetry_group_IT_number 62
_symmetry_cell_setting 'orthorhombic'
loop_
_space_group_symop_operation_xyz
x,y,z
1/2-x,-y,1/2+z
1/2+x,1/2-y,1/2-z
-x,1/2+y,-z
-x,-y,-z
1/2+x,y,1/2-z
1/2-x,1/2+y,1/2+z
x,1/2-y,z
loop_
_atom_site_type_symbol
_atom_site_label
_atom_site_fract_x
_atom_site_fract_y
_atom_site_fract_z
Si Si1 0.284840 0.080041 0.239247
Si Si2 0.857122 0.924540 0.139688
Si Si3 0.427993 0.425016 0.797504
Si Si4 0.495603 0.928232 0.569880
Si Si5 0.583608 0.923915 0.992000
Si Si6 0.190146 0.924688 0.399851
Si Si7 0.620136 0.426981 0.321903
Si Si8 0.428685 0.083669 0.145377
O O1 0.266578 0.250000 0.263327
O O2 0.208999 0.015485 0.198452
O O3 0.358734 0.079788 0.193942
O O4 0.315535 0.975065 0.295461
O O5 0.882706 0.750000 0.144826
O O6 0.784463 0.949884 0.090707
O O7 0.930974 0.020826 0.114335
O O8 0.423724 0.250000 0.782844
O O9 0.348339 0.487115 0.834094
O O10 0.439624 0.508841 0.731057
O O11 0.504434 0.459794 0.840459
O O12 0.500049 0.750000 0.560920
O O13 0.414079 0.975040 0.608482
O O14 0.500000 0.000000 0.500000
O O15 0.573874 0.750000 0.007861
O O16 0.613139 0.952071 0.921217
O O17 0.647351 0.998931 0.039751
O O18 0.500000 0.000000 0.000000
O O19 0.169487 0.750000 0.397644
O O20 0.617199 0.250000 0.319366
O O21 0.468886 0.250000 0.144188
#
# Coordination Sequence:
#
# PCOD8251571 Si02
#       8
#     8   8   8   8   8   8   8   8
#     4  10  21  38  59  87 120 154 197 247 300 359
#     4  11  22  40  64  91 121 158 202 253 309 362
#     4  11  20  34  57  85 117 153 193 238 291 351
#     4  11  25  45  67  93 124 164 212 262 317 379
#     4  10  19  34  53  76 110 150 190 231 278 341
#     4   9  19  34  55  83 115 153 195 240 292 353
#     4  10  22  40  63  88 117 154 199 251 307 366
#     4  10  21  34  53  81 113 150 189 231 282 344
#
# _framework density 20.243310000000001
#
# number of rings (size 3 to 8) (size 9 to 14) (size 15 to 20)
#    0.000    1.750    2.500    1.875    0.000    5.500 
#    0.000    5.000    0.000    1.500    0.000    0.000 
#    0.000    0.000    0.000    0.000    0.000    0.000 
#
# Total GULP energy -792948.059201 kJ/mol
# GULP energy per Si atom -12389.813425 kJ/mol
# Density = 2.019724 g / cm^3
# Si number density = 20.243310 Si / 1000 Ang^3
#
#
#
# Elastic Constant Matrix: (Units=GPa)
#
#
# Indices 1 2 3 4 5 6 
#
# 1 80.3147 23.0691 28.8484 0.0000 0.0000 0.0000
# 2 23.0691 34.8280 26.7083 0.0000 0.0000 0.0000
# 3 28.8484 26.7083 73.1623 0.0000 0.0000 0.0000
# 4 0.0000 0.0000 0.0000 24.8838 0.0000 0.0000
# 5 0.0000 0.0000 0.0000 0.0000 29.4950 0.0000
# 6 0.0000 0.0000 0.0000 0.0000 0.0000 26.9144
#
#
#
# Elastic Compliance Matrix: (Units=1/GPa)
#
#
# Indices 1 2 3 4 5 6 
#
# 1 0.015956 -0.007977 -0.003379 0.000000 0.000000 0.000000
# 2 -0.007977 0.043864 -0.012867 0.000000 0.000000 0.000000
# 3 -0.003379 -0.012867 0.019698 0.000000 0.000000 0.000000
# 4 0.000000 0.000000 0.000000 0.040187 0.000000 0.000000
# 5 0.000000 0.000000 0.000000 0.000000 0.033904 0.000000
# 6 0.000000 0.000000 0.000000 0.000000 0.000000 0.037155
#
#
# Mechanical properties :
#
#
# Convention : Reuss Voigt Hill
#
# Bulk Modulus (GPa) = 32.18534 38.39518 35.29026
# Shear Modulus (GPa) = 20.03455 23.57060 21.80257
#
# Velocity S-wave (km/s) = 3.14934 3.41598 3.28537
# Velocity P-wave (km/s) = 5.39984 5.87934 5.64468
#
# Compressibility (1/GPa) = 0.03107004
#
# Stress axis : x y z
#
# Youngs Moduli (GPa) = 62.67124 22.79774 50.76642
#
# Poissons Ratio (x) = 0.18187 0.17156
# Poissons Ratio (y) = 0.49995 0.65323
# Poissons Ratio (z) = 0.21179 0.29334
#
# Static dielectric constant tensor:
#      x y z
#    x 3.870270 0.000000 0.000000 
#    y 0.000000 3.588410 0.000000 
#    z 0.000000 0.000000 2.877930 
# 
# 
# High freq. dielectric constant tensor:
#      x y z
#    x 1.792420 0.000000 0.000000 
#    y 0.000000 1.773140 0.000000 
#    z 0.000000 0.000000 1.799830 
# 
# From -- ./inp_files/27780.got.cif
#   From: 2010.03.12/outbox.cif.g09.slc.cpg/sg62_14_cif.got.tgz:27780.got - 2010.04.10 19:12:36.
