data_PCOD8251350
_publ_section_title
;
Structure prediction by ZEFSAII (Michael W. Deem and Ramdas Pophale) SiO2 
 PCOD8251350
Probable space group: P N M A
;
_chemical_formula_sum "Si O2"
_cell_formula_units_Z 48
_cell_length_a 16.618992
_cell_length_b 17.137100
_cell_length_c 9.053876
_cell_angle_alpha 90.000000
_cell_angle_beta 90.000000
_cell_angle_gamma 90.000000
_cell_volume 2578.555907
_symmetry_space_group_name_H-M "P N M A"
_symmetry_group_IT_number 62
_symmetry_cell_setting 'orthorhombic'
loop_
_space_group_symop_operation_xyz
x,y,z
1/2-x,-y,1/2+z
1/2+x,1/2-y,1/2-z
-x,1/2+y,-z
-x,-y,-z
1/2+x,y,1/2-z
1/2-x,1/2+y,1/2+z
x,1/2-y,z
loop_
_atom_site_type_symbol
_atom_site_label
_atom_site_fract_x
_atom_site_fract_y
_atom_site_fract_z
Si Si1 0.512741 0.087865 0.548219
Si Si2 0.169047 0.084001 0.110432
Si Si3 0.311606 0.840273 0.918934
Si Si4 0.403606 0.836698 0.199540
Si Si5 0.262767 0.336644 0.869520
Si Si6 0.838281 0.399767 0.905158
O O1 0.584231 0.122835 0.445617
O O2 0.540631 0.098904 0.719870
O O3 0.425725 0.129133 0.534824
O O4 0.500000 0.000000 0.500000
O O5 0.178785 0.102863 0.281189
O O6 0.169634 0.992421 0.080615
O O7 0.245752 0.117895 0.021920
O O8 0.314126 0.750000 0.869644
O O9 0.386275 0.859286 0.029018
O O10 0.226166 0.856201 0.994578
O O11 0.442911 0.750000 0.210709
O O12 0.317334 0.834374 0.274611
O O13 0.292807 0.250000 0.909890
O O14 0.330213 0.378207 0.768464
#
# Coordination Sequence:
#
# PCOD8251350 Si02
#       6
#     8   8   8   8   8   8
#     4   9  19  34  52  76 104 135 175 215 257 310
#     4  10  19  34  54  77 104 138 174 213 262 316
#     4  10  20  35  54  78 105 137 176 218 261 313
#     4   8  16  31  51  70  96 135 171 201 250 315
#     4   9  17  31  50  72  97 131 172 210 248 303
#     4  10  19  33  52  77 104 136 173 215 260 307
#
# _framework density 18.615071
#
# number of rings (size 3 to 8) (size 9 to 14) (size 15 to 20)
#    0.000    2.667    0.000    3.000    0.000    3.333 
#    0.000    5.000    0.000    2.000    0.000    0.000 
#    0.000    0.000    0.000    0.000    0.000    0.000 
#
# Total GULP energy -594752.929849 kJ/mol
# GULP energy per Si atom -12390.686039 kJ/mol
# Density = 1.857270 g / cm^3
# Si number density = 18.615071 Si / 1000 Ang^3
#
#
#
# Elastic Constant Matrix: (Units=GPa)
#
#
# Indices 1 2 3 4 5 6 
#
# 1 77.6988 13.2503 21.3354 0.0000 0.0000 0.0000
# 2 13.2503 59.0277 14.3465 0.0000 0.0000 0.0000
# 3 21.3354 14.3465 89.6471 0.0000 0.0000 0.0000
# 4 0.0000 0.0000 0.0000 28.2666 0.0000 0.0000
# 5 0.0000 0.0000 0.0000 0.0000 26.5535 0.0000
# 6 0.0000 0.0000 0.0000 0.0000 0.0000 22.0705
#
#
#
# Elastic Compliance Matrix: (Units=1/GPa)
#
#
# Indices 1 2 3 4 5 6 
#
# 1 0.014101 -0.002445 -0.002965 0.000000 0.000000 0.000000
# 2 -0.002445 0.018051 -0.002307 0.000000 0.000000 0.000000
# 3 -0.002965 -0.002307 0.012230 0.000000 0.000000 0.000000
# 4 0.000000 0.000000 0.000000 0.035377 0.000000 0.000000
# 5 0.000000 0.000000 0.000000 0.000000 0.037660 0.000000
# 6 0.000000 0.000000 0.000000 0.000000 0.000000 0.045309
#
#
# Mechanical properties :
#
#
# Convention : Reuss Voigt Hill
#
# Bulk Modulus (GPa) = 34.54386 36.02642 35.28514
# Shear Modulus (GPa) = 26.62257 27.20754 26.91505
#
# Velocity S-wave (km/s) = 3.78585 3.82722 3.80659
# Velocity P-wave (km/s) = 6.14064 6.23903 6.19003
#
# Compressibility (1/GPa) = 0.02894871
#
# Stress axis : x y z
#
# Youngs Moduli (GPa) = 70.91578 55.39957 81.76874
#
# Poissons Ratio (x) = 0.13544 0.24242
# Poissons Ratio (y) = 0.17338 0.18863
# Poissons Ratio (z) = 0.21025 0.12780
#
# Static dielectric constant tensor:
#      x y z
#    x 3.650680 0.000000 0.000000 
#    y 0.000000 3.375130 0.000000 
#    z 0.000000 0.000000 3.541460 
# 
# 
# High freq. dielectric constant tensor:
#      x y z
#    x 1.707300 0.000000 0.000000 
#    y 0.000000 1.716670 0.000000 
#    z 0.000000 0.000000 1.715420 
# 
# From -- ./inp_files/7824.got.cif
#   From: 2010.03.12/outbox.cif.g09.slc.cpg/sg62_4_cif.got.tgz:7824.got - 2010.04.10 19:12:36.
