data_PCOD8251960
_publ_section_title
;
Structure prediction by ZEFSAII (Michael W. Deem and Ramdas Pophale) SiO2 
 PCOD8251960
Probable space group: P N M A
;
_chemical_formula_sum "Si O2"
_cell_formula_units_Z 56
_cell_length_a 21.392879
_cell_length_b 8.957887
_cell_length_c 14.755079
_cell_angle_alpha 90.000000
_cell_angle_beta 90.000000
_cell_angle_gamma 90.000000
_cell_volume 2827.589456
_symmetry_space_group_name_H-M "P N M A"
_symmetry_group_IT_number 62
_symmetry_cell_setting 'orthorhombic'
loop_
_space_group_symop_operation_xyz
x,y,z
1/2-x,-y,1/2+z
1/2+x,1/2-y,1/2-z
-x,1/2+y,-z
-x,-y,-z
1/2+x,y,1/2-z
1/2-x,1/2+y,1/2+z
x,1/2-y,z
loop_
_atom_site_type_symbol
_atom_site_label
_atom_site_fract_x
_atom_site_fract_y
_atom_site_fract_z
Si Si1 0.858631 0.580166 0.555866
Si Si2 0.737109 0.426951 0.310774
Si Si3 0.661656 0.572281 0.661090
Si Si4 0.760529 0.926371 0.019946
Si Si5 0.969112 0.072616 0.237073
Si Si6 0.550449 0.574120 0.937232
Si Si7 0.895894 0.580036 0.753787
O O1 0.853221 0.750000 0.522361
O O2 0.790992 0.513717 0.579719
O O3 0.882545 0.475492 0.474946
O O4 0.902173 0.571222 0.644669
O O5 0.733789 0.250000 0.300072
O O6 0.793478 0.482913 0.244923
O O7 0.747446 0.473795 0.415078
O O8 0.668883 0.498522 0.284872
O O9 0.667369 0.750000 0.649676
O O10 0.676427 0.487721 0.566762
O O11 0.589291 0.523069 0.675884
O O12 0.755669 0.750000 0.032273
O O13 0.973266 0.250000 0.241535
O O14 0.954854 0.010448 0.336729
O O15 0.038471 0.011264 0.206360
O O16 0.543515 0.750000 0.941765
O O17 0.500000 0.500000 0.000000
O O18 0.891473 0.750000 0.786941
#
# Coordination Sequence:
#
# PCOD8251960 Si02
#       7
#     8   8   8   8   8   8   8
#     4  11  20  34  56  79 107 146 188 228 278 339
#     4   9  18  34  56  78 107 149 189 223 274 343
#     4  10  19  36  59  81 107 145 188 229 274 335
#     4  11  22  36  56  84 112 141 184 239 291 333
#     4   9  18  32  53  79 109 146 189 229 269 331
#     4  11  20  32  51  81 115 146 183 228 281 340
#     4   9  16  31  55  79 101 138 189 224 255 323
#
# _framework density 19.804855
#
# number of rings (size 3 to 8) (size 9 to 14) (size 15 to 20)
#    0.000    2.000    2.857    2.143    0.000    2.286 
#    0.000    5.000    0.000    0.000    0.000    0.000 
#    0.000    0.000    0.000    0.000    0.000    0.000 
#
# Total GULP energy -693825.066049 kJ/mol
# GULP energy per Si atom -12389.733322 kJ/mol
# Density = 1.975978 g / cm^3
# Si number density = 19.804855 Si / 1000 Ang^3
#
#
#
# Elastic Constant Matrix: (Units=GPa)
#
#
# Indices 1 2 3 4 5 6 
#
# 1 131.6557 11.6959 14.4508 0.0000 0.0000 0.0000
# 2 11.6959 44.0671 14.9519 0.0000 0.0000 0.0000
# 3 14.4508 14.9519 47.5006 0.0000 0.0000 0.0000
# 4 0.0000 0.0000 0.0000 23.3963 0.0000 0.0000
# 5 0.0000 0.0000 0.0000 0.0000 28.9470 0.0000
# 6 0.0000 0.0000 0.0000 0.0000 0.0000 21.5701
#
#
#
# Elastic Compliance Matrix: (Units=1/GPa)
#
#
# Indices 1 2 3 4 5 6 
#
# 1 0.007939 -0.001442 -0.001961 0.000000 0.000000 0.000000
# 2 -0.001442 0.025668 -0.007641 0.000000 0.000000 0.000000
# 3 -0.001961 -0.007641 0.024054 0.000000 0.000000 0.000000
# 4 0.000000 0.000000 0.000000 0.042742 0.000000 0.000000
# 5 0.000000 0.000000 0.000000 0.000000 0.034546 0.000000
# 6 0.000000 0.000000 0.000000 0.000000 0.000000 0.046360
#
#
# Mechanical properties :
#
#
# Convention : Reuss Voigt Hill
#
# Bulk Modulus (GPa) = 28.11115 33.93560 31.02338
# Shear Modulus (GPa) = 23.22827 26.92433 25.07630
#
# Velocity S-wave (km/s) = 3.42842 3.69111 3.56219
# Velocity P-wave (km/s) = 5.46781 5.94457 5.71117
#
# Compressibility (1/GPa) = 0.03557307
#
# Stress axis : x y z
#
# Youngs Moduli (GPa) = 125.96169 38.95923 41.57269
#
# Poissons Ratio (x) = 0.05616 0.08154
# Poissons Ratio (y) = 0.18158 0.31766
# Poissons Ratio (z) = 0.24707 0.29769
#
# Static dielectric constant tensor:
#      x y z
#    x 4.101150 0.000000 0.000000 
#    y 0.000000 3.372340 0.000000 
#    z 0.000000 0.000000 3.493460 
# 
# 
# High freq. dielectric constant tensor:
#      x y z
#    x 1.795010 0.000000 0.000000 
#    y 0.000000 1.723630 0.000000 
#    z 0.000000 0.000000 1.752930 
# 
# From -- ./inp_files/20237.got.cif
#   From: 2010.03.12/outbox.cif.g09.slc.cpg/sg62_11_cif.got.tgz:20237.got - 2010.04.10 19:12:36.
