data_PCOD8251080
_publ_section_title
;
Structure prediction by ZEFSAII (Michael W. Deem and Ramdas Pophale) SiO2 
 PCOD8251080
Probable space group: P N M A
;
_chemical_formula_sum "Si O2"
_cell_formula_units_Z 64
_cell_length_a 11.471449
_cell_length_b 8.922712
_cell_length_c 33.608737
_cell_angle_alpha 90.000000
_cell_angle_beta 90.000000
_cell_angle_gamma 90.000000
_cell_volume 3440.070526
_symmetry_space_group_name_H-M "P N M A"
_symmetry_group_IT_number 62
_symmetry_cell_setting 'orthorhombic'
loop_
_space_group_symop_operation_xyz
x,y,z
1/2-x,-y,1/2+z
1/2+x,1/2-y,1/2-z
-x,1/2+y,-z
-x,-y,-z
1/2+x,y,1/2-z
1/2-x,1/2+y,1/2+z
x,1/2-y,z
loop_
_atom_site_type_symbol
_atom_site_label
_atom_site_fract_x
_atom_site_fract_y
_atom_site_fract_z
Si Si1 0.489524 0.926760 0.647441
Si Si2 0.591277 0.574434 0.947724
Si Si3 0.851255 0.424657 0.536297
Si Si4 0.733293 0.572514 0.872154
Si Si5 0.391861 0.920222 0.281315
Si Si6 0.342652 0.420318 0.829892
Si Si7 0.928352 0.427818 0.300564
Si Si8 0.282888 0.073877 0.399609
O O1 0.489089 0.750000 0.655924
O O2 0.366058 0.985753 0.630785
O O3 0.587270 0.969398 0.614747
O O4 0.513183 0.008644 0.689086
O O5 0.563499 0.750000 0.942967
O O6 0.470244 0.487160 0.944990
O O7 0.674990 0.513024 0.912831
O O8 0.655483 0.540886 0.989374
O O9 0.844391 0.250000 0.545355
O O10 0.740311 0.505532 0.556695
O O11 0.733943 0.750000 0.872897
O O12 0.660111 0.514027 0.834470
O O13 0.429808 0.750000 0.271860
O O14 0.265786 0.926964 0.300604
O O15 0.382011 0.015787 0.241483
O O16 0.378052 0.250000 0.839656
O O17 0.445395 0.505058 0.807896
O O18 0.314223 0.504190 0.870754
O O19 0.936848 0.250000 0.300233
O O20 0.264734 0.250000 0.400615
#
# Coordination Sequence:
#
# PCOD8251080 Si02
#       8
#     8   8   8   8   8   8   8   8
#     4   9  19  37  58  78 102 139 184 225 269 320
#     4   9  18  34  55  80 111 144 179 223 274 324
#     4  10  19  31  53  82 112 144 178 222 273 324
#     4   9  19  36  56  79 105 137 178 224 270 319
#     4  10  22  38  54  76 107 140 176 221 272 322
#     4  10  21  37  55  77 107 138 175 224 271 319
#     4  11  22  34  55  82 107 138 177 222 271 328
#     4  10  19  33  55  79 105 140 181 224 267 319
#
# _framework density 18.60427
#
# number of rings (size 3 to 8) (size 9 to 14) (size 15 to 20)
#    0.000    2.250    0.000    2.625    1.750    3.500 
#    0.000    2.500    0.000    0.000    0.000    0.000 
#    0.000    0.000    0.000    0.000    0.000    0.000 
#
# Total GULP energy -793759.060990 kJ/mol
# GULP energy per Si atom -12402.485328 kJ/mol
# Density = 1.856193 g / cm^3
# Si number density = 18.604270 Si / 1000 Ang^3
#
#
#
# Elastic Constant Matrix: (Units=GPa)
#
#
# Indices 1 2 3 4 5 6 
#
# 1 83.1873 39.5197 65.8020 0.0000 0.0000 0.0000
# 2 39.5197 78.5034 45.1501 0.0000 0.0000 0.0000
# 3 65.8020 45.1501 135.7338 0.0000 0.0000 0.0000
# 4 0.0000 0.0000 0.0000 31.3005 0.0000 0.0000
# 5 0.0000 0.0000 0.0000 0.0000 25.3564 0.0000
# 6 0.0000 0.0000 0.0000 0.0000 0.0000 23.0131
#
#
#
# Elastic Compliance Matrix: (Units=1/GPa)
#
#
# Indices 1 2 3 4 5 6 
#
# 1 0.021556 -0.005987 -0.008459 0.000000 0.000000 0.000000
# 2 -0.005987 0.017414 -0.002890 0.000000 0.000000 0.000000
# 3 -0.008459 -0.002890 0.012429 0.000000 0.000000 0.000000
# 4 0.000000 0.000000 0.000000 0.031948 0.000000 0.000000
# 5 0.000000 0.000000 0.000000 0.000000 0.039438 0.000000
# 6 0.000000 0.000000 0.000000 0.000000 0.000000 0.043453
#
#
# Mechanical properties :
#
#
# Convention : Reuss Voigt Hill
#
# Bulk Modulus (GPa) = 59.77870 66.48534 63.13202
# Shear Modulus (GPa) = 24.21455 25.73087 24.97271
#
# Velocity S-wave (km/s) = 3.61163 3.72299 3.66773
# Velocity P-wave (km/s) = 7.04225 7.36852 7.20723
#
# Compressibility (1/GPa) = 0.01672837
#
# Stress axis : x y z
#
# Youngs Moduli (GPa) = 46.39063 57.42348 80.45390
#
# Poissons Ratio (x) = 0.34378 0.68053
# Poissons Ratio (y) = 0.27773 0.23254
# Poissons Ratio (z) = 0.39240 0.16598
#
# Static dielectric constant tensor:
#      x y z
#    x 3.446270 0.000000 0.000000 
#    y 0.000000 3.429340 0.000000 
#    z 0.000000 0.000000 3.642950 
# 
# 
# High freq. dielectric constant tensor:
#      x y z
#    x 1.716550 0.000000 0.000000 
#    y 0.000000 1.719440 0.000000 
#    z 0.000000 0.000000 1.727890 
# 
# From -- ./inp_files/32570.got.cif
#   From: 2010.03.12/outbox.cif.g09.slc.cpg/sg62_17_cif.got.tgz:32570.got - 2010.04.10 19:12:36.
