data_PCOD8251271
_publ_section_title
;
Structure prediction by ZEFSAII (Michael W. Deem and Ramdas Pophale) SiO2 
 PCOD8251271
Probable space group: P N M A
;
_chemical_formula_sum "Si O2"
_cell_formula_units_Z 48
_cell_length_a 21.191696
_cell_length_b 10.271090
_cell_length_c 11.783437
_cell_angle_alpha 90.000000
_cell_angle_beta 90.000000
_cell_angle_gamma 90.000000
_cell_volume 2564.804306
_symmetry_space_group_name_H-M "P N M A"
_symmetry_group_IT_number 62
_symmetry_cell_setting 'orthorhombic'
loop_
_space_group_symop_operation_xyz
x,y,z
1/2-x,-y,1/2+z
1/2+x,1/2-y,1/2-z
-x,1/2+y,-z
-x,-y,-z
1/2+x,y,1/2-z
1/2-x,1/2+y,1/2+z
x,1/2-y,z
loop_
_atom_site_type_symbol
_atom_site_label
_atom_site_fract_x
_atom_site_fract_y
_atom_site_fract_z
Si Si1 0.584033 0.891161 0.461451
Si Si2 0.638126 0.400667 0.751381
Si Si3 0.029986 0.104339 0.416658
Si Si4 0.662334 0.399823 0.005533
Si Si5 0.016877 0.528993 0.821317
Si Si6 0.204625 0.594736 0.912750
O O1 0.581824 0.750000 0.404921
O O2 0.549643 0.881411 0.584215
O O3 0.656618 0.932583 0.482428
O O4 0.549793 0.984185 0.372909
O O5 0.659059 0.250000 0.733061
O O6 0.641382 0.447649 0.881465
O O7 0.565769 0.412513 0.707708
O O8 0.684195 0.503012 0.690817
O O9 0.021416 0.250000 0.468619
O O10 0.104771 0.071916 0.407874
O O11 0.998892 0.106334 0.292877
O O12 0.000000 0.000000 0.500000
O O13 0.679061 0.250000 0.996544
O O14 0.727194 0.462329 0.050842
O O15 0.203527 0.750000 0.879873
#
# Coordination Sequence:
#
# PCOD8251271 Si02
#       6
#     8   8   8   8   8   8
#     4   9  18  32  52  78 107 142 185 229 276 325
#     4  10  19  34  56  78 108 146 184 229 282 336
#     4  11  22  37  57  83 112 146 186 230 281 339
#     4   9  19  36  55  77 109 147 180 220 284 339
#     4  10  19  32  54  82 109 145 185 234 279 329
#     4   9  19  36  55  77 108 147 186 228 278 334
#
# _framework density 18.714879
#
# number of rings (size 3 to 8) (size 9 to 14) (size 15 to 20)
#    0.000    2.333    1.667    1.000    0.000    2.667 
#    0.000    2.500    0.000    0.000    0.000    0.000 
#    0.000    0.000    0.000    0.000    0.000    0.000 
#
# Total GULP energy -594738.354325 kJ/mol
# GULP energy per Si atom -12390.382382 kJ/mol
# Density = 1.867228 g / cm^3
# Si number density = 18.714879 Si / 1000 Ang^3
#
#
#
# Elastic Constant Matrix: (Units=GPa)
#
#
# Indices 1 2 3 4 5 6 
#
# 1 121.7879 33.2290 30.6932 0.0000 0.0000 0.0000
# 2 33.2290 72.7694 21.0426 0.0000 0.0000 0.0000
# 3 30.6932 21.0426 70.0975 0.0000 0.0000 0.0000
# 4 0.0000 0.0000 0.0000 21.5558 0.0000 0.0000
# 5 0.0000 0.0000 0.0000 0.0000 29.2330 0.0000
# 6 0.0000 0.0000 0.0000 0.0000 0.0000 21.3368
#
#
#
# Elastic Compliance Matrix: (Units=1/GPa)
#
#
# Indices 1 2 3 4 5 6 
#
# 1 0.010033 -0.003626 -0.003305 0.000000 0.000000 0.000000
# 2 -0.003626 0.016359 -0.003323 0.000000 0.000000 0.000000
# 3 -0.003305 -0.003323 0.016710 0.000000 0.000000 0.000000
# 4 0.000000 0.000000 0.000000 0.046391 0.000000 0.000000
# 5 0.000000 0.000000 0.000000 0.000000 0.034208 0.000000
# 6 0.000000 0.000000 0.000000 0.000000 0.000000 0.046867
#
#
# Mechanical properties :
#
#
# Convention : Reuss Voigt Hill
#
# Bulk Modulus (GPa) = 44.25772 48.28716 46.27244
# Shear Modulus (GPa) = 25.17527 26.40447 25.78987
#
# Velocity S-wave (km/s) = 3.67168 3.76024 3.71622
# Velocity P-wave (km/s) = 6.45559 6.68656 6.57209
#
# Compressibility (1/GPa) = 0.02259493
#
# Stress axis : x y z
#
# Youngs Moduli (GPa) = 99.66966 61.12973 59.84297
#
# Poissons Ratio (x) = 0.22165 0.19776
# Poissons Ratio (y) = 0.36139 0.19886
# Poissons Ratio (z) = 0.32938 0.20314
#
# Static dielectric constant tensor:
#      x y z
#    x 3.628650 0.000000 0.000000 
#    y 0.000000 3.201970 0.000000 
#    z 0.000000 0.000000 3.353980 
# 
# 
# High freq. dielectric constant tensor:
#      x y z
#    x 1.735970 0.000000 0.000000 
#    y 0.000000 1.708190 0.000000 
#    z 0.000000 0.000000 1.714200 
# 
# From -- ./inp_files/14105.got.cif
#   From: 2010.03.12/outbox.cif.g09.slc.cpg/sg62_8_cif.got.tgz:14105.got - 2010.04.10 19:12:36.
