data_PCOD8251193
_publ_section_title
;
Structure prediction by ZEFSAII (Michael W. Deem and Ramdas Pophale) SiO2 
 PCOD8251193
Probable space group: P N M A
;
_chemical_formula_sum "Si O2"
_cell_formula_units_Z 64
_cell_length_a 18.467045
_cell_length_b 8.954485
_cell_length_c 21.909414
_cell_angle_alpha 90.000000
_cell_angle_beta 90.000000
_cell_angle_gamma 90.000000
_cell_volume 3623.003742
_symmetry_space_group_name_H-M "P N M A"
_symmetry_group_IT_number 62
_symmetry_cell_setting 'orthorhombic'
loop_
_space_group_symop_operation_xyz
x,y,z
1/2-x,-y,1/2+z
1/2+x,1/2-y,1/2-z
-x,1/2+y,-z
-x,-y,-z
1/2+x,y,1/2-z
1/2-x,1/2+y,1/2+z
x,1/2-y,z
loop_
_atom_site_type_symbol
_atom_site_label
_atom_site_fract_x
_atom_site_fract_y
_atom_site_fract_z
Si Si1 0.550842 0.924336 0.049750
Si Si2 0.794450 0.923054 0.552456
Si Si3 0.330217 0.922777 0.381230
Si Si4 0.923415 0.922530 0.999346
Si Si5 0.054551 0.423722 0.656076
Si Si6 0.885009 0.418519 0.237416
Si Si7 0.699626 0.577749 0.433285
Si Si8 0.806620 0.081718 0.354677
O O1 0.555721 0.750000 0.034376
O O2 0.517720 0.950937 0.117216
O O3 0.629792 0.993930 0.049873
O O4 0.500000 0.000000 0.000000
O O5 0.807172 0.750000 0.566809
O O6 0.755517 0.948186 0.488132
O O7 0.744704 0.991174 0.606031
O O8 0.311582 0.750000 0.371547
O O9 0.385989 0.948180 0.435850
O O10 0.369430 0.986244 0.322016
O O11 0.932965 0.750000 0.983426
O O12 0.876084 0.997737 0.946352
O O13 0.000000 0.000000 0.000000
O O14 0.070056 0.250000 0.666455
O O15 0.049894 0.505169 0.722627
O O16 0.122872 0.494160 0.618577
O O17 0.907669 0.250000 0.219347
O O18 0.813220 0.416959 0.280685
O O19 0.683875 0.750000 0.420772
O O20 0.733552 0.503411 0.373044
O O21 0.805809 0.250000 0.381161
#
# Coordination Sequence:
#
# PCOD8251193 Si02
#       8
#     8   8   8   8   8   8   8   8
#     4  11  22  33  49  75 110 148 184 223 270 319
#     4  10  21  34  51  77 107 140 178 220 264 315
#     4  10  20  36  59  82 106 139 178 219 267 321
#     4  10  21  36  56  82 109 137 171 217 271 326
#     4   9  18  32  49  72 102 139 180 219 258 309
#     4   9  19  33  54  79 103 136 177 218 262 311
#     4  10  19  32  52  77 105 138 173 214 265 315
#     4   9  18  30  49  76 104 135 174 217 259 308
#
# _framework density 17.664899999999999
#
# number of rings (size 3 to 8) (size 9 to 14) (size 15 to 20)
#    0.750    1.500    0.000    3.375    0.000    8.000 
#    0.000    0.000    2.750    0.000    0.000    0.000 
#    0.000    0.000    0.000    0.000    0.000    0.000 
#
# Total GULP energy -793392.540967 kJ/mol
# GULP energy per Si atom -12396.758453 kJ/mol
# Density = 1.762469 g / cm^3
# Si number density = 17.664900 Si / 1000 Ang^3
#
#
#
# Elastic Constant Matrix: (Units=GPa)
#
#
# Indices 1 2 3 4 5 6 
#
# 1 95.0341 57.4495 8.5008 0.0000 0.0000 0.0000
# 2 57.4495 138.1308 35.8785 0.0000 0.0000 0.0000
# 3 8.5008 35.8785 40.4913 0.0000 0.0000 0.0000
# 4 0.0000 0.0000 0.0000 30.9843 0.0000 0.0000
# 5 0.0000 0.0000 0.0000 0.0000 19.3588 0.0000
# 6 0.0000 0.0000 0.0000 0.0000 0.0000 34.1866
#
#
#
# Elastic Compliance Matrix: (Units=1/GPa)
#
#
# Indices 1 2 3 4 5 6 
#
# 1 0.014323 -0.006723 0.002950 0.000000 0.000000 0.000000
# 2 -0.006723 0.012560 -0.009718 0.000000 0.000000 0.000000
# 3 0.002950 -0.009718 0.032688 0.000000 0.000000 0.000000
# 4 0.000000 0.000000 0.000000 0.032274 0.000000 0.000000
# 5 0.000000 0.000000 0.000000 0.000000 0.051656 0.000000
# 6 0.000000 0.000000 0.000000 0.000000 0.000000 0.029251
#
#
# Mechanical properties :
#
#
# Convention : Reuss Voigt Hill
#
# Bulk Modulus (GPa) = 30.68453 53.03487 41.85970
# Shear Modulus (GPa) = 23.74211 28.36112 26.05162
#
# Velocity S-wave (km/s) = 3.67008 4.01123 3.84444
# Velocity P-wave (km/s) = 5.94704 7.17922 6.59198
#
# Compressibility (1/GPa) = 0.03258971
#
# Stress axis : x y z
#
# Youngs Moduli (GPa) = 69.81772 79.61864 30.59255
#
# Poissons Ratio (x) = 0.53531 -0.09026
# Poissons Ratio (y) = 0.46941 0.29728
# Poissons Ratio (z) = -0.20600 0.77370
#
# Static dielectric constant tensor:
#      x y z
#    x 3.179430 0.000000 0.000000 
#    y 0.000000 3.498900 0.000000 
#    z 0.000000 0.000000 3.106420 
# 
# 
# High freq. dielectric constant tensor:
#      x y z
#    x 1.664360 0.000000 0.000000 
#    y 0.000000 1.707280 0.000000 
#    z 0.000000 0.000000 1.664950 
# 
# From -- ./inp_files/30039.got.cif
#   From: 2010.03.12/outbox.cif.g09.slc.cpg/sg62_16_cif.got.tgz:30039.got - 2010.04.10 19:12:36.
