data_PCOD8251323
_publ_section_title
;
Structure prediction by ZEFSAII (Michael W. Deem and Ramdas Pophale) SiO2 
 PCOD8251323
Probable space group: P N M A
;
_chemical_formula_sum "Si O2"
_cell_formula_units_Z 64
_cell_length_a 18.558070
_cell_length_b 9.349171
_cell_length_c 23.444719
_cell_angle_alpha 90.000000
_cell_angle_beta 90.000000
_cell_angle_gamma 90.000000
_cell_volume 4067.718996
_symmetry_space_group_name_H-M "P N M A"
_symmetry_group_IT_number 62
_symmetry_cell_setting 'orthorhombic'
loop_
_space_group_symop_operation_xyz
x,y,z
1/2-x,-y,1/2+z
1/2+x,1/2-y,1/2-z
-x,1/2+y,-z
-x,-y,-z
1/2+x,y,1/2-z
1/2-x,1/2+y,1/2+z
x,1/2-y,z
loop_
_atom_site_type_symbol
_atom_site_label
_atom_site_fract_x
_atom_site_fract_y
_atom_site_fract_z
Si Si1 0.130372 0.912183 0.271670
Si Si2 0.769418 0.914444 0.165013
Si Si3 0.354535 0.082459 0.559116
Si Si4 0.498289 0.914515 0.735106
Si Si5 0.352361 0.914763 0.445625
Si Si6 0.658331 0.585804 0.763153
Si Si7 0.497994 0.918458 0.382770
Si Si8 0.764743 0.414185 0.832934
O O1 0.101645 0.750000 0.275227
O O2 0.185005 0.946031 0.323827
O O3 0.171421 0.937716 0.212220
O O4 0.063350 0.019440 0.275623
O O5 0.786997 0.750000 0.181717
O O6 0.787986 0.943580 0.099226
O O7 0.819122 0.013159 0.203984
O O8 0.353934 0.250000 0.547521
O O9 0.433165 0.033898 0.580431
O O10 0.294540 0.039288 0.605592
O O11 0.333970 0.004913 0.501063
O O12 0.480188 0.750000 0.721703
O O13 0.572606 0.928553 0.769833
O O14 0.502157 0.999338 0.676369
O O15 0.356438 0.750000 0.463469
O O16 0.427861 0.963749 0.418321
O O17 0.683032 0.750000 0.761290
O O18 0.695972 0.510552 0.817224
O O19 0.499327 0.750000 0.368922
O O20 0.739625 0.250000 0.832612
#
# Coordination Sequence:
#
# PCOD8251323 Si02
#       8
#     8   8   8   8   8   8   8   8
#     4   9  17  31  50  68  91 123 158 194 235 283
#     4   9  18  33  50  68  92 124 161 197 234 282
#     4  10  20  33  48  68  96 128 164 200 233 274
#     4  11  21  30  45  72 100 126 156 194 240 285
#     4  10  20  32  49  70  93 128 167 197 233 277
#     4  10  20  31  46  70  97 122 154 197 242 282
#     4  10  19  33  48  64  94 134 168 195 225 271
#     4   9  18  33  50  68  91 125 162 195 235 283
#
# _framework density 15.733632999999999
#
# number of rings (size 3 to 8) (size 9 to 14) (size 15 to 20)
#    0.000    2.250    2.500    1.875    0.000    5.500 
#    0.000    0.000    0.000    0.000    0.000    0.875 
#    0.000    0.000    0.000    0.000    0.000    0.000 
#
# Total GULP energy -793674.112295 kJ/mol
# GULP energy per Si atom -12401.158005 kJ/mol
# Density = 1.569782 g / cm^3
# Si number density = 15.733633 Si / 1000 Ang^3
#
#
#
# Elastic Constant Matrix: (Units=GPa)
#
#
# Indices 1 2 3 4 5 6 
#
# 1 88.7872 53.0385 55.7640 0.0000 0.0000 0.0000
# 2 53.0385 74.2524 44.3312 0.0000 0.0000 0.0000
# 3 55.7640 44.3312 98.6520 0.0000 0.0000 0.0000
# 4 0.0000 0.0000 0.0000 28.6439 0.0000 0.0000
# 5 0.0000 0.0000 0.0000 0.0000 22.5493 0.0000
# 6 0.0000 0.0000 0.0000 0.0000 0.0000 24.8523
#
#
#
# Elastic Compliance Matrix: (Units=1/GPa)
#
#
# Indices 1 2 3 4 5 6 
#
# 1 0.023334 -0.012016 -0.007790 0.000000 0.000000 0.000000
# 2 -0.012016 0.024594 -0.004259 0.000000 0.000000 0.000000
# 3 -0.007790 -0.004259 0.016454 0.000000 0.000000 0.000000
# 4 0.000000 0.000000 0.000000 0.034912 0.000000 0.000000
# 5 0.000000 0.000000 0.000000 0.000000 0.044347 0.000000
# 6 0.000000 0.000000 0.000000 0.000000 0.000000 0.040238
#
#
# Mechanical properties :
#
#
# Convention : Reuss Voigt Hill
#
# Bulk Modulus (GPa) = 61.53711 63.10654 62.32182
# Shear Modulus (GPa) = 21.05926 22.44630 21.75278
#
# Velocity S-wave (km/s) = 3.66250 3.78119 3.72232
# Velocity P-wave (km/s) = 7.55526 7.69803 7.62698
#
# Compressibility (1/GPa) = 0.01625036
#
# Stress axis : x y z
#
# Youngs Moduli (GPa) = 42.85683 40.66056 60.77610
#
# Poissons Ratio (x) = 0.48859 0.47343
# Poissons Ratio (y) = 0.51499 0.25887
# Poissons Ratio (z) = 0.33384 0.17319
#
# Static dielectric constant tensor:
#      x y z
#    x 3.100200 0.000000 0.000000 
#    y 0.000000 3.021050 0.000000 
#    z 0.000000 0.000000 2.852110 
# 
# 
# High freq. dielectric constant tensor:
#      x y z
#    x 1.597010 0.000000 0.000000 
#    y 0.000000 1.608410 0.000000 
#    z 0.000000 0.000000 1.579770 
# 
# From -- ./inp_files/30053.got.cif
#   From: 2010.03.12/outbox.cif.g09.slc.cpg/sg62_16_cif.got.tgz:30053.got - 2010.04.10 19:12:36.
