data_PCOD8251420
_publ_section_title
;
Structure prediction by ZEFSAII (Michael W. Deem and Ramdas Pophale) SiO2 
 PCOD8251420
Probable space group: P N M A
;
_chemical_formula_sum "Si O2"
_cell_formula_units_Z 64
_cell_length_a 9.246269
_cell_length_b 19.424467
_cell_length_c 20.324996
_cell_angle_alpha 90.000000
_cell_angle_beta 90.000000
_cell_angle_gamma 90.000000
_cell_volume 3650.447473
_symmetry_space_group_name_H-M "P N M A"
_symmetry_group_IT_number 62
_symmetry_cell_setting 'orthorhombic'
loop_
_space_group_symop_operation_xyz
x,y,z
1/2-x,-y,1/2+z
1/2+x,1/2-y,1/2-z
-x,1/2+y,-z
-x,-y,-z
1/2+x,y,1/2-z
1/2-x,1/2+y,1/2+z
x,1/2-y,z
loop_
_atom_site_type_symbol
_atom_site_label
_atom_site_fract_x
_atom_site_fract_y
_atom_site_fract_z
Si Si1 0.357494 0.326514 0.003054
Si Si2 0.164453 0.964947 0.824890
Si Si3 0.140752 0.826519 0.892889
Si Si4 0.673889 0.963960 0.061170
Si Si5 0.685272 0.326253 0.978269
Si Si6 0.171246 0.036454 0.194872
Si Si7 0.342924 0.533598 0.077569
Si Si8 0.812712 0.826179 0.868590
O O1 0.305855 0.250000 0.980976
O O2 0.304397 0.381935 0.949396
O O3 0.528894 0.330262 0.012044
O O4 0.300096 0.345742 0.074906
O O5 0.192639 0.884394 0.841311
O O6 0.263783 0.987782 0.763968
O O7 0.998316 0.980422 0.807443
O O8 0.207286 0.011706 0.886846
O O9 0.189755 0.750000 0.868499
O O10 0.969309 0.829949 0.901780
O O11 0.200798 0.842472 0.964869
O O12 0.513406 0.980051 0.088777
O O13 0.702879 0.002406 0.992554
O O14 0.711462 0.250000 0.947315
O O15 0.694915 0.384671 0.922303
O O16 0.200552 0.118438 0.189526
O O17 0.251019 0.998678 0.135576
O O18 0.781685 0.750000 0.839407
#
# Coordination Sequence:
#
# PCOD8251420 Si02
#       8
#     8   8   8   8   8   8   8   8
#     4   9  17  30  51  78 105 134 168 207 252 302
#     4  11  23  36  52  74 104 140 177 215 258 306
#     4   9  18  32  49  72 103 137 172 209 249 298
#     4  10  19  33  54  79 106 135 170 213 258 304
#     4   9  17  30  51  78 105 134 168 207 252 302
#     4  11  23  36  52  74 104 140 177 215 258 306
#     4  10  19  33  54  79 106 135 170 213 258 304
#     4   9  18  32  49  72 103 137 172 209 249 298
#
# _framework density 17.532097
#
# number of rings (size 3 to 8) (size 9 to 14) (size 15 to 20)
#    0.000    2.250    2.500    0.750    0.000    3.000 
#    0.000    0.000    0.000    0.750    0.000    0.000 
#    0.000    0.000    0.000    0.000    0.000    0.000 
#
# Total GULP energy -793448.255978 kJ/mol
# GULP energy per Si atom -12397.629000 kJ/mol
# Density = 1.749219 g / cm^3
# Si number density = 17.532097 Si / 1000 Ang^3
#
#
#
# Elastic Constant Matrix: (Units=GPa)
#
#
# Indices 1 2 3 4 5 6 
#
# 1 34.5560 20.9074 13.9096 0.0000 0.0000 0.0000
# 2 20.9074 79.8422 24.2814 0.0000 0.0000 0.0000
# 3 13.9096 24.2814 53.0278 0.0000 0.0000 0.0000
# 4 0.0000 0.0000 0.0000 19.6103 0.0000 0.0000
# 5 0.0000 0.0000 0.0000 0.0000 29.8601 0.0000
# 6 0.0000 0.0000 0.0000 0.0000 0.0000 24.3518
#
#
#
# Elastic Compliance Matrix: (Units=1/GPa)
#
#
# Indices 1 2 3 4 5 6 
#
# 1 0.035930 -0.007601 -0.005944 0.000000 0.000000 0.000000
# 2 -0.007601 0.016159 -0.005405 0.000000 0.000000 0.000000
# 3 -0.005944 -0.005405 0.022892 0.000000 0.000000 0.000000
# 4 0.000000 0.000000 0.000000 0.050994 0.000000 0.000000
# 5 0.000000 0.000000 0.000000 0.000000 0.033490 0.000000
# 6 0.000000 0.000000 0.000000 0.000000 0.000000 0.041065
#
#
# Mechanical properties :
#
#
# Convention : Reuss Voigt Hill
#
# Bulk Modulus (GPa) = 26.96854 31.73586 29.35220
# Shear Modulus (GPa) = 19.93698 21.98628 20.96163
#
# Velocity S-wave (km/s) = 3.37585 3.54511 3.46152
# Velocity P-wave (km/s) = 5.53272 5.90745 5.72315
#
# Compressibility (1/GPa) = 0.03708025
#
# Stress axis : x y z
#
# Youngs Moduli (GPa) = 27.83194 61.88533 43.68265
#
# Poissons Ratio (x) = 0.47038 0.25966
# Poissons Ratio (y) = 0.21155 0.23612
# Poissons Ratio (z) = 0.16544 0.33451
#
# Static dielectric constant tensor:
#      x y z
#    x 3.267170 0.000000 0.000000 
#    y 0.000000 3.677280 0.000000 
#    z 0.000000 0.000000 2.875210 
# 
# 
# High freq. dielectric constant tensor:
#      x y z
#    x 1.681070 0.000000 0.000000 
#    y 0.000000 1.687860 0.000000 
#    z 0.000000 0.000000 1.639250 
# 
# From -- ./inp_files/22577.got.cif
#   From: 2010.03.12/outbox.cif.g09.slc.cpg/sg62_12_cif.got.tgz:22577.got - 2010.04.10 19:12:36.
