data_PCOD8251722
_publ_section_title
;
Structure prediction by ZEFSAII (Michael W. Deem and Ramdas Pophale) SiO2 
 PCOD8251722
Probable space group: P N M A
;
_chemical_formula_sum "Si O2"
_cell_formula_units_Z 48
_cell_length_a 11.838115
_cell_length_b 8.880034
_cell_length_c 23.980692
_cell_angle_alpha 90.000000
_cell_angle_beta 90.000000
_cell_angle_gamma 90.000000
_cell_volume 2520.919016
_symmetry_space_group_name_H-M "P N M A"
_symmetry_group_IT_number 62
_symmetry_cell_setting 'orthorhombic'
loop_
_space_group_symop_operation_xyz
x,y,z
1/2-x,-y,1/2+z
1/2+x,1/2-y,1/2-z
-x,1/2+y,-z
-x,-y,-z
1/2+x,y,1/2-z
1/2-x,1/2+y,1/2+z
x,1/2-y,z
loop_
_atom_site_type_symbol
_atom_site_label
_atom_site_fract_x
_atom_site_fract_y
_atom_site_fract_z
Si Si1 0.397556 0.572639 0.168629
Si Si2 0.780532 0.428244 0.920830
Si Si3 0.871141 0.921882 0.645166
Si Si4 0.476213 0.928446 0.381923
Si Si5 0.712046 0.925869 0.546045
Si Si6 0.348424 0.074543 0.284485
O O1 0.385394 0.750000 0.176955
O O2 0.321813 0.512302 0.117297
O O3 0.526852 0.533910 0.156503
O O4 0.351255 0.492279 0.223240
O O5 0.781429 0.250000 0.920917
O O6 0.898962 0.488018 0.896684
O O7 0.761754 0.485610 0.984007
O O8 0.913188 0.750000 0.650415
O O9 0.822757 0.954494 0.583523
O O10 0.775030 0.956484 0.690545
O O11 0.470857 0.750000 0.377591
O O12 0.393640 0.982142 0.430750
O O13 0.443523 0.996700 0.322276
O O14 0.678872 0.750000 0.547599
O O15 0.376720 0.250000 0.282943
#
# Coordination Sequence:
#
# PCOD8251722 Si02
#       6
#     8   8   8   8   8   8
#     4  11  23  37  56  83 114 149 188 234 284 332
#     4   9  20  36  55  84 118 148 183 230 283 331
#     4   9  20  38  58  80 109 148 188 228 278 336
#     4  10  19  34  58  88 115 144 186 234 284 333
#     4   9  18  37  60  81 113 153 187 226 278 334
#     4  10  22  40  59  80 110 148 190 234 283 338
#
# _framework density 19.040673999999999
#
# number of rings (size 3 to 8) (size 9 to 14) (size 15 to 20)
#    0.000    2.333    0.000    3.000    2.333    4.000 
#    0.000    5.000    0.000    0.000    0.000    0.000 
#    0.000    0.000    0.000    0.000    0.000    0.000 
#
# Total GULP energy -595316.075575 kJ/mol
# GULP energy per Si atom -12402.418241 kJ/mol
# Density = 1.899734 g / cm^3
# Si number density = 19.040674 Si / 1000 Ang^3
#
#
#
# Elastic Constant Matrix: (Units=GPa)
#
#
# Indices 1 2 3 4 5 6 
#
# 1 108.3453 41.6684 68.8112 0.0000 0.0000 0.0000
# 2 41.6684 70.3189 42.4942 0.0000 0.0000 0.0000
# 3 68.8112 42.4942 148.6704 0.0000 0.0000 0.0000
# 4 0.0000 0.0000 0.0000 28.1177 0.0000 0.0000
# 5 0.0000 0.0000 0.0000 0.0000 21.1233 0.0000
# 6 0.0000 0.0000 0.0000 0.0000 0.0000 28.5400
#
#
#
# Elastic Compliance Matrix: (Units=1/GPa)
#
#
# Indices 1 2 3 4 5 6 
#
# 1 0.014668 -0.005547 -0.005203 0.000000 0.000000 0.000000
# 2 -0.005547 0.019288 -0.002946 0.000000 0.000000 0.000000
# 3 -0.005203 -0.002946 0.009977 0.000000 0.000000 0.000000
# 4 0.000000 0.000000 0.000000 0.035565 0.000000 0.000000
# 5 0.000000 0.000000 0.000000 0.000000 0.047341 0.000000
# 6 0.000000 0.000000 0.000000 0.000000 0.000000 0.035039
#
#
# Mechanical properties :
#
#
# Convention : Reuss Voigt Hill
#
# Bulk Modulus (GPa) = 60.45895 70.36468 65.41182
# Shear Modulus (GPa) = 25.66965 27.18026 26.42496
#
# Velocity S-wave (km/s) = 3.67570 3.78230 3.72938
# Velocity P-wave (km/s) = 7.05945 7.49063 7.27823
#
# Compressibility (1/GPa) = 0.01654015
#
# Stress axis : x y z
#
# Youngs Moduli (GPa) = 68.17625 51.84560 100.23485
#
# Poissons Ratio (x) = 0.28760 0.52156
# Poissons Ratio (y) = 0.37819 0.29525
# Poissons Ratio (z) = 0.35475 0.15271
#
# Static dielectric constant tensor:
#      x y z
#    x 3.478740 0.000000 0.000000 
#    y 0.000000 3.341650 0.000000 
#    z 0.000000 0.000000 3.780290 
# 
# 
# High freq. dielectric constant tensor:
#      x y z
#    x 1.739310 0.000000 0.000000 
#    y 0.000000 1.729790 0.000000 
#    z 0.000000 0.000000 1.753730 
# 
# From -- ./inp_files/29255.got.cif
#   From: 2010.03.12/outbox.cif.g09.slc.cpg/sg62_15_cif.got.tgz:29255.got - 2010.04.10 19:12:36.
