data_PCOD8251525
_publ_section_title
;
Structure prediction by ZEFSAII (Michael W. Deem and Ramdas Pophale) SiO2 
 PCOD8251525
Probable space group: P N M A
;
_chemical_formula_sum "Si O2"
_cell_formula_units_Z 48
_cell_length_a 19.975798
_cell_length_b 8.915094
_cell_length_c 14.723324
_cell_angle_alpha 90.000000
_cell_angle_beta 90.000000
_cell_angle_gamma 90.000000
_cell_volume 2622.019599
_symmetry_space_group_name_H-M "P N M A"
_symmetry_group_IT_number 62
_symmetry_cell_setting 'orthorhombic'
loop_
_space_group_symop_operation_xyz
x,y,z
1/2-x,-y,1/2+z
1/2+x,1/2-y,1/2-z
-x,1/2+y,-z
-x,-y,-z
1/2+x,y,1/2-z
1/2-x,1/2+y,1/2+z
x,1/2-y,z
loop_
_atom_site_type_symbol
_atom_site_label
_atom_site_fract_x
_atom_site_fract_y
_atom_site_fract_z
Si Si1 0.482881 0.075734 0.719775
Si Si2 0.157531 0.076825 0.200114
Si Si3 0.041817 0.577959 0.422894
Si Si4 0.186448 0.077936 0.998590
Si Si5 0.554210 0.572921 0.565798
Si Si6 0.188416 0.926714 0.377593
O O1 0.484530 0.250000 0.692971
O O2 0.494857 0.052101 0.826751
O O3 0.411527 0.011911 0.689044
O O4 0.541515 0.987929 0.667504
O O5 0.141555 0.250000 0.220492
O O6 0.202168 0.008490 0.281483
O O7 0.198264 0.057977 0.106251
O O8 0.045054 0.750000 0.449630
O O9 0.117590 0.514651 0.417422
O O10 0.000000 0.500000 0.500000
O O11 0.167463 0.250000 0.975801
O O12 0.254482 0.029561 0.948741
O O13 0.128496 0.970183 0.963417
O O14 0.500000 0.500000 0.500000
O O15 0.545468 0.750000 0.563328
O O16 0.184726 0.750000 0.358122
#
# Coordination Sequence:
#
# PCOD8251525 Si02
#       6
#     8   8   8   8   8   8
#     4  10  20  36  57  81 113 148 185 228 279 337
#     4  10  19  33  57  83 108 144 189 231 278 334
#     4   9  19  36  59  83 110 146 186 229 278 331
#     4  10  21  38  58  80 113 150 187 234 286 335
#     4  12  23  35  56  86 116 147 186 231 281 339
#     4   9  20  39  58  78 111 152 187 229 284 337
#
# _framework density 18.306498000000001
#
# number of rings (size 3 to 8) (size 9 to 14) (size 15 to 20)
#    0.000    2.000    1.667    3.500    0.000    4.667 
#    3.000    0.000    0.000    0.000    0.000    0.000 
#    0.000    0.000    0.000    0.000    0.000    0.000 
#
# Total GULP energy -595280.337742 kJ/mol
# GULP energy per Si atom -12401.673703 kJ/mol
# Density = 1.826483 g / cm^3
# Si number density = 18.306498 Si / 1000 Ang^3
#
#
#
# Elastic Constant Matrix: (Units=GPa)
#
#
# Indices 1 2 3 4 5 6 
#
# 1 93.1043 48.9233 71.3671 0.0000 0.0000 0.0000
# 2 48.9233 108.9911 64.5460 0.0000 0.0000 0.0000
# 3 71.3671 64.5460 135.0973 0.0000 0.0000 0.0000
# 4 0.0000 0.0000 0.0000 34.5733 0.0000 0.0000
# 5 0.0000 0.0000 0.0000 0.0000 36.6890 0.0000
# 6 0.0000 0.0000 0.0000 0.0000 0.0000 27.7252
#
#
#
# Elastic Compliance Matrix: (Units=1/GPa)
#
#
# Indices 1 2 3 4 5 6 
#
# 1 0.019015 -0.003607 -0.008321 0.000000 0.000000 0.000000
# 2 -0.003607 0.013480 -0.004535 0.000000 0.000000 0.000000
# 3 -0.008321 -0.004535 0.013965 0.000000 0.000000 0.000000
# 4 0.000000 0.000000 0.000000 0.028924 0.000000 0.000000
# 5 0.000000 0.000000 0.000000 0.000000 0.027256 0.000000
# 6 0.000000 0.000000 0.000000 0.000000 0.000000 0.036068
#
#
# Mechanical properties :
#
#
# Convention : Reuss Voigt Hill
#
# Bulk Modulus (GPa) = 73.89665 78.54062 76.21863
# Shear Modulus (GPa) = 28.38577 29.95461 29.17019
#
# Velocity S-wave (km/s) = 3.94202 4.04949 3.99611
# Velocity P-wave (km/s) = 7.82134 8.05362 7.93833
#
# Compressibility (1/GPa) = 0.01353241
#
# Stress axis : x y z
#
# Youngs Moduli (GPa) = 52.59105 74.18537 71.61001
#
# Poissons Ratio (x) = 0.26760 0.59589
# Poissons Ratio (y) = 0.18970 0.32473
# Poissons Ratio (z) = 0.43763 0.33641
#
# Static dielectric constant tensor:
#      x y z
#    x 3.381660 0.000000 0.000000 
#    y 0.000000 3.442960 0.000000 
#    z 0.000000 0.000000 3.625130 
# 
# 
# High freq. dielectric constant tensor:
#      x y z
#    x 1.688190 0.000000 0.000000 
#    y 0.000000 1.715370 0.000000 
#    z 0.000000 0.000000 1.719810 
# 
# From -- ./inp_files/19606.got.cif
#   From: 2010.03.12/outbox.cif.g09.slc.cpg/sg62_10_cif.got.tgz:19606.got - 2010.04.10 19:12:36.
