data_PCOD8251293
_publ_section_title
;
Structure prediction by ZEFSAII (Michael W. Deem and Ramdas Pophale) SiO2 
 PCOD8251293
Probable space group: P N M A
;
_chemical_formula_sum "Si O2"
_cell_formula_units_Z 48
_cell_length_a 14.139274
_cell_length_b 18.647429
_cell_length_c 8.215329
_cell_angle_alpha 90.000000
_cell_angle_beta 90.000000
_cell_angle_gamma 90.000000
_cell_volume 2166.062747
_symmetry_space_group_name_H-M "P N M A"
_symmetry_group_IT_number 62
_symmetry_cell_setting 'orthorhombic'
loop_
_space_group_symop_operation_xyz
x,y,z
1/2-x,-y,1/2+z
1/2+x,1/2-y,1/2-z
-x,1/2+y,-z
-x,-y,-z
1/2+x,y,1/2-z
1/2-x,1/2+y,1/2+z
x,1/2-y,z
loop_
_atom_site_type_symbol
_atom_site_label
_atom_site_fract_x
_atom_site_fract_y
_atom_site_fract_z
Si Si1 0.732120 0.582940 0.277504
Si Si2 0.584964 0.448905 0.644048
Si Si3 0.819653 0.923837 0.799349
Si Si4 0.083846 0.899192 0.972995
Si Si5 0.171483 0.833259 0.533777
Si Si6 0.515386 0.170314 0.199861
O O1 0.847682 0.581993 0.288374
O O2 0.701995 0.502027 0.224726
O O3 0.690479 0.606842 0.454364
O O4 0.696969 0.638968 0.144562
O O5 0.639654 0.431565 0.478604
O O6 0.572135 0.534566 0.653882
O O7 0.481948 0.411842 0.635206
O O8 0.724580 0.876089 0.819484
O O9 0.897471 0.884680 0.687008
O O10 0.045151 0.832376 0.870394
O O11 0.200657 0.750000 0.546242
O O12 0.058825 0.843944 0.554732
O O13 0.557935 0.250000 0.189138
#
# Coordination Sequence:
#
# PCOD8251293 Si02
#       6
#     8   8   8   8   8   8
#     4  10  19  32  55  82 105 134 178 228 271 312
#     4   8  16  31  50  75 103 131 168 216 266 312
#     4   9  18  33  54  76 101 139 181 216 255 318
#     4   9  17  32  52  72 100 136 177 217 257 318
#     4  10  21  36  53  78 112 142 172 220 278 321
#     4  10  20  34  52  73 102 143 182 214 262 326
#
# _framework density 22.160022000000001
#
# number of rings (size 3 to 8) (size 9 to 14) (size 15 to 20)
#    0.000    2.667    0.000    2.500    0.000    1.333 
#    0.000    5.000    0.000    0.000    0.000    0.000 
#    0.000    0.000    0.000    0.000    0.000    0.000 
#
# Total GULP energy -594854.515590 kJ/mol
# GULP energy per Si atom -12392.802408 kJ/mol
# Density = 2.210958 g / cm^3
# Si number density = 22.160022 Si / 1000 Ang^3
#
#
#
# Elastic Constant Matrix: (Units=GPa)
#
#
# Indices 1 2 3 4 5 6 
#
# 1 43.3140 -7.5692 -17.4890 0.0000 0.0000 0.0000
# 2 -7.5692 79.9697 -5.8296 0.0000 0.0000 0.0000
# 3 -17.4890 -5.8296 16.1588 0.0000 0.0000 0.0000
# 4 0.0000 0.0000 0.0000 26.9010 0.0000 0.0000
# 5 0.0000 0.0000 0.0000 0.0000 29.8769 0.0000
# 6 0.0000 0.0000 0.0000 0.0000 0.0000 24.0344
#
#
#
# Elastic Compliance Matrix: (Units=1/GPa)
#
#
# Indices 1 2 3 4 5 6 
#
# 1 0.045638 0.008134 0.052329 0.000000 0.000000 0.000000
# 2 0.008134 0.014292 0.013960 0.000000 0.000000 0.000000
# 3 0.052329 0.013960 0.123559 0.000000 0.000000 0.000000
# 4 0.000000 0.000000 0.000000 0.037173 0.000000 0.000000
# 5 0.000000 0.000000 0.000000 0.000000 0.033471 0.000000
# 6 0.000000 0.000000 0.000000 0.000000 0.000000 0.041607
#
#
# Mechanical properties :
#
#
# Convention : Reuss Voigt Hill
#
# Bulk Modulus (GPa) = 3.00899 8.62968 5.81933
# Shear Modulus (GPa) = 19.40452 27.51781 23.46117
#
# Velocity S-wave (km/s) = 2.96236 3.52771 3.25732
# Velocity P-wave (km/s) = 3.61407 4.52722 4.09617
#
# Compressibility (1/GPa) = 0.33233689
#
# Stress axis : x y z
#
# Youngs Moduli (GPa) = 21.91167 69.96772 8.09328
#
# Poissons Ratio (x) = -0.56914 -0.42352
# Poissons Ratio (y) = -0.17824 -0.11298
# Poissons Ratio (z) = -1.14662 -0.97676
#
# Static dielectric constant tensor:
#      x y z
#    x 4.527560 0.000000 0.000000 
#    y 0.000000 3.895480 0.000000 
#    z 0.000000 0.000000 3.455860 
# 
# 
# High freq. dielectric constant tensor:
#      x y z
#    x 1.888720 0.000000 0.000000 
#    y 0.000000 1.854650 0.000000 
#    z 0.000000 0.000000 1.829800 
# 
# From -- ./inp_files/6435.got.cif
#   From: 2010.03.12/outbox.cif.g09.slc.cpg/sg62_4_cif.got.tgz:6435.got - 2010.04.10 19:12:36.
