data_PCOD8251992
_publ_section_title
;
Structure prediction by ZEFSAII (Michael W. Deem and Ramdas Pophale) SiO2 
 PCOD8251992
Probable space group: P N M A
;
_chemical_formula_sum "Si O2"
_cell_formula_units_Z 48
_cell_length_a 16.378904
_cell_length_b 17.611347
_cell_length_c 8.711130
_cell_angle_alpha 90.000000
_cell_angle_beta 90.000000
_cell_angle_gamma 90.000000
_cell_volume 2512.765187
_symmetry_space_group_name_H-M "P N M A"
_symmetry_group_IT_number 62
_symmetry_cell_setting 'orthorhombic'
loop_
_space_group_symop_operation_xyz
x,y,z
1/2-x,-y,1/2+z
1/2+x,1/2-y,1/2-z
-x,1/2+y,-z
-x,-y,-z
1/2+x,y,1/2-z
1/2-x,1/2+y,1/2+z
x,1/2-y,z
loop_
_atom_site_type_symbol
_atom_site_label
_atom_site_fract_x
_atom_site_fract_y
_atom_site_fract_z
Si Si1 0.050397 0.455197 0.685448
Si Si2 0.394185 0.433470 0.616418
Si Si3 0.498315 0.664536 0.602125
Si Si4 0.347473 0.915850 0.465360
Si Si5 0.959349 0.117391 0.430066
Si Si6 0.186615 0.663663 0.373164
O O1 0.121907 0.422472 0.790309
O O2 0.077473 0.535349 0.615109
O O3 0.967742 0.468895 0.783861
O O4 0.033916 0.394686 0.549975
O O5 0.431922 0.385996 0.476372
O O6 0.341276 0.501785 0.545444
O O7 0.335060 0.381192 0.717541
O O8 0.508988 0.750000 0.541912
O O9 0.408044 0.637062 0.561199
O O10 0.507755 0.663130 0.785110
O O11 0.259658 0.877314 0.462735
O O12 0.889306 0.165976 0.511136
O O13 0.210280 0.750000 0.330307
#
# Coordination Sequence:
#
# PCOD8251992 Si02
#       6
#     8   8   8   8   8   8
#     4   9  18  36  60  86 108 142 194 242 278 340
#     4  10  20  38  60  83 112 154 199 236 284 352
#     4  11  20  36  62  88 117 151 196 245 289 338
#     4  11  21  38  60  87 114 153 201 242 286 344
#     4  10  19  36  60  85 116 145 191 238 290 340
#     4  11  25  39  54  84 125 158 187 237 306 351
#
# _framework density 19.102460000000001
#
# number of rings (size 3 to 8) (size 9 to 14) (size 15 to 20)
#    0.000    1.667    3.333    2.500    2.333    0.000 
#    0.000    4.167    0.000    0.000    0.000    0.000 
#    0.000    0.000    0.000    0.000    0.000    0.000 
#
# Total GULP energy -595380.324665 kJ/mol
# GULP energy per Si atom -12403.756764 kJ/mol
# Density = 1.905898 g / cm^3
# Si number density = 19.102460 Si / 1000 Ang^3
#
#
#
# Elastic Constant Matrix: (Units=GPa)
#
#
# Indices 1 2 3 4 5 6 
#
# 1 54.9362 34.5055 23.8841 0.0000 0.0000 0.0000
# 2 34.5055 123.2586 34.3494 0.0000 0.0000 0.0000
# 3 23.8841 34.3494 110.9131 0.0000 0.0000 0.0000
# 4 0.0000 0.0000 0.0000 19.5210 0.0000 0.0000
# 5 0.0000 0.0000 0.0000 0.0000 20.2450 0.0000
# 6 0.0000 0.0000 0.0000 0.0000 0.0000 21.5942
#
#
#
# Elastic Compliance Matrix: (Units=1/GPa)
#
#
# Indices 1 2 3 4 5 6 
#
# 1 0.023112 -0.005563 -0.003254 0.000000 0.000000 0.000000
# 2 -0.005563 0.010218 -0.001967 0.000000 0.000000 0.000000
# 3 -0.003254 -0.001967 0.010326 0.000000 0.000000 0.000000
# 4 0.000000 0.000000 0.000000 0.051227 0.000000 0.000000
# 5 0.000000 0.000000 0.000000 0.000000 0.049395 0.000000
# 6 0.000000 0.000000 0.000000 0.000000 0.000000 0.046309
#
#
# Mechanical properties :
#
#
# Convention : Reuss Voigt Hill
#
# Bulk Modulus (GPa) = 45.27249 52.73178 49.00213
# Shear Modulus (GPa) = 22.77724 25.36330 24.07027
#
# Velocity S-wave (km/s) = 3.45682 3.64778 3.55359
# Velocity P-wave (km/s) = 6.29953 6.73843 6.52267
#
# Compressibility (1/GPa) = 0.02208847
#
# Stress axis : x y z
#
# Youngs Moduli (GPa) = 43.26771 97.86195 96.84429
#
# Poissons Ratio (x) = 0.54443 0.31513
# Poissons Ratio (y) = 0.24071 0.19046
# Poissons Ratio (z) = 0.14079 0.19246
#
# Static dielectric constant tensor:
#      x y z
#    x 3.196380 0.000000 0.000000 
#    y 0.000000 3.443680 0.000000 
#    z 0.000000 0.000000 3.654670 
# 
# 
# High freq. dielectric constant tensor:
#      x y z
#    x 1.714810 0.000000 0.000000 
#    y 0.000000 1.746870 0.000000 
#    z 0.000000 0.000000 1.754970 
# 
# From -- ./inp_files/6463.got.cif
#   From: 2010.03.12/outbox.cif.g09.slc.cpg/sg62_4_cif.got.tgz:6463.got - 2010.04.10 19:12:36.
