data_PCOD8251909
_publ_section_title
;
Structure prediction by ZEFSAII (Michael W. Deem and Ramdas Pophale) SiO2 
 PCOD8251909
Probable space group: P N M A
;
_chemical_formula_sum "Si O2"
_cell_formula_units_Z 64
_cell_length_a 11.912645
_cell_length_b 8.775053
_cell_length_c 30.425212
_cell_angle_alpha 90.000000
_cell_angle_beta 90.000000
_cell_angle_gamma 90.000000
_cell_volume 3180.471887
_symmetry_space_group_name_H-M "P N M A"
_symmetry_group_IT_number 62
_symmetry_cell_setting 'orthorhombic'
loop_
_space_group_symop_operation_xyz
x,y,z
1/2-x,-y,1/2+z
1/2+x,1/2-y,1/2-z
-x,1/2+y,-z
-x,-y,-z
1/2+x,y,1/2-z
1/2-x,1/2+y,1/2+z
x,1/2-y,z
loop_
_atom_site_type_symbol
_atom_site_label
_atom_site_fract_x
_atom_site_fract_y
_atom_site_fract_z
Si Si1 0.503979 0.071638 0.930439
Si Si2 0.254340 0.425241 0.549634
Si Si3 0.492202 0.424663 0.159926
Si Si4 0.094017 0.069956 0.120819
Si Si5 0.714966 0.424812 0.048168
Si Si6 0.720931 0.074976 0.205657
Si Si7 0.850163 0.570862 0.126370
Si Si8 0.256312 0.430732 0.196932
O O1 0.491661 0.250000 0.939706
O O2 0.628982 0.013266 0.940898
O O3 0.474830 0.033319 0.880103
O O4 0.412761 0.981979 0.959851
O O5 0.264492 0.250000 0.564733
O O6 0.343190 0.525377 0.575962
O O7 0.280693 0.442030 0.497838
O O8 0.478824 0.250000 0.143530
O O9 0.589289 0.438136 0.195860
O O10 0.378057 0.486379 0.181317
O O11 0.082806 0.250000 0.122396
O O12 0.163334 0.006788 0.162826
O O13 0.971861 0.999911 0.120975
O O14 0.712740 0.250000 0.063926
O O15 0.774170 0.523554 0.085295
O O16 0.761656 0.250000 0.203397
O O17 0.736028 0.004391 0.254270
O O18 0.795897 0.980972 0.171926
O O19 0.861867 0.750000 0.126455
O O20 0.249670 0.250000 0.198338
#
# Coordination Sequence:
#
# PCOD8251909 Si02
#       8
#     8   8   8   8   8   8   8   8
#     4  11  21  36  60  92 129 160 192 246 307 358
#     4  10  23  41  62  91 126 160 198 249 305 359
#     4  10  19  35  61  91 123 160 200 247 295 349
#     4  11  23  41  66  91 119 161 207 250 300 363
#     4  11  23  41  64  89 119 161 208 249 297 360
#     4  10  21  38  64  92 122 159 203 250 295 353
#     4  12  26  43  61  87 123 159 200 255 312 363
#     4   9  20  37  62  95 122 156 205 250 292 350
#
# _framework density 20.122799000000001
#
# number of rings (size 3 to 8) (size 9 to 14) (size 15 to 20)
#    0.000    1.500    2.500    2.625    1.750    2.000 
#    0.000    1.875    0.000    0.000    0.000    0.000 
#    0.000    0.000    0.000    0.000    0.000    0.000 
#
# Total GULP energy -793850.499514 kJ/mol
# GULP energy per Si atom -12403.914055 kJ/mol
# Density = 2.007700 g / cm^3
# Si number density = 20.122799 Si / 1000 Ang^3
#
#
#
# Elastic Constant Matrix: (Units=GPa)
#
#
# Indices 1 2 3 4 5 6 
#
# 1 114.6911 27.8358 21.4900 0.0000 0.0000 0.0000
# 2 27.8358 60.4177 18.0876 0.0000 0.0000 0.0000
# 3 21.4900 18.0876 89.1383 0.0000 0.0000 0.0000
# 4 0.0000 0.0000 0.0000 23.2512 0.0000 0.0000
# 5 0.0000 0.0000 0.0000 0.0000 25.5626 0.0000
# 6 0.0000 0.0000 0.0000 0.0000 0.0000 31.4322
#
#
#
# Elastic Compliance Matrix: (Units=1/GPa)
#
#
# Indices 1 2 3 4 5 6 
#
# 1 0.010020 -0.004145 -0.001575 0.000000 0.000000 0.000000
# 2 -0.004145 0.019337 -0.002924 0.000000 0.000000 0.000000
# 3 -0.001575 -0.002924 0.012192 0.000000 0.000000 0.000000
# 4 0.000000 0.000000 0.000000 0.043009 0.000000 0.000000
# 5 0.000000 0.000000 0.000000 0.000000 0.039120 0.000000
# 6 0.000000 0.000000 0.000000 0.000000 0.000000 0.031815
#
#
# Mechanical properties :
#
#
# Convention : Reuss Voigt Hill
#
# Bulk Modulus (GPa) = 41.21988 44.34156 42.78072
# Shear Modulus (GPa) = 27.64477 29.17143 28.40810
#
# Velocity S-wave (km/s) = 3.71051 3.81158 3.76139
# Velocity P-wave (km/s) = 6.23585 6.43850 6.33798
#
# Compressibility (1/GPa) = 0.02426014
#
# Stress axis : x y z
#
# Youngs Moduli (GPa) = 99.79903 51.71515 82.02399
#
# Poissons Ratio (x) = 0.21436 0.12916
# Poissons Ratio (y) = 0.41368 0.23987
# Poissons Ratio (z) = 0.15714 0.15124
#
# Static dielectric constant tensor:
#      x y z
#    x 3.758650 0.000000 0.000000 
#    y 0.000000 3.495320 0.000000 
#    z 0.000000 0.000000 3.778990 
# 
# 
# High freq. dielectric constant tensor:
#      x y z
#    x 1.793310 0.000000 0.000000 
#    y 0.000000 1.769000 0.000000 
#    z 0.000000 0.000000 1.794790 
# 
# From -- ./inp_files/32595.got.cif
#   From: 2010.03.12/outbox.cif.g09.slc.cpg/sg62_17_cif.got.tgz:32595.got - 2010.04.10 19:12:36.
