data_PCOD8251161
_publ_section_title
;
Structure prediction by ZEFSAII (Michael W. Deem and Ramdas Pophale) SiO2 
 PCOD8251161
Probable space group: P N M A
;
_chemical_formula_sum "Si O2"
_cell_formula_units_Z 40
_cell_length_a 15.476643
_cell_length_b 9.158285
_cell_length_c 15.827482
_cell_angle_alpha 90.000000
_cell_angle_beta 90.000000
_cell_angle_gamma 90.000000
_cell_volume 2243.379503
_symmetry_space_group_name_H-M "P N M A"
_symmetry_group_IT_number 62
_symmetry_cell_setting 'orthorhombic'
loop_
_space_group_symop_operation_xyz
x,y,z
1/2-x,-y,1/2+z
1/2+x,1/2-y,1/2-z
-x,1/2+y,-z
-x,-y,-z
1/2+x,y,1/2-z
1/2-x,1/2+y,1/2+z
x,1/2-y,z
loop_
_atom_site_type_symbol
_atom_site_label
_atom_site_fract_x
_atom_site_fract_y
_atom_site_fract_z
Si Si1 0.449783 0.580742 0.382966
Si Si2 0.130499 0.580195 0.032782
Si Si3 0.935298 0.920493 0.309450
Si Si4 0.564442 0.916167 0.057739
Si Si5 0.301037 0.078236 0.069488
O O1 0.426182 0.750000 0.395588
O O2 0.385422 0.486863 0.440325
O O3 0.548650 0.550921 0.407627
O O4 0.435972 0.529000 0.287207
O O5 0.151124 0.750000 0.022394
O O6 0.210071 0.501685 0.078303
O O7 0.910379 0.750000 0.317711
O O8 0.034119 0.946600 0.345563
O O9 0.865401 0.015905 0.359436
O O10 0.548662 0.750000 0.034550
O O11 0.661740 0.955075 0.026342
O O12 0.500000 0.000000 0.000000
O O13 0.288279 0.250000 0.085180
#
# Coordination Sequence:
#
# PCOD8251161 Si02
#       5
#     8   8   8   8   8
#     4   9  19  36  56  75  98 135 178 218 261 308
#     4  10  20  35  54  75 103 139 178 214 258 310
#     4   9  17  33  55  77 101 131 173 217 261 308
#     4   8  15  28  48  72  99 132 164 201 249 303
#     4  10  19  32  51  78 110 138 170 210 258 309
#
# _framework density 17.830242999999999
#
# number of rings (size 3 to 8) (size 9 to 14) (size 15 to 20)
#    0.000    2.800    0.000    1.200    0.000    2.400 
#    3.600    0.000    0.000    0.000    0.000    0.000 
#    0.000    0.000    0.000    0.000    0.000    0.000 
#
# Total GULP energy -495578.168734 kJ/mol
# GULP energy per Si atom -12389.454218 kJ/mol
# Density = 1.778966 g / cm^3
# Si number density = 17.830243 Si / 1000 Ang^3
#
#
#
# Elastic Constant Matrix: (Units=GPa)
#
#
# Indices 1 2 3 4 5 6 
#
# 1 86.2306 47.4656 46.5713 0.0000 0.0000 0.0000
# 2 47.4656 76.6906 45.6733 0.0000 0.0000 0.0000
# 3 46.5713 45.6733 117.1362 0.0000 0.0000 0.0000
# 4 0.0000 0.0000 0.0000 25.9914 0.0000 0.0000
# 5 0.0000 0.0000 0.0000 0.0000 16.8744 0.0000
# 6 0.0000 0.0000 0.0000 0.0000 0.0000 28.8443
#
#
#
# Elastic Compliance Matrix: (Units=1/GPa)
#
#
# Indices 1 2 3 4 5 6 
#
# 1 0.018822 -0.009368 -0.003831 0.000000 0.000000 0.000000
# 2 -0.009368 0.021646 -0.004715 0.000000 0.000000 0.000000
# 3 -0.003831 -0.004715 0.011899 0.000000 0.000000 0.000000
# 4 0.000000 0.000000 0.000000 0.038474 0.000000 0.000000
# 5 0.000000 0.000000 0.000000 0.000000 0.059262 0.000000
# 6 0.000000 0.000000 0.000000 0.000000 0.000000 0.034669
#
#
# Mechanical properties :
#
#
# Convention : Reuss Voigt Hill
#
# Bulk Modulus (GPa) = 60.46547 62.16417 61.31482
# Shear Modulus (GPa) = 22.11283 23.69851 22.90567
#
# Velocity S-wave (km/s) = 3.52545 3.64966 3.58809
# Velocity P-wave (km/s) = 7.11035 7.25949 7.18531
#
# Compressibility (1/GPa) = 0.01653836
#
# Stress axis : x y z
#
# Youngs Moduli (GPa) = 53.12813 46.19803 84.04297
#
# Poissons Ratio (x) = 0.43280 0.32194
# Poissons Ratio (y) = 0.49772 0.39630
# Poissons Ratio (z) = 0.20351 0.21784
#
# Static dielectric constant tensor:
#      x y z
#    x 3.370670 0.000000 0.000000 
#    y 0.000000 3.313670 0.000000 
#    z 0.000000 0.000000 3.558700 
# 
# 
# High freq. dielectric constant tensor:
#      x y z
#    x 1.681800 0.000000 0.000000 
#    y 0.000000 1.696390 0.000000 
#    z 0.000000 0.000000 1.680610 
# 
# From -- ./inp_files/18632.got.cif
#   From: 2010.03.12/outbox.cif.g09.slc.cpg/sg62_10_cif.got.tgz:18632.got - 2010.04.10 19:12:36.
