data_PCOD8251997
_publ_section_title
;
Structure prediction by ZEFSAII (Michael W. Deem and Ramdas Pophale) SiO2 
 PCOD8251997
Probable space group: P N M A
;
_chemical_formula_sum "Si O2"
_cell_formula_units_Z 32
_cell_length_a 17.516159
_cell_length_b 16.386596
_cell_length_c 4.974726
_cell_angle_alpha 90.000000
_cell_angle_beta 90.000000
_cell_angle_gamma 90.000000
_cell_volume 1427.896703
_symmetry_space_group_name_H-M "P N M A"
_symmetry_group_IT_number 62
_symmetry_cell_setting 'orthorhombic'
loop_
_space_group_symop_operation_xyz
x,y,z
1/2-x,-y,1/2+z
1/2+x,1/2-y,1/2-z
-x,1/2+y,-z
-x,-y,-z
1/2+x,y,1/2-z
1/2-x,1/2+y,1/2+z
x,1/2-y,z
loop_
_atom_site_type_symbol
_atom_site_label
_atom_site_fract_x
_atom_site_fract_y
_atom_site_fract_z
Si Si1 0.767130 0.344169 0.316979
Si Si2 0.427696 0.155898 0.377956
Si Si3 0.670089 0.155174 0.801775
Si Si4 0.992587 0.590327 0.388466
O O1 0.785754 0.250000 0.366893
O O2 0.847942 0.383398 0.229987
O O3 0.732203 0.381291 0.591205
O O4 0.702857 0.357758 0.095754
O O5 0.419300 0.250000 0.468658
O O6 0.450441 0.103787 0.638914
O O7 0.488849 0.150682 0.136292
O O8 0.653798 0.250000 0.735411
O O9 0.591829 0.106156 0.777174
O O10 0.000000 0.500000 0.500000
#
# Coordination Sequence:
#
# PCOD8251997 Si02
#       4
#     8   8   8   8
#     4   9  19  35  61  91 117 149 206 265 304 353
#     4  11  22  41  66  92 121 166 218 264 313 377
#     4  10  19  36  60  88 119 159 205 253 305 367
#     4  12  25  40  60  93 134 170 206 260 321 381
#
# _framework density 22.410585000000001
#
# number of rings (size 3 to 8) (size 9 to 14) (size 15 to 20)
#    0.000    1.500    0.000    6.000    0.000    6.000 
#    0.000    5.000    0.000    0.000    0.000    0.000 
#    0.000    0.000    0.000    0.000    0.000    0.000 
#
# Total GULP energy -396876.766955 kJ/mol
# GULP energy per Si atom -12402.398967 kJ/mol
# Density = 2.235958 g / cm^3
# Si number density = 22.410585 Si / 1000 Ang^3
#
#
#
# Elastic Constant Matrix: (Units=GPa)
#
#
# Indices 1 2 3 4 5 6 
#
# 1 120.6873 44.0947 39.0652 0.0000 0.0000 0.0000
# 2 44.0947 56.8542 31.2500 0.0000 0.0000 0.0000
# 3 39.0652 31.2500 132.5933 0.0000 0.0000 0.0000
# 4 0.0000 0.0000 0.0000 31.6457 0.0000 0.0000
# 5 0.0000 0.0000 0.0000 0.0000 42.2765 0.0000
# 6 0.0000 0.0000 0.0000 0.0000 0.0000 13.4189
#
#
#
# Elastic Compliance Matrix: (Units=1/GPa)
#
#
# Indices 1 2 3 4 5 6 
#
# 1 0.011823 -0.008334 -0.001519 0.000000 0.000000 0.000000
# 2 -0.008334 0.026082 -0.003692 0.000000 0.000000 0.000000
# 3 -0.001519 -0.003692 0.008859 0.000000 0.000000 0.000000
# 4 0.000000 0.000000 0.000000 0.031600 0.000000 0.000000
# 5 0.000000 0.000000 0.000000 0.000000 0.023654 0.000000
# 6 0.000000 0.000000 0.000000 0.000000 0.000000 0.074522
#
#
# Mechanical properties :
#
#
# Convention : Reuss Voigt Hill
#
# Bulk Modulus (GPa) = 50.82826 59.88384 55.35605
# Shear Modulus (GPa) = 23.78829 30.51654 27.15241
#
# Velocity S-wave (km/s) = 3.26156 3.69413 3.48456
# Velocity P-wave (km/s) = 6.07564 6.70632 6.39875
#
# Compressibility (1/GPa) = 0.01967410
#
# Stress axis : x y z
#
# Youngs Moduli (GPa) = 84.58346 38.34076 112.87441
#
# Poissons Ratio (x) = 0.31955 0.17145
# Poissons Ratio (y) = 0.70496 0.41668
# Poissons Ratio (z) = 0.12848 0.14154
#
# Static dielectric constant tensor:
#      x y z
#    x 4.252560 0.000000 0.000000 
#    y 0.000000 3.684360 0.000000 
#    z 0.000000 0.000000 4.265090 
# 
# 
# High freq. dielectric constant tensor:
#      x y z
#    x 1.895910 0.000000 0.000000 
#    y 0.000000 1.840540 0.000000 
#    z 0.000000 0.000000 1.902010 
# 
# From -- ./inp_files/1489.got.cif
#   From: 2010.03.12/outbox.cif.g09.slc.cpg/sg62_1_cif.got.tgz:1489.got - 2010.04.10 19:12:36.
