data_PCOD8251601
_publ_section_title
;
Structure prediction by ZEFSAII (Michael W. Deem and Ramdas Pophale) SiO2 
 PCOD8251601
Probable space group: P N M A
;
_chemical_formula_sum "Si O2"
_cell_formula_units_Z 64
_cell_length_a 19.369992
_cell_length_b 8.842555
_cell_length_c 19.334248
_cell_angle_alpha 90.000000
_cell_angle_beta 90.000000
_cell_angle_gamma 90.000000
_cell_volume 3311.574243
_symmetry_space_group_name_H-M "P N M A"
_symmetry_group_IT_number 62
_symmetry_cell_setting 'orthorhombic'
loop_
_space_group_symop_operation_xyz
x,y,z
1/2-x,-y,1/2+z
1/2+x,1/2-y,1/2-z
-x,1/2+y,-z
-x,-y,-z
1/2+x,y,1/2-z
1/2-x,1/2+y,1/2+z
x,1/2-y,z
loop_
_atom_site_type_symbol
_atom_site_label
_atom_site_fract_x
_atom_site_fract_y
_atom_site_fract_z
Si Si1 0.382228 0.070627 0.157891
Si Si2 0.968763 0.570307 0.702087
Si Si3 0.658636 0.071874 0.458854
Si Si4 0.310921 0.429388 0.020687
Si Si5 0.331369 0.570339 0.871400
Si Si6 0.193778 0.571052 0.793554
Si Si7 0.956915 0.571198 0.858033
Si Si8 0.407124 0.570693 0.401542
O O1 0.386086 0.250000 0.158793
O O2 0.458287 0.003603 0.174812
O O3 0.362974 0.014723 0.080744
O O4 0.323538 0.021686 0.214218
O O5 0.970012 0.750000 0.699409
O O6 0.904133 0.508850 0.657871
O O7 0.957166 0.513413 0.779772
O O8 0.657081 0.250000 0.466240
O O9 0.736619 0.015025 0.452120
O O10 0.616350 0.023145 0.390932
O O11 0.625565 0.003966 0.528376
O O12 0.314161 0.250000 0.009823
O O13 0.326318 0.507047 0.948275
O O14 0.330356 0.750000 0.874630
O O15 0.268650 0.513794 0.821277
O O16 0.189326 0.750000 0.801303
O O17 0.133004 0.498972 0.837466
O O18 0.970288 0.750000 0.863251
O O19 0.014540 0.484195 0.901192
O O20 0.403163 0.750000 0.397132
#
# Coordination Sequence:
#
# PCOD8251601 Si02
#       8
#     8   8   8   8   8   8   8   8
#     4   9  18  33  56  81 103 134 182 225 259 306
#     4   9  18  33  54  81 107 134 176 229 266 299
#     4   9  19  32  50  78 108 140 176 215 263 316
#     4  10  20  36  56  78 107 141 179 221 266 317
#     4  10  21  35  55  81 109 138 177 222 267 312
#     4  10  19  34  56  81 104 138 181 220 260 311
#     4  10  19  34  55  78 106 142 180 218 261 314
#     4  11  20  33  52  78 111 142 172 213 267 324
#
# _framework density 19.326155
#
# number of rings (size 3 to 8) (size 9 to 14) (size 15 to 20)
#    0.000    2.250    2.500    0.750    1.750    0.500 
#    0.000    2.500    0.000    0.000    0.000    0.000 
#    0.000    0.000    0.000    0.000    0.000    0.000 
#
# Total GULP energy -793338.610285 kJ/mol
# GULP energy per Si atom -12395.915786 kJ/mol
# Density = 1.928217 g / cm^3
# Si number density = 19.326155 Si / 1000 Ang^3
#
#
#
# Elastic Constant Matrix: (Units=GPa)
#
#
# Indices 1 2 3 4 5 6 
#
# 1 131.6374 2.9559 65.4148 0.0000 0.0000 0.0000
# 2 2.9559 -1.7816 6.6785 0.0000 0.0000 0.0000
# 3 65.4148 6.6785 95.3981 0.0000 0.0000 0.0000
# 4 0.0000 0.0000 0.0000 24.9569 0.0000 0.0000
# 5 0.0000 0.0000 0.0000 0.0000 41.8030 0.0000
# 6 0.0000 0.0000 0.0000 0.0000 0.0000 17.2573
#
#
#
# Elastic Compliance Matrix: (Units=1/GPa)
#
#
# Indices 1 2 3 4 5 6 
#
# 1 0.011370 -0.008207 -0.007222 0.000000 0.000000 0.000000
# 2 -0.008207 -0.438684 0.036339 0.000000 0.000000 0.000000
# 3 -0.007222 0.036339 0.012890 0.000000 0.000000 0.000000
# 4 0.000000 0.000000 0.000000 0.040069 0.000000 0.000000
# 5 0.000000 0.000000 0.000000 0.000000 0.023922 0.000000
# 6 0.000000 0.000000 0.000000 0.000000 0.000000 0.057946
#
#
# Mechanical properties :
#
#
# Convention : Reuss Voigt Hill
#
# Bulk Modulus (GPa) = -2.68381 41.70581 19.51100
# Shear Modulus (GPa) = -10.90493 26.81709 7.95608
#
# Velocity S-wave (km/s) = -2.37799 3.72910 2.03118
# Velocity P-wave (km/s) = 2.98856 6.33786 3.95202
#
# Compressibility (1/GPa) = -0.37260506
#
# Stress axis : x y z
#
# Youngs Moduli (GPa) = 87.95429 -2.27954 77.57779
#
# Poissons Ratio (x) = -0.01871 0.56023
# Poissons Ratio (y) = 0.72187 -2.81908
# Poissons Ratio (z) = 0.63517 0.08284
#
# Static dielectric constant tensor:
#      x y z
#    x 3.980950 0.000000 0.000000 
#    y 0.000000 3.061330 0.000000 
#    z 0.000000 0.000000 3.681560 
# 
# 
# High freq. dielectric constant tensor:
#      x y z
#    x 1.764350 0.000000 0.000000 
#    y 0.000000 1.701380 0.000000 
#    z 0.000000 0.000000 1.762860 
# 
# From -- ./inp_files/24737.got.cif
#   From: 2010.03.12/outbox.cif.g09.slc.cpg/sg62_13_cif.got.tgz:24737.got - 2010.04.10 19:12:36.
