data_PCOD8251105
_publ_section_title
;
Structure prediction by ZEFSAII (Michael W. Deem and Ramdas Pophale) SiO2 
 PCOD8251105
Probable space group: P N M A
;
_chemical_formula_sum "Si O2"
_cell_formula_units_Z 56
_cell_length_a 9.309459
_cell_length_b 18.135918
_cell_length_c 17.238877
_cell_angle_alpha 90.000000
_cell_angle_beta 90.000000
_cell_angle_gamma 90.000000
_cell_volume 2910.535884
_symmetry_space_group_name_H-M "P N M A"
_symmetry_group_IT_number 62
_symmetry_cell_setting 'orthorhombic'
loop_
_space_group_symop_operation_xyz
x,y,z
1/2-x,-y,1/2+z
1/2+x,1/2-y,1/2-z
-x,1/2+y,-z
-x,-y,-z
1/2+x,y,1/2-z
1/2-x,1/2+y,1/2+z
x,1/2-y,z
loop_
_atom_site_type_symbol
_atom_site_label
_atom_site_fract_x
_atom_site_fract_y
_atom_site_fract_z
Si Si1 0.586321 0.165620 0.013688
Si Si2 0.265034 0.165841 0.054383
Si Si3 0.608146 0.466841 0.387329
Si Si4 0.344061 0.074281 0.475047
Si Si5 0.403820 0.097911 0.711565
Si Si6 0.545344 0.166862 0.572764
Si Si7 0.101670 0.335200 0.668762
O O1 0.628333 0.250000 0.032279
O O2 0.692833 0.107015 0.054909
O O3 0.593901 0.150724 0.922182
O O4 0.431675 0.147337 0.048375
O O5 0.237696 0.250000 0.081922
O O6 0.191274 0.111266 0.117030
O O7 0.199398 0.154447 0.967906
O O8 0.677109 0.511322 0.459914
O O9 0.437535 0.456431 0.403302
O O10 0.628497 0.511176 0.306256
O O11 0.424135 0.144826 0.511281
O O12 0.528924 0.118866 0.649916
O O13 0.475333 0.113817 0.794633
O O14 0.258732 0.144340 0.701068
O O15 0.519793 0.250000 0.598393
O O16 0.071235 0.250000 0.689667
#
# Coordination Sequence:
#
# PCOD8251105 Si02
#       7
#     8   8   8   8   8   8   8
#     4  10  19  32  49  78 111 138 173 215 263 313
#     4   9  19  31  50  77 103 131 166 218 274 319
#     4   9  18  34  50  71  99 138 178 215 263 316
#     4   9  16  29  49  71  97 135 174 212 256 308
#     4  11  22  35  49  71 104 144 184 218 249 300
#     4   9  15  28  47  66  96 137 171 203 247 300
#     4  11  22  35  50  73 106 148 184 210 245 306
#
# _framework density 19.240444
#
# number of rings (size 3 to 8) (size 9 to 14) (size 15 to 20)
#    0.000    2.286    2.857    2.571    2.000    1.143 
#    0.000    0.000    0.000    0.000    0.000    1.000 
#    0.000    0.000    0.000    0.000    0.000    0.000 
#
# Total GULP energy -694125.068211 kJ/mol
# GULP energy per Si atom -12395.090504 kJ/mol
# Density = 1.919665 g / cm^3
# Si number density = 19.240444 Si / 1000 Ang^3
#
#
#
# Elastic Constant Matrix: (Units=GPa)
#
#
# Indices 1 2 3 4 5 6 
#
# 1 85.2712 57.8009 10.4785 0.0000 0.0000 0.0000
# 2 57.8009 103.9000 19.0478 0.0000 0.0000 0.0000
# 3 10.4785 19.0478 22.2493 0.0000 0.0000 0.0000
# 4 0.0000 0.0000 0.0000 24.7831 0.0000 0.0000
# 5 0.0000 0.0000 0.0000 0.0000 16.2864 0.0000
# 6 0.0000 0.0000 0.0000 0.0000 0.0000 36.1659
#
#
#
# Elastic Compliance Matrix: (Units=1/GPa)
#
#
# Indices 1 2 3 4 5 6 
#
# 1 0.018827 -0.010495 0.000118 0.000000 0.000000 0.000000
# 2 -0.010495 0.017267 -0.009840 0.000000 0.000000 0.000000
# 3 0.000118 -0.009840 0.053313 0.000000 0.000000 0.000000
# 4 0.000000 0.000000 0.000000 0.040350 0.000000 0.000000
# 5 0.000000 0.000000 0.000000 0.000000 0.061401 0.000000
# 6 0.000000 0.000000 0.000000 0.000000 0.000000 0.027650
#
#
# Mechanical properties :
#
#
# Convention : Reuss Voigt Hill
#
# Bulk Modulus (GPa) = 20.41888 42.89721 31.65805
# Shear Modulus (GPa) = 18.14439 23.71997 20.93218
#
# Velocity S-wave (km/s) = 3.07422 3.51496 3.30195
# Velocity P-wave (km/s) = 4.82044 6.23033 5.57017
#
# Compressibility (1/GPa) = 0.04897428
#
# Stress axis : x y z
#
# Youngs Moduli (GPa) = 53.11499 57.91290 18.75701
#
# Poissons Ratio (x) = 0.60782 -0.00222
# Poissons Ratio (y) = 0.55747 0.18456
# Poissons Ratio (z) = -0.00629 0.56985
#
# Static dielectric constant tensor:
#      x y z
#    x 3.621440 0.000000 0.000000 
#    y 0.000000 3.741780 0.000000 
#    z 0.000000 0.000000 3.018420 
# 
# 
# High freq. dielectric constant tensor:
#      x y z
#    x 1.752150 0.000000 0.000000 
#    y 0.000000 1.755720 0.000000 
#    z 0.000000 0.000000 1.680970 
# 
# From -- ./inp_files/26099.got.cif
#   From: 2010.03.12/outbox.cif.g09.slc.cpg/sg62_14_cif.got.tgz:26099.got - 2010.04.10 19:12:36.
