data_PCOD8251365
_publ_section_title
;
Structure prediction by ZEFSAII (Michael W. Deem and Ramdas Pophale) SiO2 
 PCOD8251365
Probable space group: P N M A
;
_chemical_formula_sum "Si O2"
_cell_formula_units_Z 48
_cell_length_a 15.510937
_cell_length_b 9.011750
_cell_length_c 19.465853
_cell_angle_alpha 90.000000
_cell_angle_beta 90.000000
_cell_angle_gamma 90.000000
_cell_volume 2720.950296
_symmetry_space_group_name_H-M "P N M A"
_symmetry_group_IT_number 62
_symmetry_cell_setting 'orthorhombic'
loop_
_space_group_symop_operation_xyz
x,y,z
1/2-x,-y,1/2+z
1/2+x,1/2-y,1/2-z
-x,1/2+y,-z
-x,-y,-z
1/2+x,y,1/2-z
1/2-x,1/2+y,1/2+z
x,1/2-y,z
loop_
_atom_site_type_symbol
_atom_site_label
_atom_site_fract_x
_atom_site_fract_y
_atom_site_fract_z
Si Si1 0.066138 0.082663 0.952532
Si Si2 0.927802 0.924292 0.206695
Si Si3 0.567385 0.076021 0.199799
Si Si4 0.750864 0.417205 0.564935
Si Si5 0.939521 0.080049 0.553517
Si Si6 0.258813 0.420207 0.298229
O O1 0.035532 0.250000 0.956601
O O2 0.064026 0.030532 0.873284
O O3 0.164613 0.061349 0.981335
O O4 0.000000 0.000000 0.000000
O O5 0.937549 0.750000 0.219765
O O6 0.833748 0.977418 0.234801
O O7 0.001549 0.012448 0.245380
O O8 0.551370 0.250000 0.187559
O O9 0.663101 0.048288 0.231928
O O10 0.553286 0.993260 0.127950
O O11 0.745008 0.250000 0.598468
O O12 0.841040 0.430986 0.524043
O O13 0.750065 0.544751 0.621461
O O14 0.968922 0.250000 0.560261
O O15 0.000000 0.000000 0.500000
O O16 0.285910 0.250000 0.287883
#
# Coordination Sequence:
#
# PCOD8251365 Si02
#       6
#     8   8   8   8   8   8
#     4   9  18  32  50  73  98 126 162 201 242 289
#     4  10  20  34  52  74 101 133 168 206 249 300
#     4  10  20  34  53  77 102 130 167 209 253 301
#     4   8  16  31  49  69  96 131 166 199 242 297
#     4  10  19  33  53  75 101 133 167 206 250 297
#     4   9  17  30  50  74  98 127 165 207 248 296
#
# _framework density 17.640896000000001
#
# number of rings (size 3 to 8) (size 9 to 14) (size 15 to 20)
#    0.000    2.667    0.000    3.000    0.000    6.000 
#    0.000    1.667    0.000    6.000    0.000    0.000 
#    0.000    0.000    0.000    0.000    0.000    0.000 
#
# Total GULP energy -594717.340562 kJ/mol
# GULP energy per Si atom -12389.944595 kJ/mol
# Density = 1.760074 g / cm^3
# Si number density = 17.640896 Si / 1000 Ang^3
#
#
#
# Elastic Constant Matrix: (Units=GPa)
#
#
# Indices 1 2 3 4 5 6 
#
# 1 162.6257 71.9708 59.5016 0.0000 0.0000 0.0000
# 2 71.9708 101.3181 40.5394 0.0000 0.0000 0.0000
# 3 59.5016 40.5394 55.9655 0.0000 0.0000 0.0000
# 4 0.0000 0.0000 0.0000 29.7332 0.0000 0.0000
# 5 0.0000 0.0000 0.0000 0.0000 29.5865 0.0000
# 6 0.0000 0.0000 0.0000 0.0000 0.0000 32.8191
#
#
#
# Elastic Compliance Matrix: (Units=1/GPa)
#
#
# Indices 1 2 3 4 5 6 
#
# 1 0.011392 -0.004571 -0.008801 0.000000 0.000000 0.000000
# 2 -0.004571 0.015732 -0.006536 0.000000 0.000000 0.000000
# 3 -0.008801 -0.006536 0.031959 0.000000 0.000000 0.000000
# 4 0.000000 0.000000 0.000000 0.033632 0.000000 0.000000
# 5 0.000000 0.000000 0.000000 0.000000 0.033799 0.000000
# 6 0.000000 0.000000 0.000000 0.000000 0.000000 0.030470
#
#
# Mechanical properties :
#
#
# Convention : Reuss Voigt Hill
#
# Bulk Modulus (GPa) = 51.89933 73.77030 62.83482
# Shear Modulus (GPa) = 24.60350 28.28760 26.44555
#
# Velocity S-wave (km/s) = 3.73860 4.00875 3.87603
# Velocity P-wave (km/s) = 6.93685 7.95835 7.46509
#
# Compressibility (1/GPa) = 0.01926807
#
# Stress axis : x y z
#
# Youngs Moduli (GPa) = 87.78099 63.56480 31.28967
#
# Poissons Ratio (x) = 0.29055 0.27537
# Poissons Ratio (y) = 0.40124 0.20451
# Poissons Ratio (z) = 0.77254 0.41546
#
# Static dielectric constant tensor:
#      x y z
#    x 3.732990 0.000000 0.000000 
#    y 0.000000 3.428010 0.000000 
#    z 0.000000 0.000000 2.890470 
# 
# 
# High freq. dielectric constant tensor:
#      x y z
#    x 1.706370 0.000000 0.000000 
#    y 0.000000 1.696690 0.000000 
#    z 0.000000 0.000000 1.626430 
# 
# From -- ./inp_files/26872.got.cif
#   From: 2010.03.12/outbox.cif.g09.slc.cpg/sg62_14_cif.got.tgz:26872.got - 2010.04.10 19:12:36.
