data_PCOD8251013
_publ_section_title
;
Structure prediction by ZEFSAII (Michael W. Deem and Ramdas Pophale) SiO2 
 PCOD8251013
Probable space group: P N M A
;
_chemical_formula_sum "Si O2"
_cell_formula_units_Z 48
_cell_length_a 19.199730
_cell_length_b 13.648115
_cell_length_c 9.573091
_cell_angle_alpha 90.000000
_cell_angle_beta 90.000000
_cell_angle_gamma 90.000000
_cell_volume 2508.533943
_symmetry_space_group_name_H-M "P N M A"
_symmetry_group_IT_number 62
_symmetry_cell_setting 'orthorhombic'
loop_
_space_group_symop_operation_xyz
x,y,z
1/2-x,-y,1/2+z
1/2+x,1/2-y,1/2-z
-x,1/2+y,-z
-x,-y,-z
1/2+x,y,1/2-z
1/2-x,1/2+y,1/2+z
x,1/2-y,z
loop_
_atom_site_type_symbol
_atom_site_label
_atom_site_fract_x
_atom_site_fract_y
_atom_site_fract_z
Si Si1 0.622849 0.042168 0.973137
Si Si2 0.024325 0.361580 0.734659
Si Si3 0.365148 0.861856 0.455228
Si Si4 0.236920 0.457405 0.752378
Si Si5 0.872243 0.362054 0.655883
Si Si6 0.674370 0.361789 0.239052
O O1 0.624157 0.108792 0.111650
O O2 0.623398 0.927746 0.015590
O O3 0.554027 0.066942 0.885397
O O4 0.691481 0.067199 0.883080
O O5 0.041162 0.250000 0.689839
O O6 0.060312 0.385614 0.883593
O O7 0.941819 0.377884 0.748255
O O8 0.343107 0.750000 0.423666
O O9 0.305216 0.931084 0.392556
O O10 0.370553 0.880281 0.620431
O O11 0.308019 0.394361 0.746517
O O12 0.255921 0.572306 0.760332
O O13 0.863753 0.250000 0.607425
O O14 0.698836 0.250000 0.226005
#
# Coordination Sequence:
#
# PCOD8251013 Si02
#       6
#     8   8   8   8   8   8
#     4  10  20  34  53  79 106 134 170 216 263 306
#     4   9  18  34  56  79 104 137 174 210 253 309
#     4   9  18  34  54  74 102 140 173 202 250 318
#     4  10  20  33  50  74 103 135 172 210 253 304
#     4  10  20  34  55  81 106 135 174 216 256 304
#     4  10  19  31  50  75 101 131 171 216 259 303
#
# _framework density 19.134682999999999
#
# number of rings (size 3 to 8) (size 9 to 14) (size 15 to 20)
#    0.000    2.333    0.000    3.500    0.000    4.000 
#    0.000    3.333    0.000    6.000    0.000   14.000 
#    0.000    0.000    0.000    0.000    0.000    0.000 
#
# Total GULP energy -595160.643870 kJ/mol
# GULP energy per Si atom -12399.180081 kJ/mol
# Density = 1.909113 g / cm^3
# Si number density = 19.134683 Si / 1000 Ang^3
#
#
#
# Elastic Constant Matrix: (Units=GPa)
#
#
# Indices 1 2 3 4 5 6 
#
# 1 110.0706 39.0269 33.1301 0.0000 0.0000 0.0000
# 2 39.0269 115.4723 43.6396 0.0000 0.0000 0.0000
# 3 33.1301 43.6396 104.1595 0.0000 0.0000 0.0000
# 4 0.0000 0.0000 0.0000 25.6964 0.0000 0.0000
# 5 0.0000 0.0000 0.0000 0.0000 18.1596 0.0000
# 6 0.0000 0.0000 0.0000 0.0000 0.0000 23.4043
#
#
#
# Elastic Compliance Matrix: (Units=1/GPa)
#
#
# Indices 1 2 3 4 5 6 
#
# 1 0.010750 -0.002781 -0.002254 0.000000 0.000000 0.000000
# 2 -0.002781 0.011009 -0.003728 0.000000 0.000000 0.000000
# 3 -0.002254 -0.003728 0.011879 0.000000 0.000000 0.000000
# 4 0.000000 0.000000 0.000000 0.038916 0.000000 0.000000
# 5 0.000000 0.000000 0.000000 0.000000 0.055067 0.000000
# 6 0.000000 0.000000 0.000000 0.000000 0.000000 0.042727
#
#
# Mechanical properties :
#
#
# Convention : Reuss Voigt Hill
#
# Bulk Modulus (GPa) = 62.06536 62.36619 62.21578
# Shear Modulus (GPa) = 25.87390 27.71244 26.79317
#
# Velocity S-wave (km/s) = 3.68122 3.80976 3.74604
# Velocity P-wave (km/s) = 7.11161 7.21224 7.16210
#
# Compressibility (1/GPa) = 0.01611205
#
# Stress axis : x y z
#
# Youngs Moduli (GPa) = 93.02652 90.83560 84.17971
#
# Poissons Ratio (x) = 0.25264 0.18973
# Poissons Ratio (y) = 0.25874 0.31380
# Poissons Ratio (z) = 0.20967 0.33861
#
# Static dielectric constant tensor:
#      x y z
#    x 3.438040 0.000000 0.000000 
#    y 0.000000 3.656390 0.000000 
#    z 0.000000 0.000000 3.442700 
# 
# 
# High freq. dielectric constant tensor:
#      x y z
#    x 1.735880 0.000000 0.000000 
#    y 0.000000 1.747190 0.000000 
#    z 0.000000 0.000000 1.735820 
# 
# From -- ./inp_files/8578.got.cif
#   From: 2010.03.12/outbox.cif.g09.slc.cpg/sg62_5_cif.got.tgz:8578.got - 2010.04.10 19:12:36.
