data_PCOD8251199
_publ_section_title
;
Structure prediction by ZEFSAII (Michael W. Deem and Ramdas Pophale) SiO2 
 PCOD8251199
Probable space group: P N M A
;
_chemical_formula_sum "Si O2"
_cell_formula_units_Z 64
_cell_length_a 24.369540
_cell_length_b 9.017622
_cell_length_c 15.243509
_cell_angle_alpha 90.000000
_cell_angle_beta 90.000000
_cell_angle_gamma 90.000000
_cell_volume 3349.841894
_symmetry_space_group_name_H-M "P N M A"
_symmetry_group_IT_number 62
_symmetry_cell_setting 'orthorhombic'
loop_
_space_group_symop_operation_xyz
x,y,z
1/2-x,-y,1/2+z
1/2+x,1/2-y,1/2-z
-x,1/2+y,-z
-x,-y,-z
1/2+x,y,1/2-z
1/2-x,1/2+y,1/2+z
x,1/2-y,z
loop_
_atom_site_type_symbol
_atom_site_label
_atom_site_fract_x
_atom_site_fract_y
_atom_site_fract_z
Si Si1 0.567698 0.924714 0.626950
Si Si2 0.037796 0.578188 0.192205
Si Si3 0.080923 0.422961 0.551046
Si Si4 0.960569 0.081385 0.608336
Si Si5 0.189646 0.921858 0.817370
Si Si6 0.186931 0.574595 0.620781
Si Si7 0.277845 0.923435 0.485653
Si Si8 0.600914 0.424938 0.456409
O O1 0.556492 0.750000 0.620686
O O2 0.625737 0.962731 0.671126
O O3 0.521449 0.002123 0.684986
O O4 0.564519 0.995158 0.530246
O O5 0.033756 0.750000 0.163992
O O6 0.057987 0.562494 0.291829
O O7 0.083054 0.491544 0.136233
O O8 0.093174 0.250000 0.551623
O O9 0.078743 0.479017 0.450560
O O10 0.128398 0.502674 0.604520
O O11 0.024105 0.465639 0.598446
O O12 0.953327 0.250000 0.575952
O O13 0.199497 0.750000 0.834879
O O14 0.207281 0.968161 0.718953
O O15 0.226885 0.006382 0.888773
O O16 0.180021 0.750000 0.613988
O O17 0.230660 0.513972 0.549846
O O18 0.271023 0.750000 0.473196
O O19 0.335501 0.964337 0.530195
O O20 0.589758 0.250000 0.459298
#
# Coordination Sequence:
#
# PCOD8251199 Si02
#       8
#     8   8   8   8   8   8   8   8
#     4  10  19  32  52  78 106 138 179 224 268 320
#     4  11  21  33  51  77 107 142 178 216 266 325
#     4  10  20  35  57  83 107 138 180 223 263 314
#     4   9  20  37  54  76 112 147 174 214 269 323
#     4   9  19  35  57  82 108 140 180 226 273 320
#     4  10  20  37  59  82 110 144 179 222 278 328
#     4   9  20  38  57  77 107 144 180 223 274 322
#     4  10  20  35  52  72 104 143 180 222 268 320
#
# _framework density 19.10538
#
# number of rings (size 3 to 8) (size 9 to 14) (size 15 to 20)
#    0.000    2.250    0.000    2.625    0.000    3.500 
#    2.250    0.000    0.000    0.000    0.000    0.000 
#    0.000    0.000    0.000    0.000    0.000    0.000 
#
# Total GULP energy -793761.559126 kJ/mol
# GULP energy per Si atom -12402.524361 kJ/mol
# Density = 1.906190 g / cm^3
# Si number density = 19.105380 Si / 1000 Ang^3
#
#
#
# Elastic Constant Matrix: (Units=GPa)
#
#
# Indices 1 2 3 4 5 6 
#
# 1 50.6747 23.1620 39.6599 0.0000 0.0000 0.0000
# 2 23.1620 61.2254 39.3684 0.0000 0.0000 0.0000
# 3 39.6599 39.3684 125.5293 0.0000 0.0000 0.0000
# 4 0.0000 0.0000 0.0000 34.2145 0.0000 0.0000
# 5 0.0000 0.0000 0.0000 0.0000 28.8925 0.0000
# 6 0.0000 0.0000 0.0000 0.0000 0.0000 23.8112
#
#
#
# Elastic Compliance Matrix: (Units=1/GPa)
#
#
# Indices 1 2 3 4 5 6 
#
# 1 0.027939 -0.006130 -0.006905 0.000000 0.000000 0.000000
# 2 -0.006130 0.021804 -0.004901 0.000000 0.000000 0.000000
# 3 -0.006905 -0.004901 0.011685 0.000000 0.000000 0.000000
# 4 0.000000 0.000000 0.000000 0.029227 0.000000 0.000000
# 5 0.000000 0.000000 0.000000 0.000000 0.034611 0.000000
# 6 0.000000 0.000000 0.000000 0.000000 0.000000 0.041997
#
#
# Mechanical properties :
#
#
# Convention : Reuss Voigt Hill
#
# Bulk Modulus (GPa) = 39.12974 49.09001 44.10987
# Shear Modulus (GPa) = 23.62344 26.39958 25.01151
#
# Velocity S-wave (km/s) = 3.52018 3.72127 3.62212
# Velocity P-wave (km/s) = 6.08668 6.64936 6.37423
#
# Compressibility (1/GPa) = 0.02555601
#
# Stress axis : x y z
#
# Youngs Moduli (GPa) = 35.79171 45.86388 85.58028
#
# Poissons Ratio (x) = 0.28114 0.59091
# Poissons Ratio (y) = 0.21940 0.41946
# Poissons Ratio (z) = 0.24713 0.22480
#
# Static dielectric constant tensor:
#      x y z
#    x 3.348940 0.000000 0.000000 
#    y 0.000000 3.502090 0.000000 
#    z 0.000000 0.000000 3.611670 
# 
# 
# High freq. dielectric constant tensor:
#      x y z
#    x 1.725060 0.000000 0.000000 
#    y 0.000000 1.745210 0.000000 
#    z 0.000000 0.000000 1.751220 
# 
# From -- ./inp_files/20886.got.cif
#   From: 2010.03.12/outbox.cif.g09.slc.cpg/sg62_11_cif.got.tgz:20886.got - 2010.04.10 19:12:36.
