data_PCOD8251031
_publ_section_title
;
Structure prediction by ZEFSAII (Michael W. Deem and Ramdas Pophale) SiO2 
 PCOD8251031
Probable space group: P N M A
;
_chemical_formula_sum "Si O2"
_cell_formula_units_Z 48
_cell_length_a 9.544188
_cell_length_b 10.987258
_cell_length_c 24.131992
_cell_angle_alpha 90.000000
_cell_angle_beta 90.000000
_cell_angle_gamma 90.000000
_cell_volume 2530.588212
_symmetry_space_group_name_H-M "P N M A"
_symmetry_group_IT_number 62
_symmetry_cell_setting 'orthorhombic'
loop_
_space_group_symop_operation_xyz
x,y,z
1/2-x,-y,1/2+z
1/2+x,1/2-y,1/2-z
-x,1/2+y,-z
-x,-y,-z
1/2+x,y,1/2-z
1/2-x,1/2+y,1/2+z
x,1/2-y,z
loop_
_atom_site_type_symbol
_atom_site_label
_atom_site_fract_x
_atom_site_fract_y
_atom_site_fract_z
Si Si1 0.230065 0.111030 0.366761
Si Si2 0.643397 0.250000 0.823090
Si Si3 0.808605 0.496750 0.364940
Si Si4 0.998133 0.609347 0.544041
Si Si5 0.550315 0.750000 0.278881
Si Si6 0.001171 0.389402 0.282754
Si Si7 0.495626 0.500278 0.666646
O O1 0.271886 0.250000 0.354117
O O2 0.150320 0.100050 0.425005
O O3 0.134254 0.057200 0.316789
O O4 0.370726 0.031569 0.370934
O O5 0.644720 0.362332 0.865934
O O6 0.503684 0.250000 0.784784
O O7 0.780080 0.250000 0.782356
O O8 0.876323 0.416756 0.413278
O O9 0.857641 0.450106 0.304353
O O10 0.641681 0.484820 0.371147
O O11 0.016364 0.750000 0.521194
O O12 0.000000 0.500000 0.500000
O O13 0.487222 0.865391 0.310122
O O14 0.990684 0.250000 0.298708
O O15 0.016524 0.406898 0.217759
#
# Coordination Sequence:
#
# PCOD8251031 Si02
#       7
#     8   4   8   8   4   8   8
#     4   9  20  36  55  82 113 144 184 230 275 326
#     4  10  20  34  52  80 116 156 190 224 272 317
#     4  10  21  35  56  80 112 147 187 229 275 330
#     4  10  23  44  65  86 107 137 185 240 292 344
#     4  10  22  32  48  80 122 158 192 226 258 319
#     4  10  19  31  50  79 113 151 188 219 262 326
#     4  11  20  33  51  82 116 153 184 223 272 325
#
# _framework density 18.967922999999999
#
# number of rings (size 3 to 8) (size 9 to 14) (size 15 to 20)
#    0.000    2.000    1.667    3.000    3.500    4.000 
#    1.500    0.833    0.000    0.000    0.000    0.000 
#    0.000    0.000    0.000    0.000    0.000    0.000 
#
# Total GULP energy -595062.610365 kJ/mol
# GULP energy per Si atom -12397.137716 kJ/mol
# Density = 1.892475 g / cm^3
# Si number density = 18.967923 Si / 1000 Ang^3
#
#
#
# Elastic Constant Matrix: (Units=GPa)
#
#
# Indices 1 2 3 4 5 6 
#
# 1 97.2473 42.4884 19.8395 0.0000 0.0000 0.0000
# 2 42.4884 107.3345 28.7474 0.0000 0.0000 0.0000
# 3 19.8395 28.7474 57.7364 0.0000 0.0000 0.0000
# 4 0.0000 0.0000 0.0000 30.6810 0.0000 0.0000
# 5 0.0000 0.0000 0.0000 0.0000 13.7376 0.0000
# 6 0.0000 0.0000 0.0000 0.0000 0.0000 26.2849
#
#
#
# Elastic Compliance Matrix: (Units=1/GPa)
#
#
# Indices 1 2 3 4 5 6 
#
# 1 0.012659 -0.004438 -0.002140 0.000000 0.000000 0.000000
# 2 -0.004438 0.012306 -0.004602 0.000000 0.000000 0.000000
# 3 -0.002140 -0.004602 0.020347 0.000000 0.000000 0.000000
# 4 0.000000 0.000000 0.000000 0.032593 0.000000 0.000000
# 5 0.000000 0.000000 0.000000 0.000000 0.072793 0.000000
# 6 0.000000 0.000000 0.000000 0.000000 0.000000 0.038045
#
#
# Mechanical properties :
#
#
# Convention : Reuss Voigt Hill
#
# Bulk Modulus (GPa) = 43.57085 49.38543 46.47814
# Shear Modulus (GPa) = 22.85676 25.55689 24.20682
#
# Velocity S-wave (km/s) = 3.47511 3.67464 3.57627
# Velocity P-wave (km/s) = 6.25480 6.64054 6.45055
#
# Compressibility (1/GPa) = 0.02295113
#
# Stress axis : x y z
#
# Youngs Moduli (GPa) = 78.99792 81.26125 49.14708
#
# Poissons Ratio (x) = 0.36061 0.10518
# Poissons Ratio (y) = 0.35057 0.22619
# Poissons Ratio (z) = 0.16907 0.37399
#
# Static dielectric constant tensor:
#      x y z
#    x 3.519310 0.000000 0.000000 
#    y 0.000000 3.662600 0.000000 
#    z 0.000000 0.000000 3.077620 
# 
# 
# High freq. dielectric constant tensor:
#      x y z
#    x 1.739140 0.000000 0.000000 
#    y 0.000000 1.754280 0.000000 
#    z 0.000000 0.000000 1.691040 
# 
# From -- ./inp_files/28817.got.cif
#   From: 2010.03.12/outbox.cif.g09.slc.cpg/sg62_15_cif.got.tgz:28817.got - 2010.04.10 19:12:36.
