data_PCOD8251127
_publ_section_title
;
Structure prediction by ZEFSAII (Michael W. Deem and Ramdas Pophale) SiO2 
 PCOD8251127
Probable space group: P N M A
;
_chemical_formula_sum "Si O2"
_cell_formula_units_Z 56
_cell_length_a 14.546030
_cell_length_b 8.779149
_cell_length_c 22.117351
_cell_angle_alpha 90.000000
_cell_angle_beta 90.000000
_cell_angle_gamma 90.000000
_cell_volume 2824.424754
_symmetry_space_group_name_H-M "P N M A"
_symmetry_group_IT_number 62
_symmetry_cell_setting 'orthorhombic'
loop_
_space_group_symop_operation_xyz
x,y,z
1/2-x,-y,1/2+z
1/2+x,1/2-y,1/2-z
-x,1/2+y,-z
-x,-y,-z
1/2+x,y,1/2-z
1/2-x,1/2+y,1/2+z
x,1/2-y,z
loop_
_atom_site_type_symbol
_atom_site_label
_atom_site_fract_x
_atom_site_fract_y
_atom_site_fract_z
Si Si1 0.682754 0.427809 0.870892
Si Si2 0.679130 0.431758 0.284661
Si Si3 0.533674 0.423212 0.378320
Si Si4 0.346864 0.577574 0.849623
Si Si5 0.495789 0.069898 0.932677
Si Si6 0.660365 0.923020 0.587343
Si Si7 0.310237 0.577047 0.534754
O O1 0.682741 0.250000 0.857915
O O2 0.722373 0.508262 0.810122
O O3 0.580522 0.483791 0.889904
O O4 0.746093 0.464514 0.927985
O O5 0.685842 0.250000 0.286769
O O6 0.597968 0.499519 0.327187
O O7 0.651122 0.490306 0.218182
O O8 0.519708 0.250000 0.358116
O O9 0.432473 0.496696 0.384111
O O10 0.584727 0.437123 0.442739
O O11 0.385429 0.750000 0.852148
O O12 0.403386 0.478303 0.897629
O O13 0.238903 0.575767 0.863052
O O14 0.496977 0.250000 0.941445
O O15 0.500000 0.000000 0.000000
O O16 0.641094 0.750000 0.564133
O O17 0.695054 0.029861 0.534138
O O18 0.274394 0.750000 0.542905
#
# Coordination Sequence:
#
# PCOD8251127 Si02
#       7
#     8   8   8   8   8   8   8
#     4  10  21  37  57  81 109 144 183 226 275 328
#     4   9  19  37  58  82 109 141 182 224 269 327
#     4   8  16  31  51  74 104 138 173 212 257 314
#     4  10  22  37  56  82 111 143 182 227 275 327
#     4  11  24  40  59  83 113 150 193 239 289 338
#     4  10  19  32  50  75 106 138 170 212 266 319
#     4  10  19  32  52  79 107 138 175 216 263 319
#
# _framework density 19.827044999999998
#
# number of rings (size 3 to 8) (size 9 to 14) (size 15 to 20)
#    0.000    2.286    0.000    3.429    0.000    8.000 
#    0.000    5.714    0.000    0.000    0.000    0.000 
#    0.000    0.000    0.000    0.000    0.000    0.000 
#
# Total GULP energy -694129.307049 kJ/mol
# GULP energy per Si atom -12395.166197 kJ/mol
# Density = 1.978192 g / cm^3
# Si number density = 19.827045 Si / 1000 Ang^3
#
#
#
# Elastic Constant Matrix: (Units=GPa)
#
#
# Indices 1 2 3 4 5 6 
#
# 1 99.1025 23.5555 28.3141 0.0000 0.0000 0.0000
# 2 23.5555 42.2993 26.9777 0.0000 0.0000 0.0000
# 3 28.3141 26.9777 120.7604 0.0000 0.0000 0.0000
# 4 0.0000 0.0000 0.0000 23.6668 0.0000 0.0000
# 5 0.0000 0.0000 0.0000 0.0000 26.1506 0.0000
# 6 0.0000 0.0000 0.0000 0.0000 0.0000 26.4164
#
#
#
# Elastic Compliance Matrix: (Units=1/GPa)
#
#
# Indices 1 2 3 4 5 6 
#
# 1 0.011865 -0.005636 -0.001523 0.000000 0.000000 0.000000
# 2 -0.005636 0.030246 -0.005436 0.000000 0.000000 0.000000
# 3 -0.001523 -0.005436 0.009852 0.000000 0.000000 0.000000
# 4 0.000000 0.000000 0.000000 0.042253 0.000000 0.000000
# 5 0.000000 0.000000 0.000000 0.000000 0.038240 0.000000
# 6 0.000000 0.000000 0.000000 0.000000 0.000000 0.037855
#
#
# Mechanical properties :
#
#
# Convention : Reuss Voigt Hill
#
# Bulk Modulus (GPa) = 37.34872 46.65076 41.99974
# Shear Modulus (GPa) = 24.45863 27.46774 25.96319
#
# Velocity S-wave (km/s) = 3.51607 3.72609 3.62260
# Velocity P-wave (km/s) = 5.94658 6.48780 6.22308
#
# Compressibility (1/GPa) = 0.02677468
#
# Stress axis : x y z
#
# Youngs Moduli (GPa) = 84.27907 33.06171 101.50008
#
# Poissons Ratio (x) = 0.18635 0.15457
# Poissons Ratio (y) = 0.47502 0.55170
# Poissons Ratio (z) = 0.12835 0.17971
#
# Static dielectric constant tensor:
#      x y z
#    x 3.824820 0.000000 0.000000 
#    y 0.000000 3.397740 0.000000 
#    z 0.000000 0.000000 3.629630 
# 
# 
# High freq. dielectric constant tensor:
#      x y z
#    x 1.779730 0.000000 0.000000 
#    y 0.000000 1.750620 0.000000 
#    z 0.000000 0.000000 1.770040 
# 
# From -- ./inp_files/27304.got.cif
#   From: 2010.03.12/outbox.cif.g09.slc.cpg/sg62_14_cif.got.tgz:27304.got - 2010.04.10 19:12:36.
