data_PCOD8251204
_publ_section_title
;
Structure prediction by ZEFSAII (Michael W. Deem and Ramdas Pophale) SiO2 
 PCOD8251204
Probable space group: P N M A
;
_chemical_formula_sum "Si O2"
_cell_formula_units_Z 40
_cell_length_a 25.657436
_cell_length_b 9.052914
_cell_length_c 8.966477
_cell_angle_alpha 90.000000
_cell_angle_beta 90.000000
_cell_angle_gamma 90.000000
_cell_volume 2082.684514
_symmetry_space_group_name_H-M "P N M A"
_symmetry_group_IT_number 62
_symmetry_cell_setting 'orthorhombic'
loop_
_space_group_symop_operation_xyz
x,y,z
1/2-x,-y,1/2+z
1/2+x,1/2-y,1/2-z
-x,1/2+y,-z
-x,-y,-z
1/2+x,y,1/2-z
1/2-x,1/2+y,1/2+z
x,1/2-y,z
loop_
_atom_site_type_symbol
_atom_site_label
_atom_site_fract_x
_atom_site_fract_y
_atom_site_fract_z
Si Si1 0.781753 0.423401 0.716741
Si Si2 0.600803 0.423875 0.723598
Si Si3 0.380118 0.077273 0.590084
Si Si4 0.309944 0.076165 0.118333
Si Si5 0.508897 0.918917 0.348886
O O1 0.771096 0.250000 0.733628
O O2 0.830168 0.474980 0.817562
O O3 0.793242 0.467697 0.547369
O O4 0.730911 0.512439 0.763638
O O5 0.612563 0.250000 0.728874
O O6 0.616906 0.482910 0.560363
O O7 0.633753 0.505320 0.850489
O O8 0.539335 0.461025 0.761038
O O9 0.376379 0.250000 0.547328
O O10 0.431047 0.049106 0.698790
O O11 0.314007 0.250000 0.140101
O O12 0.501819 0.750000 0.389334
O O13 0.500000 0.000000 0.500000
#
# Coordination Sequence:
#
# PCOD8251204 Si02
#       5
#     8   8   8   8   8
#     4  10  22  38  55  76 101 131 169 212 256 306
#     4  10  19  32  52  79 108 136 171 211 249 295
#     4   9  17  33  56  79 105 137 171 208 253 300
#     4  11  23  37  53  74 101 133 169 210 257 306
#     4   8  15  28  49  76 104 135 169 205 245 293
#
# _framework density 19.205981999999999
#
# number of rings (size 3 to 8) (size 9 to 14) (size 15 to 20)
#    0.000    2.400    0.000    2.400    0.000    6.400 
#    0.000    1.000    0.000    0.000    0.000    0.000 
#    0.000    0.000    0.000    0.000    0.000    0.000 
#
# Total GULP energy -495640.273827 kJ/mol
# GULP energy per Si atom -12391.006846 kJ/mol
# Density = 1.916227 g / cm^3
# Si number density = 19.205982 Si / 1000 Ang^3
#
#
#
# Elastic Constant Matrix: (Units=GPa)
#
#
# Indices 1 2 3 4 5 6 
#
# 1 55.6630 4.3895 -11.4282 0.0000 0.0000 0.0000
# 2 4.3895 40.9778 11.1775 0.0000 0.0000 0.0000
# 3 -11.4282 11.1775 43.3974 0.0000 0.0000 0.0000
# 4 0.0000 0.0000 0.0000 24.8320 0.0000 0.0000
# 5 0.0000 0.0000 0.0000 0.0000 27.3820 0.0000
# 6 0.0000 0.0000 0.0000 0.0000 0.0000 27.5646
#
#
#
# Elastic Compliance Matrix: (Units=1/GPa)
#
#
# Indices 1 2 3 4 5 6 
#
# 1 0.019515 -0.003756 0.006107 0.000000 0.000000 0.000000
# 2 -0.003756 0.026970 -0.007936 0.000000 0.000000 0.000000
# 3 0.006107 -0.007936 0.026695 0.000000 0.000000 0.000000
# 4 0.000000 0.000000 0.000000 0.040271 0.000000 0.000000
# 5 0.000000 0.000000 0.000000 0.000000 0.036520 0.000000
# 6 0.000000 0.000000 0.000000 0.000000 0.000000 0.036278
#
#
# Mechanical properties :
#
#
# Convention : Reuss Voigt Hill
#
# Bulk Modulus (GPa) = 16.12645 16.47954 16.30299
# Shear Modulus (GPa) = 22.92628 25.01569 23.97098
#
# Velocity S-wave (km/s) = 3.45875 3.61292 3.53668
# Velocity P-wave (km/s) = 4.93613 5.09935 5.01840
#
# Compressibility (1/GPa) = 0.06200993
#
# Stress axis : x y z
#
# Youngs Moduli (GPa) = 51.24210 37.07768 37.46038
#
# Poissons Ratio (x) = 0.13927 -0.22875
# Poissons Ratio (y) = 0.19247 0.29727
# Poissons Ratio (z) = -0.31291 0.29424
#
# Static dielectric constant tensor:
#      x y z
#    x 4.403380 0.000000 0.000000 
#    y 0.000000 3.299430 0.000000 
#    z 0.000000 0.000000 3.169370 
# 
# 
# High freq. dielectric constant tensor:
#      x y z
#    x 1.775870 0.000000 0.000000 
#    y 0.000000 1.749060 0.000000 
#    z 0.000000 0.000000 1.709640 
# 
# From -- ./inp_files/9088.got.cif
#   From: 2010.03.12/outbox.cif.g09.slc.cpg/sg62_5_cif.got.tgz:9088.got - 2010.04.10 19:12:36.
