data_PCOD8251167
_publ_section_title
;
Structure prediction by ZEFSAII (Michael W. Deem and Ramdas Pophale) SiO2 
 PCOD8251167
Probable space group: P N M A
;
_chemical_formula_sum "Si O2"
_cell_formula_units_Z 64
_cell_length_a 22.977238
_cell_length_b 9.418912
_cell_length_c 14.316734
_cell_angle_alpha 90.000000
_cell_angle_beta 90.000000
_cell_angle_gamma 90.000000
_cell_volume 3098.435915
_symmetry_space_group_name_H-M "P N M A"
_symmetry_group_IT_number 62
_symmetry_cell_setting 'orthorhombic'
loop_
_space_group_symop_operation_xyz
x,y,z
1/2-x,-y,1/2+z
1/2+x,1/2-y,1/2-z
-x,1/2+y,-z
-x,-y,-z
1/2+x,y,1/2-z
1/2-x,1/2+y,1/2+z
x,1/2-y,z
loop_
_atom_site_type_symbol
_atom_site_label
_atom_site_fract_x
_atom_site_fract_y
_atom_site_fract_z
Si Si1 0.047356 0.086304 0.802510
Si Si2 0.283551 0.085032 0.179223
Si Si3 0.674008 0.413272 0.646605
Si Si4 0.635303 0.589144 0.988286
Si Si5 0.919109 0.418697 0.837469
Si Si6 0.602499 0.086477 0.151317
Si Si7 0.328392 0.913525 0.560915
Si Si8 0.029072 0.595064 0.629739
O O1 0.043186 0.250000 0.780339
O O2 0.105060 0.047777 0.860679
O O3 0.987173 0.040226 0.853588
O O4 0.053624 0.016998 0.701995
O O5 0.293342 0.250000 0.200022
O O6 0.329232 0.032185 0.101264
O O7 0.219442 0.054253 0.139703
O O8 0.291720 0.004372 0.276898
O O9 0.682358 0.250000 0.675780
O O10 0.698535 0.443009 0.542373
O O11 0.655326 0.750000 0.013591
O O12 0.566521 0.584689 0.964763
O O13 0.646305 0.486538 0.076879
O O14 0.909514 0.250000 0.828722
O O15 0.894531 0.497419 0.746079
O O16 0.883161 0.482241 0.924003
O O17 0.621316 0.250000 0.169520
O O18 0.538523 0.074957 0.106386
O O19 0.349574 0.750000 0.565998
O O20 0.038338 0.750000 0.676056
#
# Coordination Sequence:
#
# PCOD8251167 Si02
#       8
#     8   8   8   8   8   8   8   8
#     4   9  18  33  56  85 116 150 191 240 292 343
#     4  10  22  40  61  85 117 153 194 243 288 340
#     4  10  21  39  63  89 118 152 192 239 291 344
#     4  10  19  32  51  78 113 154 196 238 286 338
#     4  10  21  38  58  83 116 153 194 242 293 348
#     4  10  20  32  51  81 116 154 192 233 285 345
#     4  10  23  42  61  85 117 152 190 237 292 346
#     4   9  17  30  49  77 114 153 191 232 285 342
#
# _framework density 20.655583
#
# number of rings (size 3 to 8) (size 9 to 14) (size 15 to 20)
#    0.000    2.250    1.250    1.125    0.000    4.500 
#    0.000    1.250    0.000    0.000    0.000    0.000 
#    0.000    0.000    0.000    0.000    0.000    0.000 
#
# Total GULP energy -793372.425218 kJ/mol
# GULP energy per Si atom -12396.444144 kJ/mol
# Density = 2.060857 g / cm^3
# Si number density = 20.655583 Si / 1000 Ang^3
#
#
#
# Elastic Constant Matrix: (Units=GPa)
#
#
# Indices 1 2 3 4 5 6 
#
# 1 55.8345 36.8144 33.0579 0.0000 0.0000 0.0000
# 2 36.8144 78.3787 49.7849 0.0000 0.0000 0.0000
# 3 33.0579 49.7849 93.3394 0.0000 0.0000 0.0000
# 4 0.0000 0.0000 0.0000 36.4460 0.0000 0.0000
# 5 0.0000 0.0000 0.0000 0.0000 22.6612 0.0000
# 6 0.0000 0.0000 0.0000 0.0000 0.0000 23.1959
#
#
#
# Elastic Compliance Matrix: (Units=1/GPa)
#
#
# Indices 1 2 3 4 5 6 
#
# 1 0.027008 -0.009996 -0.004233 0.000000 0.000000 0.000000
# 2 -0.009996 0.022996 -0.008725 0.000000 0.000000 0.000000
# 3 -0.004233 -0.008725 0.016867 0.000000 0.000000 0.000000
# 4 0.000000 0.000000 0.000000 0.027438 0.000000 0.000000
# 5 0.000000 0.000000 0.000000 0.000000 0.044128 0.000000
# 6 0.000000 0.000000 0.000000 0.000000 0.000000 0.043111
#
#
# Mechanical properties :
#
#
# Convention : Reuss Voigt Hill
#
# Bulk Modulus (GPa) = 47.70894 51.87412 49.79153
# Shear Modulus (GPa) = 21.32706 23.65366 22.49036
#
# Velocity S-wave (km/s) = 3.21675 3.38767 3.30332
# Velocity P-wave (km/s) = 6.07817 6.36161 6.22151
#
# Compressibility (1/GPa) = 0.02096043
#
# Stress axis : x y z
#
# Youngs Moduli (GPa) = 37.02646 43.48606 59.28869
#
# Poissons Ratio (x) = 0.43471 0.25099
# Poissons Ratio (y) = 0.37013 0.51729
# Poissons Ratio (z) = 0.15675 0.37941
#
# Static dielectric constant tensor:
#      x y z
#    x 3.772930 0.000000 0.000000 
#    y 0.000000 3.722690 0.000000 
#    z 0.000000 0.000000 3.501720 
# 
# 
# High freq. dielectric constant tensor:
#      x y z
#    x 1.804230 0.000000 0.000000 
#    y 0.000000 1.803900 0.000000 
#    z 0.000000 0.000000 1.794970 
# 
# From -- ./inp_files/20950.got.cif
#   From: 2010.03.12/outbox.cif.g09.slc.cpg/sg62_11_cif.got.tgz:20950.got - 2010.04.10 19:12:36.
