data_PCOD8251926
_publ_section_title
;
Structure prediction by ZEFSAII (Michael W. Deem and Ramdas Pophale) SiO2 
 PCOD8251926
Probable space group: P N M A
;
_chemical_formula_sum "Si O2"
_cell_formula_units_Z 64
_cell_length_a 8.174130
_cell_length_b 23.203031
_cell_length_c 17.038139
_cell_angle_alpha 90.000000
_cell_angle_beta 90.000000
_cell_angle_gamma 90.000000
_cell_volume 3231.531678
_symmetry_space_group_name_H-M "P N M A"
_symmetry_group_IT_number 62
_symmetry_cell_setting 'orthorhombic'
loop_
_space_group_symop_operation_xyz
x,y,z
1/2-x,-y,1/2+z
1/2+x,1/2-y,1/2-z
-x,1/2+y,-z
-x,-y,-z
1/2+x,y,1/2-z
1/2-x,1/2+y,1/2+z
x,1/2-y,z
loop_
_atom_site_type_symbol
_atom_site_label
_atom_site_fract_x
_atom_site_fract_y
_atom_site_fract_z
Si Si1 0.644133 0.975522 0.428236
Si Si2 0.463521 0.616832 0.516285
Si Si3 0.937654 0.920358 0.367126
Si Si4 0.030496 0.315258 0.863440
Si Si5 0.440880 0.957376 0.824376
Si Si6 0.434699 0.065772 0.337341
Si Si7 0.872238 0.428278 0.473760
Si Si8 0.122528 0.682753 0.295508
O O1 0.513111 0.948036 0.488168
O O2 0.740758 0.925824 0.378427
O O3 0.555923 0.015691 0.365777
O O4 0.786532 0.008958 0.476140
O O5 0.523311 0.658811 0.447569
O O6 0.548704 0.621433 0.602831
O O7 0.268184 0.621094 0.526418
O O8 0.017569 0.919901 0.451972
O O9 0.980890 0.859407 0.327444
O O10 0.001731 0.975855 0.317884
O O11 0.065168 0.250000 0.883379
O O12 0.201918 0.339737 0.827369
O O13 0.886205 0.322723 0.799507
O O14 0.247487 0.957219 0.833185
O O15 0.499518 0.920075 0.749321
O O16 0.518636 0.922721 0.896524
O O17 0.086365 0.750000 0.318434
#
# Coordination Sequence:
#
# PCOD8251926 Si02
#       8
#     8   8   8   8   8   8   8   8
#     4  10  21  32  50  79 111 147 190 226 276 335
#     4  11  20  36  57  78 113 150 189 233 288 335
#     4  11  20  34  56  79 109 155 192 230 288 333
#     4  10  23  41  59  82 110 147 190 241 287 335
#     4  11  22  35  55  82 120 148 194 231 280 341
#     4  11  22  36  52  83 114 152 187 235 278 345
#     4  10  19  36  52  79 113 151 191 235 276 342
#     4  10  23  40  57  80 110 143 193 241 282 329
#
# _framework density 19.804849000000001
#
# number of rings (size 3 to 8) (size 9 to 14) (size 15 to 20)
#    0.000    1.500    1.250    7.500    3.500    0.000 
#    0.000    0.000    0.000    0.000    0.000    4.375 
#    0.000    0.000    0.000    0.000    0.000    0.000 
#
# Total GULP energy -793106.005279 kJ/mol
# GULP energy per Si atom -12392.281332 kJ/mol
# Density = 1.975977 g / cm^3
# Si number density = 19.804849 Si / 1000 Ang^3
#
#
#
# Elastic Constant Matrix: (Units=GPa)
#
#
# Indices 1 2 3 4 5 6 
#
# 1 79.0686 7.5353 27.5001 0.0000 0.0000 0.0000
# 2 7.5353 38.5964 35.1813 0.0000 0.0000 0.0000
# 3 27.5001 35.1813 139.8040 0.0000 0.0000 0.0000
# 4 0.0000 0.0000 0.0000 27.3496 0.0000 0.0000
# 5 0.0000 0.0000 0.0000 0.0000 33.7423 0.0000
# 6 0.0000 0.0000 0.0000 0.0000 0.0000 19.3575
#
#
#
# Elastic Compliance Matrix: (Units=1/GPa)
#
#
# Indices 1 2 3 4 5 6 
#
# 1 0.013578 -0.000281 -0.002600 0.000000 0.000000 0.000000
# 2 -0.000281 0.033627 -0.008407 0.000000 0.000000 0.000000
# 3 -0.002600 -0.008407 0.009780 0.000000 0.000000 0.000000
# 4 0.000000 0.000000 0.000000 0.036564 0.000000 0.000000
# 5 0.000000 0.000000 0.000000 0.000000 0.029636 0.000000
# 6 0.000000 0.000000 0.000000 0.000000 0.000000 0.051660
#
#
# Mechanical properties :
#
#
# Convention : Reuss Voigt Hill
#
# Bulk Modulus (GPa) = 29.06177 44.21137 36.63657
# Shear Modulus (GPa) = 23.93596 28.57336 26.25466
#
# Velocity S-wave (km/s) = 3.48025 3.80247 3.64492
# Velocity P-wave (km/s) = 5.55477 6.45371 6.02104
#
# Compressibility (1/GPa) = 0.03440946
#
# Stress axis : x y z
#
# Youngs Moduli (GPa) = 73.64648 29.73794 102.25012
#
# Poissons Ratio (x) = 0.00835 0.26588
# Poissons Ratio (y) = 0.02068 0.85961
# Poissons Ratio (z) = 0.19150 0.25001
#
# Static dielectric constant tensor:
#      x y z
#    x 3.905540 0.000000 0.000000 
#    y 0.000000 3.339860 0.000000 
#    z 0.000000 0.000000 3.894370 
# 
# 
# High freq. dielectric constant tensor:
#      x y z
#    x 1.791680 0.000000 0.000000 
#    y 0.000000 1.713070 0.000000 
#    z 0.000000 0.000000 1.782660 
# 
# From -- ./inp_files/17345.got.cif
#   From: 2010.03.12/outbox.cif.g09.slc.cpg/sg62_9_cif.got.tgz:17345.got - 2010.04.10 19:12:36.
