data_PCOD8251472
_publ_section_title
;
Structure prediction by ZEFSAII (Michael W. Deem and Ramdas Pophale) SiO2 
 PCOD8251472
Probable space group: P N M A
;
_chemical_formula_sum "Si O2"
_cell_formula_units_Z 56
_cell_length_a 14.220517
_cell_length_b 8.799753
_cell_length_c 24.755647
_cell_angle_alpha 90.000000
_cell_angle_beta 90.000000
_cell_angle_gamma 90.000000
_cell_volume 3097.848318
_symmetry_space_group_name_H-M "P N M A"
_symmetry_group_IT_number 62
_symmetry_cell_setting 'orthorhombic'
loop_
_space_group_symop_operation_xyz
x,y,z
1/2-x,-y,1/2+z
1/2+x,1/2-y,1/2-z
-x,1/2+y,-z
-x,-y,-z
1/2+x,y,1/2-z
1/2-x,1/2+y,1/2+z
x,1/2-y,z
loop_
_atom_site_type_symbol
_atom_site_label
_atom_site_fract_x
_atom_site_fract_y
_atom_site_fract_z
Si Si1 0.175417 0.575424 0.316652
Si Si2 0.303685 0.077521 0.396923
Si Si3 0.395988 0.929209 0.498821
Si Si4 0.010259 0.578964 0.836710
Si Si5 0.021651 0.076417 0.726790
Si Si6 0.731364 0.428769 0.793900
Si Si7 0.149601 0.571830 0.105818
O O1 0.206850 0.750000 0.322778
O O2 0.208733 0.485246 0.369703
O O3 0.220982 0.507747 0.261145
O O4 0.062030 0.559835 0.316540
O O5 0.288304 0.250000 0.416826
O O6 0.380014 0.067818 0.349411
O O7 0.336476 0.976165 0.446767
O O8 0.408518 0.750000 0.500694
O O9 0.500000 0.000000 0.500000
O O10 0.333618 0.985465 0.549560
O O11 0.972479 0.750000 0.845997
O O12 0.956892 0.463273 0.876148
O O13 0.993970 0.532630 0.775394
O O14 0.027927 0.250000 0.748120
O O15 0.121501 0.026887 0.701699
O O16 0.748317 0.250000 0.794568
O O17 0.781446 0.494931 0.847593
O O18 0.163348 0.750000 0.096233
#
# Coordination Sequence:
#
# PCOD8251472 Si02
#       7
#     8   8   8   8   8   8   8
#     4  10  19  33  55  81 108 146 186 224 271 325
#     4  11  23  37  53  79 113 148 182 225 274 326
#     4  12  24  38  57  82 110 145 182 225 273 329
#     4  11  21  31  49  79 113 145 182 223 269 324
#     4  10  19  34  54  78 112 148 186 224 268 329
#     4   9  18  32  54  82 109 143 183 221 271 323
#     4  11  21  36  56  80 111 148 183 224 271 328
#
# _framework density 18.077062000000002
#
# number of rings (size 3 to 8) (size 9 to 14) (size 15 to 20)
#    0.000    1.429    4.286    2.571    0.000    1.714 
#    0.000    1.429    0.000    0.857    0.000    0.000 
#    0.000    0.000    0.000    0.000    0.000    0.000 
#
# Total GULP energy -694403.147877 kJ/mol
# GULP energy per Si atom -12400.056212 kJ/mol
# Density = 1.803592 g / cm^3
# Si number density = 18.077062 Si / 1000 Ang^3
#
#
#
# Elastic Constant Matrix: (Units=GPa)
#
#
# Indices 1 2 3 4 5 6 
#
# 1 86.4078 22.8841 29.0445 0.0000 0.0000 0.0000
# 2 22.8841 83.6380 37.2660 0.0000 0.0000 0.0000
# 3 29.0445 37.2660 98.2651 0.0000 0.0000 0.0000
# 4 0.0000 0.0000 0.0000 30.4049 0.0000 0.0000
# 5 0.0000 0.0000 0.0000 0.0000 29.3334 0.0000
# 6 0.0000 0.0000 0.0000 0.0000 0.0000 18.9521
#
#
#
# Elastic Compliance Matrix: (Units=1/GPa)
#
#
# Indices 1 2 3 4 5 6 
#
# 1 0.013193 -0.002253 -0.003045 0.000000 0.000000 0.000000
# 2 -0.002253 0.014772 -0.004936 0.000000 0.000000 0.000000
# 3 -0.003045 -0.004936 0.012949 0.000000 0.000000 0.000000
# 4 0.000000 0.000000 0.000000 0.032889 0.000000 0.000000
# 5 0.000000 0.000000 0.000000 0.000000 0.034091 0.000000
# 6 0.000000 0.000000 0.000000 0.000000 0.000000 0.052765
#
#
# Mechanical properties :
#
#
# Convention : Reuss Voigt Hill
#
# Bulk Modulus (GPa) = 48.91111 49.63337 49.27224
# Shear Modulus (GPa) = 26.60383 27.67916 27.14149
#
# Velocity S-wave (km/s) = 3.84042 3.91727 3.87904
# Velocity P-wave (km/s) = 6.83965 6.92648 6.88320
#
# Compressibility (1/GPa) = 0.02044525
#
# Stress axis : x y z
#
# Youngs Moduli (GPa) = 75.79613 67.69502 77.22820
#
# Poissons Ratio (x) = 0.15252 0.23517
# Poissons Ratio (y) = 0.17077 0.38122
# Poissons Ratio (z) = 0.23081 0.33416
#
# Static dielectric constant tensor:
#      x y z
#    x 3.337950 0.000000 0.000000 
#    y 0.000000 3.268970 0.000000 
#    z 0.000000 0.000000 3.370680 
# 
# 
# High freq. dielectric constant tensor:
#      x y z
#    x 1.685370 0.000000 0.000000 
#    y 0.000000 1.693200 0.000000 
#    z 0.000000 0.000000 1.689100 
# 
# From -- ./inp_files/27308.got.cif
#   From: 2010.03.12/outbox.cif.g09.slc.cpg/sg62_14_cif.got.tgz:27308.got - 2010.04.10 19:12:36.
