data_PCOD8251536
_publ_section_title
;
Structure prediction by ZEFSAII (Michael W. Deem and Ramdas Pophale) SiO2 
 PCOD8251536
Probable space group: P N M A
;
_chemical_formula_sum "Si O2"
_cell_formula_units_Z 48
_cell_length_a 18.522456
_cell_length_b 8.623763
_cell_length_c 13.942843
_cell_angle_alpha 90.000000
_cell_angle_beta 90.000000
_cell_angle_gamma 90.000000
_cell_volume 2227.135916
_symmetry_space_group_name_H-M "P N M A"
_symmetry_group_IT_number 62
_symmetry_cell_setting 'orthorhombic'
loop_
_space_group_symop_operation_xyz
x,y,z
1/2-x,-y,1/2+z
1/2+x,1/2-y,1/2-z
-x,1/2+y,-z
-x,-y,-z
1/2+x,y,1/2-z
1/2-x,1/2+y,1/2+z
x,1/2-y,z
loop_
_atom_site_type_symbol
_atom_site_label
_atom_site_fract_x
_atom_site_fract_y
_atom_site_fract_z
Si Si1 0.506490 0.929585 0.667777
Si Si2 0.891369 0.426557 0.532756
Si Si3 0.362292 0.931526 0.429369
Si Si4 0.852946 0.067503 0.870622
Si Si5 0.223003 0.932869 0.318961
Si Si6 0.957860 0.575394 0.359985
O O1 0.486214 0.750000 0.656862
O O2 0.563409 0.975830 0.585364
O O3 0.434990 0.031814 0.658961
O O4 0.544685 0.962739 0.769048
O O5 0.873694 0.250000 0.504651
O O6 0.829482 0.502721 0.599061
O O7 0.896243 0.524338 0.434900
O O8 0.964880 0.437217 0.591408
O O9 0.378889 0.750000 0.427721
O O10 0.305019 0.976732 0.346011
O O11 0.330404 0.978188 0.532836
O O12 0.844575 0.250000 0.886863
O O13 0.799303 0.005801 0.786424
O O14 0.210102 0.750000 0.320206
O O15 0.940927 0.750000 0.325663
#
# Coordination Sequence:
#
# PCOD8251536 Si02
#       6
#     8   8   8   8   8   8
#     4  12  24  40  62  91 123 163 210 258 305 364
#     4   9  17  34  57  86 122 159 198 245 298 357
#     4  11  24  42  63  92 125 161 203 252 308 369
#     4  11  22  43  68  91 120 161 206 255 308 364
#     4   9  20  40  65  89 122 163 204 251 309 366
#     4  10  19  33  57  89 123 158 198 249 302 354
#
# _framework density 21.552343
#
# number of rings (size 3 to 8) (size 9 to 14) (size 15 to 20)
#    0.000    1.667    1.667    3.500    0.000    2.000 
#    0.000    8.333    0.000    0.000    0.000    0.000 
#    0.000    0.000    0.000    0.000    0.000    0.000 
#
# Total GULP energy -595318.355164 kJ/mol
# GULP energy per Si atom -12402.465733 kJ/mol
# Density = 2.150329 g / cm^3
# Si number density = 21.552343 Si / 1000 Ang^3
#
#
#
# Elastic Constant Matrix: (Units=GPa)
#
#
# Indices 1 2 3 4 5 6 
#
# 1 70.1135 13.8113 33.3975 0.0000 0.0000 0.0000
# 2 13.8113 65.0225 17.6797 0.0000 0.0000 0.0000
# 3 33.3975 17.6797 115.4805 0.0000 0.0000 0.0000
# 4 0.0000 0.0000 0.0000 34.9430 0.0000 0.0000
# 5 0.0000 0.0000 0.0000 0.0000 33.0975 0.0000
# 6 0.0000 0.0000 0.0000 0.0000 0.0000 20.4428
#
#
#
# Elastic Compliance Matrix: (Units=1/GPa)
#
#
# Indices 1 2 3 4 5 6 
#
# 1 0.016880 -0.002356 -0.004521 0.000000 0.000000 0.000000
# 2 -0.002356 0.016376 -0.001826 0.000000 0.000000 0.000000
# 3 -0.004521 -0.001826 0.010247 0.000000 0.000000 0.000000
# 4 0.000000 0.000000 0.000000 0.028618 0.000000 0.000000
# 5 0.000000 0.000000 0.000000 0.000000 0.030214 0.000000
# 6 0.000000 0.000000 0.000000 0.000000 0.000000 0.048917
#
#
# Mechanical properties :
#
#
# Convention : Reuss Voigt Hill
#
# Bulk Modulus (GPa) = 38.31875 42.26594 40.29235
# Shear Modulus (GPa) = 28.19177 30.07854 29.13515
#
# Velocity S-wave (km/s) = 3.62064 3.73983 3.68072
# Velocity P-wave (km/s) = 5.94110 6.18885 6.06624
#
# Compressibility (1/GPa) = 0.02609688
#
# Stress axis : x y z
#
# Youngs Moduli (GPa) = 59.24065 61.06435 97.59411
#
# Poissons Ratio (x) = 0.14388 0.44124
# Poissons Ratio (y) = 0.13958 0.17818
# Poissons Ratio (z) = 0.26784 0.11149
#
# Static dielectric constant tensor:
#      x y z
#    x 3.745590 0.000000 0.000000 
#    y 0.000000 3.666330 0.000000 
#    z 0.000000 0.000000 4.128410 
# 
# 
# High freq. dielectric constant tensor:
#      x y z
#    x 1.836030 0.000000 0.000000 
#    y 0.000000 1.826050 0.000000 
#    z 0.000000 0.000000 1.860660 
# 
# From -- ./inp_files/20033.got.cif
#   From: 2010.03.12/outbox.cif.g09.slc.cpg/sg62_11_cif.got.tgz:20033.got - 2010.04.10 19:12:36.
