data_PCOD8251543
_publ_section_title
;
Structure prediction by ZEFSAII (Michael W. Deem and Ramdas Pophale) SiO2 
 PCOD8251543
Probable space group: P N M A
;
_chemical_formula_sum "Si O2"
_cell_formula_units_Z 40
_cell_length_a 11.410738
_cell_length_b 14.806332
_cell_length_c 12.356739
_cell_angle_alpha 90.000000
_cell_angle_beta 90.000000
_cell_angle_gamma 90.000000
_cell_volume 2087.685576
_symmetry_space_group_name_H-M "P N M A"
_symmetry_group_IT_number 62
_symmetry_cell_setting 'orthorhombic'
loop_
_space_group_symop_operation_xyz
x,y,z
1/2-x,-y,1/2+z
1/2+x,1/2-y,1/2-z
-x,1/2+y,-z
-x,-y,-z
1/2+x,y,1/2-z
1/2-x,1/2+y,1/2+z
x,1/2-y,z
loop_
_atom_site_type_symbol
_atom_site_label
_atom_site_fract_x
_atom_site_fract_y
_atom_site_fract_z
Si Si1 0.861936 0.153201 0.330177
Si Si2 0.709954 0.853440 0.429987
Si Si3 0.525967 0.848891 0.610913
Si Si4 0.836735 0.979317 0.799381
Si Si5 0.421569 0.930764 0.932320
O O1 0.810529 0.250000 0.369716
O O2 0.874326 0.156517 0.201377
O O3 0.774214 0.071781 0.352324
O O4 0.988650 0.142642 0.385538
O O5 0.725097 0.750000 0.391746
O O6 0.593547 0.866489 0.500265
O O7 0.827593 0.882887 0.491515
O O8 0.684475 0.915635 0.325730
O O9 0.460857 0.750000 0.606943
O O10 0.443536 0.933719 0.636156
O O11 0.854166 0.975746 0.670007
O O12 0.500000 0.000000 0.000000
#
# Coordination Sequence:
#
# PCOD8251543 Si02
#       5
#     8   8   8   8   8
#     4  10  19  33  58  90 115 146 197 250 294 346
#     4  11  22  39  60  86 122 163 196 239 305 367
#     4   9  19  34  57  87 116 149 195 245 297 348
#     4  11  21  36  62  86 119 150 201 253 295 353
#     4  11  22  39  61  86 118 160 200 246 302 356
#
# _framework density 19.159973000000001
#
# number of rings (size 3 to 8) (size 9 to 14) (size 15 to 20)
#    0.000    1.600    4.000    1.800    0.000    1.600 
#    0.000    2.000    0.000    0.000    0.000    0.000 
#    0.000    0.000    0.000    0.000    0.000    0.000 
#
# Total GULP energy -495660.660141 kJ/mol
# GULP energy per Si atom -12391.516504 kJ/mol
# Density = 1.911636 g / cm^3
# Si number density = 19.159973 Si / 1000 Ang^3
#
#
#
# Elastic Constant Matrix: (Units=GPa)
#
#
# Indices 1 2 3 4 5 6 
#
# 1 73.8142 42.0903 18.0905 0.0000 0.0000 0.0000
# 2 42.0903 155.4127 43.0248 0.0000 0.0000 0.0000
# 3 18.0905 43.0248 49.2958 0.0000 0.0000 0.0000
# 4 0.0000 0.0000 0.0000 21.8285 0.0000 0.0000
# 5 0.0000 0.0000 0.0000 0.0000 26.0132 0.0000
# 6 0.0000 0.0000 0.0000 0.0000 0.0000 21.8382
#
#
#
# Elastic Compliance Matrix: (Units=1/GPa)
#
#
# Indices 1 2 3 4 5 6 
#
# 1 0.016312 -0.003640 -0.002809 0.000000 0.000000 0.000000
# 2 -0.003640 0.009297 -0.006778 0.000000 0.000000 0.000000
# 3 -0.002809 -0.006778 0.027233 0.000000 0.000000 0.000000
# 4 0.000000 0.000000 0.000000 0.045812 0.000000 0.000000
# 5 0.000000 0.000000 0.000000 0.000000 0.038442 0.000000
# 6 0.000000 0.000000 0.000000 0.000000 0.000000 0.045791
#
#
# Mechanical properties :
#
#
# Convention : Reuss Voigt Hill
#
# Bulk Modulus (GPa) = 37.89859 53.88154 45.89006
# Shear Modulus (GPa) = 22.92147 25.62381 24.27264
#
# Velocity S-wave (km/s) = 3.46254 3.66096 3.56313
# Velocity P-wave (km/s) = 5.98403 6.78625 6.39773
#
# Compressibility (1/GPa) = 0.02638621
#
# Stress axis : x y z
#
# Youngs Moduli (GPa) = 61.30616 107.56351 36.72064
#
# Poissons Ratio (x) = 0.39153 0.10315
# Poissons Ratio (y) = 0.22315 0.24891
# Poissons Ratio (z) = 0.17221 0.72911
#
# Static dielectric constant tensor:
#      x y z
#    x 3.476450 0.000000 0.000000 
#    y 0.000000 3.604720 0.000000 
#    z 0.000000 0.000000 3.348790 
# 
# 
# High freq. dielectric constant tensor:
#      x y z
#    x 1.749260 0.000000 0.000000 
#    y 0.000000 1.749420 0.000000 
#    z 0.000000 0.000000 1.722950 
# 
# From -- ./inp_files/12029.got.cif
#   From: 2010.03.12/outbox.cif.g09.slc.cpg/sg62_7_cif.got.tgz:12029.got - 2010.04.10 19:12:36.
