data_PCOD8251069
_publ_section_title
;
Structure prediction by ZEFSAII (Michael W. Deem and Ramdas Pophale) SiO2 
 PCOD8251069
Probable space group: P N M A
;
_chemical_formula_sum "Si O2"
_cell_formula_units_Z 64
_cell_length_a 24.931508
_cell_length_b 8.872456
_cell_length_c 15.245885
_cell_angle_alpha 90.000000
_cell_angle_beta 90.000000
_cell_angle_gamma 90.000000
_cell_volume 3372.446290
_symmetry_space_group_name_H-M "P N M A"
_symmetry_group_IT_number 62
_symmetry_cell_setting 'orthorhombic'
loop_
_space_group_symop_operation_xyz
x,y,z
1/2-x,-y,1/2+z
1/2+x,1/2-y,1/2-z
-x,1/2+y,-z
-x,-y,-z
1/2+x,y,1/2-z
1/2-x,1/2+y,1/2+z
x,1/2-y,z
loop_
_atom_site_type_symbol
_atom_site_label
_atom_site_fract_x
_atom_site_fract_y
_atom_site_fract_z
Si Si1 0.859211 0.076523 0.319089
Si Si2 0.827687 0.424618 0.507027
Si Si3 0.436545 0.928103 0.316173
Si Si4 0.355045 0.427379 0.802893
Si Si5 0.557429 0.570346 0.328845
Si Si6 0.894587 0.422536 0.009656
Si Si7 0.723512 0.922399 0.548334
Si Si8 0.264287 0.926759 0.270823
O O1 0.863218 0.250000 0.290901
O O2 0.867120 0.054781 0.423923
O O3 0.905032 0.986797 0.268516
O O4 0.799658 0.017036 0.298779
O O5 0.811242 0.250000 0.519111
O O6 0.856976 0.484089 0.595771
O O7 0.773291 0.519042 0.490629
O O8 0.434272 0.750000 0.314786
O O9 0.497578 0.986860 0.309228
O O10 0.410418 0.982631 0.405796
O O11 0.362267 0.250000 0.802325
O O12 0.403231 0.499250 0.745820
O O13 0.298105 0.471149 0.759079
O O14 0.561266 0.750000 0.328951
O O15 0.575397 0.510848 0.424515
O O16 0.911359 0.250000 0.027092
O O17 0.830856 0.434792 0.991769
O O18 0.733734 0.750000 0.577319
O O19 0.716098 0.027149 0.632906
O O20 0.274021 0.750000 0.257680
#
# Coordination Sequence:
#
# PCOD8251069 Si02
#       8
#     8   8   8   8   8   8   8   8
#     4  11  22  36  54  78 112 148 184 229 281 330
#     4   9  20  36  55  79 110 148 184 225 277 333
#     4  11  22  36  56  80 108 144 190 236 272 325
#     4   8  16  34  57  79 106 138 178 226 274 325
#     4   9  19  35  56  81 107 142 188 231 275 330
#     4  10  20  34  54  80 113 148 179 219 276 335
#     4  10  19  31  52  81 115 147 175 216 271 330
#     4  10  19  32  55  81 108 143 183 223 272 331
#
# _framework density 18.977322000000001
#
# number of rings (size 3 to 8) (size 9 to 14) (size 15 to 20)
#    0.000    2.250    1.250    2.625    1.750    1.500 
#    0.000    1.250    0.000    8.250    0.000    0.000 
#    0.000    0.000    0.000    0.000    0.000    0.000 
#
# Total GULP energy -793480.922944 kJ/mol
# GULP energy per Si atom -12398.139421 kJ/mol
# Density = 1.893413 g / cm^3
# Si number density = 18.977322 Si / 1000 Ang^3
#
#
#
# Elastic Constant Matrix: (Units=GPa)
#
#
# Indices 1 2 3 4 5 6 
#
# 1 126.3612 34.3219 64.6407 0.0000 0.0000 0.0000
# 2 34.3219 50.7162 23.4014 0.0000 0.0000 0.0000
# 3 64.6407 23.4014 92.8083 0.0000 0.0000 0.0000
# 4 0.0000 0.0000 0.0000 16.6896 0.0000 0.0000
# 5 0.0000 0.0000 0.0000 0.0000 28.5968 0.0000
# 6 0.0000 0.0000 0.0000 0.0000 0.0000 18.5192
#
#
#
# Elastic Compliance Matrix: (Units=1/GPa)
#
#
# Indices 1 2 3 4 5 6 
#
# 1 0.013497 -0.005428 -0.008032 0.000000 0.000000 0.000000
# 2 -0.005428 0.024496 -0.002396 0.000000 0.000000 0.000000
# 3 -0.008032 -0.002396 0.016973 0.000000 0.000000 0.000000
# 4 0.000000 0.000000 0.000000 0.059918 0.000000 0.000000
# 5 0.000000 0.000000 0.000000 0.000000 0.034969 0.000000
# 6 0.000000 0.000000 0.000000 0.000000 0.000000 0.053998
#
#
# Mechanical properties :
#
#
# Convention : Reuss Voigt Hill
#
# Bulk Modulus (GPa) = 43.00215 57.17929 50.09072
# Shear Modulus (GPa) = 20.54950 22.59589 21.57269
#
# Velocity S-wave (km/s) = 3.29423 3.45436 3.37525
# Velocity P-wave (km/s) = 6.09739 6.79013 6.45307
#
# Compressibility (1/GPa) = 0.02325465
#
# Stress axis : x y z
#
# Youngs Moduli (GPa) = 74.09112 40.82217 58.91603
#
# Poissons Ratio (x) = 0.22158 0.47321
# Poissons Ratio (y) = 0.40216 0.14118
# Poissons Ratio (z) = 0.59509 0.09782
#
# Static dielectric constant tensor:
#      x y z
#    x 3.634720 0.000000 0.000000 
#    y 0.000000 3.320180 0.000000 
#    z 0.000000 0.000000 3.558080 
# 
# 
# High freq. dielectric constant tensor:
#      x y z
#    x 1.730690 0.000000 0.000000 
#    y 0.000000 1.718290 0.000000 
#    z 0.000000 0.000000 1.737890 
# 
# From -- ./inp_files/20770.got.cif
#   From: 2010.03.12/outbox.cif.g09.slc.cpg/sg62_11_cif.got.tgz:20770.got - 2010.04.10 19:12:36.
