data_PCOD8251004
_publ_section_title
;
Structure prediction by ZEFSAII (Michael W. Deem and Ramdas Pophale) SiO2 
 PCOD8251004
Probable space group: P N M A
;
_chemical_formula_sum "Si O2"
_cell_formula_units_Z 56
_cell_length_a 13.998804
_cell_length_b 9.007927
_cell_length_c 20.993186
_cell_angle_alpha 90.000000
_cell_angle_beta 90.000000
_cell_angle_gamma 90.000000
_cell_volume 2647.245048
_symmetry_space_group_name_H-M "P N M A"
_symmetry_group_IT_number 62
_symmetry_cell_setting 'orthorhombic'
loop_
_space_group_symop_operation_xyz
x,y,z
1/2-x,-y,1/2+z
1/2+x,1/2-y,1/2-z
-x,1/2+y,-z
-x,-y,-z
1/2+x,y,1/2-z
1/2-x,1/2+y,1/2+z
x,1/2-y,z
loop_
_atom_site_type_symbol
_atom_site_label
_atom_site_fract_x
_atom_site_fract_y
_atom_site_fract_z
Si Si1 0.991623 0.586019 0.563714
Si Si2 0.641080 0.923638 0.157329
Si Si3 0.843818 0.087626 0.345169
Si Si4 0.500774 0.080050 0.619566
Si Si5 0.794471 0.420946 0.930783
Si Si6 0.699762 0.077335 0.561579
Si Si7 0.991645 0.925520 0.748437
O O1 0.942549 0.750000 0.557373
O O2 0.936704 0.470420 0.606795
O O3 0.000000 0.500000 0.500000
O O4 0.096590 0.609357 0.590688
O O5 0.638313 0.750000 0.171957
O O6 0.742656 0.971358 0.125968
O O7 0.609265 0.006789 0.222438
O O8 0.804641 0.250000 0.323268
O O9 0.913254 0.018853 0.290106
O O10 0.755980 0.983870 0.366566
O O11 0.506967 0.250000 0.644139
O O12 0.407007 0.052933 0.577859
O O13 0.589231 0.040919 0.573924
O O14 0.503586 0.969724 0.678891
O O15 0.766429 0.250000 0.935354
O O16 0.763806 0.494316 0.997982
O O17 0.718372 0.250000 0.548751
O O18 0.984101 0.750000 0.739437
#
# Coordination Sequence:
#
# PCOD8251004 Si02
#       7
#     8   8   8   8   8   8   8
#     4  10  19  31  49  77 112 149 187 230 282 340
#     4  10  20  35  57  84 113 148 187 232 285 341
#     4   9  20  37  55  79 114 150 186 229 281 340
#     4  10  23  42  60  82 115 154 194 238 285 338
#     4  11  23  37  59  89 116 148 193 239 286 337
#     4  10  22  40  61  84 115 154 192 234 288 340
#     4  10  22  40  61  87 116 151 192 234 284 342
#
# _framework density 21.154069
#
# number of rings (size 3 to 8) (size 9 to 14) (size 15 to 20)
#    0.000    2.000    0.000    3.857    0.000   10.857 
#    0.000    4.286    0.000    0.000    0.000    0.000 
#    0.000    0.000    0.000    0.000    0.000    0.000 
#
# Total GULP energy -694016.906964 kJ/mol
# GULP energy per Si atom -12393.159053 kJ/mol
# Density = 2.110592 g / cm^3
# Si number density = 21.154069 Si / 1000 Ang^3
#
#
#
# Elastic Constant Matrix: (Units=GPa)
#
#
# Indices 1 2 3 4 5 6 
#
# 1 80.3601 30.2170 1.3461 0.0000 0.0000 0.0000
# 2 30.2170 77.0832 30.2151 0.0000 0.0000 0.0000
# 3 1.3461 30.2151 72.9313 0.0000 0.0000 0.0000
# 4 0.0000 0.0000 0.0000 34.8448 0.0000 0.0000
# 5 0.0000 0.0000 0.0000 0.0000 10.1519 0.0000
# 6 0.0000 0.0000 0.0000 0.0000 0.0000 26.9568
#
#
#
# Elastic Compliance Matrix: (Units=1/GPa)
#
#
# Indices 1 2 3 4 5 6 
#
# 1 0.014990 -0.006886 0.002576 0.000000 0.000000 0.000000
# 2 -0.006886 0.018651 -0.007600 0.000000 0.000000 0.000000
# 3 0.002576 -0.007600 0.016813 0.000000 0.000000 0.000000
# 4 0.000000 0.000000 0.000000 0.028699 0.000000 0.000000
# 5 0.000000 0.000000 0.000000 0.000000 0.098504 0.000000
# 6 0.000000 0.000000 0.000000 0.000000 0.000000 0.037096
#
#
# Mechanical properties :
#
#
# Convention : Reuss Voigt Hill
#
# Bulk Modulus (GPa) = 37.54553 39.32566 38.43560
# Shear Modulus (GPa) = 20.20601 25.63045 22.91823
#
# Velocity S-wave (km/s) = 3.09396 3.48459 3.29507
# Velocity P-wave (km/s) = 5.52726 5.90088 5.71712
#
# Compressibility (1/GPa) = 0.02663433
#
# Stress axis : x y z
#
# Youngs Moduli (GPa) = 66.71062 53.61513 59.47890
#
# Poissons Ratio (x) = 0.36919 -0.15323
# Poissons Ratio (y) = 0.45937 0.45205
# Poissons Ratio (z) = -0.17186 0.40748
#
# Static dielectric constant tensor:
#      x y z
#    x 3.900250 0.000000 0.000000 
#    y 0.000000 3.900020 0.000000 
#    z 0.000000 0.000000 3.447490 
# 
# 
# High freq. dielectric constant tensor:
#      x y z
#    x 1.826870 0.000000 0.000000 
#    y 0.000000 1.828240 0.000000 
#    z 0.000000 0.000000 1.824980 
# 
# From -- ./inp_files/27262.got.cif
#   From: 2010.03.12/outbox.cif.g09.slc.cpg/sg62_14_cif.got.tgz:27262.got - 2010.04.10 19:12:36.
