data_PCOD8251220
_publ_section_title
;
Structure prediction by ZEFSAII (Michael W. Deem and Ramdas Pophale) SiO2 
 PCOD8251220
Probable space group: P N M A
;
_chemical_formula_sum "Si O2"
_cell_formula_units_Z 56
_cell_length_a 21.269786
_cell_length_b 9.035095
_cell_length_c 15.067182
_cell_angle_alpha 90.000000
_cell_angle_beta 90.000000
_cell_angle_gamma 90.000000
_cell_volume 2895.528727
_symmetry_space_group_name_H-M "P N M A"
_symmetry_group_IT_number 62
_symmetry_cell_setting 'orthorhombic'
loop_
_space_group_symop_operation_xyz
x,y,z
1/2-x,-y,1/2+z
1/2+x,1/2-y,1/2-z
-x,1/2+y,-z
-x,-y,-z
1/2+x,y,1/2-z
1/2-x,1/2+y,1/2+z
x,1/2-y,z
loop_
_atom_site_type_symbol
_atom_site_label
_atom_site_fract_x
_atom_site_fract_y
_atom_site_fract_z
Si Si1 0.333742 0.075663 0.691153
Si Si2 0.816802 0.074662 0.007289
Si Si3 0.403861 0.911237 0.994956
Si Si4 0.976373 0.088301 0.381529
Si Si5 0.021815 0.923043 0.218139
Si Si6 0.205077 0.425327 0.367383
Si Si7 0.047112 0.925551 0.932821
O O1 0.326058 0.250000 0.704269
O O2 0.307136 0.022114 0.595184
O O3 0.407157 0.030871 0.694211
O O4 0.294755 0.997442 0.769721
O O5 0.815700 0.250000 0.007515
O O6 0.762935 0.013970 0.073108
O O7 0.883085 0.017651 0.044859
O O8 0.377689 0.750000 0.027158
O O9 0.473386 0.886233 0.958433
O O10 0.357676 0.975193 0.919540
O O11 0.410789 0.024611 0.077589
O O12 0.962535 0.250000 0.337263
O O13 0.006720 0.965820 0.318227
O O14 0.011017 0.750000 0.201153
O O15 0.971524 0.019182 0.164028
O O16 0.208217 0.250000 0.353767
O O17 0.041933 0.750000 0.940845
O O18 0.000000 0.000000 0.000000
#
# Coordination Sequence:
#
# PCOD8251220 Si02
#       7
#     8   8   8   8   8   8   8
#     4  10  20  37  60  84 112 149 192 234 285 342
#     4   9  20  40  61  82 115 153 187 235 296 344
#     4   9  18  32  52  80 111 146 186 230 282 337
#     4  10  19  32  52  81 113 146 187 234 283 332
#     4  11  21  35  57  84 113 148 188 234 286 341
#     4  10  20  38  62  84 113 153 196 237 284 346
#     4  11  21  37  60  86 115 147 185 235 293 344
#
# _framework density 19.340164000000001
#
# number of rings (size 3 to 8) (size 9 to 14) (size 15 to 20)
#    0.000    2.000    2.857    1.286    0.000    1.714 
#    2.571    2.143    0.000    0.000    0.000    0.000 
#    0.000    0.000    0.000    0.000    0.000    0.000 
#
# Total GULP energy -694140.025729 kJ/mol
# GULP energy per Si atom -12395.357602 kJ/mol
# Density = 1.929614 g / cm^3
# Si number density = 19.340164 Si / 1000 Ang^3
#
#
#
# Elastic Constant Matrix: (Units=GPa)
#
#
# Indices 1 2 3 4 5 6 
#
# 1 96.9418 35.3236 64.9054 0.0000 0.0000 0.0000
# 2 35.3236 60.3820 41.0591 0.0000 0.0000 0.0000
# 3 64.9054 41.0591 121.4624 0.0000 0.0000 0.0000
# 4 0.0000 0.0000 0.0000 37.1869 0.0000 0.0000
# 5 0.0000 0.0000 0.0000 0.0000 36.8181 0.0000
# 6 0.0000 0.0000 0.0000 0.0000 0.0000 19.6698
#
#
#
# Elastic Compliance Matrix: (Units=1/GPa)
#
#
# Indices 1 2 3 4 5 6 
#
# 1 0.017121 -0.004927 -0.007483 0.000000 0.000000 0.000000
# 2 -0.004927 0.022922 -0.005116 0.000000 0.000000 0.000000
# 3 -0.007483 -0.005116 0.013961 0.000000 0.000000 0.000000
# 4 0.000000 0.000000 0.000000 0.026891 0.000000 0.000000
# 5 0.000000 0.000000 0.000000 0.000000 0.027161 0.000000
# 6 0.000000 0.000000 0.000000 0.000000 0.000000 0.050839
#
#
# Mechanical properties :
#
#
# Convention : Reuss Voigt Hill
#
# Bulk Modulus (GPa) = 52.76493 62.37358 57.56926
# Shear Modulus (GPa) = 24.96684 27.90152 26.43418
#
# Velocity S-wave (km/s) = 3.59685 3.80237 3.70104
# Velocity P-wave (km/s) = 6.67769 7.18319 6.93505
#
# Compressibility (1/GPa) = 0.01895198
#
# Stress axis : x y z
#
# Youngs Moduli (GPa) = 58.40710 43.62565 71.62741
#
# Poissons Ratio (x) = 0.21496 0.53601
# Poissons Ratio (y) = 0.28779 0.36642
# Poissons Ratio (z) = 0.43708 0.22317
#
# Static dielectric constant tensor:
#      x y z
#    x 3.838620 0.000000 0.000000 
#    y 0.000000 3.630560 0.000000 
#    z 0.000000 0.000000 4.093110 
# 
# 
# High freq. dielectric constant tensor:
#      x y z
#    x 1.735820 0.000000 0.000000 
#    y 0.000000 1.740740 0.000000 
#    z 0.000000 0.000000 1.755850 
# 
# From -- ./inp_files/20283.got.cif
#   From: 2010.03.12/outbox.cif.g09.slc.cpg/sg62_11_cif.got.tgz:20283.got - 2010.04.10 19:12:36.
