data_PCOD8251799
_publ_section_title
;
Structure prediction by ZEFSAII (Michael W. Deem and Ramdas Pophale) SiO2 
 PCOD8251799
Probable space group: P N M A
;
_chemical_formula_sum "Si O2"
_cell_formula_units_Z 64
_cell_length_a 19.903167
_cell_length_b 16.794069
_cell_length_c 9.807683
_cell_angle_alpha 90.000000
_cell_angle_beta 90.000000
_cell_angle_gamma 90.000000
_cell_volume 3278.268650
_symmetry_space_group_name_H-M "P N M A"
_symmetry_group_IT_number 62
_symmetry_cell_setting 'orthorhombic'
loop_
_space_group_symop_operation_xyz
x,y,z
1/2-x,-y,1/2+z
1/2+x,1/2-y,1/2-z
-x,1/2+y,-z
-x,-y,-z
1/2+x,y,1/2-z
1/2-x,1/2+y,1/2+z
x,1/2-y,z
loop_
_atom_site_type_symbol
_atom_site_label
_atom_site_fract_x
_atom_site_fract_y
_atom_site_fract_z
Si Si1 0.109681 0.158686 0.815734
Si Si2 0.828228 0.339888 0.974936
Si Si3 0.798385 0.043218 0.749862
Si Si4 0.253341 0.659930 0.461794
Si Si5 0.917876 0.503879 0.347871
Si Si6 0.039183 0.838227 0.171240
Si Si7 0.799542 0.097963 0.264348
Si Si8 0.563806 0.517724 0.162314
O O1 0.117093 0.250000 0.756314
O O2 0.168504 0.142141 0.925383
O O3 0.036503 0.149532 0.887589
O O4 0.112721 0.089409 0.700490
O O5 0.809430 0.250000 0.929497
O O6 0.807723 0.348078 0.131610
O O7 0.786748 0.404134 0.885809
O O8 0.907730 0.357000 0.950163
O O9 0.796702 0.102477 0.620482
O O10 0.869628 0.994991 0.750108
O O11 0.738764 0.982643 0.730393
O O12 0.234772 0.750000 0.423921
O O13 0.241356 0.646566 0.622101
O O14 0.873328 0.428214 0.310453
O O15 0.923272 0.509370 0.509689
O O16 0.992125 0.482389 0.286516
O O17 0.049173 0.750000 0.225781
O O18 0.054354 0.887840 0.308875
#
# Coordination Sequence:
#
# PCOD8251799 Si02
#       8
#     8   8   8   8   8   8   8   8
#     4   9  18  34  58  85 111 148 193 240 285 345
#     4  10  22  39  58  83 114 149 189 236 289 341
#     4  11  21  38  60  83 109 153 196 233 275 343
#     4  11  22  37  58  85 114 149 191 235 286 343
#     4  10  19  35  57  82 118 145 188 237 288 338
#     4   8  16  35  59  83 111 148 197 238 278 342
#     4  12  23  37  57  87 117 149 184 242 295 336
#     4   9  19  35  55  84 112 151 187 238 282 335
#
# _framework density 19.522500000000001
#
# number of rings (size 3 to 8) (size 9 to 14) (size 15 to 20)
#    0.000    2.000    2.500    1.500    0.000    0.500 
#    2.250    1.875    0.000    0.000    0.000    0.000 
#    0.000    0.000    0.000    0.000    0.000    0.000 
#
# Total GULP energy -792836.824672 kJ/mol
# GULP energy per Si atom -12388.075386 kJ/mol
# Density = 1.947807 g / cm^3
# Si number density = 19.522500 Si / 1000 Ang^3
#
#
#
# Elastic Constant Matrix: (Units=GPa)
#
#
# Indices 1 2 3 4 5 6 
#
# 1 102.6646 40.3888 33.4011 0.0000 0.0000 0.0000
# 2 40.3888 61.7293 32.3032 0.0000 0.0000 0.0000
# 3 33.4011 32.3032 96.6058 0.0000 0.0000 0.0000
# 4 0.0000 0.0000 0.0000 26.8728 0.0000 0.0000
# 5 0.0000 0.0000 0.0000 0.0000 28.2590 0.0000
# 6 0.0000 0.0000 0.0000 0.0000 0.0000 22.6126
#
#
#
# Elastic Compliance Matrix: (Units=1/GPa)
#
#
# Indices 1 2 3 4 5 6 
#
# 1 0.013450 -0.007717 -0.002070 0.000000 0.000000 0.000000
# 2 -0.007717 0.024063 -0.005378 0.000000 0.000000 0.000000
# 3 -0.002070 -0.005378 0.012865 0.000000 0.000000 0.000000
# 4 0.000000 0.000000 0.000000 0.037212 0.000000 0.000000
# 5 0.000000 0.000000 0.000000 0.000000 0.035387 0.000000
# 6 0.000000 0.000000 0.000000 0.000000 0.000000 0.044223
#
#
# Mechanical properties :
#
#
# Convention : Reuss Voigt Hill
#
# Bulk Modulus (GPa) = 49.87900 52.57621 51.22761
# Shear Modulus (GPa) = 24.48419 25.87599 25.18009
#
# Velocity S-wave (km/s) = 3.54524 3.64462 3.59527
# Velocity P-wave (km/s) = 6.50871 6.68584 6.59787
#
# Compressibility (1/GPa) = 0.02004852
#
# Stress axis : x y z
#
# Youngs Moduli (GPa) = 74.35113 41.55714 77.72811
#
# Poissons Ratio (x) = 0.32069 0.16088
# Poissons Ratio (y) = 0.57376 0.41804
# Poissons Ratio (z) = 0.15389 0.22350
#
# Static dielectric constant tensor:
#      x y z
#    x 3.999230 0.000000 0.000000 
#    y 0.000000 3.563830 0.000000 
#    z 0.000000 0.000000 3.273930 
# 
# 
# High freq. dielectric constant tensor:
#      x y z
#    x 1.782630 0.000000 0.000000 
#    y 0.000000 1.752630 0.000000 
#    z 0.000000 0.000000 1.729220 
# 
# From -- ./inp_files/8892.got.cif
#   From: 2010.03.12/outbox.cif.g09.slc.cpg/sg62_5_cif.got.tgz:8892.got - 2010.04.10 19:12:36.
