data_PCOD8251092
_publ_section_title
;
Structure prediction by ZEFSAII (Michael W. Deem and Ramdas Pophale) SiO2 
 PCOD8251092
Probable space group: P N M A
;
_chemical_formula_sum "Si O2"
_cell_formula_units_Z 56
_cell_length_a 18.231641
_cell_length_b 9.064057
_cell_length_c 20.636599
_cell_angle_alpha 90.000000
_cell_angle_beta 90.000000
_cell_angle_gamma 90.000000
_cell_volume 3410.252326
_symmetry_space_group_name_H-M "P N M A"
_symmetry_group_IT_number 62
_symmetry_cell_setting 'orthorhombic'
loop_
_space_group_symop_operation_xyz
x,y,z
1/2-x,-y,1/2+z
1/2+x,1/2-y,1/2-z
-x,1/2+y,-z
-x,-y,-z
1/2+x,y,1/2-z
1/2-x,1/2+y,1/2+z
x,1/2-y,z
loop_
_atom_site_type_symbol
_atom_site_label
_atom_site_fract_x
_atom_site_fract_y
_atom_site_fract_z
Si Si1 0.085744 0.576931 0.756695
Si Si2 0.921712 0.075018 0.504400
Si Si3 0.918448 0.578870 0.758154
Si Si4 0.836179 0.421445 0.375427
Si Si5 0.207396 0.584543 0.180626
Si Si6 0.712955 0.417275 0.682273
Si Si7 0.657652 0.423167 0.122820
O O1 0.095692 0.750000 0.769275
O O2 0.111454 0.534958 0.684380
O O3 0.132715 0.489459 0.810392
O O4 0.002030 0.525973 0.764214
O O5 0.931377 0.250000 0.510899
O O6 0.877048 0.031086 0.440423
O O7 0.878517 0.012016 0.565018
O O8 0.000000 0.000000 0.500000
O O9 0.909914 0.750000 0.773597
O O10 0.871204 0.493863 0.812171
O O11 0.891256 0.544412 0.685828
O O12 0.817588 0.250000 0.374135
O O13 0.758289 0.504703 0.372318
O O14 0.193598 0.750000 0.156784
O O15 0.247944 0.578236 0.248867
O O16 0.705599 0.250000 0.656470
O O17 0.760238 0.514213 0.632134
O O18 0.661290 0.250000 0.106873
#
# Coordination Sequence:
#
# PCOD8251092 Si02
#       7
#     8   8   8   8   8   8   8
#     4   9  16  28  46  67  90 119 153 187 224 270
#     4  11  22  34  48  68  94 125 159 193 226 265
#     4   9  17  29  46  67  93 123 153 186 229 277
#     4   9  18  32  47  63  89 124 158 187 221 267
#     4   9  17  28  44  66  90 116 150 190 231 270
#     4   9  17  29  44  65  91 118 149 188 232 273
#     4  10  19  32  48  66  91 125 160 191 224 268
#
# _framework density 16.421071999999999
#
# number of rings (size 3 to 8) (size 9 to 14) (size 15 to 20)
#    0.000    2.571    0.000    2.571    0.000    8.000 
#    0.000    2.857    0.000    0.000    0.000    1.000 
#    0.000    0.000    0.000    0.000    0.000    0.000 
#
# Total GULP energy -694423.026001 kJ/mol
# GULP energy per Si atom -12400.411179 kJ/mol
# Density = 1.638370 g / cm^3
# Si number density = 16.421072 Si / 1000 Ang^3
#
#
#
# Elastic Constant Matrix: (Units=GPa)
#
#
# Indices 1 2 3 4 5 6 
#
# 1 154.4351 68.6622 57.9048 0.0000 0.0000 0.0000
# 2 68.6622 86.6206 44.2177 0.0000 0.0000 0.0000
# 3 57.9048 44.2177 63.5199 0.0000 0.0000 0.0000
# 4 0.0000 0.0000 0.0000 24.0566 0.0000 0.0000
# 5 0.0000 0.0000 0.0000 0.0000 24.7419 0.0000
# 6 0.0000 0.0000 0.0000 0.0000 0.0000 30.3079
#
#
#
# Elastic Compliance Matrix: (Units=1/GPa)
#
#
# Indices 1 2 3 4 5 6 
#
# 1 0.011461 -0.005819 -0.006397 0.000000 0.000000 0.000000
# 2 -0.005819 0.020863 -0.009218 0.000000 0.000000 0.000000
# 3 -0.006397 -0.009218 0.027992 0.000000 0.000000 0.000000
# 4 0.000000 0.000000 0.000000 0.041569 0.000000 0.000000
# 5 0.000000 0.000000 0.000000 0.000000 0.040417 0.000000
# 6 0.000000 0.000000 0.000000 0.000000 0.000000 0.032995
#
#
# Mechanical properties :
#
#
# Convention : Reuss Voigt Hill
#
# Bulk Modulus (GPa) = 57.31791 71.79387 64.55589
# Shear Modulus (GPa) = 22.32328 24.74068 23.53198
#
# Velocity S-wave (km/s) = 3.69104 3.88576 3.78965
# Velocity P-wave (km/s) = 7.29013 7.99673 7.65159
#
# Compressibility (1/GPa) = 0.01744655
#
# Stress axis : x y z
#
# Youngs Moduli (GPa) = 87.25224 47.93093 35.72505
#
# Poissons Ratio (x) = 0.27893 0.22853
# Poissons Ratio (y) = 0.50776 0.32933
# Poissons Ratio (z) = 0.55813 0.44185
#
# Static dielectric constant tensor:
#      x y z
#    x 3.222730 0.000000 0.000000 
#    y 0.000000 2.721400 0.000000 
#    z 0.000000 0.000000 2.901430 
# 
# 
# High freq. dielectric constant tensor:
#      x y z
#    x 1.635380 0.000000 0.000000 
#    y 0.000000 1.642390 0.000000 
#    z 0.000000 0.000000 1.591740 
# 
# From -- ./inp_files/27503.got.cif
#   From: 2010.03.12/outbox.cif.g09.slc.cpg/sg62_14_cif.got.tgz:27503.got - 2010.04.10 19:12:36.
