data_PCOD8251095
_publ_section_title
;
Structure prediction by ZEFSAII (Michael W. Deem and Ramdas Pophale) SiO2 
 PCOD8251095
Probable space group: P N M A
;
_chemical_formula_sum "Si O2"
_cell_formula_units_Z 64
_cell_length_a 8.060540
_cell_length_b 19.458165
_cell_length_c 24.779734
_cell_angle_alpha 90.000000
_cell_angle_beta 90.000000
_cell_angle_gamma 90.000000
_cell_volume 3886.535683
_symmetry_space_group_name_H-M "P N M A"
_symmetry_group_IT_number 62
_symmetry_cell_setting 'orthorhombic'
loop_
_space_group_symop_operation_xyz
x,y,z
1/2-x,-y,1/2+z
1/2+x,1/2-y,1/2-z
-x,1/2+y,-z
-x,-y,-z
1/2+x,y,1/2-z
1/2-x,1/2+y,1/2+z
x,1/2-y,z
loop_
_atom_site_type_symbol
_atom_site_label
_atom_site_fract_x
_atom_site_fract_y
_atom_site_fract_z
Si Si1 0.843542 0.827221 0.927229
Si Si2 0.868239 0.950064 0.667171
Si Si3 0.155990 0.408454 0.509242
Si Si4 0.600430 0.173816 0.308280
Si Si5 0.480715 0.577081 0.481480
Si Si6 0.153393 0.959005 0.433879
Si Si7 0.866755 0.089046 0.253936
Si Si8 0.460754 0.829974 0.910936
O O1 0.849045 0.750000 0.950862
O O2 0.653768 0.849460 0.917132
O O3 0.945343 0.832115 0.871392
O O4 0.933315 0.878070 0.967190
O O5 0.699334 0.952688 0.701889
O O6 0.013075 0.959451 0.711361
O O7 0.885591 0.876661 0.636830
O O8 0.869689 0.014003 0.626697
O O9 0.335710 0.398504 0.539162
O O10 0.158293 0.478985 0.475961
O O11 0.004748 0.410400 0.552353
O O12 0.128945 0.345634 0.467791
O O13 0.669884 0.250000 0.296288
O O14 0.729346 0.113834 0.295581
O O15 0.445277 0.159176 0.269800
O O16 0.500000 0.500000 0.500000
O O17 0.329579 0.582469 0.438018
O O18 0.435098 0.750000 0.895788
#
# Coordination Sequence:
#
# PCOD8251095 Si02
#       8
#     8   8   8   8   8   8   8   8
#     4  10  20  33  47  69 102 135 166 212 260 306
#     4  10  21  35  48  66  92 130 170 216 257 291
#     4   9  18  31  49  71  92 123 159 207 247 299
#     4  10  20  31  44  61  86 126 170 215 253 287
#     4  10  20  31  51  75  94 125 170 210 253 315
#     4   9  18  34  49  68  94 120 160 205 254 307
#     4  10  21  33  44  61  89 121 176 219 258 282
#     4  10  19  32  49  68  99 139 172 204 256 304
#
# _framework density 16.467106999999999
#
# number of rings (size 3 to 8) (size 9 to 14) (size 15 to 20)
#    0.000    2.250    2.500    0.375    7.000    3.000 
#    2.250    0.000    0.000    0.000    0.000    0.000 
#    0.000    0.000    0.000    4.500    0.500    0.250 
#
# Total GULP energy -793104.963536 kJ/mol
# GULP energy per Si atom -12392.265055 kJ/mol
# Density = 1.642963 g / cm^3
# Si number density = 16.467107 Si / 1000 Ang^3
#
#
#
# Elastic Constant Matrix: (Units=GPa)
#
#
# Indices 1 2 3 4 5 6 
#
# 1 105.1418 22.6915 52.7703 0.0000 0.0000 0.0000
# 2 22.6915 32.6738 35.6296 0.0000 0.0000 0.0000
# 3 52.7703 35.6296 91.7959 0.0000 0.0000 0.0000
# 4 0.0000 0.0000 0.0000 25.9753 0.0000 0.0000
# 5 0.0000 0.0000 0.0000 0.0000 21.1080 0.0000
# 6 0.0000 0.0000 0.0000 0.0000 0.0000 18.9320
#
#
#
# Elastic Compliance Matrix: (Units=1/GPa)
#
#
# Indices 1 2 3 4 5 6 
#
# 1 0.013414 -0.001573 -0.007101 0.000000 0.000000 0.000000
# 2 -0.001573 0.053250 -0.019764 0.000000 0.000000 0.000000
# 3 -0.007101 -0.019764 0.022647 0.000000 0.000000 0.000000
# 4 0.000000 0.000000 0.000000 0.038498 0.000000 0.000000
# 5 0.000000 0.000000 0.000000 0.000000 0.047375 0.000000
# 6 0.000000 0.000000 0.000000 0.000000 0.000000 0.052821
#
#
# Mechanical properties :
#
#
# Convention : Reuss Voigt Hill
#
# Bulk Modulus (GPa) = 30.83045 50.19937 40.51491
# Shear Modulus (GPa) = 16.90938 21.10439 19.00689
#
# Velocity S-wave (km/s) = 3.20794 3.58384 3.40109
# Velocity P-wave (km/s) = 5.69950 6.90478 6.33089
#
# Compressibility (1/GPa) = 0.03243546
#
# Stress axis : x y z
#
# Youngs Moduli (GPa) = 74.54690 18.77933 44.15547
#
# Poissons Ratio (x) = 0.02953 0.31355
# Poissons Ratio (y) = 0.11723 0.87271
# Poissons Ratio (z) = 0.52936 0.37116
#
# Static dielectric constant tensor:
#      x y z
#    x 3.621470 0.000000 0.000000 
#    y 0.000000 2.764170 0.000000 
#    z 0.000000 0.000000 3.000180 
# 
# 
# High freq. dielectric constant tensor:
#      x y z
#    x 1.654810 0.000000 0.000000 
#    y 0.000000 1.584760 0.000000 
#    z 0.000000 0.000000 1.609520 
# 
# From -- ./inp_files/29068.got.cif
#   From: 2010.03.12/outbox.cif.g09.slc.cpg/sg62_15_cif.got.tgz:29068.got - 2010.04.10 19:12:36.
