data_PCOD8251014
_publ_section_title
;
Structure prediction by ZEFSAII (Michael W. Deem and Ramdas Pophale) SiO2 
 PCOD8251014
Probable space group: P N M A
;
_chemical_formula_sum "Si O2"
_cell_formula_units_Z 48
_cell_length_a 16.984500
_cell_length_b 8.687292
_cell_length_c 18.464220
_cell_angle_alpha 90.000000
_cell_angle_beta 90.000000
_cell_angle_gamma 90.000000
_cell_volume 2724.382939
_symmetry_space_group_name_H-M "P N M A"
_symmetry_group_IT_number 62
_symmetry_cell_setting 'orthorhombic'
loop_
_space_group_symop_operation_xyz
x,y,z
1/2-x,-y,1/2+z
1/2+x,1/2-y,1/2-z
-x,1/2+y,-z
-x,-y,-z
1/2+x,y,1/2-z
1/2-x,1/2+y,1/2+z
x,1/2-y,z
loop_
_atom_site_type_symbol
_atom_site_label
_atom_site_fract_x
_atom_site_fract_y
_atom_site_fract_z
Si Si1 0.168216 0.418164 0.696832
Si Si2 0.589321 0.431770 0.331127
Si Si3 0.222504 0.930502 0.910496
Si Si4 0.321687 0.079669 0.794374
Si Si5 0.774027 0.067242 0.923349
Si Si6 0.421865 0.565751 0.328794
O O1 0.135310 0.250000 0.676759
O O2 0.245228 0.404480 0.745801
O O3 0.197605 0.498958 0.622134
O O4 0.102621 0.499644 0.747892
O O5 0.591123 0.250000 0.329210
O O6 0.610871 0.494024 0.251320
O O7 0.646707 0.490015 0.394201
O O8 0.503157 0.490812 0.352649
O O9 0.209384 0.750000 0.899302
O O10 0.299650 0.984142 0.866336
O O11 0.143751 0.018285 0.886867
O O12 0.238862 0.974337 0.993554
O O13 0.352167 0.250000 0.816225
O O14 0.781178 0.250000 0.909936
O O15 0.427571 0.750000 0.327516
#
# Coordination Sequence:
#
# PCOD8251014 Si02
#       6
#     8   8   8   8   8   8
#     4   7  13  28  49  68  86 119 162 196 230 280
#     4  11  21  32  49  73  99 126 163 208 248 289
#     4  10  19  31  50  76 102 127 159 201 243 287
#     4   9  17  32  51  69  94 128 164 198 238 291
#     4   9  18  33  51  72 100 130 160 197 245 297
#     4  10  19  32  50  70  97 132 166 200 244 297
#
# _framework density 17.618668
#
# number of rings (size 3 to 8) (size 9 to 14) (size 15 to 20)
#    0.000    2.667    0.000    5.000    0.000    2.000 
#    0.000    0.833    0.000    1.000    0.000    0.000 
#    0.000    0.000    0.000    0.000    0.000    0.000 
#
# Total GULP energy -594734.992308 kJ/mol
# GULP energy per Si atom -12390.312340 kJ/mol
# Density = 1.757857 g / cm^3
# Si number density = 17.618668 Si / 1000 Ang^3
#
#
#
# Elastic Constant Matrix: (Units=GPa)
#
#
# Indices 1 2 3 4 5 6 
#
# 1 11.4947 13.4962 19.8862 0.0000 0.0000 0.0000
# 2 13.4962 74.5122 31.8165 0.0000 0.0000 0.0000
# 3 19.8862 31.8165 120.8898 0.0000 0.0000 0.0000
# 4 0.0000 0.0000 0.0000 24.7740 0.0000 0.0000
# 5 0.0000 0.0000 0.0000 0.0000 18.3827 0.0000
# 6 0.0000 0.0000 0.0000 0.0000 0.0000 20.8625
#
#
#
# Elastic Compliance Matrix: (Units=1/GPa)
#
#
# Indices 1 2 3 4 5 6 
#
# 1 0.139057 -0.017372 -0.018303 0.000000 0.000000 0.000000
# 2 -0.017372 0.017290 -0.001693 0.000000 0.000000 0.000000
# 3 -0.018303 -0.001693 0.011728 0.000000 0.000000 0.000000
# 4 0.000000 0.000000 0.000000 0.040365 0.000000 0.000000
# 5 0.000000 0.000000 0.000000 0.000000 0.054399 0.000000
# 6 0.000000 0.000000 0.000000 0.000000 0.000000 0.047933
#
#
# Mechanical properties :
#
#
# Convention : Reuss Voigt Hill
#
# Bulk Modulus (GPa) = 10.71345 37.47719 24.09532
# Shear Modulus (GPa) = 12.00134 22.25036 17.12585
#
# Velocity S-wave (km/s) = 2.61276 3.55757 3.12112
# Velocity P-wave (km/s) = 3.89820 6.18001 5.16665
#
# Compressibility (1/GPa) = 0.09334060
#
# Stress axis : x y z
#
# Youngs Moduli (GPa) = 7.19130 57.83701 85.26388
#
# Poissons Ratio (x) = 1.00473 1.56056
# Poissons Ratio (y) = 0.12493 0.14434
# Poissons Ratio (z) = 0.13162 0.09791
#
# Static dielectric constant tensor:
#      x y z
#    x 3.239860 0.000000 0.000000 
#    y 0.000000 3.241250 0.000000 
#    z 0.000000 0.000000 3.480540 
# 
# 
# High freq. dielectric constant tensor:
#      x y z
#    x 1.655830 0.000000 0.000000 
#    y 0.000000 1.675270 0.000000 
#    z 0.000000 0.000000 1.677400 
# 
# From -- ./inp_files/19544.got.cif
#   From: 2010.03.12/outbox.cif.g09.slc.cpg/sg62_10_cif.got.tgz:19544.got - 2010.04.10 19:12:36.
