data_PCOD8251122
_publ_section_title
;
Structure prediction by ZEFSAII (Michael W. Deem and Ramdas Pophale) SiO2 
 PCOD8251122
Probable space group: P N M A
;
_chemical_formula_sum "Si O2"
_cell_formula_units_Z 64
_cell_length_a 14.378821
_cell_length_b 8.509445
_cell_length_c 30.197347
_cell_angle_alpha 90.000000
_cell_angle_beta 90.000000
_cell_angle_gamma 90.000000
_cell_volume 3694.820141
_symmetry_space_group_name_H-M "P N M A"
_symmetry_group_IT_number 62
_symmetry_cell_setting 'orthorhombic'
loop_
_space_group_symop_operation_xyz
x,y,z
1/2-x,-y,1/2+z
1/2+x,1/2-y,1/2-z
-x,1/2+y,-z
-x,-y,-z
1/2+x,y,1/2-z
1/2-x,1/2+y,1/2+z
x,1/2-y,z
loop_
_atom_site_type_symbol
_atom_site_label
_atom_site_fract_x
_atom_site_fract_y
_atom_site_fract_z
Si Si1 0.149049 0.931747 0.638097
Si Si2 0.019127 0.567648 0.315767
Si Si3 0.806025 0.435562 0.631760
Si Si4 0.968749 0.930713 0.775452
Si Si5 0.395369 0.932513 0.050656
Si Si6 0.655118 0.435599 0.699371
Si Si7 0.890123 0.435198 0.542226
Si Si8 0.231465 0.933569 0.213013
O O1 0.123743 0.750000 0.643866
O O2 0.166770 0.971422 0.586384
O O3 0.235698 0.972818 0.669548
O O4 0.063802 0.045952 0.649909
O O5 0.027570 0.750000 0.301884
O O6 0.113088 0.499167 0.336622
O O7 0.994081 0.461568 0.273806
O O8 0.818256 0.250000 0.630877
O O9 0.708926 0.485421 0.654170
O O10 0.821197 0.495982 0.581508
O O11 0.943858 0.750000 0.783741
O O12 0.878069 0.036063 0.782925
O O13 0.055381 0.981276 0.806123
O O14 0.379705 0.750000 0.058990
O O15 0.504040 0.980367 0.054789
O O16 0.357880 0.976862 0.002039
O O17 0.640626 0.250000 0.701824
O O18 0.713697 0.490760 0.742773
O O19 0.882019 0.250000 0.534278
O O20 0.249079 0.750000 0.205849
#
# Coordination Sequence:
#
# PCOD8251122 Si02
#       8
#     8   8   8   8   8   8   8   8
#     4  12  23  34  50  77 107 138 177 221 267 309
#     4  11  19  33  52  73 103 142 182 215 254 310
#     4   9  17  32  53  75  99 135 179 217 252 300
#     4  12  24  36  50  75 109 139 174 224 267 301
#     4  10  19  32  50  73 104 140 174 210 258 318
#     4  10  20  35  55  75  99 138 182 215 255 311
#     4   9  17  31  50  74 104 135 171 217 260 303
#     4  11  22  37  57  75 100 141 183 217 257 313
#
# _framework density 17.321546999999999
#
# number of rings (size 3 to 8) (size 9 to 14) (size 15 to 20)
#    0.000    1.500    3.750    3.375    0.000    1.000 
#    0.000    0.625    0.000    0.000    0.000    0.875 
#    0.000    0.000    0.000    0.000    0.000    0.000 
#
# Total GULP energy -793523.497007 kJ/mol
# GULP energy per Si atom -12398.804641 kJ/mol
# Density = 1.728212 g / cm^3
# Si number density = 17.321547 Si / 1000 Ang^3
#
#
#
# Elastic Constant Matrix: (Units=GPa)
#
#
# Indices 1 2 3 4 5 6 
#
# 1 67.5552 15.5804 24.5109 0.0000 0.0000 0.0000
# 2 15.5804 54.5447 27.1147 0.0000 0.0000 0.0000
# 3 24.5109 27.1147 106.5983 0.0000 0.0000 0.0000
# 4 0.0000 0.0000 0.0000 23.9052 0.0000 0.0000
# 5 0.0000 0.0000 0.0000 0.0000 25.9311 0.0000
# 6 0.0000 0.0000 0.0000 0.0000 0.0000 19.8404
#
#
#
# Elastic Compliance Matrix: (Units=1/GPa)
#
#
# Indices 1 2 3 4 5 6 
#
# 1 0.016643 -0.003264 -0.002996 0.000000 0.000000 0.000000
# 2 -0.003264 0.021628 -0.004751 0.000000 0.000000 0.000000
# 3 -0.002996 -0.004751 0.011278 0.000000 0.000000 0.000000
# 4 0.000000 0.000000 0.000000 0.041832 0.000000 0.000000
# 5 0.000000 0.000000 0.000000 0.000000 0.038564 0.000000
# 6 0.000000 0.000000 0.000000 0.000000 0.000000 0.050402
#
#
# Mechanical properties :
#
#
# Convention : Reuss Voigt Hill
#
# Bulk Modulus (GPa) = 36.32952 40.34558 38.33755
# Shear Modulus (GPa) = 23.63562 24.70147 24.16855
#
# Velocity S-wave (km/s) = 3.69795 3.78041 3.73941
# Velocity P-wave (km/s) = 6.26516 6.51138 6.38946
#
# Compressibility (1/GPa) = 0.02752583
#
# Stress axis : x y z
#
# Youngs Moduli (GPa) = 60.08616 46.23713 88.66500
#
# Poissons Ratio (x) = 0.15093 0.26568
# Poissons Ratio (y) = 0.19614 0.42122
# Poissons Ratio (z) = 0.18005 0.21966
#
# Static dielectric constant tensor:
#      x y z
#    x 3.063860 0.000000 0.000000 
#    y 0.000000 3.055770 0.000000 
#    z 0.000000 0.000000 3.362530 
# 
# 
# High freq. dielectric constant tensor:
#      x y z
#    x 1.638730 0.000000 0.000000 
#    y 0.000000 1.663280 0.000000 
#    z 0.000000 0.000000 1.663480 
# 
# From -- ./inp_files/32724.got.cif
#   From: 2010.03.12/outbox.cif.g09.slc.cpg/sg62_17_cif.got.tgz:32724.got - 2010.04.10 19:12:36.
