data_PCOD8251901
_publ_section_title
;
Structure prediction by ZEFSAII (Michael W. Deem and Ramdas Pophale) SiO2 
 PCOD8251901
Probable space group: P N M A
;
_chemical_formula_sum "Si O2"
_cell_formula_units_Z 64
_cell_length_a 15.120578
_cell_length_b 16.859287
_cell_length_c 12.664496
_cell_angle_alpha 90.000000
_cell_angle_beta 90.000000
_cell_angle_gamma 90.000000
_cell_volume 3228.460728
_symmetry_space_group_name_H-M "P N M A"
_symmetry_group_IT_number 62
_symmetry_cell_setting 'orthorhombic'
loop_
_space_group_symop_operation_xyz
x,y,z
1/2-x,-y,1/2+z
1/2+x,1/2-y,1/2-z
-x,1/2+y,-z
-x,-y,-z
1/2+x,y,1/2-z
1/2-x,1/2+y,1/2+z
x,1/2-y,z
loop_
_atom_site_type_symbol
_atom_site_label
_atom_site_fract_x
_atom_site_fract_y
_atom_site_fract_z
Si Si1 0.461818 0.987535 0.334427
Si Si2 0.548867 0.161649 0.004780
Si Si3 0.914942 0.076334 0.362525
Si Si4 0.804985 0.924279 0.399282
Si Si5 0.226215 0.659000 0.292957
Si Si6 0.741192 0.659133 0.962633
Si Si7 0.360905 0.980946 0.547404
Si Si8 0.474740 0.337822 0.778224
O O1 0.429813 0.061111 0.262023
O O2 0.560364 0.004705 0.372288
O O3 0.393459 0.978407 0.428179
O O4 0.462265 0.903649 0.273167
O O5 0.547862 0.250000 0.053966
O O6 0.510487 0.098405 0.088698
O O7 0.650569 0.143376 0.971883
O O8 0.484501 0.158029 0.903967
O O9 0.846658 0.146834 0.391207
O O10 0.874929 0.995556 0.409003
O O11 0.791427 0.895076 0.278052
O O12 0.710636 0.948718 0.446425
O O13 0.256283 0.750000 0.280277
O O14 0.227040 0.633784 0.415454
O O15 0.127173 0.647066 0.249251
O O16 0.770679 0.750000 0.952025
O O17 0.818576 0.603045 0.918146
O O18 0.503605 0.250000 0.737582
#
# Coordination Sequence:
#
# PCOD8251901 Si02
#       8
#     8   8   8   8   8   8   8   8
#     4  11  22  42  61  85 121 160 205 247 300 371
#     4  11  22  38  58  89 123 155 199 245 302 365
#     4  11  22  37  60  85 119 161 197 250 302 358
#     4  11  21  36  58  92 121 150 194 247 305 359
#     4  10  19  35  60  88 120 151 187 248 312 358
#     4  10  21  39  61  89 121 154 202 254 304 360
#     4  10  24  40  60  86 118 161 205 249 302 360
#     4  10  20  35  60  89 116 150 191 242 304 359
#
# _framework density 19.823689000000002
#
# number of rings (size 3 to 8) (size 9 to 14) (size 15 to 20)
#    0.000    1.500    3.750    1.875    0.000    0.500 
#    4.500    1.250    0.000    3.750    0.000    0.000 
#    0.000    0.000    0.000    0.000    0.000    0.000 
#
# Total GULP energy -793515.332944 kJ/mol
# GULP energy per Si atom -12398.677077 kJ/mol
# Density = 1.977857 g / cm^3
# Si number density = 19.823689 Si / 1000 Ang^3
#
#
#
# Elastic Constant Matrix: (Units=GPa)
#
#
# Indices 1 2 3 4 5 6 
#
# 1 93.0083 33.1450 23.7105 0.0000 0.0000 0.0000
# 2 33.1450 93.1601 35.7486 0.0000 0.0000 0.0000
# 3 23.7105 35.7486 60.5231 0.0000 0.0000 0.0000
# 4 0.0000 0.0000 0.0000 29.1857 0.0000 0.0000
# 5 0.0000 0.0000 0.0000 0.0000 21.3651 0.0000
# 6 0.0000 0.0000 0.0000 0.0000 0.0000 25.3840
#
#
#
# Elastic Compliance Matrix: (Units=1/GPa)
#
#
# Indices 1 2 3 4 5 6 
#
# 1 0.012717 -0.003379 -0.002986 0.000000 0.000000 0.000000
# 2 -0.003379 0.014778 -0.007405 0.000000 0.000000 0.000000
# 3 -0.002986 -0.007405 0.022067 0.000000 0.000000 0.000000
# 4 0.000000 0.000000 0.000000 0.034263 0.000000 0.000000
# 5 0.000000 0.000000 0.000000 0.000000 0.046805 0.000000
# 6 0.000000 0.000000 0.000000 0.000000 0.000000 0.039395
#
#
# Mechanical properties :
#
#
# Convention : Reuss Voigt Hill
#
# Bulk Modulus (GPa) = 45.41083 47.98884 46.69984
# Shear Modulus (GPa) = 24.40150 25.45946 24.93048
#
# Velocity S-wave (km/s) = 3.51226 3.58759 3.55013
# Velocity P-wave (km/s) = 6.27735 6.43595 6.35714
#
# Compressibility (1/GPa) = 0.02202118
#
# Stress axis : x y z
#
# Youngs Moduli (GPa) = 78.63449 67.66890 45.31751
#
# Poissons Ratio (x) = 0.22862 0.13534
# Poissons Ratio (y) = 0.26567 0.33558
# Poissons Ratio (z) = 0.23484 0.50110
#
# Static dielectric constant tensor:
#      x y z
#    x 3.658390 0.000000 0.000000 
#    y 0.000000 3.720830 0.000000 
#    z 0.000000 0.000000 3.422640 
# 
# 
# High freq. dielectric constant tensor:
#      x y z
#    x 1.784280 0.000000 0.000000 
#    y 0.000000 1.772010 0.000000 
#    z 0.000000 0.000000 1.747410 
# 
# From -- ./inp_files/13581.got.cif
#   From: 2010.03.12/outbox.cif.g09.slc.cpg/sg62_7_cif.got.tgz:13581.got - 2010.04.10 19:12:36.
