data_PCOD8251686
_publ_section_title
;
Structure prediction by ZEFSAII (Michael W. Deem and Ramdas Pophale) SiO2 
 PCOD8251686
Probable space group: P N M A
;
_chemical_formula_sum "Si O2"
_cell_formula_units_Z 64
_cell_length_a 20.020190
_cell_length_b 8.755274
_cell_length_c 18.881535
_cell_angle_alpha 90.000000
_cell_angle_beta 90.000000
_cell_angle_gamma 90.000000
_cell_volume 3309.597919
_symmetry_space_group_name_H-M "P N M A"
_symmetry_group_IT_number 62
_symmetry_cell_setting 'orthorhombic'
loop_
_space_group_symop_operation_xyz
x,y,z
1/2-x,-y,1/2+z
1/2+x,1/2-y,1/2-z
-x,1/2+y,-z
-x,-y,-z
1/2+x,y,1/2-z
1/2-x,1/2+y,1/2+z
x,1/2-y,z
loop_
_atom_site_type_symbol
_atom_site_label
_atom_site_fract_x
_atom_site_fract_y
_atom_site_fract_z
Si Si1 0.344085 0.068785 0.300742
Si Si2 0.947822 0.431635 0.445877
Si Si3 0.085775 0.070315 0.187227
Si Si4 0.438699 0.069857 0.541416
Si Si5 0.736376 0.069004 0.311173
Si Si6 0.469199 0.071068 0.211683
Si Si7 0.298657 0.070347 0.044691
Si Si8 0.822832 0.929530 0.046689
O O1 0.346165 0.250000 0.311158
O O2 0.280786 0.014248 0.254780
O O3 0.410737 0.006070 0.262287
O O4 0.338513 0.992553 0.376612
O O5 0.952951 0.250000 0.448712
O O6 0.964455 0.496394 0.367434
O O7 0.873714 0.491267 0.467025
O O8 0.000000 0.500000 0.500000
O O9 0.083490 0.250000 0.169245
O O10 0.160863 0.011792 0.201503
O O11 0.041701 0.031811 0.256343
O O12 0.053826 0.977835 0.122764
O O13 0.440160 0.250000 0.533109
O O14 0.500000 0.000000 0.500000
O O15 0.369794 0.005135 0.511653
O O16 0.737538 0.250000 0.316009
O O17 0.766172 0.998972 0.383903
O O18 0.456646 0.250000 0.206324
O O19 0.302609 0.250000 0.056526
O O20 0.253141 0.029792 0.976570
O O21 0.835718 0.750000 0.045227
#
# Coordination Sequence:
#
# PCOD8251686 Si02
#       8
#     8   8   8   8   8   8   8   8
#     4  10  19  34  57  84 112 149 195 240 287 342
#     4  10  20  37  60  86 114 151 197 238 287 345
#     4  10  19  34  57  84 111 147 195 243 289 340
#     4  12  24  38  56  82 116 154 191 236 291 353
#     4   9  16  31  57  80 104 149 197 232 277 347
#     4   9  18  33  56  81 109 146 190 235 280 340
#     4   9  17  34  59  80 108 155 198 231 279 352
#     4  11  22  37  58  85 116 152 196 244 295 351
#
# _framework density 19.337696000000001
#
# number of rings (size 3 to 8) (size 9 to 14) (size 15 to 20)
#    0.000    2.000    2.500    2.250    0.000    2.000 
#    0.000    4.375    0.000    0.000    0.000    0.000 
#    0.000    0.000    0.000    0.000    0.000    0.000 
#
# Total GULP energy -793576.665469 kJ/mol
# GULP energy per Si atom -12399.635398 kJ/mol
# Density = 1.929368 g / cm^3
# Si number density = 19.337696 Si / 1000 Ang^3
#
#
#
# Elastic Constant Matrix: (Units=GPa)
#
#
# Indices 1 2 3 4 5 6 
#
# 1 168.9657 30.6109 68.9556 0.0000 0.0000 0.0000
# 2 30.6109 49.6369 31.4744 0.0000 0.0000 0.0000
# 3 68.9556 31.4744 133.8307 0.0000 0.0000 0.0000
# 4 0.0000 0.0000 0.0000 26.0941 0.0000 0.0000
# 5 0.0000 0.0000 0.0000 0.0000 40.1575 0.0000
# 6 0.0000 0.0000 0.0000 0.0000 0.0000 20.0953
#
#
#
# Elastic Compliance Matrix: (Units=1/GPa)
#
#
# Indices 1 2 3 4 5 6 
#
# 1 0.007780 -0.002652 -0.003385 0.000000 0.000000 0.000000
# 2 -0.002652 0.024581 -0.004415 0.000000 0.000000 0.000000
# 3 -0.003385 -0.004415 0.010255 0.000000 0.000000 0.000000
# 4 0.000000 0.000000 0.000000 0.038323 0.000000 0.000000
# 5 0.000000 0.000000 0.000000 0.000000 0.024902 0.000000
# 6 0.000000 0.000000 0.000000 0.000000 0.000000 0.049763
#
#
# Mechanical properties :
#
#
# Convention : Reuss Voigt Hill
#
# Bulk Modulus (GPa) = 46.05580 68.27945 57.16763
# Shear Modulus (GPa) = 27.21181 32.02887 29.62034
#
# Velocity S-wave (km/s) = 3.75532 4.07417 3.91799
# Velocity P-wave (km/s) = 6.53235 7.58403 7.07775
#
# Compressibility (1/GPa) = 0.02171279
#
# Stress axis : x y z
#
# Youngs Moduli (GPa) = 128.53109 40.68210 97.51755
#
# Poissons Ratio (x) = 0.10787 0.33011
# Poissons Ratio (y) = 0.34081 0.43051
# Poissons Ratio (z) = 0.43509 0.17960
#
# Static dielectric constant tensor:
#      x y z
#    x 3.812550 0.000000 0.000000 
#    y 0.000000 3.169410 0.000000 
#    z 0.000000 0.000000 3.636210 
# 
# 
# High freq. dielectric constant tensor:
#      x y z
#    x 1.769990 0.000000 0.000000 
#    y 0.000000 1.708590 0.000000 
#    z 0.000000 0.000000 1.758160 
# 
# From -- ./inp_files/24753.got.cif
#   From: 2010.03.12/outbox.cif.g09.slc.cpg/sg62_13_cif.got.tgz:24753.got - 2010.04.10 19:12:36.
