data_PCOD8251682
_publ_section_title
;
Structure prediction by ZEFSAII (Michael W. Deem and Ramdas Pophale) SiO2 
 PCOD8251682
Probable space group: P N M A
;
_chemical_formula_sum "Si O2"
_cell_formula_units_Z 48
_cell_length_a 10.357444
_cell_length_b 8.929042
_cell_length_c 27.979209
_cell_angle_alpha 90.000000
_cell_angle_beta 90.000000
_cell_angle_gamma 90.000000
_cell_volume 2587.574675
_symmetry_space_group_name_H-M "P N M A"
_symmetry_group_IT_number 62
_symmetry_cell_setting 'orthorhombic'
loop_
_space_group_symop_operation_xyz
x,y,z
1/2-x,-y,1/2+z
1/2+x,1/2-y,1/2-z
-x,1/2+y,-z
-x,-y,-z
1/2+x,y,1/2-z
1/2-x,1/2+y,1/2+z
x,1/2-y,z
loop_
_atom_site_type_symbol
_atom_site_label
_atom_site_fract_x
_atom_site_fract_y
_atom_site_fract_z
Si Si1 0.747783 0.073343 0.854930
Si Si2 0.502043 0.923777 0.301020
Si Si3 0.018055 0.924061 0.311409
Si Si4 0.852064 0.576463 0.052258
Si Si5 0.651203 0.923282 0.455584
Si Si6 0.733078 0.573180 0.646304
O O1 0.750152 0.250000 0.848017
O O2 0.867952 0.008673 0.824601
O O3 0.613249 0.011204 0.834783
O O4 0.761148 0.029238 0.910595
O O5 0.483137 0.750000 0.314914
O O6 0.509878 0.947042 0.244868
O O7 0.380425 0.012124 0.320673
O O8 0.040827 0.750000 0.324315
O O9 0.132213 0.022700 0.331835
O O10 0.819074 0.750000 0.057560
O O11 0.775463 0.487280 0.092497
O O12 0.003561 0.543571 0.058584
O O13 0.804048 0.521609 0.000438
O O14 0.668711 0.750000 0.469101
O O15 0.725493 0.750000 0.645130
#
# Coordination Sequence:
#
# PCOD8251682 Si02
#       6
#     8   8   8   8   8   8
#     4   9  17  33  57  85 112 142 182 235 285 329
#     4  10  19  37  62  86 109 144 195 238 275 328
#     4  10  21  37  60  84 112 150 191 231 277 332
#     4  10  19  34  57  82 110 143 189 235 278 336
#     4   9  17  32  55  83 114 139 177 237 293 336
#     4  12  24  37  55  83 120 154 186 227 281 333
#
# _framework density 18.550190000000001
#
# number of rings (size 3 to 8) (size 9 to 14) (size 15 to 20)
#    0.000    2.000    1.667    3.000    0.000    4.000 
#    0.000    2.500    0.000    0.000    0.000    0.000 
#    0.000    0.000    0.000    0.000    0.000    0.000 
#
# Total GULP energy -595335.859754 kJ/mol
# GULP energy per Si atom -12402.830412 kJ/mol
# Density = 1.850797 g / cm^3
# Si number density = 18.550190 Si / 1000 Ang^3
#
#
#
# Elastic Constant Matrix: (Units=GPa)
#
#
# Indices 1 2 3 4 5 6 
#
# 1 135.1669 55.2969 69.2132 0.0000 0.0000 0.0000
# 2 55.2969 82.5885 60.9627 0.0000 0.0000 0.0000
# 3 69.2132 60.9627 114.4963 0.0000 0.0000 0.0000
# 4 0.0000 0.0000 0.0000 23.5588 0.0000 0.0000
# 5 0.0000 0.0000 0.0000 0.0000 -161.7560 0.0000
# 6 0.0000 0.0000 0.0000 0.0000 0.0000 14.9601
#
#
#
# Elastic Compliance Matrix: (Units=1/GPa)
#
#
# Indices 1 2 3 4 5 6 
#
# 1 0.011555 -0.004252 -0.004721 0.000000 0.000000 0.000000
# 2 -0.004252 0.021513 -0.008884 0.000000 0.000000 0.000000
# 3 -0.004721 -0.008884 0.016318 0.000000 0.000000 0.000000
# 4 0.000000 0.000000 0.000000 0.042447 0.000000 0.000000
# 5 0.000000 0.000000 0.000000 0.000000 -0.006182 0.000000
# 6 0.000000 0.000000 0.000000 0.000000 0.000000 0.066845
#
#
# Mechanical properties :
#
#
# Convention : Reuss Voigt Hill
#
# Bulk Modulus (GPa) = 73.14302 78.13303 75.63802
# Shear Modulus (GPa) = 25.93798 -14.86217 5.53790
#
# Velocity S-wave (km/s) = 3.74339 -2.83360 1.72969
# Velocity P-wave (km/s) = 7.62885 5.61298 6.69720
#
# Compressibility (1/GPa) = 0.01367185
#
# Stress axis : x y z
#
# Youngs Moduli (GPa) = 86.54072 46.48398 61.28087
#
# Poissons Ratio (x) = 0.19764 0.28933
# Poissons Ratio (y) = 0.36795 0.54443
# Poissons Ratio (z) = 0.40859 0.41297
#
# Static dielectric constant tensor:
#      x y z
#    x 3.452300 0.000000 0.000000 
#    y 0.000000 3.218690 0.000000 
#    z 0.000000 0.000000 3.588990 
# 
# 
# High freq. dielectric constant tensor:
#      x y z
#    x 1.709980 0.000000 0.000000 
#    y 0.000000 1.697280 0.000000 
#    z 0.000000 0.000000 1.737300 
# 
# From -- ./inp_files/29246.got.cif
#   From: 2010.03.12/outbox.cif.g09.slc.cpg/sg62_15_cif.got.tgz:29246.got - 2010.04.10 19:12:36.
