data_PCOD8251264
_publ_section_title
;
Structure prediction by ZEFSAII (Michael W. Deem and Ramdas Pophale) SiO2 
 PCOD8251264
Probable space group: P N M A
;
_chemical_formula_sum "Si O2"
_cell_formula_units_Z 64
_cell_length_a 12.729562
_cell_length_b 8.932856
_cell_length_c 29.414289
_cell_angle_alpha 90.000000
_cell_angle_beta 90.000000
_cell_angle_gamma 90.000000
_cell_volume 3344.738343
_symmetry_space_group_name_H-M "P N M A"
_symmetry_group_IT_number 62
_symmetry_cell_setting 'orthorhombic'
loop_
_space_group_symop_operation_xyz
x,y,z
1/2-x,-y,1/2+z
1/2+x,1/2-y,1/2-z
-x,1/2+y,-z
-x,-y,-z
1/2+x,y,1/2-z
1/2-x,1/2+y,1/2+z
x,1/2-y,z
loop_
_atom_site_type_symbol
_atom_site_label
_atom_site_fract_x
_atom_site_fract_y
_atom_site_fract_z
Si Si1 0.791832 0.428222 0.119584
Si Si2 0.733393 0.575023 0.376716
Si Si3 0.522114 0.074788 0.260886
Si Si4 0.880785 0.925267 0.545942
Si Si5 0.349253 0.414899 0.200033
Si Si6 0.881218 0.425331 0.450310
Si Si7 0.002512 0.072856 0.855546
Si Si8 0.279014 0.916351 0.785281
O O1 0.806698 0.250000 0.121557
O O2 0.708786 0.476477 0.081163
O O3 0.906861 0.501895 0.112064
O O4 0.746123 0.495941 0.166933
O O5 0.740744 0.750000 0.385393
O O6 0.789391 0.538086 0.328924
O O7 0.796939 0.494120 0.416250
O O8 0.611924 0.522027 0.374753
O O9 0.525175 0.250000 0.275005
O O10 0.470278 0.047974 0.210222
O O11 0.636474 0.007511 0.248387
O O12 0.480092 0.982522 0.304023
O O13 0.873076 0.750000 0.535412
O O14 0.998321 0.964304 0.564420
O O15 0.857353 0.013197 0.500071
O O16 0.330958 0.250000 0.177616
O O17 0.323345 0.410347 0.254089
O O18 0.863178 0.250000 0.450696
O O19 0.012683 0.250000 0.856821
O O20 0.320328 0.750000 0.797470
#
# Coordination Sequence:
#
# PCOD8251264 Si02
#       8
#     8   8   8   8   8   8   8   8
#     4  10  20  37  60  85 112 148 190 230 279 337
#     4  11  24  39  55  80 117 154 192 236 284 332
#     4  10  19  33  53  76 109 150 191 236 280 332
#     4   9  20  39  65  92 118 143 175 228 288 341
#     4  10  19  32  54  80 108 147 194 235 275 330
#     4  10  21  39  65  91 116 145 182 226 279 344
#     4  11  23  37  53  77 114 155 193 237 282 327
#     4   9  17  30  52  80 108 143 188 231 270 323
#
# _framework density 19.134530000000002
#
# number of rings (size 3 to 8) (size 9 to 14) (size 15 to 20)
#    0.000    2.000    2.500    1.125    1.750    3.000 
#    0.000    1.250    0.000    0.000    0.000    0.000 
#    0.000    0.000    0.000    0.000    0.000    0.000 
#
# Total GULP energy -792972.257572 kJ/mol
# GULP energy per Si atom -12390.191525 kJ/mol
# Density = 1.909098 g / cm^3
# Si number density = 19.134530 Si / 1000 Ang^3
#
#
#
# Elastic Constant Matrix: (Units=GPa)
#
#
# Indices 1 2 3 4 5 6 
#
# 1 105.9816 41.3938 59.8581 0.0000 0.0000 0.0000
# 2 41.3938 55.5415 40.6811 0.0000 0.0000 0.0000
# 3 59.8581 40.6811 97.9626 0.0000 0.0000 0.0000
# 4 0.0000 0.0000 0.0000 26.7518 0.0000 0.0000
# 5 0.0000 0.0000 0.0000 0.0000 35.6992 0.0000
# 6 0.0000 0.0000 0.0000 0.0000 0.0000 27.0823
#
#
#
# Elastic Compliance Matrix: (Units=1/GPa)
#
#
# Indices 1 2 3 4 5 6 
#
# 1 0.016043 -0.006865 -0.006952 0.000000 0.000000 0.000000
# 2 -0.006865 0.028812 -0.007770 0.000000 0.000000 0.000000
# 3 -0.006952 -0.007770 0.017683 0.000000 0.000000 0.000000
# 4 0.000000 0.000000 0.000000 0.037381 0.000000 0.000000
# 5 0.000000 0.000000 0.000000 0.000000 0.028012 0.000000
# 6 0.000000 0.000000 0.000000 0.000000 0.000000 0.036925
#
#
# Mechanical properties :
#
#
# Convention : Reuss Voigt Hill
#
# Bulk Modulus (GPa) = 51.64298 60.37241 56.00769
# Shear Modulus (GPa) = 23.31176 25.74350 24.52763
#
# Velocity S-wave (km/s) = 3.49421 3.67194 3.58418
# Velocity P-wave (km/s) = 6.58235 7.04256 6.81634
#
# Compressibility (1/GPa) = 0.01936372
#
# Stress axis : x y z
#
# Youngs Moduli (GPa) = 62.33101 34.70796 56.55202
#
# Poissons Ratio (x) = 0.23825 0.39317
# Poissons Ratio (y) = 0.42787 0.43943
# Poissons Ratio (z) = 0.43335 0.26969
#
# Static dielectric constant tensor:
#      x y z
#    x 3.808780 0.000000 0.000000 
#    y 0.000000 3.279440 0.000000 
#    z 0.000000 0.000000 3.367230 
# 
# 
# High freq. dielectric constant tensor:
#      x y z
#    x 1.764920 0.000000 0.000000 
#    y 0.000000 1.720230 0.000000 
#    z 0.000000 0.000000 1.728080 
# 
# From -- ./inp_files/32567.got.cif
#   From: 2010.03.12/outbox.cif.g09.slc.cpg/sg62_17_cif.got.tgz:32567.got - 2010.04.10 19:12:36.
