data_PCOD8251881
_publ_section_title
;
Structure prediction by ZEFSAII (Michael W. Deem and Ramdas Pophale) SiO2 
 PCOD8251881
Probable space group: P N M A
;
_chemical_formula_sum "Si O2"
_cell_formula_units_Z 48
_cell_length_a 19.504432
_cell_length_b 8.950721
_cell_length_c 14.863316
_cell_angle_alpha 90.000000
_cell_angle_beta 90.000000
_cell_angle_gamma 90.000000
_cell_volume 2594.818817
_symmetry_space_group_name_H-M "P N M A"
_symmetry_group_IT_number 62
_symmetry_cell_setting 'orthorhombic'
loop_
_space_group_symop_operation_xyz
x,y,z
1/2-x,-y,1/2+z
1/2+x,1/2-y,1/2-z
-x,1/2+y,-z
-x,-y,-z
1/2+x,y,1/2-z
1/2-x,1/2+y,1/2+z
x,1/2-y,z
loop_
_atom_site_type_symbol
_atom_site_label
_atom_site_fract_x
_atom_site_fract_y
_atom_site_fract_z
Si Si1 0.984501 0.921838 0.237489
Si Si2 0.809232 0.425064 0.382863
Si Si3 0.170727 0.426145 0.801417
Si Si4 0.443224 0.076566 0.559292
Si Si5 0.702284 0.928080 0.514000
Si Si6 0.967307 0.421828 0.415466
O O1 0.985400 0.750000 0.267023
O O2 0.910181 0.962919 0.196694
O O3 0.042538 0.958548 0.163957
O O4 0.002366 0.018397 0.324589
O O5 0.792905 0.250000 0.372976
O O6 0.794887 0.506728 0.288264
O O7 0.763663 0.499418 0.459183
O O8 0.886754 0.453974 0.413375
O O9 0.185563 0.250000 0.806053
O O10 0.205542 0.508018 0.885427
O O11 0.450115 0.250000 0.538863
O O12 0.367906 0.019053 0.533946
O O13 0.500000 0.000000 0.500000
O O14 0.709911 0.750000 0.515880
O O15 0.985041 0.250000 0.422844
O O16 0.000000 0.500000 0.500000
#
# Coordination Sequence:
#
# PCOD8251881 Si02
#       6
#     8   8   8   8   8   8
#     4   9  18  34  56  82 112 146 184 228 276 332
#     4  10  22  40  59  82 113 150 191 234 282 340
#     4  10  19  35  60  83 109 149 188 229 283 338
#     4  10  20  34  55  85 117 149 186 229 277 331
#     4  11  22  36  57  85 117 152 190 235 281 335
#     4  10  21  38  61  85 109 144 188 235 284 337
#
# _framework density 18.4984
#
# number of rings (size 3 to 8) (size 9 to 14) (size 15 to 20)
#    0.000    2.000    1.667    2.000    0.000    4.000 
#    3.000    0.000    0.000    0.000    0.000    0.000 
#    0.000    0.000    0.000    0.000    0.000    0.000 
#
# Total GULP energy -595361.013046 kJ/mol
# GULP energy per Si atom -12403.354438 kJ/mol
# Density = 1.845630 g / cm^3
# Si number density = 18.498400 Si / 1000 Ang^3
#
#
#
# Elastic Constant Matrix: (Units=GPa)
#
#
# Indices 1 2 3 4 5 6 
#
# 1 48.9107 43.5964 55.2822 0.0000 0.0000 0.0000
# 2 43.5964 91.1104 65.7751 0.0000 0.0000 0.0000
# 3 55.2822 65.7751 145.0912 0.0000 0.0000 0.0000
# 4 0.0000 0.0000 0.0000 41.5772 0.0000 0.0000
# 5 0.0000 0.0000 0.0000 0.0000 35.2982 0.0000
# 6 0.0000 0.0000 0.0000 0.0000 0.0000 27.1784
#
#
#
# Elastic Compliance Matrix: (Units=1/GPa)
#
#
# Indices 1 2 3 4 5 6 
#
# 1 0.044959 -0.013596 -0.010967 0.000000 0.000000 0.000000
# 2 -0.013596 0.020427 -0.004080 0.000000 0.000000 0.000000
# 3 -0.010967 -0.004080 0.012920 0.000000 0.000000 0.000000
# 4 0.000000 0.000000 0.000000 0.024052 0.000000 0.000000
# 5 0.000000 0.000000 0.000000 0.000000 0.028330 0.000000
# 6 0.000000 0.000000 0.000000 0.000000 0.000000 0.036794
#
#
# Mechanical properties :
#
#
# Convention : Reuss Voigt Hill
#
# Bulk Modulus (GPa) = 47.57079 68.26886 57.91982
# Shear Modulus (GPa) = 21.57268 28.84134 25.20701
#
# Velocity S-wave (km/s) = 3.41866 3.95286 3.69543
# Velocity P-wave (km/s) = 6.43078 7.60387 7.04180
#
# Compressibility (1/GPa) = 0.02102130
#
# Stress axis : x y z
#
# Youngs Moduli (GPa) = 22.24225 48.95537 77.39749
#
# Poissons Ratio (x) = 0.66559 0.84880
# Poissons Ratio (y) = 0.30240 0.31578
# Poissons Ratio (z) = 0.24393 0.19973
#
# Static dielectric constant tensor:
#      x y z
#    x 3.361710 0.000000 0.000000 
#    y 0.000000 3.497890 0.000000 
#    z 0.000000 0.000000 3.538640 
# 
# 
# High freq. dielectric constant tensor:
#      x y z
#    x 1.699680 0.000000 0.000000 
#    y 0.000000 1.728600 0.000000 
#    z 0.000000 0.000000 1.730180 
# 
# From -- ./inp_files/19559.got.cif
#   From: 2010.03.12/outbox.cif.g09.slc.cpg/sg62_10_cif.got.tgz:19559.got - 2010.04.10 19:12:36.
