data_PCOD8251160
_publ_section_title
;
Structure prediction by ZEFSAII (Michael W. Deem and Ramdas Pophale) SiO2 
 PCOD8251160
Probable space group: P N M A
;
_chemical_formula_sum "Si O2"
_cell_formula_units_Z 48
_cell_length_a 14.029344
_cell_length_b 9.331535
_cell_length_c 18.844153
_cell_angle_alpha 90.000000
_cell_angle_beta 90.000000
_cell_angle_gamma 90.000000
_cell_volume 2466.988218
_symmetry_space_group_name_H-M "P N M A"
_symmetry_group_IT_number 62
_symmetry_cell_setting 'orthorhombic'
loop_
_space_group_symop_operation_xyz
x,y,z
1/2-x,-y,1/2+z
1/2+x,1/2-y,1/2-z
-x,1/2+y,-z
-x,-y,-z
1/2+x,y,1/2-z
1/2-x,1/2+y,1/2+z
x,1/2-y,z
loop_
_atom_site_type_symbol
_atom_site_label
_atom_site_fract_x
_atom_site_fract_y
_atom_site_fract_z
Si Si1 0.121586 0.410044 0.044882
Si Si2 0.663347 0.580669 0.716130
Si Si3 0.035684 0.084775 0.892662
Si Si4 0.350448 0.581313 0.864490
Si Si5 0.332394 0.414589 0.009283
Si Si6 0.936991 0.419290 0.355614
O O1 0.088696 0.250000 0.066629
O O2 0.234077 0.427262 0.052588
O O3 0.070623 0.522597 0.096809
O O4 0.095746 0.440047 0.963513
O O5 0.648768 0.750000 0.707433
O O6 0.587094 0.502774 0.667837
O O7 0.771295 0.536285 0.694168
O O8 0.638190 0.528094 0.795911
O O9 0.028471 0.250000 0.870669
O O10 0.347225 0.750000 0.878068
O O11 0.454861 0.532028 0.836959
O O12 0.328579 0.508464 0.939197
O O13 0.352241 0.250000 0.987134
O O14 0.409849 0.476350 0.065597
O O15 0.930274 0.250000 0.359311
#
# Coordination Sequence:
#
# PCOD8251160 Si02
#       6
#     8   8   8   8   8   8
#     4   9  18  31  51  79 107 141 178 218 266 320
#     4  10  20  35  55  78 108 146 183 224 273 326
#     4  10  19  32  51  78 109 140 178 222 269 321
#     4  10  20  35  57  82 107 140 182 228 273 321
#     4  10  19  35  58  82 110 145 183 226 273 325
#     4   9  20  36  55  81 109 142 187 227 266 324
#
# _framework density 19.456921999999999
#
# number of rings (size 3 to 8) (size 9 to 14) (size 15 to 20)
#    0.000    2.333    1.667    1.000    0.000    2.667 
#    0.000    6.667    0.000    2.000    0.000    0.000 
#    0.000    0.000    0.000    0.000    0.000    0.000 
#
# Total GULP energy -595036.730324 kJ/mol
# GULP energy per Si atom -12396.598548 kJ/mol
# Density = 1.941264 g / cm^3
# Si number density = 19.456922 Si / 1000 Ang^3
#
#
#
# Elastic Constant Matrix: (Units=GPa)
#
#
# Indices 1 2 3 4 5 6 
#
# 1 97.4991 21.3540 61.2239 0.0000 0.0000 0.0000
# 2 21.3540 34.2377 29.8448 0.0000 0.0000 0.0000
# 3 61.2239 29.8448 86.6073 0.0000 0.0000 0.0000
# 4 0.0000 0.0000 0.0000 23.6294 0.0000 0.0000
# 5 0.0000 0.0000 0.0000 0.0000 29.6135 0.0000
# 6 0.0000 0.0000 0.0000 0.0000 0.0000 16.1433
#
#
#
# Elastic Compliance Matrix: (Units=1/GPa)
#
#
# Indices 1 2 3 4 5 6 
#
# 1 0.018445 -0.000197 -0.012971 0.000000 0.000000 0.000000
# 2 -0.000197 0.041750 -0.014248 0.000000 0.000000 0.000000
# 3 -0.012971 -0.014248 0.025625 0.000000 0.000000 0.000000
# 4 0.000000 0.000000 0.000000 0.042320 0.000000 0.000000
# 5 0.000000 0.000000 0.000000 0.000000 0.033768 0.000000
# 6 0.000000 0.000000 0.000000 0.000000 0.000000 0.061945
#
#
# Mechanical properties :
#
#
# Convention : Reuss Voigt Hill
#
# Bulk Modulus (GPa) = 32.26979 49.24328 40.75653
# Shear Modulus (GPa) = 17.30015 20.93866 19.11940
#
# Velocity S-wave (km/s) = 2.98510 3.28404 3.13813
# Velocity P-wave (km/s) = 5.33876 6.30426 5.84149
#
# Compressibility (1/GPa) = 0.03098874
#
# Stress axis : x y z
#
# Youngs Moduli (GPa) = 54.21624 23.95200 39.02398
#
# Poissons Ratio (x) = 0.00473 0.50617
# Poissons Ratio (y) = 0.01070 0.55599
# Poissons Ratio (z) = 0.70323 0.34126
#
# Static dielectric constant tensor:
#      x y z
#    x 3.869630 0.000000 0.000000 
#    y 0.000000 3.388560 0.000000 
#    z 0.000000 0.000000 3.560710 
# 
# 
# High freq. dielectric constant tensor:
#      x y z
#    x 1.769380 0.000000 0.000000 
#    y 0.000000 1.732670 0.000000 
#    z 0.000000 0.000000 1.746990 
# 
# From -- ./inp_files/23643.got.cif
#   From: 2010.03.12/outbox.cif.g09.slc.cpg/sg62_12_cif.got.tgz:23643.got - 2010.04.10 19:12:36.
