data_PCOD8251364
_publ_section_title
;
Structure prediction by ZEFSAII (Michael W. Deem and Ramdas Pophale) SiO2 
 PCOD8251364
Probable space group: P N M A
;
_chemical_formula_sum "Si O2"
_cell_formula_units_Z 56
_cell_length_a 9.764180
_cell_length_b 13.801894
_cell_length_c 23.757195
_cell_angle_alpha 90.000000
_cell_angle_beta 90.000000
_cell_angle_gamma 90.000000
_cell_volume 3201.618840
_symmetry_space_group_name_H-M "P N M A"
_symmetry_group_IT_number 62
_symmetry_cell_setting 'orthorhombic'
loop_
_space_group_symop_operation_xyz
x,y,z
1/2-x,-y,1/2+z
1/2+x,1/2-y,1/2-z
-x,1/2+y,-z
-x,-y,-z
1/2+x,y,1/2-z
1/2-x,1/2+y,1/2+z
x,1/2-y,z
loop_
_atom_site_type_symbol
_atom_site_label
_atom_site_fract_x
_atom_site_fract_y
_atom_site_fract_z
Si Si1 0.807909 0.137018 0.700417
Si Si2 0.415297 0.637515 0.966123
Si Si3 0.381006 0.638418 0.201119
Si Si4 0.781217 0.635574 0.417436
Si Si5 0.269546 0.137691 0.020426
Si Si6 0.053241 0.494371 0.062652
Si Si7 0.761816 0.983612 0.091521
O O1 0.775301 0.250000 0.686868
O O2 0.715281 0.093154 0.750576
O O3 0.786526 0.072840 0.645897
O O4 0.963639 0.123683 0.720070
O O5 0.377798 0.750000 0.957664
O O6 0.576220 0.619348 0.958672
O O7 0.334160 0.576662 0.919206
O O8 0.369970 0.601479 0.028547
O O9 0.340261 0.750000 0.197023
O O10 0.353599 0.593996 0.139046
O O11 0.769729 0.750000 0.416637
O O12 0.627734 0.594416 0.420961
O O13 0.236273 0.250000 0.014598
O O14 0.165245 0.092246 0.066659
O O15 0.246499 0.090647 0.959894
O O16 0.918906 0.479809 0.101404
O O17 0.000000 0.500000 0.000000
#
# Coordination Sequence:
#
# PCOD8251364 Si02
#       7
#     8   8   8   8   8   8   8
#     4  10  21  36  54  79 110 143 179 218 261 314
#     4  10  20  34  54  78 105 141 178 217 265 315
#     4   9  20  35  52  76 105 142 180 214 261 313
#     4  10  19  33  53  74 106 144 177 216 262 314
#     4  10  20  33  50  75 108 142 174 214 262 317
#     4  10  21  32  46  77 105 140 176 210 259 316
#     4  11  21  34  51  79 108 143 177 217 259 316
#
# _framework density 17.491152
#
# number of rings (size 3 to 8) (size 9 to 14) (size 15 to 20)
#    0.000    2.000    2.857    1.714    4.000    5.714 
#    0.000    0.000    0.000    0.000    0.000    2.000 
#    0.000    0.000    0.000    0.000    0.000    0.000 
#
# Total GULP energy -694254.975516 kJ/mol
# GULP energy per Si atom -12397.410277 kJ/mol
# Density = 1.745134 g / cm^3
# Si number density = 17.491152 Si / 1000 Ang^3
#
#
#
# Elastic Constant Matrix: (Units=GPa)
#
#
# Indices 1 2 3 4 5 6 
#
# 1 123.9773 41.8961 39.3942 0.0000 0.0000 0.0000
# 2 41.8961 62.9980 35.1318 0.0000 0.0000 0.0000
# 3 39.3942 35.1318 82.3833 0.0000 0.0000 0.0000
# 4 0.0000 0.0000 0.0000 20.7603 0.0000 0.0000
# 5 0.0000 0.0000 0.0000 0.0000 28.2597 0.0000
# 6 0.0000 0.0000 0.0000 0.0000 0.0000 30.2392
#
#
#
# Elastic Compliance Matrix: (Units=1/GPa)
#
#
# Indices 1 2 3 4 5 6 
#
# 1 0.010867 -0.005680 -0.002774 0.000000 0.000000 0.000000
# 2 -0.005680 0.023795 -0.007431 0.000000 0.000000 0.000000
# 3 -0.002774 -0.007431 0.016634 0.000000 0.000000 0.000000
# 4 0.000000 0.000000 0.000000 0.048169 0.000000 0.000000
# 5 0.000000 0.000000 0.000000 0.000000 0.035386 0.000000
# 6 0.000000 0.000000 0.000000 0.000000 0.000000 0.033070
#
#
# Mechanical properties :
#
#
# Convention : Reuss Voigt Hill
#
# Bulk Modulus (GPa) = 51.21565 55.80031 53.50798
# Shear Modulus (GPa) = 24.24837 26.04760 25.14798
#
# Velocity S-wave (km/s) = 3.72737 3.86319 3.79589
# Velocity P-wave (km/s) = 6.91873 7.20210 7.06184
#
# Compressibility (1/GPa) = 0.01952528
#
# Stress axis : x y z
#
# Youngs Moduli (GPa) = 92.02244 42.02574 60.11794
#
# Poissons Ratio (x) = 0.23870 0.16678
# Poissons Ratio (y) = 0.52267 0.44675
# Poissons Ratio (z) = 0.25529 0.31230
#
# Static dielectric constant tensor:
#      x y z
#    x 3.731380 0.000000 0.000000 
#    y 0.000000 3.207090 0.000000 
#    z 0.000000 0.000000 3.190760 
# 
# 
# High freq. dielectric constant tensor:
#      x y z
#    x 1.698130 0.000000 0.000000 
#    y 0.000000 1.655130 0.000000 
#    z 0.000000 0.000000 1.645640 
# 
# From -- ./inp_files/25986.got.cif
#   From: 2010.03.12/outbox.cif.g09.slc.cpg/sg62_13_cif.got.tgz:25986.got - 2010.04.10 19:12:36.
