data_PCOD8251800
_publ_section_title
;
Structure prediction by ZEFSAII (Michael W. Deem and Ramdas Pophale) SiO2 
 PCOD8251800
Probable space group: P N M A
;
_chemical_formula_sum "Si O2"
_cell_formula_units_Z 64
_cell_length_a 20.331458
_cell_length_b 17.078094
_cell_length_c 9.304676
_cell_angle_alpha 90.000000
_cell_angle_beta 90.000000
_cell_angle_gamma 90.000000
_cell_volume 3230.793336
_symmetry_space_group_name_H-M "P N M A"
_symmetry_group_IT_number 62
_symmetry_cell_setting 'orthorhombic'
loop_
_space_group_symop_operation_xyz
x,y,z
1/2-x,-y,1/2+z
1/2+x,1/2-y,1/2-z
-x,1/2+y,-z
-x,-y,-z
1/2+x,y,1/2-z
1/2-x,1/2+y,1/2+z
x,1/2-y,z
loop_
_atom_site_type_symbol
_atom_site_label
_atom_site_fract_x
_atom_site_fract_y
_atom_site_fract_z
Si Si1 0.573549 0.657158 0.654132
Si Si2 0.084633 0.843483 0.172700
Si Si3 0.308405 0.904757 0.853116
Si Si4 0.694966 0.842476 0.839368
Si Si5 0.684391 0.157043 0.834196
Si Si6 0.037849 0.340706 0.651110
Si Si7 0.550664 0.158650 0.173412
Si Si8 0.203026 0.588256 0.348030
O O1 0.574072 0.750000 0.664680
O O2 0.580194 0.628917 0.491295
O O3 0.634329 0.623344 0.745995
O O4 0.503949 0.626826 0.716113
O O5 0.091417 0.750000 0.188879
O O6 0.148224 0.884031 0.237102
O O7 0.019939 0.877703 0.252641
O O8 0.263125 0.867205 0.731608
O O9 0.383153 0.890216 0.803829
O O10 0.295042 0.995946 0.863566
O O11 0.291649 0.865129 0.005844
O O12 0.691145 0.750000 0.849730
O O13 0.688592 0.875839 0.997938
O O14 0.689739 0.250000 0.818407
O O15 0.609931 0.125160 0.811470
O O16 0.726877 0.116329 0.711434
O O17 0.040446 0.250000 0.687774
O O18 0.020954 0.355559 0.484879
O O19 0.567652 0.250000 0.195615
#
# Coordination Sequence:
#
# PCOD8251800 Si02
#       8
#     8   8   8   8   8   8   8   8
#     4   9  19  34  58  85 109 141 191 243 282 327
#     4  10  19  35  57  83 113 148 187 234 286 341
#     4  11  23  39  57  84 118 152 187 234 290 343
#     4  11  22  38  59  84 112 151 196 238 281 337
#     4  10  20  39  62  83 110 153 197 234 280 342
#     4   8  16  31  56  83 107 138 187 238 277 325
#     4   9  17  35  59  82 107 143 188 234 279 336
#     4  12  24  37  55  86 120 150 186 237 289 339
#
# _framework density 19.809377000000001
#
# number of rings (size 3 to 8) (size 9 to 14) (size 15 to 20)
#    0.000    2.000    0.000    5.250    0.000    4.000 
#    0.000   10.000    0.000    0.000    0.000    0.000 
#    0.000    0.000    0.000    0.000    0.000    0.000 
#
# Total GULP energy -793720.198839 kJ/mol
# GULP energy per Si atom -12401.878107 kJ/mol
# Density = 1.976429 g / cm^3
# Si number density = 19.809377 Si / 1000 Ang^3
#
#
#
# Elastic Constant Matrix: (Units=GPa)
#
#
# Indices 1 2 3 4 5 6 
#
# 1 88.1350 24.1052 40.6924 0.0000 0.0000 0.0000
# 2 24.1052 47.9887 21.5305 0.0000 0.0000 0.0000
# 3 40.6924 21.5305 104.2207 0.0000 0.0000 0.0000
# 4 0.0000 0.0000 0.0000 14.1928 0.0000 0.0000
# 5 0.0000 0.0000 0.0000 0.0000 47.7757 0.0000
# 6 0.0000 0.0000 0.0000 0.0000 0.0000 -29.2038
#
#
#
# Elastic Compliance Matrix: (Units=1/GPa)
#
#
# Indices 1 2 3 4 5 6 
#
# 1 0.015018 -0.005415 -0.004745 0.000000 0.000000 0.000000
# 2 -0.005415 0.024919 -0.003034 0.000000 0.000000 0.000000
# 3 -0.004745 -0.003034 0.012074 0.000000 0.000000 0.000000
# 4 0.000000 0.000000 0.000000 0.070458 0.000000 0.000000
# 5 0.000000 0.000000 0.000000 0.000000 0.020931 0.000000
# 6 0.000000 0.000000 0.000000 0.000000 0.000000 -0.034242
#
#
# Mechanical properties :
#
#
# Convention : Reuss Voigt Hill
#
# Bulk Modulus (GPa) = 39.02526 45.88897 42.45711
# Shear Modulus (GPa) = 34.70103 16.82068 25.76086
#
# Velocity S-wave (km/s) = 4.18993 2.91714 3.61007
# Velocity P-wave (km/s) = 6.56890 5.87893 6.23347
#
# Compressibility (1/GPa) = 0.02562443
#
# Stress axis : x y z
#
# Youngs Moduli (GPa) = 66.58665 40.12955 82.81950
#
# Poissons Ratio (x) = 0.21729 0.39299
# Poissons Ratio (y) = 0.36055 0.25126
# Poissons Ratio (z) = 0.31596 0.12174
#
# Static dielectric constant tensor:
#      x y z
#    x 3.921800 0.000000 0.000000 
#    y 0.000000 3.292640 0.000000 
#    z 0.000000 0.000000 3.705740 
# 
# 
# High freq. dielectric constant tensor:
#      x y z
#    x 1.788780 0.000000 0.000000 
#    y 0.000000 1.743860 0.000000 
#    z 0.000000 0.000000 1.778120 
# 
# From -- ./inp_files/8855.got.cif
#   From: 2010.03.12/outbox.cif.g09.slc.cpg/sg62_5_cif.got.tgz:8855.got - 2010.04.10 19:12:36.
