data_PCOD8251626
_publ_section_title
;
Structure prediction by ZEFSAII (Michael W. Deem and Ramdas Pophale) SiO2 
 PCOD8251626
Probable space group: P N M A
;
_chemical_formula_sum "Si O2"
_cell_formula_units_Z 64
_cell_length_a 14.748163
_cell_length_b 8.972368
_cell_length_c 24.843679
_cell_angle_alpha 90.000000
_cell_angle_beta 90.000000
_cell_angle_gamma 90.000000
_cell_volume 3287.463320
_symmetry_space_group_name_H-M "P N M A"
_symmetry_group_IT_number 62
_symmetry_cell_setting 'orthorhombic'
loop_
_space_group_symop_operation_xyz
x,y,z
1/2-x,-y,1/2+z
1/2+x,1/2-y,1/2-z
-x,1/2+y,-z
-x,-y,-z
1/2+x,y,1/2-z
1/2-x,1/2+y,1/2+z
x,1/2-y,z
loop_
_atom_site_type_symbol
_atom_site_label
_atom_site_fract_x
_atom_site_fract_y
_atom_site_fract_z
Si Si1 0.011704 0.426141 0.329323
Si Si2 0.700415 0.426037 0.444536
Si Si3 0.844223 0.572814 0.370620
Si Si4 0.983905 0.921702 0.887529
Si Si5 0.759168 0.078561 0.765162
Si Si6 0.781663 0.924431 0.658203
Si Si7 0.469044 0.422532 0.720470
Si Si8 0.168416 0.922224 0.944604
O O1 0.998121 0.250000 0.330356
O O2 0.113390 0.473706 0.345820
O O3 0.987550 0.488000 0.270059
O O4 0.945095 0.503699 0.372497
O O5 0.713578 0.250000 0.440571
O O6 0.787140 0.507777 0.419841
O O7 0.609665 0.478531 0.413687
O O8 0.693683 0.472802 0.506247
O O9 0.847549 0.750000 0.375971
O O10 0.800227 0.518363 0.314519
O O11 0.976300 0.750000 0.869780
O O12 0.062804 0.944279 0.931082
O O13 0.009637 0.017697 0.835268
O O14 0.738982 0.250000 0.754570
O O15 0.862267 0.048621 0.781403
O O16 0.733368 0.995076 0.710283
O O17 0.772619 0.750000 0.665969
O O18 0.729949 0.977544 0.605033
O O19 0.494376 0.250000 0.727631
O O20 0.188975 0.750000 0.958748
#
# Coordination Sequence:
#
# PCOD8251626 Si02
#       8
#     8   8   8   8   8   8   8   8
#     4  10  21  37  57  84 118 153 191 241 291 345
#     4  11  23  39  59  86 117 153 196 243 292 346
#     4  11  22  38  59  86 116 153 196 240 292 348
#     4  10  21  36  56  85 119 154 193 235 287 346
#     4   9  19  34  54  81 114 149 186 231 283 338
#     4   9  20  38  59  83 114 151 192 237 291 343
#     4  10  19  34  55  83 118 155 190 229 282 343
#     4  10  22  40  60  83 113 153 196 241 291 347
#
# _framework density 19.467898000000002
#
# number of rings (size 3 to 8) (size 9 to 14) (size 15 to 20)
#    0.000    2.000    1.250    1.875    1.750    3.500 
#    0.000    0.625    0.000    0.000    0.000    0.000 
#    0.000    0.000    0.000    0.000    0.000    0.000 
#
# Total GULP energy -793871.093518 kJ/mol
# GULP energy per Si atom -12404.235836 kJ/mol
# Density = 1.942359 g / cm^3
# Si number density = 19.467898 Si / 1000 Ang^3
#
#
#
# Elastic Constant Matrix: (Units=GPa)
#
#
# Indices 1 2 3 4 5 6 
#
# 1 40.0645 17.7851 22.4465 0.0000 0.0000 0.0000
# 2 17.7851 64.8066 32.1028 0.0000 0.0000 0.0000
# 3 22.4465 32.1028 90.7499 0.0000 0.0000 0.0000
# 4 0.0000 0.0000 0.0000 37.9337 0.0000 0.0000
# 5 0.0000 0.0000 0.0000 0.0000 29.2626 0.0000
# 6 0.0000 0.0000 0.0000 0.0000 0.0000 25.0752
#
#
#
# Elastic Compliance Matrix: (Units=1/GPa)
#
#
# Indices 1 2 3 4 5 6 
#
# 1 0.030582 -0.005633 -0.005572 0.000000 0.000000 0.000000
# 2 -0.005633 0.019746 -0.005592 0.000000 0.000000 0.000000
# 3 -0.005572 -0.005592 0.014376 0.000000 0.000000 0.000000
# 4 0.000000 0.000000 0.000000 0.026362 0.000000 0.000000
# 5 0.000000 0.000000 0.000000 0.000000 0.034173 0.000000
# 6 0.000000 0.000000 0.000000 0.000000 0.000000 0.039880
#
#
# Mechanical properties :
#
#
# Convention : Reuss Voigt Hill
#
# Bulk Modulus (GPa) = 32.14303 37.80998 34.97650
# Shear Modulus (GPa) = 23.91405 26.67341 25.29373
#
# Velocity S-wave (km/s) = 3.50863 3.70553 3.60843
# Velocity P-wave (km/s) = 5.74114 6.14588 5.94695
#
# Compressibility (1/GPa) = 0.03111095
#
# Stress axis : x y z
#
# Youngs Moduli (GPa) = 32.69922 50.64205 69.56215
#
# Poissons Ratio (x) = 0.28525 0.38758
# Poissons Ratio (y) = 0.18418 0.38900
# Poissons Ratio (z) = 0.18219 0.28320
#
# Static dielectric constant tensor:
#      x y z
#    x 3.689740 0.000000 0.000000 
#    y 0.000000 3.468130 0.000000 
#    z 0.000000 0.000000 3.479100 
# 
# 
# High freq. dielectric constant tensor:
#      x y z
#    x 1.762150 0.000000 0.000000 
#    y 0.000000 1.757420 0.000000 
#    z 0.000000 0.000000 1.748910 
# 
# From -- ./inp_files/29775.got.cif
#   From: 2010.03.12/outbox.cif.g09.slc.cpg/sg62_15_cif.got.tgz:29775.got - 2010.04.10 19:12:36.
