data_PCOD8251050
_publ_section_title
;
Structure prediction by ZEFSAII (Michael W. Deem and Ramdas Pophale) SiO2 
 PCOD8251050
Probable space group: P N M A
;
_chemical_formula_sum "Si O2"
_cell_formula_units_Z 64
_cell_length_a 28.347927
_cell_length_b 9.200853
_cell_length_c 12.428069
_cell_angle_alpha 90.000000
_cell_angle_beta 90.000000
_cell_angle_gamma 90.000000
_cell_volume 3241.552454
_symmetry_space_group_name_H-M "P N M A"
_symmetry_group_IT_number 62
_symmetry_cell_setting 'orthorhombic'
loop_
_space_group_symop_operation_xyz
x,y,z
1/2-x,-y,1/2+z
1/2+x,1/2-y,1/2-z
-x,1/2+y,-z
-x,-y,-z
1/2+x,y,1/2-z
1/2-x,1/2+y,1/2+z
x,1/2-y,z
loop_
_atom_site_type_symbol
_atom_site_label
_atom_site_fract_x
_atom_site_fract_y
_atom_site_fract_z
Si Si1 0.327786 0.917095 0.728450
Si Si2 0.915295 0.419561 0.445363
Si Si3 0.842261 0.913395 0.319277
Si Si4 0.576331 0.081468 0.159520
Si Si5 0.590963 0.413473 0.613711
Si Si6 0.333992 0.421105 0.512193
Si Si7 0.772065 0.415779 0.188831
Si Si8 0.020923 0.584262 0.757829
O O1 0.332840 0.750000 0.691305
O O2 0.374910 0.970548 0.787558
O O3 0.284321 0.936508 0.811403
O O4 0.317507 0.015573 0.625396
O O5 0.905463 0.250000 0.459621
O O6 0.865917 0.497140 0.415992
O O7 0.934749 0.485356 0.555651
O O8 0.954500 0.451859 0.355657
O O9 0.832010 0.750000 0.359437
O O10 0.876701 0.914804 0.218202
O O11 0.793338 0.987138 0.284771
O O12 0.578254 0.250000 0.124652
O O13 0.534753 0.054941 0.245904
O O14 0.582202 0.250000 0.571570
O O15 0.616311 0.505868 0.520786
O O16 0.540881 0.484574 0.645889
O O17 0.341960 0.250000 0.521174
O O18 0.292848 0.461466 0.427023
O O19 0.786548 0.250000 0.213464
O O20 0.031589 0.750000 0.790003
#
# Coordination Sequence:
#
# PCOD8251050 Si02
#       8
#     8   8   8   8   8   8   8   8
#     4  10  22  39  56  77 108 142 176 216 261 310
#     4  10  19  31  51  79 110 142 177 221 270 318
#     4   9  17  30  51  79 107 135 172 216 261 314
#     4  10  21  36  52  73 107 148 184 221 268 320
#     4   9  17  31  54  81 105 133 173 220 267 316
#     4  10  20  36  58  81 107 139 175 217 266 317
#     4   9  19  36  56  78 105 137 173 215 261 309
#     4   9  18  33  53  78 108 142 180 222 268 318
#
# _framework density 19.743627
#
# number of rings (size 3 to 8) (size 9 to 14) (size 15 to 20)
#    0.000    2.500    0.000    1.875    0.000    6.500 
#    0.000    1.875    0.000    0.000    0.000    0.000 
#    0.000    0.000    0.000    0.000    0.000    0.000 
#
# Total GULP energy -793739.250866 kJ/mol
# GULP energy per Si atom -12402.175795 kJ/mol
# Density = 1.969869 g / cm^3
# Si number density = 19.743627 Si / 1000 Ang^3
#
#
#
# Elastic Constant Matrix: (Units=GPa)
#
#
# Indices 1 2 3 4 5 6 
#
# 1 111.3667 36.9793 19.5311 0.0000 0.0000 0.0000
# 2 36.9793 97.1561 30.1981 0.0000 0.0000 0.0000
# 3 19.5311 30.1981 47.0782 0.0000 0.0000 0.0000
# 4 0.0000 0.0000 0.0000 30.6076 0.0000 0.0000
# 5 0.0000 0.0000 0.0000 0.0000 23.0355 0.0000
# 6 0.0000 0.0000 0.0000 0.0000 0.0000 26.3950
#
#
#
# Elastic Compliance Matrix: (Units=1/GPa)
#
#
# Indices 1 2 3 4 5 6 
#
# 1 0.010463 -0.003289 -0.002231 0.000000 0.000000 0.000000
# 2 -0.003289 0.013890 -0.007545 0.000000 0.000000 0.000000
# 3 -0.002231 -0.007545 0.027007 0.000000 0.000000 0.000000
# 4 0.000000 0.000000 0.000000 0.032672 0.000000 0.000000
# 5 0.000000 0.000000 0.000000 0.000000 0.043411 0.000000
# 6 0.000000 0.000000 0.000000 0.000000 0.000000 0.037886
#
#
# Mechanical properties :
#
#
# Convention : Reuss Voigt Hill
#
# Bulk Modulus (GPa) = 39.63670 47.66869 43.65269
# Shear Modulus (GPa) = 25.01659 27.26710 26.14185
#
# Velocity S-wave (km/s) = 3.56346 3.72029 3.64272
# Velocity P-wave (km/s) = 6.08689 6.53072 6.31271
#
# Compressibility (1/GPa) = 0.02522914
#
# Stress axis : x y z
#
# Youngs Moduli (GPa) = 95.57789 71.99597 37.02803
#
# Poissons Ratio (x) = 0.23678 0.08261
# Poissons Ratio (y) = 0.31434 0.27938
# Poissons Ratio (z) = 0.21323 0.54321
#
# Static dielectric constant tensor:
#      x y z
#    x 3.575900 0.000000 0.000000 
#    y 0.000000 3.667680 0.000000 
#    z 0.000000 0.000000 3.283140 
# 
# 
# High freq. dielectric constant tensor:
#      x y z
#    x 1.766080 0.000000 0.000000 
#    y 0.000000 1.772170 0.000000 
#    z 0.000000 0.000000 1.746500 
# 
# From -- ./inp_files/15835.got.cif
#   From: 2010.03.12/outbox.cif.g09.slc.cpg/sg62_8_cif.got.tgz:15835.got - 2010.04.10 19:12:36.
