data_PCOD8251368
_publ_section_title
;
Structure prediction by ZEFSAII (Michael W. Deem and Ramdas Pophale) SiO2 
 PCOD8251368
Probable space group: P N M A
;
_chemical_formula_sum "Si O2"
_cell_formula_units_Z 48
_cell_length_a 16.351779
_cell_length_b 9.070245
_cell_length_c 18.306870
_cell_angle_alpha 90.000000
_cell_angle_beta 90.000000
_cell_angle_gamma 90.000000
_cell_volume 2715.176865
_symmetry_space_group_name_H-M "P N M A"
_symmetry_group_IT_number 62
_symmetry_cell_setting 'orthorhombic'
loop_
_space_group_symop_operation_xyz
x,y,z
1/2-x,-y,1/2+z
1/2+x,1/2-y,1/2-z
-x,1/2+y,-z
-x,-y,-z
1/2+x,y,1/2-z
1/2-x,1/2+y,1/2+z
x,1/2-y,z
loop_
_atom_site_type_symbol
_atom_site_label
_atom_site_fract_x
_atom_site_fract_y
_atom_site_fract_z
Si Si1 0.170635 0.083989 0.838289
Si Si2 0.058078 0.415314 0.715851
Si Si3 0.003178 0.079012 0.923208
Si Si4 0.333473 0.578412 0.840668
Si Si5 0.925782 0.580908 0.798801
Si Si6 0.023965 0.918593 0.427023
O O1 0.200693 0.250000 0.854559
O O2 0.148034 0.066991 0.751622
O O3 0.090338 0.046226 0.885662
O O4 0.241981 0.972155 0.859831
O O5 0.025064 0.250000 0.738176
O O6 0.003162 0.544549 0.748436
O O7 0.054343 0.430137 0.628022
O O8 0.987644 0.250000 0.935603
O O9 0.929367 0.017738 0.871977
O O10 0.000000 0.000000 0.000000
O O11 0.343727 0.750000 0.859469
O O12 0.347894 0.548903 0.753737
O O13 0.396054 0.488516 0.890631
O O14 0.928958 0.750000 0.823503
O O15 0.044275 0.750000 0.445690
O O16 0.000000 0.000000 0.500000
#
# Coordination Sequence:
#
# PCOD8251368 Si02
#       6
#     8   8   8   8   8   8
#     4   9  18  33  52  74  99 128 165 209 254 299
#     4   8  16  31  50  71  95 126 164 202 243 294
#     4  10  20  34  53  76 102 134 170 207 251 303
#     4  10  20  33  51  76 102 130 167 209 253 301
#     4   9  17  30  49  72  97 126 163 204 242 289
#     4  10  19  33  53  75 102 136 171 209 253 302
#
# _framework density 17.678407
#
# number of rings (size 3 to 8) (size 9 to 14) (size 15 to 20)
#    0.000    2.667    0.000    3.000    0.000    6.000 
#    0.000    1.667    0.000    4.000    0.000    0.000 
#    0.000    0.000    0.000    0.000    0.000    0.000 
#
# Total GULP energy -594788.083532 kJ/mol
# GULP energy per Si atom -12391.418407 kJ/mol
# Density = 1.763817 g / cm^3
# Si number density = 17.678407 Si / 1000 Ang^3
#
#
#
# Elastic Constant Matrix: (Units=GPa)
#
#
# Indices 1 2 3 4 5 6 
#
# 1 67.1592 43.9186 35.4566 0.0000 0.0000 0.0000
# 2 43.9186 114.8606 61.5903 0.0000 0.0000 0.0000
# 3 35.4566 61.5903 122.3660 0.0000 0.0000 0.0000
# 4 0.0000 0.0000 0.0000 33.9477 0.0000 0.0000
# 5 0.0000 0.0000 0.0000 0.0000 16.4564 0.0000
# 6 0.0000 0.0000 0.0000 0.0000 0.0000 26.9728
#
#
#
# Elastic Compliance Matrix: (Units=1/GPa)
#
#
# Indices 1 2 3 4 5 6 
#
# 1 0.020500 -0.006374 -0.002732 0.000000 0.000000 0.000000
# 2 -0.006374 0.013906 -0.005153 0.000000 0.000000 0.000000
# 3 -0.002732 -0.005153 0.011557 0.000000 0.000000 0.000000
# 4 0.000000 0.000000 0.000000 0.029457 0.000000 0.000000
# 5 0.000000 0.000000 0.000000 0.000000 0.060767 0.000000
# 6 0.000000 0.000000 0.000000 0.000000 0.000000 0.037074
#
#
# Mechanical properties :
#
#
# Convention : Reuss Voigt Hill
#
# Bulk Modulus (GPa) = 57.31564 65.14631 61.23098
# Shear Modulus (GPa) = 24.08542 26.37007 25.22774
#
# Velocity S-wave (km/s) = 3.69510 3.86638 3.78171
# Velocity P-wave (km/s) = 7.12016 7.54073 7.33346
#
# Compressibility (1/GPa) = 0.01744725
#
# Stress axis : x y z
#
# Youngs Moduli (GPa) = 48.77937 71.91068 86.52544
#
# Poissons Ratio (x) = 0.45833 0.23640
# Poissons Ratio (y) = 0.31090 0.44583
# Poissons Ratio (z) = 0.13327 0.37052
#
# Static dielectric constant tensor:
#      x y z
#    x 3.055320 0.000000 0.000000 
#    y 0.000000 3.374710 0.000000 
#    z 0.000000 0.000000 3.391510 
# 
# 
# High freq. dielectric constant tensor:
#      x y z
#    x 1.648640 0.000000 0.000000 
#    y 0.000000 1.698670 0.000000 
#    z 0.000000 0.000000 1.680250 
# 
# From -- ./inp_files/24214.got.cif
#   From: 2010.03.12/outbox.cif.g09.slc.cpg/sg62_13_cif.got.tgz:24214.got - 2010.04.10 19:12:36.
