data_PCOD8251022
_publ_section_title
;
Structure prediction by ZEFSAII (Michael W. Deem and Ramdas Pophale) SiO2 
 PCOD8251022
Probable space group: P N M A
;
_chemical_formula_sum "Si O2"
_cell_formula_units_Z 64
_cell_length_a 17.461189
_cell_length_b 9.235699
_cell_length_c 20.139585
_cell_angle_alpha 90.000000
_cell_angle_beta 90.000000
_cell_angle_gamma 90.000000
_cell_volume 3247.836070
_symmetry_space_group_name_H-M "P N M A"
_symmetry_group_IT_number 62
_symmetry_cell_setting 'orthorhombic'
loop_
_space_group_symop_operation_xyz
x,y,z
1/2-x,-y,1/2+z
1/2+x,1/2-y,1/2-z
-x,1/2+y,-z
-x,-y,-z
1/2+x,y,1/2-z
1/2-x,1/2+y,1/2+z
x,1/2-y,z
loop_
_atom_site_type_symbol
_atom_site_label
_atom_site_fract_x
_atom_site_fract_y
_atom_site_fract_z
Si Si1 0.836193 0.081663 0.337632
Si Si2 0.926279 0.084170 0.796020
Si Si3 0.351736 0.421335 0.891686
Si Si4 0.986595 0.919011 0.673647
Si Si5 0.730192 0.921309 0.974807
Si Si6 0.110905 0.090826 0.972131
Si Si7 0.262335 0.413888 0.763009
Si Si8 0.997284 0.908817 0.906817
O O1 0.816864 0.250000 0.330262
O O2 0.797298 0.013884 0.404204
O O3 0.926138 0.055617 0.347472
O O4 0.804824 0.007896 0.270306
O O5 0.953868 0.250000 0.794419
O O6 0.836518 0.071641 0.783217
O O7 0.975987 0.993156 0.744431
O O8 0.941361 0.013514 0.866773
O O9 0.367544 0.250000 0.884038
O O10 0.430888 0.505436 0.879637
O O11 0.286491 0.466245 0.837354
O O12 0.325459 0.467293 0.965013
O O13 0.966038 0.750000 0.678163
O O14 0.730563 0.750000 0.967886
O O15 0.815138 0.978249 0.991933
O O16 0.132172 0.250000 0.941949
O O17 0.041364 0.112830 0.022318
O O18 0.081209 0.983223 0.914342
O O19 0.232280 0.250000 0.765918
O O20 0.007889 0.750000 0.873281
#
# Coordination Sequence:
#
# PCOD8251022 Si02
#       8
#     8   8   8   8   8   8   8   8
#     4  10  21  36  56  82 110 140 174 217 268 320
#     4  10  20  35  55  77 102 136 178 218 262 318
#     4   9  19  37  58  78 104 141 182 221 262 313
#     4  10  21  36  53  78 109 137 172 218 269 321
#     4   9  18  35  57  78 103 140 184 223 264 318
#     4   9  18  32  50  74 106 143 178 213 261 321
#     4   9  19  34  53  79 107 137 176 220 263 310
#     4  10  19  31  50  77 109 142 176 217 265 316
#
# _framework density 19.705428000000001
#
# number of rings (size 3 to 8) (size 9 to 14) (size 15 to 20)
#    0.000    2.500    0.000    2.625    0.000    6.500 
#    0.000    3.125    0.000    0.000    0.000    0.000 
#    0.000    0.000    0.000    0.000    0.000    0.000 
#
# Total GULP energy -793384.087555 kJ/mol
# GULP energy per Si atom -12396.626368 kJ/mol
# Density = 1.966058 g / cm^3
# Si number density = 19.705428 Si / 1000 Ang^3
#
#
#
# Elastic Constant Matrix: (Units=GPa)
#
#
# Indices 1 2 3 4 5 6 
#
# 1 67.1793 38.9206 9.5137 0.0000 0.0000 0.0000
# 2 38.9206 85.2237 20.6206 0.0000 0.0000 0.0000
# 3 9.5137 20.6206 53.2930 0.0000 0.0000 0.0000
# 4 0.0000 0.0000 0.0000 21.9777 0.0000 0.0000
# 5 0.0000 0.0000 0.0000 0.0000 24.7020 0.0000
# 6 0.0000 0.0000 0.0000 0.0000 0.0000 26.7349
#
#
#
# Elastic Compliance Matrix: (Units=1/GPa)
#
#
# Indices 1 2 3 4 5 6 
#
# 1 0.020241 -0.009234 -0.000040 0.000000 0.000000 0.000000
# 2 -0.009234 0.017158 -0.004991 0.000000 0.000000 0.000000
# 3 -0.000040 -0.004991 0.020702 0.000000 0.000000 0.000000
# 4 0.000000 0.000000 0.000000 0.045501 0.000000 0.000000
# 5 0.000000 0.000000 0.000000 0.000000 0.040482 0.000000
# 6 0.000000 0.000000 0.000000 0.000000 0.000000 0.037404
#
#
# Mechanical properties :
#
#
# Convention : Reuss Voigt Hill
#
# Bulk Modulus (GPa) = 33.81624 38.20065 36.00845
# Shear Modulus (GPa) = 22.74001 23.79234 23.26618
#
# Velocity S-wave (km/s) = 3.40074 3.47854 3.43986
# Velocity P-wave (km/s) = 5.71123 5.96335 5.83865
#
# Compressibility (1/GPa) = 0.02957159
#
# Stress axis : x y z
#
# Youngs Moduli (GPa) = 49.40459 58.28041 48.30351
#
# Poissons Ratio (x) = 0.53816 0.00195
# Poissons Ratio (y) = 0.45620 0.24107
# Poissons Ratio (z) = 0.00200 0.29086
#
# Static dielectric constant tensor:
#      x y z
#    x 3.473890 0.000000 0.000000 
#    y 0.000000 3.674730 0.000000 
#    z 0.000000 0.000000 3.573170 
# 
# 
# High freq. dielectric constant tensor:
#      x y z
#    x 1.764320 0.000000 0.000000 
#    y 0.000000 1.755780 0.000000 
#    z 0.000000 0.000000 1.761810 
# 
# From -- ./inp_files/27632.got.cif
#   From: 2010.03.12/outbox.cif.g09.slc.cpg/sg62_14_cif.got.tgz:27632.got - 2010.04.10 19:12:36.
