data_PCOD8251532
_publ_section_title
;
Structure prediction by ZEFSAII (Michael W. Deem and Ramdas Pophale) SiO2 
 PCOD8251532
Probable space group: P N M A
;
_chemical_formula_sum "Si O2"
_cell_formula_units_Z 40
_cell_length_a 10.408655
_cell_length_b 9.445053
_cell_length_c 20.218989
_cell_angle_alpha 90.000000
_cell_angle_beta 90.000000
_cell_angle_gamma 90.000000
_cell_volume 1987.734837
_symmetry_space_group_name_H-M "P N M A"
_symmetry_group_IT_number 62
_symmetry_cell_setting 'orthorhombic'
loop_
_space_group_symop_operation_xyz
x,y,z
1/2-x,-y,1/2+z
1/2+x,1/2-y,1/2-z
-x,1/2+y,-z
-x,-y,-z
1/2+x,y,1/2-z
1/2-x,1/2+y,1/2+z
x,1/2-y,z
loop_
_atom_site_type_symbol
_atom_site_label
_atom_site_fract_x
_atom_site_fract_y
_atom_site_fract_z
Si Si1 0.169587 0.402337 0.519236
Si Si2 0.516889 0.595613 0.904005
Si Si3 0.377798 0.412505 0.798175
Si Si4 0.419380 0.417887 0.446214
Si Si5 0.915250 0.912989 0.186155
O O1 0.209751 0.250000 0.550007
O O2 0.148022 0.507118 0.581952
O O3 0.275089 0.454317 0.467440
O O4 0.041259 0.382698 0.476675
O O5 0.549292 0.750000 0.872994
O O6 0.418134 0.512712 0.858020
O O7 0.397644 0.250000 0.820035
O O8 0.226707 0.441258 0.781973
O O9 0.471227 0.448708 0.737316
O O10 0.500000 0.500000 0.500000
O O11 0.449650 0.250000 0.444719
O O12 0.442691 0.482969 0.374389
O O13 0.924625 0.750000 0.162590
#
# Coordination Sequence:
#
# PCOD8251532 Si02
#       5
#     8   8   8   8   8
#     4   9  19  35  55  82 116 151 189 235 290 348
#     4  10  19  33  57  87 114 146 193 242 291 344
#     4  10  21  38  60  85 119 160 202 247 300 358
#     4  11  23  40  61  87 120 156 196 244 298 356
#     4  10  22  40  61  86 117 159 204 246 296 356
#
# _framework density 20.123408999999999
#
# number of rings (size 3 to 8) (size 9 to 14) (size 15 to 20)
#    0.000    2.000    2.000    1.200    0.000    4.800 
#    0.000    4.000    0.000    0.000    0.000    0.000 
#    0.000    0.000    0.000    0.000    0.000    0.000 
#
# Total GULP energy -495671.981385 kJ/mol
# GULP energy per Si atom -12391.799535 kJ/mol
# Density = 2.007761 g / cm^3
# Si number density = 20.123409 Si / 1000 Ang^3
#
#
#
# Elastic Constant Matrix: (Units=GPa)
#
#
# Indices 1 2 3 4 5 6 
#
# 1 79.9590 58.6958 61.3777 0.0000 0.0000 0.0000
# 2 58.6958 123.1978 60.2063 0.0000 0.0000 0.0000
# 3 61.3777 60.2063 80.1730 0.0000 0.0000 0.0000
# 4 0.0000 0.0000 0.0000 35.5990 0.0000 0.0000
# 5 0.0000 0.0000 0.0000 0.0000 40.8327 0.0000
# 6 0.0000 0.0000 0.0000 0.0000 0.0000 17.7931
#
#
#
# Elastic Compliance Matrix: (Units=1/GPa)
#
#
# Indices 1 2 3 4 5 6 
#
# 1 0.032328 -0.005225 -0.020825 0.000000 0.000000 0.000000
# 2 -0.005225 0.013667 -0.006264 0.000000 0.000000 0.000000
# 3 -0.020825 -0.006264 0.033120 0.000000 0.000000 0.000000
# 4 0.000000 0.000000 0.000000 0.028091 0.000000 0.000000
# 5 0.000000 0.000000 0.000000 0.000000 0.024490 0.000000
# 6 0.000000 0.000000 0.000000 0.000000 0.000000 0.056202
#
#
# Mechanical properties :
#
#
# Convention : Reuss Voigt Hill
#
# Bulk Modulus (GPa) = 69.02579 71.54327 70.28453
# Shear Modulus (GPa) = 19.42852 25.71496 22.57174
#
# Velocity S-wave (km/s) = 3.11057 3.57860 3.35276
# Velocity P-wave (km/s) = 6.87580 7.25979 7.07040
#
# Compressibility (1/GPa) = 0.01448734
#
# Stress axis : x y z
#
# Youngs Moduli (GPa) = 30.93337 73.16733 30.19337
#
# Poissons Ratio (x) = 0.38228 0.62879
# Poissons Ratio (y) = 0.16162 0.18912
# Poissons Ratio (z) = 0.64420 0.45829
#
# Static dielectric constant tensor:
#      x y z
#    x 3.650910 0.000000 0.000000 
#    y 0.000000 4.049110 0.000000 
#    z 0.000000 0.000000 3.317330 
# 
# 
# High freq. dielectric constant tensor:
#      x y z
#    x 1.782800 0.000000 0.000000 
#    y 0.000000 1.797040 0.000000 
#    z 0.000000 0.000000 1.763460 
# 
# From -- ./inp_files/22781.got.cif
#   From: 2010.03.12/outbox.cif.g09.slc.cpg/sg62_12_cif.got.tgz:22781.got - 2010.04.10 19:12:36.
