data_PCOD8251688
_publ_section_title
;
Structure prediction by ZEFSAII (Michael W. Deem and Ramdas Pophale) SiO2 
 PCOD8251688
Probable space group: P N M A
;
_chemical_formula_sum "Si O2"
_cell_formula_units_Z 48
_cell_length_a 15.273128
_cell_length_b 14.253503
_cell_length_c 10.824800
_cell_angle_alpha 90.000000
_cell_angle_beta 90.000000
_cell_angle_gamma 90.000000
_cell_volume 2356.511069
_symmetry_space_group_name_H-M "P N M A"
_symmetry_group_IT_number 62
_symmetry_cell_setting 'orthorhombic'
loop_
_space_group_symop_operation_xyz
x,y,z
1/2-x,-y,1/2+z
1/2+x,1/2-y,1/2-z
-x,1/2+y,-z
-x,-y,-z
1/2+x,y,1/2-z
1/2-x,1/2+y,1/2+z
x,1/2-y,z
loop_
_atom_site_type_symbol
_atom_site_label
_atom_site_fract_x
_atom_site_fract_y
_atom_site_fract_z
Si Si1 0.804174 0.354467 0.698079
Si Si2 0.195754 0.474436 0.629653
Si Si3 0.298818 0.852808 0.542547
Si Si4 0.581382 0.008363 0.088551
Si Si5 0.967756 0.484874 0.197748
Si Si6 0.003173 0.358984 0.989319
O O1 0.836162 0.250000 0.730191
O O2 0.766966 0.399384 0.824663
O O3 0.724479 0.355657 0.602025
O O4 0.885705 0.407150 0.635473
O O5 0.245137 0.573503 0.623065
O O6 0.158912 0.442994 0.492964
O O7 0.118083 0.487446 0.726690
O O8 0.276705 0.750000 0.597381
O O9 0.401333 0.872688 0.548022
O O10 0.543798 0.059117 0.211610
O O11 0.500000 0.000000 0.000000
O O12 0.005728 0.581190 0.136399
O O13 0.941915 0.407310 0.094519
O O14 0.978442 0.250000 0.965750
#
# Coordination Sequence:
#
# PCOD8251688 Si02
#       6
#     8   8   8   8   8   8
#     4  10  19  34  57  84 114 152 196 238 291 355
#     4  10  19  34  58  83 115 153 194 247 298 360
#     4   9  18  33  54  78 105 145 190 236 291 347
#     4   9  20  37  57  84 118 157 200 247 305 354
#     4  10  20  35  55  82 115 153 196 238 295 355
#     4  10  20  35  56  80 110 152 195 239 289 350
#
# _framework density 20.369095999999999
#
# number of rings (size 3 to 8) (size 9 to 14) (size 15 to 20)
#    0.000    2.333    1.667    1.000    0.000    1.333 
#    0.000    5.833    0.000    5.000    0.000    0.000 
#    0.000    0.000    0.000    0.000    0.000    0.000 
#
# Total GULP energy -594629.774083 kJ/mol
# GULP energy per Si atom -12388.120293 kJ/mol
# Density = 2.032274 g / cm^3
# Si number density = 20.369096 Si / 1000 Ang^3
#
#
#
# Elastic Constant Matrix: (Units=GPa)
#
#
# Indices 1 2 3 4 5 6 
#
# 1 50.9597 18.3166 31.8919 0.0000 0.0000 0.0000
# 2 18.3166 95.4486 51.5835 0.0000 0.0000 0.0000
# 3 31.8919 51.5835 111.0894 0.0000 0.0000 0.0000
# 4 0.0000 0.0000 0.0000 26.3161 0.0000 0.0000
# 5 0.0000 0.0000 0.0000 0.0000 33.0231 0.0000
# 6 0.0000 0.0000 0.0000 0.0000 0.0000 22.1988
#
#
#
# Elastic Compliance Matrix: (Units=1/GPa)
#
#
# Indices 1 2 3 4 5 6 
#
# 1 0.024020 -0.001178 -0.006349 0.000000 0.000000 0.000000
# 2 -0.001178 0.014045 -0.006183 0.000000 0.000000 0.000000
# 3 -0.006349 -0.006183 0.013695 0.000000 0.000000 0.000000
# 4 0.000000 0.000000 0.000000 0.038000 0.000000 0.000000
# 5 0.000000 0.000000 0.000000 0.000000 0.030282 0.000000
# 6 0.000000 0.000000 0.000000 0.000000 0.000000 0.045048
#
#
# Mechanical properties :
#
#
# Convention : Reuss Voigt Hill
#
# Bulk Modulus (GPa) = 41.08521 51.23128 46.15824
# Shear Modulus (GPa) = 24.92243 26.68798 25.80521
#
# Velocity S-wave (km/s) = 3.50171 3.62362 3.56319
# Velocity P-wave (km/s) = 6.04677 6.53556 6.29591
#
# Compressibility (1/GPa) = 0.02433966
#
# Stress axis : x y z
#
# Youngs Moduli (GPa) = 41.63195 71.20185 73.01718
#
# Poissons Ratio (x) = 0.08391 0.46355
# Poissons Ratio (y) = 0.04906 0.45148
# Poissons Ratio (z) = 0.26430 0.44025
#
# Static dielectric constant tensor:
#      x y z
#    x 3.742890 0.000000 0.000000 
#    y 0.000000 3.583930 0.000000 
#    z 0.000000 0.000000 4.012730 
# 
# 
# High freq. dielectric constant tensor:
#      x y z
#    x 1.796740 0.000000 0.000000 
#    y 0.000000 1.766520 0.000000 
#    z 0.000000 0.000000 1.805820 
# 
# From -- ./inp_files/13296.got.cif
#   From: 2010.03.12/outbox.cif.g09.slc.cpg/sg62_7_cif.got.tgz:13296.got - 2010.04.10 19:12:36.
