data_PCOD8251432
_publ_section_title
;
Structure prediction by ZEFSAII (Michael W. Deem and Ramdas Pophale) SiO2 
 PCOD8251432
Probable space group: P N M A
;
_chemical_formula_sum "Si O2"
_cell_formula_units_Z 48
_cell_length_a 15.009683
_cell_length_b 9.063281
_cell_length_c 19.116643
_cell_angle_alpha 90.000000
_cell_angle_beta 90.000000
_cell_angle_gamma 90.000000
_cell_volume 2600.570281
_symmetry_space_group_name_H-M "P N M A"
_symmetry_group_IT_number 62
_symmetry_cell_setting 'orthorhombic'
loop_
_space_group_symop_operation_xyz
x,y,z
1/2-x,-y,1/2+z
1/2+x,1/2-y,1/2-z
-x,1/2+y,-z
-x,-y,-z
1/2+x,y,1/2-z
1/2-x,1/2+y,1/2+z
x,1/2-y,z
loop_
_atom_site_type_symbol
_atom_site_label
_atom_site_fract_x
_atom_site_fract_y
_atom_site_fract_z
Si Si1 0.021311 0.921500 0.072416
Si Si2 0.618169 0.574702 0.667470
Si Si3 0.222128 0.424040 0.427757
Si Si4 0.728020 0.579606 0.420150
Si Si5 0.366863 0.076190 0.172916
Si Si6 0.523122 0.423702 0.072076
O O1 0.996634 0.750000 0.065042
O O2 0.123895 0.943425 0.091953
O O3 0.966882 0.995744 0.134694
O O4 0.000000 0.000000 0.000000
O O5 0.606274 0.750000 0.659954
O O6 0.707122 0.515945 0.628568
O O7 0.624135 0.523951 0.747484
O O8 0.232992 0.250000 0.431689
O O9 0.243884 0.488626 0.504642
O O10 0.122746 0.470340 0.404330
O O11 0.755648 0.750000 0.416326
O O12 0.778746 0.494811 0.359067
O O13 0.355356 0.250000 0.168155
O O14 0.455006 0.022904 0.131666
O O15 0.517180 0.250000 0.059751
O O16 0.500000 0.500000 0.000000
#
# Coordination Sequence:
#
# PCOD8251432 Si02
#       6
#     8   8   8   8   8   8
#     4  11  22  37  59  86 113 149 195 239 283 338
#     4  10  21  39  58  82 117 150 183 232 290 340
#     4   9  17  33  56  77 105 148 185 220 274 335
#     4  10  20  36  58  81 109 150 190 226 277 338
#     4  10  22  36  56  87 117 144 184 236 284 334
#     4  10  19  33  54  81 107 141 185 226 273 331
#
# _framework density 18.45749
#
# number of rings (size 3 to 8) (size 9 to 14) (size 15 to 20)
#    0.000    2.000    3.333    0.500    0.000    3.333 
#    0.000    4.167    0.000    0.000    0.000    0.000 
#    0.000    0.000    0.000    0.000    0.000    0.000 
#
# Total GULP energy -595284.815395 kJ/mol
# GULP energy per Si atom -12401.766987 kJ/mol
# Density = 1.841548 g / cm^3
# Si number density = 18.457490 Si / 1000 Ang^3
#
#
#
# Elastic Constant Matrix: (Units=GPa)
#
#
# Indices 1 2 3 4 5 6 
#
# 1 128.8365 38.2689 80.0688 0.0000 0.0000 0.0000
# 2 38.2689 40.1310 46.6019 0.0000 0.0000 0.0000
# 3 80.0688 46.6019 172.7220 0.0000 0.0000 0.0000
# 4 0.0000 0.0000 0.0000 28.0499 0.0000 0.0000
# 5 0.0000 0.0000 0.0000 0.0000 37.8317 0.0000
# 6 0.0000 0.0000 0.0000 0.0000 0.0000 29.4545
#
#
#
# Elastic Compliance Matrix: (Units=1/GPa)
#
#
# Indices 1 2 3 4 5 6 
#
# 1 0.012249 -0.007408 -0.003680 0.000000 0.000000 0.000000
# 2 -0.007408 0.040768 -0.007566 0.000000 0.000000 0.000000
# 3 -0.003680 -0.007566 0.009537 0.000000 0.000000 0.000000
# 4 0.000000 0.000000 0.000000 0.035651 0.000000 0.000000
# 5 0.000000 0.000000 0.000000 0.000000 0.026433 0.000000
# 6 0.000000 0.000000 0.000000 0.000000 0.000000 0.033951
#
#
# Mechanical properties :
#
#
# Convention : Reuss Voigt Hill
#
# Bulk Modulus (GPa) = 39.60750 74.61874 57.11312
# Shear Modulus (GPa) = 24.47276 30.85054 27.66165
#
# Velocity S-wave (km/s) = 3.64524 4.09276 3.87546
# Velocity P-wave (km/s) = 6.26278 7.92776 7.14394
#
# Compressibility (1/GPa) = 0.02524774
#
# Stress axis : x y z
#
# Youngs Moduli (GPa) = 81.64026 24.52923 104.85891
#
# Poissons Ratio (x) = 0.18170 0.38583
# Poissons Ratio (y) = 0.60476 0.79331
# Poissons Ratio (z) = 0.30040 0.18558
#
# Static dielectric constant tensor:
#      x y z
#    x 3.771400 0.000000 0.000000 
#    y 0.000000 3.303800 0.000000 
#    z 0.000000 0.000000 3.554370 
# 
# 
# High freq. dielectric constant tensor:
#      x y z
#    x 1.732590 0.000000 0.000000 
#    y 0.000000 1.693870 0.000000 
#    z 0.000000 0.000000 1.716080 
# 
# From -- ./inp_files/23665.got.cif
#   From: 2010.03.12/outbox.cif.g09.slc.cpg/sg62_12_cif.got.tgz:23665.got - 2010.04.10 19:12:36.
