data_PCOD8251899
_publ_section_title
;
Structure prediction by ZEFSAII (Michael W. Deem and Ramdas Pophale) SiO2 
 PCOD8251899
Probable space group: P N M A
;
_chemical_formula_sum "Si O2"
_cell_formula_units_Z 64
_cell_length_a 14.197433
_cell_length_b 12.743388
_cell_length_c 17.259654
_cell_angle_alpha 90.000000
_cell_angle_beta 90.000000
_cell_angle_gamma 90.000000
_cell_volume 3122.675238
_symmetry_space_group_name_H-M "P N M A"
_symmetry_group_IT_number 62
_symmetry_cell_setting 'orthorhombic'
loop_
_space_group_symop_operation_xyz
x,y,z
1/2-x,-y,1/2+z
1/2+x,1/2-y,1/2-z
-x,1/2+y,-z
-x,-y,-z
1/2+x,y,1/2-z
1/2-x,1/2+y,1/2+z
x,1/2-y,z
loop_
_atom_site_type_symbol
_atom_site_label
_atom_site_fract_x
_atom_site_fract_y
_atom_site_fract_z
Si Si1 0.066176 0.864174 0.146184
Si Si2 0.797256 0.129932 0.285466
Si Si3 0.127204 0.996439 0.568354
Si Si4 0.548198 0.972038 0.579588
Si Si5 0.001766 0.862460 0.779732
Si Si6 0.361913 0.012122 0.783113
Si Si7 0.794369 0.369008 0.997710
Si Si8 0.057951 0.876402 0.423185
O O1 0.032280 0.750000 0.170131
O O2 0.966387 0.925088 0.134048
O O3 0.133883 0.905678 0.213381
O O4 0.129605 0.864821 0.070060
O O5 0.762890 0.250000 0.304821
O O6 0.819036 0.065811 0.363946
O O7 0.887563 0.136343 0.232191
O O8 0.724260 0.066682 0.231583
O O9 0.086798 0.908316 0.510076
O O10 0.199543 0.072375 0.524468
O O11 0.043444 0.072539 0.598168
O O12 0.500000 0.000000 0.500000
O O13 0.486822 0.886351 0.628282
O O14 0.655642 0.934173 0.567779
O O15 0.956411 0.750000 0.762236
O O16 0.956224 0.942422 0.719603
O O17 0.363294 0.074992 0.864380
O O18 0.769980 0.250000 0.024448
O O19 0.053555 0.750000 0.415891
#
# Coordination Sequence:
#
# PCOD8251899 Si02
#       8
#     8   8   8   8   8   8   8   8
#     4   9  18  34  58  84 121 163 200 247 305 368
#     4  11  23  41  65  94 127 165 212 263 317 374
#     4  11  23  44  66  91 127 164 214 266 313 383
#     4   9  19  34  55  87 125 159 198 249 304 374
#     4  10  21  38  61  90 124 165 207 262 318 371
#     4  11  21  40  63  93 126 163 213 261 314 382
#     4  10  19  35  60  88 118 159 204 250 307 371
#     4  11  25  44  66  92 125 169 212 265 325 377
#
# _framework density 20.495246000000002
#
# number of rings (size 3 to 8) (size 9 to 14) (size 15 to 20)
#    0.000    1.750    2.500    1.875    1.750    0.500 
#    0.000    2.500    0.000    0.000    0.000    0.000 
#    0.000    0.000    0.000    0.000    0.000    0.000 
#
# Total GULP energy -792859.025029 kJ/mol
# GULP energy per Si atom -12388.422266 kJ/mol
# Density = 2.044860 g / cm^3
# Si number density = 20.495246 Si / 1000 Ang^3
#
#
#
# Elastic Constant Matrix: (Units=GPa)
#
#
# Indices 1 2 3 4 5 6 
#
# 1 74.6576 48.8488 12.2705 0.0000 0.0000 0.0000
# 2 48.8488 158.1181 30.6689 0.0000 0.0000 0.0000
# 3 12.2705 30.6689 61.5869 0.0000 0.0000 0.0000
# 4 0.0000 0.0000 0.0000 25.5594 0.0000 0.0000
# 5 0.0000 0.0000 0.0000 0.0000 32.7184 0.0000
# 6 0.0000 0.0000 0.0000 0.0000 0.0000 29.9631
#
#
#
# Elastic Compliance Matrix: (Units=1/GPa)
#
#
# Indices 1 2 3 4 5 6 
#
# 1 0.016828 -0.005035 -0.000846 0.000000 0.000000 0.000000
# 2 -0.005035 0.008507 -0.003233 0.000000 0.000000 0.000000
# 3 -0.000846 -0.003233 0.018016 0.000000 0.000000 0.000000
# 4 0.000000 0.000000 0.000000 0.039125 0.000000 0.000000
# 5 0.000000 0.000000 0.000000 0.000000 0.030564 0.000000
# 6 0.000000 0.000000 0.000000 0.000000 0.000000 0.033374
#
#
# Mechanical properties :
#
#
# Convention : Reuss Voigt Hill
#
# Bulk Modulus (GPa) = 39.80340 53.10436 46.45388
# Shear Modulus (GPa) = 28.89932 31.15314 30.02623
#
# Velocity S-wave (km/s) = 3.75914 3.90297 3.83173
# Velocity P-wave (km/s) = 6.18906 6.80277 6.50316
#
# Compressibility (1/GPa) = 0.02512348
#
# Stress axis : x y z
#
# Youngs Moduli (GPa) = 59.42583 117.55144 55.50708
#
# Poissons Ratio (x) = 0.59184 0.04693
# Poissons Ratio (y) = 0.29919 0.17946
# Poissons Ratio (z) = 0.05025 0.38006
#
# Static dielectric constant tensor:
#      x y z
#    x 3.608920 0.000000 0.000000 
#    y 0.000000 4.141110 0.000000 
#    z 0.000000 0.000000 3.700040 
# 
# 
# High freq. dielectric constant tensor:
#      x y z
#    x 1.784980 0.000000 0.000000 
#    y 0.000000 1.814420 0.000000 
#    z 0.000000 0.000000 1.802110 
# 
# From -- ./inp_files/24049.got.cif
#   From: 2010.03.12/outbox.cif.g09.slc.cpg/sg62_13_cif.got.tgz:24049.got - 2010.04.10 19:12:36.
