data_PCOD8251446
_publ_section_title
;
Structure prediction by ZEFSAII (Michael W. Deem and Ramdas Pophale) SiO2 
 PCOD8251446
Probable space group: P N M A
;
_chemical_formula_sum "Si O2"
_cell_formula_units_Z 48
_cell_length_a 12.312431
_cell_length_b 9.273739
_cell_length_c 21.509421
_cell_angle_alpha 90.000000
_cell_angle_beta 90.000000
_cell_angle_gamma 90.000000
_cell_volume 2455.994549
_symmetry_space_group_name_H-M "P N M A"
_symmetry_group_IT_number 62
_symmetry_cell_setting 'orthorhombic'
loop_
_space_group_symop_operation_xyz
x,y,z
1/2-x,-y,1/2+z
1/2+x,1/2-y,1/2-z
-x,1/2+y,-z
-x,-y,-z
1/2+x,y,1/2-z
1/2-x,1/2+y,1/2+z
x,1/2-y,z
loop_
_atom_site_type_symbol
_atom_site_label
_atom_site_fract_x
_atom_site_fract_y
_atom_site_fract_z
Si Si1 0.074908 0.083445 0.194594
Si Si2 0.344025 0.915759 0.828804
Si Si3 0.109037 0.085155 0.991479
Si Si4 0.510505 0.578570 0.934284
Si Si5 0.255895 0.079872 0.101446
Si Si6 0.634856 0.415763 0.650199
O O1 0.053073 0.250000 0.177076
O O2 0.081207 0.062822 0.268349
O O3 0.186992 0.029150 0.161763
O O4 0.976577 0.989928 0.169286
O O5 0.307982 0.750000 0.835399
O O6 0.411336 0.965851 0.889321
O O7 0.237050 0.009704 0.817319
O O8 0.082403 0.250000 0.007373
O O9 0.155674 0.066893 0.922871
O O10 0.197791 0.022021 0.038985
O O11 0.000000 0.000000 0.000000
O O12 0.513134 0.750000 0.945679
O O13 0.620296 0.522958 0.899567
O O14 0.500000 0.500000 0.000000
O O15 0.261364 0.250000 0.100714
O O16 0.629331 0.250000 0.670888
#
# Coordination Sequence:
#
# PCOD8251446 Si02
#       6
#     8   8   8   8   8   8
#     4  10  21  38  62  88 115 154 201 246 289 343
#     4  10  23  39  62  89 115 154 204 248 285 347
#     4  10  19  33  54  83 115 151 189 232 285 341
#     4  10  21  39  61  88 118 152 197 245 298 353
#     4   9  18  34  58  84 115 151 189 238 291 341
#     4  11  23  38  59  87 123 156 188 239 299 355
#
# _framework density 19.544018000000001
#
# number of rings (size 3 to 8) (size 9 to 14) (size 15 to 20)
#    0.000    2.000    1.667    1.500    2.333    3.333 
#    0.000    1.667    0.000    0.000    0.000    0.000 
#    0.000    0.000    0.000    0.000    0.000    0.000 
#
# Total GULP energy -595175.129698 kJ/mol
# GULP energy per Si atom -12399.481869 kJ/mol
# Density = 1.949953 g / cm^3
# Si number density = 19.544018 Si / 1000 Ang^3
#
#
#
# Elastic Constant Matrix: (Units=GPa)
#
#
# Indices 1 2 3 4 5 6 
#
# 1 129.2943 45.4634 34.2841 0.0000 0.0000 0.0000
# 2 45.4634 65.9589 34.0192 0.0000 0.0000 0.0000
# 3 34.2841 34.0192 101.4336 0.0000 0.0000 0.0000
# 4 0.0000 0.0000 0.0000 27.5330 0.0000 0.0000
# 5 0.0000 0.0000 0.0000 0.0000 25.8890 0.0000
# 6 0.0000 0.0000 0.0000 0.0000 0.0000 29.0895
#
#
#
# Elastic Compliance Matrix: (Units=1/GPa)
#
#
# Indices 1 2 3 4 5 6 
#
# 1 0.010356 -0.006448 -0.001338 0.000000 0.000000 0.000000
# 2 -0.006448 0.022347 -0.005315 0.000000 0.000000 0.000000
# 3 -0.001338 -0.005315 0.012093 0.000000 0.000000 0.000000
# 4 0.000000 0.000000 0.000000 0.036320 0.000000 0.000000
# 5 0.000000 0.000000 0.000000 0.000000 0.038626 0.000000
# 6 0.000000 0.000000 0.000000 0.000000 0.000000 0.034377
#
#
# Mechanical properties :
#
#
# Convention : Reuss Voigt Hill
#
# Bulk Modulus (GPa) = 53.78056 58.24669 56.01363
# Shear Modulus (GPa) = 26.80662 28.69699 27.75180
#
# Velocity S-wave (km/s) = 3.70753 3.83603 3.77233
# Velocity P-wave (km/s) = 6.77533 7.03475 6.90626
#
# Compressibility (1/GPa) = 0.01859408
#
# Stress axis : x y z
#
# Youngs Moduli (GPa) = 96.55817 44.74857 82.68913
#
# Poissons Ratio (x) = 0.28856 0.11062
# Poissons Ratio (y) = 0.62265 0.43952
# Poissons Ratio (z) = 0.12917 0.23785
#
# Static dielectric constant tensor:
#      x y z
#    x 3.710270 0.000000 0.000000 
#    y 0.000000 3.316910 0.000000 
#    z 0.000000 0.000000 3.674600 
# 
# 
# High freq. dielectric constant tensor:
#      x y z
#    x 1.770430 0.000000 0.000000 
#    y 0.000000 1.735320 0.000000 
#    z 0.000000 0.000000 1.769650 
# 
# From -- ./inp_files/29240.got.cif
#   From: 2010.03.12/outbox.cif.g09.slc.cpg/sg62_15_cif.got.tgz:29240.got - 2010.04.10 19:12:36.
