data_PCOD8251675
_publ_section_title
;
Structure prediction by ZEFSAII (Michael W. Deem and Ramdas Pophale) SiO2 
 PCOD8251675
Probable space group: P N M A
;
_chemical_formula_sum "Si O2"
_cell_formula_units_Z 64
_cell_length_a 32.665880
_cell_length_b 9.403094
_cell_length_c 10.356888
_cell_angle_alpha 90.000000
_cell_angle_beta 90.000000
_cell_angle_gamma 90.000000
_cell_volume 3181.225242
_symmetry_space_group_name_H-M "P N M A"
_symmetry_group_IT_number 62
_symmetry_cell_setting 'orthorhombic'
loop_
_space_group_symop_operation_xyz
x,y,z
1/2-x,-y,1/2+z
1/2+x,1/2-y,1/2-z
-x,1/2+y,-z
-x,-y,-z
1/2+x,y,1/2-z
1/2-x,1/2+y,1/2+z
x,1/2-y,z
loop_
_atom_site_type_symbol
_atom_site_label
_atom_site_fract_x
_atom_site_fract_y
_atom_site_fract_z
Si Si1 0.777538 0.415333 0.593965
Si Si2 0.134956 0.095034 0.787442
Si Si3 0.986048 0.085105 0.314888
Si Si4 0.370379 0.408555 0.876847
Si Si5 0.719657 0.418412 0.830310
Si Si6 0.574526 0.913124 0.578270
Si Si7 0.423273 0.905606 0.056275
Si Si8 0.943312 0.088717 0.798147
O O1 0.770365 0.250000 0.561715
O O2 0.823141 0.445325 0.646596
O O3 0.748780 0.464871 0.711905
O O4 0.767944 0.502419 0.462894
O O5 0.146830 0.250000 0.846135
O O6 0.174076 0.032089 0.711744
O O7 0.096223 0.114289 0.695590
O O8 0.118039 0.991547 0.898565
O O9 0.990638 0.250000 0.351312
O O10 0.963692 0.004217 0.433713
O O11 0.959612 0.062863 0.186248
O O12 0.030612 0.015955 0.293436
O O13 0.374594 0.250000 0.937607
O O14 0.395783 0.416705 0.743970
O O15 0.388231 0.523531 0.972728
O O16 0.721894 0.250000 0.856893
O O17 0.586997 0.750000 0.565109
O O18 0.554722 0.967481 0.444626
O O19 0.435615 0.750000 0.000561
O O20 0.960718 0.250000 0.786325
#
# Coordination Sequence:
#
# PCOD8251675 Si02
#       8
#     8   8   8   8   8   8   8   8
#     4  10  22  39  61  88 119 155 194 240 295 351
#     4   9  18  33  55  81 108 141 180 223 272 329
#     4  10  20  34  54  81 109 141 185 235 279 331
#     4  10  21  37  56  78 108 145 184 229 278 331
#     4  10  21  39  61  89 122 153 193 243 292 351
#     4   9  19  34  54  80 110 144 184 229 276 335
#     4  10  19  34  57  80 105 143 184 225 276 328
#     4  10  21  36  52  75 110 147 184 230 282 334
#
# _framework density 20.118034999999999
#
# number of rings (size 3 to 8) (size 9 to 14) (size 15 to 20)
#    0.000    2.250    1.250    1.125    0.000    4.500 
#    0.000    1.250    0.000    0.000    0.000    0.000 
#    0.000    0.000    0.000    0.000    0.000    0.000 
#
# Total GULP energy -793409.507438 kJ/mol
# GULP energy per Si atom -12397.023554 kJ/mol
# Density = 2.007225 g / cm^3
# Si number density = 20.118035 Si / 1000 Ang^3
#
#
#
# Elastic Constant Matrix: (Units=GPa)
#
#
# Indices 1 2 3 4 5 6 
#
# 1 106.2923 38.7800 33.4597 0.0000 0.0000 0.0000
# 2 38.7800 88.5859 30.0068 0.0000 0.0000 0.0000
# 3 33.4597 30.0068 45.3272 0.0000 0.0000 0.0000
# 4 0.0000 0.0000 0.0000 22.8895 0.0000 0.0000
# 5 0.0000 0.0000 0.0000 0.0000 31.2247 0.0000
# 6 0.0000 0.0000 0.0000 0.0000 0.0000 28.9790
#
#
#
# Elastic Compliance Matrix: (Units=1/GPa)
#
#
# Indices 1 2 3 4 5 6 
#
# 1 0.012892 -0.003120 -0.007451 0.000000 0.000000 0.000000
# 2 -0.003120 0.015306 -0.007830 0.000000 0.000000 0.000000
# 3 -0.007451 -0.007830 0.032746 0.000000 0.000000 0.000000
# 4 0.000000 0.000000 0.000000 0.043688 0.000000 0.000000
# 5 0.000000 0.000000 0.000000 0.000000 0.032026 0.000000
# 6 0.000000 0.000000 0.000000 0.000000 0.000000 0.034508
#
#
# Mechanical properties :
#
#
# Convention : Reuss Voigt Hill
#
# Bulk Modulus (GPa) = 41.42155 49.41093 45.41624
# Shear Modulus (GPa) = 23.14655 25.81591 24.48123
#
# Velocity S-wave (km/s) = 3.39564 3.58610 3.49217
# Velocity P-wave (km/s) = 6.00065 6.46224 6.23572
#
# Compressibility (1/GPa) = 0.02414202
#
# Stress axis : x y z
#
# Youngs Moduli (GPa) = 77.56889 65.33203 30.53836
#
# Poissons Ratio (x) = 0.20381 0.22755
# Poissons Ratio (y) = 0.24199 0.23912
# Poissons Ratio (z) = 0.57799 0.51155
#
# Static dielectric constant tensor:
#      x y z
#    x 3.639590 0.000000 0.000000 
#    y 0.000000 3.820580 0.000000 
#    z 0.000000 0.000000 3.573730 
# 
# 
# High freq. dielectric constant tensor:
#      x y z
#    x 1.785790 0.000000 0.000000 
#    y 0.000000 1.784210 0.000000 
#    z 0.000000 0.000000 1.776750 
# 
# From -- ./inp_files/15818.got.cif
#   From: 2010.03.12/outbox.cif.g09.slc.cpg/sg62_8_cif.got.tgz:15818.got - 2010.04.10 19:12:36.
