data_PCOD8251030
_publ_section_title
;
Structure prediction by ZEFSAII (Michael W. Deem and Ramdas Pophale) SiO2 
 PCOD8251030
Probable space group: P N M A
;
_chemical_formula_sum "Si O2"
_cell_formula_units_Z 64
_cell_length_a 16.916554
_cell_length_b 9.105926
_cell_length_c 21.695462
_cell_angle_alpha 90.000000
_cell_angle_beta 90.000000
_cell_angle_gamma 90.000000
_cell_volume 3341.988252
_symmetry_space_group_name_H-M "P N M A"
_symmetry_group_IT_number 62
_symmetry_cell_setting 'orthorhombic'
loop_
_space_group_symop_operation_xyz
x,y,z
1/2-x,-y,1/2+z
1/2+x,1/2-y,1/2-z
-x,1/2+y,-z
-x,-y,-z
1/2+x,y,1/2-z
1/2-x,1/2+y,1/2+z
x,1/2-y,z
loop_
_atom_site_type_symbol
_atom_site_label
_atom_site_fract_x
_atom_site_fract_y
_atom_site_fract_z
Si Si1 0.697352 0.076860 0.128171
Si Si2 0.957459 0.577897 0.686850
Si Si3 0.218910 0.085107 0.095112
Si Si4 0.817046 0.423811 0.026671
Si Si5 0.060394 0.418385 0.892147
Si Si6 0.427481 0.580182 0.675474
Si Si7 0.865768 0.417836 0.326902
Si Si8 0.188651 0.083838 0.788728
O O1 0.701879 0.250000 0.128125
O O2 0.606959 0.019776 0.136636
O O3 0.740886 0.018894 0.066359
O O4 0.742003 0.020312 0.188357
O O5 0.944929 0.750000 0.693844
O O6 0.942388 0.512973 0.755916
O O7 0.043270 0.538940 0.659084
O O8 0.205469 0.250000 0.069328
O O9 0.164264 0.060643 0.155727
O O10 0.311117 0.064618 0.112905
O O11 0.197218 0.967877 0.043430
O O12 0.827644 0.250000 0.031558
O O13 0.897022 0.499127 0.051243
O O14 0.045921 0.250000 0.911595
O O15 0.112474 0.432214 0.831270
O O16 0.977495 0.494181 0.876281
O O17 0.453749 0.750000 0.673702
O O18 0.861668 0.250000 0.301707
O O19 0.834494 0.533672 0.278550
O O20 0.219785 0.250000 0.786933
#
# Coordination Sequence:
#
# PCOD8251030 Si02
#       8
#     8   8   8   8   8   8   8   8
#     4   9  18  34  56  79 103 138 185 227 263 315
#     4   9  17  32  57  85 108 133 175 225 266 316
#     4  10  22  37  54  78 108 143 183 225 269 317
#     4  10  21  37  57  77 104 145 189 226 265 315
#     4  10  20  34  54  80 110 141 173 218 267 317
#     4  10  19  33  54  81 110 139 174 217 267 324
#     4  10  19  34  57  79 105 142 178 218 268 323
#     4  10  19  31  50  79 111 140 170 212 271 325
#
# _framework density 19.150276999999999
#
# number of rings (size 3 to 8) (size 9 to 14) (size 15 to 20)
#    0.000    2.250    1.250    1.875    0.000    5.000 
#    0.000    3.125    0.000    0.000    0.000    0.000 
#    0.000    0.000    0.000    0.000    0.000    0.000 
#
# Total GULP energy -793412.617668 kJ/mol
# GULP energy per Si atom -12397.072151 kJ/mol
# Density = 1.910669 g / cm^3
# Si number density = 19.150277 Si / 1000 Ang^3
#
#
#
# Elastic Constant Matrix: (Units=GPa)
#
#
# Indices 1 2 3 4 5 6 
#
# 1 114.5601 18.7254 23.2536 0.0000 0.0000 0.0000
# 2 18.7254 32.0834 19.0858 0.0000 0.0000 0.0000
# 3 23.2536 19.0858 49.5583 0.0000 0.0000 0.0000
# 4 0.0000 0.0000 0.0000 26.6300 0.0000 0.0000
# 5 0.0000 0.0000 0.0000 0.0000 21.0321 0.0000
# 6 0.0000 0.0000 0.0000 0.0000 0.0000 15.3534
#
#
#
# Elastic Compliance Matrix: (Units=1/GPa)
#
#
# Indices 1 2 3 4 5 6 
#
# 1 0.010021 -0.003959 -0.003178 0.000000 0.000000 0.000000
# 2 -0.003959 0.041995 -0.014316 0.000000 0.000000 0.000000
# 3 -0.003178 -0.014316 0.027182 0.000000 0.000000 0.000000
# 4 0.000000 0.000000 0.000000 0.037552 0.000000 0.000000
# 5 0.000000 0.000000 0.000000 0.000000 0.047546 0.000000
# 6 0.000000 0.000000 0.000000 0.000000 0.000000 0.065132
#
#
# Mechanical properties :
#
#
# Convention : Reuss Voigt Hill
#
# Bulk Modulus (GPa) = 27.55186 35.37016 31.46101
# Shear Modulus (GPa) = 17.57896 21.61223 19.59560
#
# Velocity S-wave (km/s) = 3.03305 3.36305 3.20230
# Velocity P-wave (km/s) = 5.16568 5.79569 5.48973
#
# Compressibility (1/GPa) = 0.03629519
#
# Stress axis : x y z
#
# Youngs Moduli (GPa) = 99.78974 23.81223 36.78844
#
# Poissons Ratio (x) = 0.09426 0.11690
# Poissons Ratio (y) = 0.39502 0.52665
# Poissons Ratio (z) = 0.31709 0.34089
#
# Static dielectric constant tensor:
#      x y z
#    x 3.844460 0.000000 0.000000 
#    y 0.000000 3.347460 0.000000 
#    z 0.000000 0.000000 3.284370 
# 
# 
# High freq. dielectric constant tensor:
#      x y z
#    x 1.752110 0.000000 0.000000 
#    y 0.000000 1.728920 0.000000 
#    z 0.000000 0.000000 1.722060 
# 
# From -- ./inp_files/29813.got.cif
#   From: 2010.03.12/outbox.cif.g09.slc.cpg/sg62_15_cif.got.tgz:29813.got - 2010.04.10 19:12:36.
