data_PCOD8251390
_publ_section_title
;
Structure prediction by ZEFSAII (Michael W. Deem and Ramdas Pophale) SiO2 
 PCOD8251390
Probable space group: P N M A
;
_chemical_formula_sum "Si O2"
_cell_formula_units_Z 48
_cell_length_a 8.902649
_cell_length_b 16.172830
_cell_length_c 18.320277
_cell_angle_alpha 90.000000
_cell_angle_beta 90.000000
_cell_angle_gamma 90.000000
_cell_volume 2637.772331
_symmetry_space_group_name_H-M "P N M A"
_symmetry_group_IT_number 62
_symmetry_cell_setting 'orthorhombic'
loop_
_space_group_symop_operation_xyz
x,y,z
1/2-x,-y,1/2+z
1/2+x,1/2-y,1/2-z
-x,1/2+y,-z
-x,-y,-z
1/2+x,y,1/2-z
1/2-x,1/2+y,1/2+z
x,1/2-y,z
loop_
_atom_site_type_symbol
_atom_site_label
_atom_site_fract_x
_atom_site_fract_y
_atom_site_fract_z
Si Si1 0.076775 0.497191 0.577738
Si Si2 0.581842 0.583961 0.291723
Si Si3 0.389046 0.924590 0.798118
Si Si4 0.929424 0.346529 0.170895
Si Si5 0.115939 0.156847 0.671480
Si Si6 0.429080 0.523382 0.576335
O O1 0.060517 0.403696 0.607553
O O2 0.249269 0.524259 0.572118
O O3 0.000000 0.500000 0.500000
O O4 0.993403 0.560003 0.631772
O O5 0.652790 0.510095 0.242830
O O6 0.707284 0.648787 0.315995
O O7 0.457016 0.634519 0.248959
O O8 0.510696 0.543013 0.364233
O O9 0.237569 0.881987 0.823794
O O10 0.479764 0.863842 0.744924
O O11 0.921618 0.250000 0.155771
O O12 0.013253 0.386656 0.101256
O O13 0.075362 0.250000 0.648159
O O14 0.500000 0.500000 0.500000
#
# Coordination Sequence:
#
# PCOD8251390 Si02
#       6
#     8   8   8   8   8   8
#     4  10  21  37  56  77 107 148 184 215 265 332
#     4   9  18  33  54  76 103 139 172 206 260 321
#     4  10  19  35  56  78 108 144 180 217 270 333
#     4  11  21  35  56  84 109 137 180 233 276 317
#     4  10  19  33  53  80 105 130 170 221 261 303
#     4  10  20  37  57  77 107 146 182 218 267 332
#
# _framework density 18.197174
#
# number of rings (size 3 to 8) (size 9 to 14) (size 15 to 20)
#    0.000    2.000    0.000    7.000    0.000    1.333 
#    0.000   10.833    0.000    0.000    0.000    0.000 
#    0.000    0.000    0.000    0.000    0.000    0.000 
#
# Total GULP energy -595273.163201 kJ/mol
# GULP energy per Si atom -12401.524233 kJ/mol
# Density = 1.815576 g / cm^3
# Si number density = 18.197174 Si / 1000 Ang^3
#
#
#
# Elastic Constant Matrix: (Units=GPa)
#
#
# Indices 1 2 3 4 5 6 
#
# 1 103.3892 52.8582 54.1585 0.0000 0.0000 0.0000
# 2 52.8582 131.5785 53.7191 0.0000 0.0000 0.0000
# 3 54.1585 53.7191 143.2908 0.0000 0.0000 0.0000
# 4 0.0000 0.0000 0.0000 15.7496 0.0000 0.0000
# 5 0.0000 0.0000 0.0000 0.0000 34.2034 0.0000
# 6 0.0000 0.0000 0.0000 0.0000 0.0000 23.0685
#
#
#
# Elastic Compliance Matrix: (Units=1/GPa)
#
#
# Indices 1 2 3 4 5 6 
#
# 1 0.013622 -0.003979 -0.003657 0.000000 0.000000 0.000000
# 2 -0.003979 0.010136 -0.002296 0.000000 0.000000 0.000000
# 3 -0.003657 -0.002296 0.009222 0.000000 0.000000 0.000000
# 4 0.000000 0.000000 0.000000 0.063494 0.000000 0.000000
# 5 0.000000 0.000000 0.000000 0.000000 0.029237 0.000000
# 6 0.000000 0.000000 0.000000 0.000000 0.000000 0.043349
#
#
# Mechanical properties :
#
#
# Convention : Reuss Voigt Hill
#
# Bulk Modulus (GPa) = 76.24468 77.74780 76.99624
# Shear Modulus (GPa) = 25.86711 29.10581 27.48646
#
# Velocity S-wave (km/s) = 3.77436 4.00367 3.89071
# Velocity P-wave (km/s) = 7.80926 8.01190 7.91123
#
# Compressibility (1/GPa) = 0.01311567
#
# Stress axis : x y z
#
# Youngs Moduli (GPa) = 73.40936 98.65851 108.44030
#
# Poissons Ratio (x) = 0.39260 0.39655
# Poissons Ratio (y) = 0.29213 0.24896
# Poissons Ratio (z) = 0.26845 0.22651
#
# Static dielectric constant tensor:
#      x y z
#    x 3.544950 0.000000 0.000000 
#    y 0.000000 3.313130 0.000000 
#    z 0.000000 0.000000 3.392360 
# 
# 
# High freq. dielectric constant tensor:
#      x y z
#    x 1.715370 0.000000 0.000000 
#    y 0.000000 1.694280 0.000000 
#    z 0.000000 0.000000 1.703060 
# 
# From -- ./inp_files/22182.got.cif
#   From: 2010.03.12/outbox.cif.g09.slc.cpg/sg62_12_cif.got.tgz:22182.got - 2010.04.10 19:12:36.
