data_PCOD8251753
_publ_section_title
;
Structure prediction by ZEFSAII (Michael W. Deem and Ramdas Pophale) SiO2 
 PCOD8251753
Probable space group: P N M A
;
_chemical_formula_sum "Si O2"
_cell_formula_units_Z 56
_cell_length_a 16.861809
_cell_length_b 13.295084
_cell_length_c 12.074567
_cell_angle_alpha 90.000000
_cell_angle_beta 90.000000
_cell_angle_gamma 90.000000
_cell_volume 2706.866373
_symmetry_space_group_name_H-M "P N M A"
_symmetry_group_IT_number 62
_symmetry_cell_setting 'orthorhombic'
loop_
_space_group_symop_operation_xyz
x,y,z
1/2-x,-y,1/2+z
1/2+x,1/2-y,1/2-z
-x,1/2+y,-z
-x,-y,-z
1/2+x,y,1/2-z
1/2-x,1/2+y,1/2+z
x,1/2-y,z
loop_
_atom_site_type_symbol
_atom_site_label
_atom_site_fract_x
_atom_site_fract_y
_atom_site_fract_z
Si Si1 0.820669 0.865481 0.911161
Si Si2 0.361310 0.868220 0.830010
Si Si3 0.428137 0.964631 0.427395
Si Si4 0.993279 0.135858 0.474060
Si Si5 0.815264 0.134541 0.142649
Si Si6 0.338231 0.451962 0.123145
Si Si7 0.421598 0.634505 0.199055
O O1 0.794382 0.750000 0.897668
O O2 0.862825 0.904828 0.797867
O O3 0.743572 0.932979 0.941985
O O4 0.882081 0.875080 0.010999
O O5 0.371349 0.750000 0.834493
O O6 0.276055 0.897212 0.882598
O O7 0.433795 0.912932 0.902652
O O8 0.455711 0.919438 0.309435
O O9 0.500000 0.000000 0.500000
O O10 0.372676 0.062465 0.424685
O O11 0.977975 0.250000 0.437335
O O12 0.914845 0.071855 0.451526
O O13 0.011206 0.130127 0.604818
O O14 0.831181 0.250000 0.108151
O O15 0.834550 0.122902 0.272383
O O16 0.344772 0.569179 0.160951
O O17 0.395153 0.750000 0.220234
#
# Coordination Sequence:
#
# PCOD8251753 Si02
#       7
#     8   8   8   8   8   8   8
#     4  10  21  39  62  89 124 160 207 264 312 370
#     4   8  17  33  59  90 114 147 193 245 306 361
#     4  11  25  41  60  85 117 168 217 254 313 383
#     4  10  19  34  63  93 122 156 199 255 315 378
#     4   9  19  37  59  86 120 152 198 261 307 362
#     4  10  20  37  62  95 119 160 208 255 314 379
#     4  10  23  41  59  89 130 164 200 257 319 379
#
# _framework density 20.688127999999999
#
# number of rings (size 3 to 8) (size 9 to 14) (size 15 to 20)
#    0.000    2.286    0.000    3.000    6.000    1.143 
#    0.000    0.000    0.000    1.714    0.000    0.000 
#    0.000    0.000    0.000    0.000    0.000    0.000 
#
# Total GULP energy -694126.798219 kJ/mol
# GULP energy per Si atom -12395.121397 kJ/mol
# Density = 2.064104 g / cm^3
# Si number density = 20.688128 Si / 1000 Ang^3
#
#
#
# Elastic Constant Matrix: (Units=GPa)
#
#
# Indices 1 2 3 4 5 6 
#
# 1 114.5325 28.7801 62.6777 0.0000 0.0000 0.0000
# 2 28.7801 101.2184 28.5582 0.0000 0.0000 0.0000
# 3 62.6777 28.5582 99.8815 0.0000 0.0000 0.0000
# 4 0.0000 0.0000 0.0000 27.6008 0.0000 0.0000
# 5 0.0000 0.0000 0.0000 0.0000 21.6647 0.0000
# 6 0.0000 0.0000 0.0000 0.0000 0.0000 23.6172
#
#
#
# Elastic Compliance Matrix: (Units=1/GPa)
#
#
# Indices 1 2 3 4 5 6 
#
# 1 0.013526 -0.001578 -0.008036 0.000000 0.000000 0.000000
# 2 -0.001578 0.010931 -0.002135 0.000000 0.000000 0.000000
# 3 -0.008036 -0.002135 0.015665 0.000000 0.000000 0.000000
# 4 0.000000 0.000000 0.000000 0.036231 0.000000 0.000000
# 5 0.000000 0.000000 0.000000 0.000000 0.046158 0.000000
# 6 0.000000 0.000000 0.000000 0.000000 0.000000 0.042342
#
#
# Mechanical properties :
#
#
# Convention : Reuss Voigt Hill
#
# Bulk Modulus (GPa) = 60.15958 61.74049 60.95004
# Shear Modulus (GPa) = 25.78750 27.61764 26.70257
#
# Velocity S-wave (km/s) = 3.53439 3.65766 3.59656
# Velocity P-wave (km/s) = 6.76745 6.90986 6.83903
#
# Compressibility (1/GPa) = 0.01662246
#
# Stress axis : x y z
#
# Youngs Moduli (GPa) = 73.93372 91.48492 63.83579
#
# Poissons Ratio (x) = 0.14440 0.51300
# Poissons Ratio (y) = 0.11670 0.13628
# Poissons Ratio (z) = 0.59415 0.19530
#
# Static dielectric constant tensor:
#      x y z
#    x 3.798510 0.000000 0.000000 
#    y 0.000000 3.783650 0.000000 
#    z 0.000000 0.000000 3.790770 
# 
# 
# High freq. dielectric constant tensor:
#      x y z
#    x 1.796070 0.000000 0.000000 
#    y 0.000000 1.810440 0.000000 
#    z 0.000000 0.000000 1.806720 
# 
# From -- ./inp_files/13383.got.cif
#   From: 2010.03.12/outbox.cif.g09.slc.cpg/sg62_7_cif.got.tgz:13383.got - 2010.04.10 19:12:36.
