data_PCOD8251880
_publ_section_title
;
Structure prediction by ZEFSAII (Michael W. Deem and Ramdas Pophale) SiO2 
 PCOD8251880
Probable space group: P N M A
;
_chemical_formula_sum "Si O2"
_cell_formula_units_Z 64
_cell_length_a 32.167994
_cell_length_b 9.138648
_cell_length_c 10.695041
_cell_angle_alpha 90.000000
_cell_angle_beta 90.000000
_cell_angle_gamma 90.000000
_cell_volume 3144.042315
_symmetry_space_group_name_H-M "P N M A"
_symmetry_group_IT_number 62
_symmetry_cell_setting 'orthorhombic'
loop_
_space_group_symop_operation_xyz
x,y,z
1/2-x,-y,1/2+z
1/2+x,1/2-y,1/2-z
-x,1/2+y,-z
-x,-y,-z
1/2+x,y,1/2-z
1/2-x,1/2+y,1/2+z
x,1/2-y,z
loop_
_atom_site_type_symbol
_atom_site_label
_atom_site_fract_x
_atom_site_fract_y
_atom_site_fract_z
Si Si1 0.774130 0.576192 0.581777
Si Si2 0.139603 0.087442 0.766928
Si Si3 0.985737 0.083631 0.292359
Si Si4 0.365491 0.580357 0.861431
Si Si5 0.719276 0.575644 0.824363
Si Si6 0.578873 0.579944 0.579651
Si Si7 0.427164 0.910383 0.057164
Si Si8 0.930311 0.916699 0.834507
O O1 0.773244 0.750000 0.557214
O O2 0.819448 0.515374 0.624032
O O3 0.744870 0.534566 0.698913
O O4 0.761079 0.494630 0.451986
O O5 0.156745 0.250000 0.802018
O O6 0.099724 0.104183 0.681146
O O7 0.173982 0.993062 0.694757
O O8 0.122262 0.003203 0.888750
O O9 0.977650 0.250000 0.326398
O O10 0.034366 0.050257 0.269677
O O11 0.969748 0.994263 0.412573
O O12 0.959293 0.041331 0.169966
O O13 0.362496 0.750000 0.899809
O O14 0.384130 0.560638 0.722745
O O15 0.398478 0.505209 0.955819
O O16 0.716913 0.750000 0.842139
O O17 0.589623 0.750000 0.579166
O O18 0.563450 0.530237 0.444650
O O19 0.440305 0.750000 0.006157
O O20 0.935667 0.750000 0.883292
#
# Coordination Sequence:
#
# PCOD8251880 Si02
#       8
#     8   8   8   8   8   8   8   8
#     4  10  22  42  63  86 121 158 193 238 295 354
#     4  10  19  35  60  83 108 146 189 227 279 348
#     4   9  19  33  50  77 111 146 185 239 291 336
#     4   9  18  36  58  78 105 145 189 232 276 338
#     4  11  23  38  62  94 123 153 195 248 296 349
#     4  10  20  34  52  78 115 149 187 240 290 340
#     4   9  17  32  56  79 101 140 187 227 273 337
#     4  10  20  34  53  77 109 151 195 235 287 346
#
# _framework density 20.35596
#
# number of rings (size 3 to 8) (size 9 to 14) (size 15 to 20)
#    0.000    2.250    1.250    1.500    0.000    4.000 
#    0.000    2.500    0.000    0.000    0.000    0.000 
#    0.000    0.000    0.000    0.000    0.000    0.000 
#
# Total GULP energy -793221.184613 kJ/mol
# GULP energy per Si atom -12394.081010 kJ/mol
# Density = 2.030963 g / cm^3
# Si number density = 20.355960 Si / 1000 Ang^3
#
#
#
# Elastic Constant Matrix: (Units=GPa)
#
#
# Indices 1 2 3 4 5 6 
#
# 1 70.6089 31.7071 41.4334 0.0000 0.0000 0.0000
# 2 31.7071 70.6186 32.5826 0.0000 0.0000 0.0000
# 3 41.4334 32.5826 51.3826 0.0000 0.0000 0.0000
# 4 0.0000 0.0000 0.0000 20.2095 0.0000 0.0000
# 5 0.0000 0.0000 0.0000 0.0000 28.5904 0.0000
# 6 0.0000 0.0000 0.0000 0.0000 0.0000 22.4086
#
#
#
# Elastic Compliance Matrix: (Units=1/GPa)
#
#
# Indices 1 2 3 4 5 6 
#
# 1 0.027317 -0.002971 -0.020144 0.000000 0.000000 0.000000
# 2 -0.002971 0.020340 -0.010502 0.000000 0.000000 0.000000
# 3 -0.020144 -0.010502 0.042365 0.000000 0.000000 0.000000
# 4 0.000000 0.000000 0.000000 0.049482 0.000000 0.000000
# 5 0.000000 0.000000 0.000000 0.000000 0.034977 0.000000
# 6 0.000000 0.000000 0.000000 0.000000 0.000000 0.044626
#
#
# Mechanical properties :
#
#
# Convention : Reuss Voigt Hill
#
# Bulk Modulus (GPa) = 43.88275 44.89514 44.38895
# Shear Modulus (GPa) = 17.01051 20.03417 18.52234
#
# Velocity S-wave (km/s) = 2.89390 3.14059 3.01976
# Velocity P-wave (km/s) = 5.72457 5.93750 5.83201
#
# Compressibility (1/GPa) = 0.02278800
#
# Stress axis : x y z
#
# Youngs Moduli (GPa) = 36.60729 49.16381 23.60455
#
# Poissons Ratio (x) = 0.14607 0.47548
# Poissons Ratio (y) = 0.10876 0.24790
# Poissons Ratio (z) = 0.73740 0.51633
#
# Static dielectric constant tensor:
#      x y z
#    x 3.704990 0.000000 0.000000 
#    y 0.000000 3.678660 0.000000 
#    z 0.000000 0.000000 3.616930 
# 
# 
# High freq. dielectric constant tensor:
#      x y z
#    x 1.793010 0.000000 0.000000 
#    y 0.000000 1.775430 0.000000 
#    z 0.000000 0.000000 1.796300 
# 
# From -- ./inp_files/15816.got.cif
#   From: 2010.03.12/outbox.cif.g09.slc.cpg/sg62_8_cif.got.tgz:15816.got - 2010.04.10 19:12:36.
