data_PCOD8251027
_publ_section_title
;
Structure prediction by ZEFSAII (Michael W. Deem and Ramdas Pophale) SiO2 
 PCOD8251027
Probable space group: P N M A
;
_chemical_formula_sum "Si O2"
_cell_formula_units_Z 64
_cell_length_a 9.267010
_cell_length_b 14.656650
_cell_length_c 22.796429
_cell_angle_alpha 90.000000
_cell_angle_beta 90.000000
_cell_angle_gamma 90.000000
_cell_volume 3096.286719
_symmetry_space_group_name_H-M "P N M A"
_symmetry_group_IT_number 62
_symmetry_cell_setting 'orthorhombic'
loop_
_space_group_symop_operation_xyz
x,y,z
1/2-x,-y,1/2+z
1/2+x,1/2-y,1/2-z
-x,1/2+y,-z
-x,-y,-z
1/2+x,y,1/2-z
1/2-x,1/2+y,1/2+z
x,1/2-y,z
loop_
_atom_site_type_symbol
_atom_site_label
_atom_site_fract_x
_atom_site_fract_y
_atom_site_fract_z
Si Si1 0.145198 0.350804 0.149258
Si Si2 0.937832 0.861648 0.448739
Si Si3 0.043473 0.919168 0.227882
Si Si4 0.342207 0.850378 0.180746
Si Si5 0.540514 0.850166 0.882788
Si Si6 0.618573 0.525298 0.640982
Si Si7 0.634895 0.100898 0.220298
Si Si8 0.155280 0.483413 0.454891
O O1 0.102366 0.250000 0.128747
O O2 0.294036 0.381570 0.119634
O O3 0.169309 0.349536 0.219142
O O4 0.022618 0.417022 0.125520
O O5 0.946385 0.750000 0.458956
O O6 0.901293 0.885962 0.381472
O O7 0.819090 0.915904 0.488849
O O8 0.087717 0.915043 0.467024
O O9 0.206367 0.905574 0.205587
O O10 0.973288 0.845454 0.271832
O O11 0.046440 0.008877 0.267488
O O12 0.935236 0.932173 0.172578
O O13 0.281026 0.750000 0.170952
O O14 0.527264 0.750000 0.913489
O O15 0.472342 0.837984 0.818202
O O16 0.458562 0.929365 0.915687
O O17 0.717362 0.583211 0.685050
O O18 0.696172 0.501157 0.579908
#
# Coordination Sequence:
#
# PCOD8251027 Si02
#       8
#     8   8   8   8   8   8   8   8
#     4  10  20  30  46  81 121 156 198 251 308 367
#     4  10  23  42  68  94 121 159 217 267 309 373
#     4  11  21  37  57  89 122 159 204 250 317 381
#     4  11  23  39  62  89 122 162 204 262 318 373
#     4  10  20  33  55  83 117 161 208 254 304 371
#     4  10  21  34  57  85 117 161 199 252 308 375
#     4  10  19  31  50  78 113 162 201 247 302 366
#     4  10  22  42  65  91 117 164 210 257 314 362
#
# _framework density 20.669920000000001
#
# number of rings (size 3 to 8) (size 9 to 14) (size 15 to 20)
#    0.000    1.750    1.250    4.125    5.250    4.000 
#    0.000    1.250    0.000    0.000    0.000    0.000 
#    0.000    0.000    0.000    0.000    0.000    0.000 
#
# Total GULP energy -792939.348592 kJ/mol
# GULP energy per Si atom -12389.677322 kJ/mol
# Density = 2.062287 g / cm^3
# Si number density = 20.669920 Si / 1000 Ang^3
#
#
#
# Elastic Constant Matrix: (Units=GPa)
#
#
# Indices 1 2 3 4 5 6 
#
# 1 78.4290 20.0791 23.4577 0.0000 0.0000 0.0000
# 2 20.0791 81.7828 23.5281 0.0000 0.0000 0.0000
# 3 23.4577 23.5281 87.1579 0.0000 0.0000 0.0000
# 4 0.0000 0.0000 0.0000 14.2700 0.0000 0.0000
# 5 0.0000 0.0000 0.0000 0.0000 27.6638 0.0000
# 6 0.0000 0.0000 0.0000 0.0000 0.0000 19.5827
#
#
#
# Elastic Compliance Matrix: (Units=1/GPa)
#
#
# Indices 1 2 3 4 5 6 
#
# 1 0.014366 -0.002618 -0.003160 0.000000 0.000000 0.000000
# 2 -0.002618 0.013734 -0.003003 0.000000 0.000000 0.000000
# 3 -0.003160 -0.003003 0.013134 0.000000 0.000000 0.000000
# 4 0.000000 0.000000 0.000000 0.070077 0.000000 0.000000
# 5 0.000000 0.000000 0.000000 0.000000 0.036148 0.000000
# 6 0.000000 0.000000 0.000000 0.000000 0.000000 0.051066
#
#
# Mechanical properties :
#
#
# Convention : Reuss Voigt Hill
#
# Bulk Modulus (GPa) = 42.24193 42.38883 42.31538
# Shear Modulus (GPa) = 22.32370 24.32363 23.32366
#
# Velocity S-wave (km/s) = 3.28991 3.43412 3.36279
# Velocity P-wave (km/s) = 5.90865 6.02298 5.96609
#
# Compressibility (1/GPa) = 0.02367316
#
# Stress axis : x y z
#
# Youngs Moduli (GPa) = 69.61040 72.81098 76.13564
#
# Poissons Ratio (x) = 0.19062 0.24056
# Poissons Ratio (y) = 0.18224 0.22863
# Poissons Ratio (z) = 0.21994 0.21864
#
# Static dielectric constant tensor:
#      x y z
#    x 3.639300 0.000000 0.000000 
#    y 0.000000 3.747410 0.000000 
#    z 0.000000 0.000000 3.932150 
# 
# 
# High freq. dielectric constant tensor:
#      x y z
#    x 1.799160 0.000000 0.000000 
#    y 0.000000 1.807650 0.000000 
#    z 0.000000 0.000000 1.802140 
# 
# From -- ./inp_files/28998.got.cif
#   From: 2010.03.12/outbox.cif.g09.slc.cpg/sg62_15_cif.got.tgz:28998.got - 2010.04.10 19:12:36.
