data_PCOD8251256
_publ_section_title
;
Structure prediction by ZEFSAII (Michael W. Deem and Ramdas Pophale) SiO2 
 PCOD8251256
Probable space group: P N M A
;
_chemical_formula_sum "Si O2"
_cell_formula_units_Z 56
_cell_length_a 16.328571
_cell_length_b 8.521445
_cell_length_c 19.593601
_cell_angle_alpha 90.000000
_cell_angle_beta 90.000000
_cell_angle_gamma 90.000000
_cell_volume 2726.312810
_symmetry_space_group_name_H-M "P N M A"
_symmetry_group_IT_number 62
_symmetry_cell_setting 'orthorhombic'
loop_
_space_group_symop_operation_xyz
x,y,z
1/2-x,-y,1/2+z
1/2+x,1/2-y,1/2-z
-x,1/2+y,-z
-x,-y,-z
1/2+x,y,1/2-z
1/2-x,1/2+y,1/2+z
x,1/2-y,z
loop_
_atom_site_type_symbol
_atom_site_label
_atom_site_fract_x
_atom_site_fract_y
_atom_site_fract_z
Si Si1 0.591613 0.566170 0.501527
Si Si2 0.108801 0.929373 0.457267
Si Si3 0.962397 0.929470 0.667852
Si Si4 0.300379 0.933259 0.619056
Si Si5 0.621966 0.934503 0.893623
Si Si6 0.218589 0.071946 0.896963
Si Si7 0.183934 0.569142 0.263545
O O1 0.500000 0.500000 0.500000
O O2 0.583814 0.750000 0.502312
O O3 0.636975 0.515751 0.432103
O O4 0.640851 0.518480 0.570773
O O5 0.082452 0.750000 0.438943
O O6 0.083925 0.980100 0.533363
O O7 0.207615 0.940568 0.450861
O O8 0.066604 0.059156 0.410400
O O9 0.951465 0.750000 0.693344
O O10 0.058573 0.981430 0.666990
O O11 0.909179 0.053314 0.709629
O O12 0.303175 0.750000 0.601268
O O13 0.210596 0.013455 0.613264
O O14 0.319434 0.958311 0.698330
O O15 0.636377 0.750000 0.890720
O O16 0.189904 0.250000 0.887306
O O17 0.251247 0.010403 0.822107
O O18 0.200183 0.750000 0.244853
#
# Coordination Sequence:
#
# PCOD8251256 Si02
#       7
#     8   8   8   8   8   8   8
#     4  12  25  42  66  95 124 159 209 262 316 376
#     4   9  16  31  54  81 117 154 183 228 287 343
#     4  10  19  32  53  84 117 154 196 238 287 354
#     4  11  22  42  66  88 120 161 204 258 315 367
#     4   9  18  33  55  83 117 152 189 235 294 353
#     4   9  18  37  63  86 119 160 201 249 306 365
#     4  10  22  41  61  86 122 164 204 252 312 371
#
# _framework density 20.540564
#
# number of rings (size 3 to 8) (size 9 to 14) (size 15 to 20)
#    0.000    2.000    1.429    3.857    0.000    2.857 
#    2.571    3.571    0.000    0.000    0.000    0.000 
#    0.000    0.000    0.000    0.000    0.000    0.000 
#
# Total GULP energy -693793.293689 kJ/mol
# GULP energy per Si atom -12389.165959 kJ/mol
# Density = 2.049381 g / cm^3
# Si number density = 20.540564 Si / 1000 Ang^3
#
#
#
# Elastic Constant Matrix: (Units=GPa)
#
#
# Indices 1 2 3 4 5 6 
#
# 1 117.9520 28.8556 43.7207 0.0000 0.0000 0.0000
# 2 28.8556 70.9958 17.4540 0.0000 0.0000 0.0000
# 3 43.7207 17.4540 87.0573 0.0000 0.0000 0.0000
# 4 0.0000 0.0000 0.0000 30.7845 0.0000 0.0000
# 5 0.0000 0.0000 0.0000 0.0000 13.2829 0.0000
# 6 0.0000 0.0000 0.0000 0.0000 0.0000 26.3622
#
#
#
# Elastic Compliance Matrix: (Units=1/GPa)
#
#
# Indices 1 2 3 4 5 6 
#
# 1 0.011109 -0.003307 -0.004916 0.000000 0.000000 0.000000
# 2 -0.003307 0.015800 -0.001507 0.000000 0.000000 0.000000
# 3 -0.004916 -0.001507 0.014258 0.000000 0.000000 0.000000
# 4 0.000000 0.000000 0.000000 0.032484 0.000000 0.000000
# 5 0.000000 0.000000 0.000000 0.000000 0.075285 0.000000
# 6 0.000000 0.000000 0.000000 0.000000 0.000000 0.037933
#
#
# Mechanical properties :
#
#
# Convention : Reuss Voigt Hill
#
# Bulk Modulus (GPa) = 46.06802 50.67398 48.37100
# Shear Modulus (GPa) = 23.41217 26.48422 24.94819
#
# Velocity S-wave (km/s) = 3.37976 3.59466 3.48887
# Velocity P-wave (km/s) = 6.14059 6.47708 6.31108
#
# Compressibility (1/GPa) = 0.02170703
#
# Stress axis : x y z
#
# Youngs Moduli (GPa) = 90.01549 63.29197 70.13719
#
# Poissons Ratio (x) = 0.20928 0.34481
# Poissons Ratio (y) = 0.29765 0.10570
# Poissons Ratio (z) = 0.44253 0.09539
#
# Static dielectric constant tensor:
#      x y z
#    x 3.990260 0.000000 0.000000 
#    y 0.000000 3.465170 0.000000 
#    z 0.000000 0.000000 3.671440 
# 
# 
# High freq. dielectric constant tensor:
#      x y z
#    x 1.807450 0.000000 0.000000 
#    y 0.000000 1.785170 0.000000 
#    z 0.000000 0.000000 1.792180 
# 
# From -- ./inp_files/27504.got.cif
#   From: 2010.03.12/outbox.cif.g09.slc.cpg/sg62_14_cif.got.tgz:27504.got - 2010.04.10 19:12:36.
