data_PCOD8251596
_publ_section_title
;
Structure prediction by ZEFSAII (Michael W. Deem and Ramdas Pophale) SiO2 
 PCOD8251596
Probable space group: P N M A
;
_chemical_formula_sum "Si O2"
_cell_formula_units_Z 56
_cell_length_a 21.243924
_cell_length_b 9.244293
_cell_length_c 15.057513
_cell_angle_alpha 90.000000
_cell_angle_beta 90.000000
_cell_angle_gamma 90.000000
_cell_volume 2957.070563
_symmetry_space_group_name_H-M "P N M A"
_symmetry_group_IT_number 62
_symmetry_cell_setting 'orthorhombic'
loop_
_space_group_symop_operation_xyz
x,y,z
1/2-x,-y,1/2+z
1/2+x,1/2-y,1/2-z
-x,1/2+y,-z
-x,-y,-z
1/2+x,y,1/2-z
1/2-x,1/2+y,1/2+z
x,1/2-y,z
loop_
_atom_site_type_symbol
_atom_site_label
_atom_site_fract_x
_atom_site_fract_y
_atom_site_fract_z
Si Si1 0.237692 0.420374 0.974834
Si Si2 0.957037 0.912350 0.433808
Si Si3 0.597295 0.084716 0.255194
Si Si4 0.146328 0.408711 0.430487
Si Si5 0.328543 0.418867 0.326347
Si Si6 0.539134 0.919269 0.754791
Si Si7 0.771212 0.577728 0.822862
O O1 0.228077 0.250000 0.969571
O O2 0.302279 0.465983 0.927596
O O3 0.182894 0.496667 0.918330
O O4 0.240317 0.476254 0.076593
O O5 0.983960 0.750000 0.420488
O O6 0.887821 0.906841 0.475683
O O7 0.947699 0.991326 0.342158
O O8 0.000000 0.000000 0.500000
O O9 0.602483 0.250000 0.283764
O O10 0.596701 0.061566 0.148638
O O11 0.528269 0.028220 0.288062
O O12 0.660203 0.010614 0.295629
O O13 0.178082 0.250000 0.413386
O O14 0.316089 0.250000 0.341077
O O15 0.402229 0.449396 0.309044
O O16 0.283447 0.476138 0.245413
O O17 0.534315 0.750000 0.780184
O O18 0.771373 0.750000 0.820104
#
# Coordination Sequence:
#
# PCOD8251596 Si02
#       7
#     8   8   8   8   8   8   8
#     4  11  22  35  56  85 110 137 185 240 282 323
#     4  11  21  32  50  79 114 147 181 225 281 342
#     4   9  16  32  56  77 102 140 186 221 261 324
#     4  10  19  34  55  76 105 146 183 220 273 336
#     4  10  20  37  59  81 111 148 184 226 282 344
#     4  10  20  35  56  81 108 145 192 232 271 333
#     4   9  18  34  56  78 105 146 185 221 271 332
#
# _framework density 18.937660999999999
#
# number of rings (size 3 to 8) (size 9 to 14) (size 15 to 20)
#    0.000    2.000    2.857    1.714    0.000    2.857 
#    0.000    2.143    0.000    0.000    0.000    0.000 
#    0.000    0.000    0.000    0.000    0.000    0.000 
#
# Total GULP energy -693923.962563 kJ/mol
# GULP energy per Si atom -12391.499331 kJ/mol
# Density = 1.889456 g / cm^3
# Si number density = 18.937661 Si / 1000 Ang^3
#
#
#
# Elastic Constant Matrix: (Units=GPa)
#
#
# Indices 1 2 3 4 5 6 
#
# 1 132.9353 15.0678 25.5107 0.0000 0.0000 0.0000
# 2 15.0678 45.9854 17.3971 0.0000 0.0000 0.0000
# 3 25.5107 17.3971 66.1688 0.0000 0.0000 0.0000
# 4 0.0000 0.0000 0.0000 26.6740 0.0000 0.0000
# 5 0.0000 0.0000 0.0000 0.0000 26.2593 0.0000
# 6 0.0000 0.0000 0.0000 0.0000 0.0000 19.3973
#
#
#
# Elastic Compliance Matrix: (Units=1/GPa)
#
#
# Indices 1 2 3 4 5 6 
#
# 1 0.008236 -0.001663 -0.002738 0.000000 0.000000 0.000000
# 2 -0.001663 0.024484 -0.005796 0.000000 0.000000 0.000000
# 3 -0.002738 -0.005796 0.017693 0.000000 0.000000 0.000000
# 4 0.000000 0.000000 0.000000 0.037490 0.000000 0.000000
# 5 0.000000 0.000000 0.000000 0.000000 0.038082 0.000000
# 6 0.000000 0.000000 0.000000 0.000000 0.000000 0.051554
#
#
# Mechanical properties :
#
#
# Convention : Reuss Voigt Hill
#
# Bulk Modulus (GPa) = 33.31327 40.11562 36.71444
# Shear Modulus (GPa) = 24.04560 26.94038 25.49299
#
# Velocity S-wave (km/s) = 3.56718 3.77581 3.67298
# Velocity P-wave (km/s) = 5.88180 6.34334 6.11692
#
# Compressibility (1/GPa) = 0.03001807
#
# Stress axis : x y z
#
# Youngs Moduli (GPa) = 121.41205 40.84348 56.52112
#
# Poissons Ratio (x) = 0.06792 0.15477
# Poissons Ratio (y) = 0.20189 0.32761
# Poissons Ratio (z) = 0.33246 0.23674
#
# Static dielectric constant tensor:
#      x y z
#    x 3.747500 0.000000 0.000000 
#    y 0.000000 3.248340 0.000000 
#    z 0.000000 0.000000 3.774130 
# 
# 
# High freq. dielectric constant tensor:
#      x y z
#    x 1.746700 0.000000 0.000000 
#    y 0.000000 1.703620 0.000000 
#    z 0.000000 0.000000 1.720440 
# 
# From -- ./inp_files/20333.got.cif
#   From: 2010.03.12/outbox.cif.g09.slc.cpg/sg62_11_cif.got.tgz:20333.got - 2010.04.10 19:12:36.
