data_PCOD8251494
_publ_section_title
;
Structure prediction by ZEFSAII (Michael W. Deem and Ramdas Pophale) SiO2 
 PCOD8251494
Probable space group: P N M A
;
_chemical_formula_sum "Si O2"
_cell_formula_units_Z 48
_cell_length_a 15.660418
_cell_length_b 15.876997
_cell_length_c 9.117151
_cell_angle_alpha 90.000000
_cell_angle_beta 90.000000
_cell_angle_gamma 90.000000
_cell_volume 2266.892159
_symmetry_space_group_name_H-M "P N M A"
_symmetry_group_IT_number 62
_symmetry_cell_setting 'orthorhombic'
loop_
_space_group_symop_operation_xyz
x,y,z
1/2-x,-y,1/2+z
1/2+x,1/2-y,1/2-z
-x,1/2+y,-z
-x,-y,-z
1/2+x,y,1/2-z
1/2-x,1/2+y,1/2+z
x,1/2-y,z
loop_
_atom_site_type_symbol
_atom_site_label
_atom_site_fract_x
_atom_site_fract_y
_atom_site_fract_z
Si Si1 0.152698 0.085939 0.359591
Si Si2 0.856513 0.071606 0.141466
Si Si3 0.337951 0.750000 0.699882
Si Si4 0.405243 0.250000 0.644636
Si Si5 0.848031 0.250000 0.169251
Si Si6 0.598640 0.250000 0.621916
Si Si7 0.648172 0.575560 0.309153
Si Si8 0.849860 0.910305 0.308201
O O1 0.254637 0.081676 0.351923
O O2 0.118713 0.165680 0.265922
O O3 0.119338 0.097183 0.524793
O O4 0.113723 0.999388 0.293980
O O5 0.896280 0.161001 0.202362
O O6 0.890882 0.995283 0.239821
O O7 0.883554 0.055084 0.973758
O O8 0.239411 0.750000 0.742924
O O9 0.344828 0.750000 0.524457
O O10 0.335879 0.250000 0.510231
O O11 0.499802 0.250000 0.576657
O O12 0.390607 0.165868 0.742142
O O13 0.618404 0.168748 0.717803
O O14 0.749069 0.582242 0.296755
#
# Coordination Sequence:
#
# PCOD8251494 Si02
#       8
#     8   8   4   4   4   4   8   8
#     4   9  17  31  55  81 108 141 186 234 274 321
#     4   8  15  29  53  83 108 136 184 234 273 322
#     4  10  19  34  56  82 106 142 189 232 274 328
#     4  10  21  38  56  82 115 152 189 232 284 334
#     4   8  16  33  56  77 105 142 182 228 270 325
#     4  12  24  35  54  85 116 146 188 238 284 333
#     4   9  17  34  57  79 108 150 191 227 272 332
#     4  10  19  33  55  86 115 145 185 233 278 328
#
# _framework density 21.174364000000001
#
# number of rings (size 3 to 8) (size 9 to 14) (size 15 to 20)
#    0.000    2.667    0.000    3.000    0.000    5.333 
#    0.000    9.167    0.000    8.000    0.000    0.000 
#    0.000    0.000    0.000    0.000    0.000    0.000 
#
# Total GULP energy -594824.431363 kJ/mol
# GULP energy per Si atom -12392.175653 kJ/mol
# Density = 2.112617 g / cm^3
# Si number density = 21.174364 Si / 1000 Ang^3
#
#
#
# Elastic Constant Matrix: (Units=GPa)
#
#
# Indices 1 2 3 4 5 6 
#
# 1 24.5386 12.2299 24.4713 0.0000 0.0000 0.0000
# 2 12.2299 244.0478 99.8466 0.0000 0.0000 0.0000
# 3 24.4713 99.8466 137.8446 0.0000 0.0000 0.0000
# 4 0.0000 0.0000 0.0000 57.1226 0.0000 0.0000
# 5 0.0000 0.0000 0.0000 0.0000 7.3512 0.0000
# 6 0.0000 0.0000 0.0000 0.0000 0.0000 -0.9579
#
#
#
# Elastic Compliance Matrix: (Units=1/GPa)
#
#
# Indices 1 2 3 4 5 6 
#
# 1 0.049954 0.001599 -0.010026 0.000000 0.000000 0.000000
# 2 0.001599 0.005874 -0.004539 0.000000 0.000000 0.000000
# 3 -0.010026 -0.004539 0.012322 0.000000 0.000000 0.000000
# 4 0.000000 0.000000 0.000000 0.017506 0.000000 0.000000
# 5 0.000000 0.000000 0.000000 0.000000 0.136032 0.000000
# 6 0.000000 0.000000 0.000000 0.000000 0.000000 -1.043954
#
#
# Mechanical properties :
#
#
# Convention : Reuss Voigt Hill
#
# Bulk Modulus (GPa) = 23.68671 75.50297 49.59484
# Shear Modulus (GPa) = -6.39174 30.69539 12.15182
#
# Velocity S-wave (km/s) = -1.73930 3.81156 2.39821
# Velocity P-wave (km/s) = 2.67903 7.42332 5.58046
#
# Compressibility (1/GPa) = 0.04221776
#
# Stress axis : x y z
#
# Youngs Moduli (GPa) = 20.01839 170.22910 81.15430
#
# Poissons Ratio (x) = -0.27214 0.81367
# Poissons Ratio (y) = -0.03200 0.36835
# Poissons Ratio (z) = 0.20071 0.77265
#
# Static dielectric constant tensor:
#      x y z
#    x 3.219660 0.000000 0.000000 
#    y 0.000000 4.559820 0.000000 
#    z 0.000000 0.000000 3.751700 
# 
# 
# High freq. dielectric constant tensor:
#      x y z
#    x 1.773630 0.000000 0.000000 
#    y 0.000000 1.864600 0.000000 
#    z 0.000000 0.000000 1.812800 
# 
# From -- ./inp_files/7727.got.cif
#   From: 2010.03.12/outbox.cif.g09.slc.cpg/sg62_4_cif.got.tgz:7727.got - 2010.04.10 19:12:36.
