data_PCOD8251466
_publ_section_title
;
Structure prediction by ZEFSAII (Michael W. Deem and Ramdas Pophale) SiO2 
 PCOD8251466
Probable space group: P N M A
;
_chemical_formula_sum "Si O2"
_cell_formula_units_Z 56
_cell_length_a 17.369825
_cell_length_b 9.300735
_cell_length_c 19.130805
_cell_angle_alpha 90.000000
_cell_angle_beta 90.000000
_cell_angle_gamma 90.000000
_cell_volume 3090.622475
_symmetry_space_group_name_H-M "P N M A"
_symmetry_group_IT_number 62
_symmetry_cell_setting 'orthorhombic'
loop_
_space_group_symop_operation_xyz
x,y,z
1/2-x,-y,1/2+z
1/2+x,1/2-y,1/2-z
-x,1/2+y,-z
-x,-y,-z
1/2+x,y,1/2-z
1/2-x,1/2+y,1/2+z
x,1/2-y,z
loop_
_atom_site_type_symbol
_atom_site_label
_atom_site_fract_x
_atom_site_fract_y
_atom_site_fract_z
Si Si1 0.466027 0.084044 0.844523
Si Si2 0.866759 0.915682 0.396682
Si Si3 0.202411 0.084836 0.961364
Si Si4 0.919177 0.416780 0.812471
Si Si5 0.967799 0.916797 0.065577
Si Si6 0.149021 0.417582 0.442383
Si Si7 0.282474 0.917805 0.622627
O O1 0.449776 0.250000 0.863291
O O2 0.554597 0.044892 0.857976
O O3 0.448826 0.049336 0.764503
O O4 0.413916 0.985256 0.892448
O O5 0.843556 0.750000 0.385530
O O6 0.876534 0.950315 0.478559
O O7 0.800858 0.013754 0.362659
O O8 0.226867 0.250000 0.950608
O O9 0.122355 0.048272 0.922984
O O10 0.267761 0.986625 0.926840
O O11 0.191908 0.050241 0.043324
O O12 0.897855 0.250000 0.822348
O O13 0.843490 0.510025 0.825797
O O14 0.987294 0.463307 0.864851
O O15 0.978813 0.750000 0.048527
O O16 0.000000 0.000000 0.000000
O O17 0.154857 0.250000 0.426373
O O18 0.278440 0.750000 0.639405
#
# Coordination Sequence:
#
# PCOD8251466 Si02
#       7
#     8   8   8   8   8   8   8
#     4  10  21  38  56  78 109 145 183 224 273 328
#     4   9  19  36  58  82 108 140 184 228 269 322
#     4   9  18  33  53  80 110 140 177 220 269 322
#     4  10  21  36  55  78 107 145 184 223 270 325
#     4  10  19  33  55  80 107 141 183 227 269 317
#     4  10  20  34  56  83 109 140 179 230 277 320
#     4  10  19  33  55  81 109 141 177 220 273 323
#
# _framework density 18.119327999999999
#
# number of rings (size 3 to 8) (size 9 to 14) (size 15 to 20)
#    0.000    2.286    1.429    1.286    0.000    2.857 
#    2.571    0.000    0.000    0.000    0.000    0.000 
#    0.000    0.000    0.000    0.000    0.000    0.000 
#
# Total GULP energy -694611.863438 kJ/mol
# GULP energy per Si atom -12403.783276 kJ/mol
# Density = 1.807809 g / cm^3
# Si number density = 18.119328 Si / 1000 Ang^3
#
#
#
# Elastic Constant Matrix: (Units=GPa)
#
#
# Indices 1 2 3 4 5 6 
#
# 1 159.5598 84.3723 77.5679 0.0000 0.0000 0.0000
# 2 84.3723 92.9904 56.7838 0.0000 0.0000 0.0000
# 3 77.5679 56.7838 86.1867 0.0000 0.0000 0.0000
# 4 0.0000 0.0000 0.0000 24.1449 0.0000 0.0000
# 5 0.0000 0.0000 0.0000 0.0000 11.7776 0.0000
# 6 0.0000 0.0000 0.0000 0.0000 0.0000 30.6855
#
#
#
# Elastic Compliance Matrix: (Units=1/GPa)
#
#
# Indices 1 2 3 4 5 6 
#
# 1 0.014319 -0.008571 -0.007240 0.000000 0.000000 0.000000
# 2 -0.008571 0.023123 -0.007521 0.000000 0.000000 0.000000
# 3 -0.007240 -0.007521 0.023074 0.000000 0.000000 0.000000
# 4 0.000000 0.000000 0.000000 0.041417 0.000000 0.000000
# 5 0.000000 0.000000 0.000000 0.000000 0.084907 0.000000
# 6 0.000000 0.000000 0.000000 0.000000 0.000000 0.032589
#
#
# Mechanical properties :
#
#
# Convention : Reuss Voigt Hill
#
# Bulk Modulus (GPa) = 72.19042 86.24277 79.21660
# Shear Modulus (GPa) = 18.47004 21.32247 19.89625
#
# Velocity S-wave (km/s) = 3.19620 3.43414 3.31731
# Velocity P-wave (km/s) = 7.31772 7.96398 7.64768
#
# Compressibility (1/GPa) = 0.01385225
#
# Stress axis : x y z
#
# Youngs Moduli (GPa) = 69.83668 43.24759 43.33898
#
# Poissons Ratio (x) = 0.37067 0.31379
# Poissons Ratio (y) = 0.59856 0.32593
# Poissons Ratio (z) = 0.50564 0.32525
#
# Static dielectric constant tensor:
#      x y z
#    x 3.473690 0.000000 0.000000 
#    y 0.000000 3.367630 0.000000 
#    z 0.000000 0.000000 3.227910 
# 
# 
# High freq. dielectric constant tensor:
#      x y z
#    x 1.714040 0.000000 0.000000 
#    y 0.000000 1.703170 0.000000 
#    z 0.000000 0.000000 1.683390 
# 
# From -- ./inp_files/27575.got.cif
#   From: 2010.03.12/outbox.cif.g09.slc.cpg/sg62_14_cif.got.tgz:27575.got - 2010.04.10 19:12:36.
