data_PCOD8251140
_publ_section_title
;
Structure prediction by ZEFSAII (Michael W. Deem and Ramdas Pophale) SiO2 
 PCOD8251140
Probable space group: P N M A
;
_chemical_formula_sum "Si O2"
_cell_formula_units_Z 40
_cell_length_a 12.462870
_cell_length_b 9.303865
_cell_length_c 18.753870
_cell_angle_alpha 90.000000
_cell_angle_beta 90.000000
_cell_angle_gamma 90.000000
_cell_volume 2174.564862
_symmetry_space_group_name_H-M "P N M A"
_symmetry_group_IT_number 62
_symmetry_cell_setting 'orthorhombic'
loop_
_space_group_symop_operation_xyz
x,y,z
1/2-x,-y,1/2+z
1/2+x,1/2-y,1/2-z
-x,1/2+y,-z
-x,-y,-z
1/2+x,y,1/2-z
1/2-x,1/2+y,1/2+z
x,1/2-y,z
loop_
_atom_site_type_symbol
_atom_site_label
_atom_site_fract_x
_atom_site_fract_y
_atom_site_fract_z
Si Si1 0.186609 0.920109 0.107665
Si Si2 0.452951 0.579081 0.346099
Si Si3 0.106478 0.420089 0.692183
Si Si4 0.784250 0.583846 0.038196
Si Si5 0.956906 0.415591 0.567143
O O1 0.187501 0.750000 0.095718
O O2 0.276378 0.968121 0.164746
O O3 0.072649 0.975026 0.136847
O O4 0.212923 0.992077 0.032941
O O5 0.448487 0.750000 0.342964
O O6 0.415764 0.513004 0.270225
O O7 0.373777 0.523147 0.407797
O O8 0.100097 0.250000 0.697977
O O9 0.014876 0.475807 0.637967
O O10 0.805282 0.750000 0.018784
O O11 0.670017 0.564221 0.076795
O O12 0.987956 0.250000 0.555092
O O13 0.000000 0.500000 0.500000
#
# Coordination Sequence:
#
# PCOD8251140 Si02
#       5
#     8   8   8   8   8
#     4  10  19  33  54  75 100 134 169 206 247 299
#     4   9  19  32  50  77 103 131 168 210 253 293
#     4   9  18  31  49  75 101 127 167 212 249 288
#     4  10  20  33  52  76 103 132 165 209 256 298
#     4  10  19  32  51  74 100 131 165 206 249 294
#
# _framework density 18.394485
#
# number of rings (size 3 to 8) (size 9 to 14) (size 15 to 20)
#    0.000    2.400    2.000    0.600    2.800    0.000 
#    0.000    0.000    0.000    4.800    0.000    0.000 
#    0.000    0.000    0.000    0.000    0.000    0.000 
#
# Total GULP energy -495998.679092 kJ/mol
# GULP energy per Si atom -12399.966977 kJ/mol
# Density = 1.835262 g / cm^3
# Si number density = 18.394485 Si / 1000 Ang^3
#
#
#
# Elastic Constant Matrix: (Units=GPa)
#
#
# Indices 1 2 3 4 5 6 
#
# 1 129.2217 19.7722 32.3536 0.0000 0.0000 0.0000
# 2 19.7722 22.8799 18.4270 0.0000 0.0000 0.0000
# 3 32.3536 18.4270 82.0565 0.0000 0.0000 0.0000
# 4 0.0000 0.0000 0.0000 22.2524 0.0000 0.0000
# 5 0.0000 0.0000 0.0000 0.0000 36.0980 0.0000
# 6 0.0000 0.0000 0.0000 0.0000 0.0000 16.4270
#
#
#
# Elastic Compliance Matrix: (Units=1/GPa)
#
#
# Indices 1 2 3 4 5 6 
#
# 1 0.009249 -0.006172 -0.002261 0.000000 0.000000 0.000000
# 2 -0.006172 0.057475 -0.010473 0.000000 0.000000 0.000000
# 3 -0.002261 -0.010473 0.015430 0.000000 0.000000 0.000000
# 4 0.000000 0.000000 0.000000 0.044939 0.000000 0.000000
# 5 0.000000 0.000000 0.000000 0.000000 0.027702 0.000000
# 6 0.000000 0.000000 0.000000 0.000000 0.000000 0.060875
#
#
# Mechanical properties :
#
#
# Convention : Reuss Voigt Hill
#
# Bulk Modulus (GPa) = 22.55198 41.69598 32.12398
# Shear Modulus (GPa) = 18.63837 25.86251 22.25044
#
# Velocity S-wave (km/s) = 3.18663 3.75372 3.48174
# Velocity P-wave (km/s) = 5.08195 6.44237 5.80217
#
# Compressibility (1/GPa) = 0.04434200
#
# Stress axis : x y z
#
# Youngs Moduli (GPa) = 108.11919 17.39880 64.80864
#
# Poissons Ratio (x) = 0.10739 0.14651
# Poissons Ratio (y) = 0.66732 0.67877
# Poissons Ratio (z) = 0.24443 0.18222
#
# Static dielectric constant tensor:
#      x y z
#    x 3.836330 0.000000 0.000000 
#    y 0.000000 2.947630 0.000000 
#    z 0.000000 0.000000 3.588400 
# 
# 
# High freq. dielectric constant tensor:
#      x y z
#    x 1.734710 0.000000 0.000000 
#    y 0.000000 1.659750 0.000000 
#    z 0.000000 0.000000 1.721100 
# 
# From -- ./inp_files/17776.got.cif
#   From: 2010.03.12/outbox.cif.g09.slc.cpg/sg62_9_cif.got.tgz:17776.got - 2010.04.10 19:12:36.
