data_PCOD8251501
_publ_section_title
;
Structure prediction by ZEFSAII (Michael W. Deem and Ramdas Pophale) SiO2 
 PCOD8251501
Probable space group: P N M A
;
_chemical_formula_sum "Si O2"
_cell_formula_units_Z 48
_cell_length_a 24.024157
_cell_length_b 8.327542
_cell_length_c 12.025352
_cell_angle_alpha 90.000000
_cell_angle_beta 90.000000
_cell_angle_gamma 90.000000
_cell_volume 2405.818093
_symmetry_space_group_name_H-M "P N M A"
_symmetry_group_IT_number 62
_symmetry_cell_setting 'orthorhombic'
loop_
_space_group_symop_operation_xyz
x,y,z
1/2-x,-y,1/2+z
1/2+x,1/2-y,1/2-z
-x,1/2+y,-z
-x,-y,-z
1/2+x,y,1/2-z
1/2-x,1/2+y,1/2+z
x,1/2-y,z
loop_
_atom_site_type_symbol
_atom_site_label
_atom_site_fract_x
_atom_site_fract_y
_atom_site_fract_z
Si Si1 0.044124 0.437148 0.733999
Si Si2 0.168221 0.940856 0.106045
Si Si3 0.393267 0.062470 0.029318
Si Si4 0.919088 0.441005 0.716421
Si Si5 0.645322 0.562821 0.641196
Si Si6 0.208133 0.437421 0.654339
O O1 0.049071 0.250000 0.761672
O O2 0.064612 0.466168 0.608360
O O3 0.081751 0.534286 0.821449
O O4 0.981125 0.500122 0.746265
O O5 0.165495 0.750000 0.109601
O O6 0.123390 0.012982 0.192608
O O7 0.229206 0.001957 0.141090
O O8 0.153425 0.003645 0.983127
O O9 0.407300 0.250000 0.038199
O O10 0.329828 0.032974 0.066661
O O11 0.401344 0.995671 0.904987
O O12 0.916954 0.250000 0.716052
O O13 0.659510 0.750000 0.649413
O O14 0.687846 0.467644 0.720139
O O15 0.203996 0.250000 0.626734
#
# Coordination Sequence:
#
# PCOD8251501 Si02
#       6
#     8   8   8   8   8   8
#     4  10  19  34  56  79 107 139 177 218 261 311
#     4   9  20  36  53  76 107 142 175 214 265 313
#     4  10  19  33  56  81 107 139 177 218 264 311
#     4   9  19  34  53  79 107 141 178 215 261 314
#     4  10  20  36  56  77 105 139 175 214 264 316
#     4  10  20  35  56  78 105 139 176 218 263 311
#
# _framework density 19.951632
#
# number of rings (size 3 to 8) (size 9 to 14) (size 15 to 20)
#    0.000    2.333    0.000    4.500    2.333    0.667 
#    0.000    5.000    0.000   11.000    0.000    0.000 
#    0.000    0.000    0.000    0.000    0.000    0.000 
#
# Total GULP energy -595285.761084 kJ/mol
# GULP energy per Si atom -12401.786689 kJ/mol
# Density = 1.990622 g / cm^3
# Si number density = 19.951632 Si / 1000 Ang^3
#
#
#
# Elastic Constant Matrix: (Units=GPa)
#
#
# Indices 1 2 3 4 5 6 
#
# 1 174.7860 1.2127 82.3713 0.0000 0.0000 0.0000
# 2 1.2127 28.7314 -0.6602 0.0000 0.0000 0.0000
# 3 82.3713 -0.6602 135.0349 0.0000 0.0000 0.0000
# 4 0.0000 0.0000 0.0000 21.8506 0.0000 0.0000
# 5 0.0000 0.0000 0.0000 0.0000 20.8028 0.0000
# 6 0.0000 0.0000 0.0000 0.0000 0.0000 18.7237
#
#
#
# Elastic Compliance Matrix: (Units=1/GPa)
#
#
# Indices 1 2 3 4 5 6 
#
# 1 0.008035 -0.000452 -0.004904 0.000000 0.000000 0.000000
# 2 -0.000452 0.034834 0.000446 0.000000 0.000000 0.000000
# 3 -0.004904 0.000446 0.010399 0.000000 0.000000 0.000000
# 4 0.000000 0.000000 0.000000 0.045765 0.000000 0.000000
# 5 0.000000 0.000000 0.000000 0.000000 0.048071 0.000000
# 6 0.000000 0.000000 0.000000 0.000000 0.000000 0.053408
#
#
# Mechanical properties :
#
#
# Convention : Reuss Voigt Hill
#
# Bulk Modulus (GPa) = 23.01523 56.04441 39.52982
# Shear Modulus (GPa) = 22.24042 29.31730 25.77886
#
# Velocity S-wave (km/s) = 3.34236 3.83746 3.59843
# Velocity P-wave (km/s) = 5.14351 6.91273 6.09268
#
# Compressibility (1/GPa) = 0.04344948
#
# Stress axis : x y z
#
# Youngs Moduli (GPa) = 124.44865 28.70718 96.16303
#
# Poissons Ratio (x) = 0.01297 0.47157
# Poissons Ratio (y) = 0.05623 -0.04288
# Poissons Ratio (z) = 0.61027 -0.01280
#
# Static dielectric constant tensor:
#      x y z
#    x 3.822560 0.000000 0.000000 
#    y 0.000000 3.312160 0.000000 
#    z 0.000000 0.000000 3.770520 
# 
# 
# High freq. dielectric constant tensor:
#      x y z
#    x 1.786440 0.000000 0.000000 
#    y 0.000000 1.753490 0.000000 
#    z 0.000000 0.000000 1.779510 
# 
# From -- ./inp_files/15113.got.cif
#   From: 2010.03.12/outbox.cif.g09.slc.cpg/sg62_8_cif.got.tgz:15113.got - 2010.04.10 19:12:36.
