data_PCOD8251920
_publ_section_title
;
Structure prediction by ZEFSAII (Michael W. Deem and Ramdas Pophale) SiO2 
 PCOD8251920
Probable space group: P N M A
;
_chemical_formula_sum "Si O2"
_cell_formula_units_Z 40
_cell_length_a 9.151393
_cell_length_b 10.568355
_cell_length_c 21.449490
_cell_angle_alpha 90.000000
_cell_angle_beta 90.000000
_cell_angle_gamma 90.000000
_cell_volume 2074.491071
_symmetry_space_group_name_H-M "P N M A"
_symmetry_group_IT_number 62
_symmetry_cell_setting 'orthorhombic'
loop_
_space_group_symop_operation_xyz
x,y,z
1/2-x,-y,1/2+z
1/2+x,1/2-y,1/2-z
-x,1/2+y,-z
-x,-y,-z
1/2+x,y,1/2-z
1/2-x,1/2+y,1/2+z
x,1/2-y,z
loop_
_atom_site_type_symbol
_atom_site_label
_atom_site_fract_x
_atom_site_fract_y
_atom_site_fract_z
Si Si1 0.372141 0.983374 0.548235
Si Si2 0.877786 0.250000 0.925820
Si Si3 0.299265 0.750000 0.185829
Si Si4 0.793157 0.750000 0.022040
Si Si5 0.894944 0.250000 0.640127
Si Si6 0.014684 0.400174 0.182632
Si Si7 0.731498 0.534440 0.225189
O O1 0.269507 0.871848 0.522662
O O2 0.429242 0.953219 0.617050
O O3 0.500000 0.000000 0.500000
O O4 0.296870 0.122888 0.549167
O O5 0.856860 0.250000 0.850408
O O6 0.050366 0.250000 0.942250
O O7 0.430130 0.750000 0.136015
O O8 0.315756 0.875291 0.226817
O O9 0.662964 0.750000 0.070354
O O10 0.845187 0.377745 0.674150
O O11 0.019428 0.250000 0.181093
O O12 0.113866 0.448163 0.239474
O O13 0.848338 0.444518 0.191676
#
# Coordination Sequence:
#
# PCOD8251920 Si02
#       7
#     8   4   4   4   4   8   8
#     4  10  20  36  61  92 117 159 210 257 301 363
#     4  10  19  35  64  87 120 158 204 261 300 361
#     4  11  21  37  60  90 122 155 202 258 313 361
#     4  10  21  39  62  91 120 163 218 255 311 363
#     4  11  23  39  64  88 128 160 208 268 300 377
#     4  12  23  40  62  90 131 163 202 261 319 381
#     4  11  23  38  60  93 122 164 203 254 323 369
#
# _framework density 19.281836999999999
#
# number of rings (size 3 to 8) (size 9 to 14) (size 15 to 20)
#    0.000    1.200    5.000    3.000    0.000    0.800 
#    0.000    1.000    0.000    0.000    0.000    0.000 
#    0.000    0.000    0.000    0.000    0.000    0.000 
#
# Total GULP energy -495745.323788 kJ/mol
# GULP energy per Si atom -12393.633095 kJ/mol
# Density = 1.923795 g / cm^3
# Si number density = 19.281837 Si / 1000 Ang^3
#
#
#
# Elastic Constant Matrix: (Units=GPa)
#
#
# Indices 1 2 3 4 5 6 
#
# 1 51.1620 20.9771 13.6187 0.0000 0.0000 0.0000
# 2 20.9771 178.1404 43.1877 0.0000 0.0000 0.0000
# 3 13.6187 43.1877 92.1225 0.0000 0.0000 0.0000
# 4 0.0000 0.0000 0.0000 25.2963 0.0000 0.0000
# 5 0.0000 0.0000 0.0000 0.0000 33.7260 0.0000
# 6 0.0000 0.0000 0.0000 0.0000 0.0000 5.0304
#
#
#
# Elastic Compliance Matrix: (Units=1/GPa)
#
#
# Indices 1 2 3 4 5 6 
#
# 1 0.020920 -0.001933 -0.002186 0.000000 0.000000 0.000000
# 2 -0.001933 0.006512 -0.002767 0.000000 0.000000 0.000000
# 3 -0.002186 -0.002767 0.012476 0.000000 0.000000 0.000000
# 4 0.000000 0.000000 0.000000 0.039532 0.000000 0.000000
# 5 0.000000 0.000000 0.000000 0.000000 0.029651 0.000000
# 6 0.000000 0.000000 0.000000 0.000000 0.000000 0.198791
#
#
# Mechanical properties :
#
#
# Convention : Reuss Voigt Hill
#
# Bulk Modulus (GPa) = 38.26379 52.99912 45.63145
# Shear Modulus (GPa) = 15.13469 29.05329 22.09399
#
# Velocity S-wave (km/s) = 2.80468 3.88592 3.38870
# Velocity P-wave (km/s) = 5.51143 6.90508 6.24724
#
# Compressibility (1/GPa) = 0.02613437
#
# Stress axis : x y z
#
# Youngs Moduli (GPa) = 47.80009 153.56102 80.15679
#
# Poissons Ratio (x) = 0.29691 0.17525
# Poissons Ratio (y) = 0.09242 0.22180
# Poissons Ratio (z) = 0.10451 0.42492
#
# Static dielectric constant tensor:
#      x y z
#    x 3.168930 0.000000 0.000000 
#    y 0.000000 4.440750 0.000000 
#    z 0.000000 0.000000 3.708350 
# 
# 
# High freq. dielectric constant tensor:
#      x y z
#    x 1.714740 0.000000 0.000000 
#    y 0.000000 1.776380 0.000000 
#    z 0.000000 0.000000 1.755180 
# 
# From -- ./inp_files/21971.got.cif
#   From: 2010.03.12/outbox.cif.g09.slc.cpg/sg62_11_cif.got.tgz:21971.got - 2010.04.10 19:12:36.
