data_PCOD8251308
_publ_section_title
;
Structure prediction by ZEFSAII (Michael W. Deem and Ramdas Pophale) SiO2 
 PCOD8251308
Probable space group: P N M A
;
_chemical_formula_sum "Si O2"
_cell_formula_units_Z 64
_cell_length_a 33.057187
_cell_length_b 9.442339
_cell_length_c 11.394509
_cell_angle_alpha 90.000000
_cell_angle_beta 90.000000
_cell_angle_gamma 90.000000
_cell_volume 3556.649748
_symmetry_space_group_name_H-M "P N M A"
_symmetry_group_IT_number 62
_symmetry_cell_setting 'orthorhombic'
loop_
_space_group_symop_operation_xyz
x,y,z
1/2-x,-y,1/2+z
1/2+x,1/2-y,1/2-z
-x,1/2+y,-z
-x,-y,-z
1/2+x,y,1/2-z
1/2-x,1/2+y,1/2+z
x,1/2-y,z
loop_
_atom_site_type_symbol
_atom_site_label
_atom_site_fract_x
_atom_site_fract_y
_atom_site_fract_z
Si Si1 0.472979 0.584765 0.663359
Si Si2 0.628609 0.087130 0.738025
Si Si3 0.548522 0.412850 0.599719
Si Si4 0.196339 0.083906 0.941695
Si Si5 0.171147 0.587810 0.162854
Si Si6 0.362743 0.084408 0.030593
Si Si7 0.785983 0.081591 0.607337
Si Si8 0.910654 0.410400 0.700418
O O1 0.478371 0.750000 0.689079
O O2 0.516877 0.512692 0.666426
O O3 0.451422 0.555031 0.538949
O O4 0.446178 0.517826 0.766456
O O5 0.627022 0.250000 0.776358
O O6 0.592843 0.050970 0.647485
O O7 0.671004 0.050899 0.675470
O O8 0.623398 0.994754 0.853403
O O9 0.536419 0.250000 0.623067
O O10 0.196609 0.250000 0.969106
O O11 0.241644 0.023733 0.924197
O O12 0.175389 0.007575 0.049413
O O13 0.181080 0.750000 0.130479
O O14 0.201813 0.529538 0.262599
O O15 0.125731 0.572663 0.208328
O O16 0.360522 0.250000 0.058320
O O17 0.318693 0.027560 0.988163
O O18 0.395655 0.052624 0.930184
O O19 0.787550 0.250000 0.609124
O O20 0.927282 0.250000 0.705265
#
# Coordination Sequence:
#
# PCOD8251308 Si02
#       8
#     8   8   8   8   8   8   8   8
#     4  10  19  32  56  84 105 131 173 217 255 307
#     4  10  21  35  52  76 106 140 172 209 262 313
#     4   9  19  35  51  75 112 143 166 205 264 316
#     4  10  20  33  51  75 104 136 167 211 267 307
#     4   9  18  33  52  74  99 131 173 211 248 306
#     4   9  19  36  55  73 100 140 180 214 254 308
#     4   8  17  34  52  71 101 137 169 209 261 306
#     4   9  18  34  54  75 102 137 171 211 264 309
#
# _framework density 17.994461999999999
#
# number of rings (size 3 to 8) (size 9 to 14) (size 15 to 20)
#    0.000    2.750    0.000    2.625    1.750    3.500 
#    0.000    3.125    0.000    0.000    0.000    0.000 
#    0.000    0.000    0.000    0.000    0.000    0.000 
#
# Total GULP energy -793639.446170 kJ/mol
# GULP energy per Si atom -12400.616346 kJ/mol
# Density = 1.795351 g / cm^3
# Si number density = 17.994462 Si / 1000 Ang^3
#
#
#
# Elastic Constant Matrix: (Units=GPa)
#
#
# Indices 1 2 3 4 5 6 
#
# 1 80.0656 34.6219 24.2098 0.0000 0.0000 0.0000
# 2 34.6219 58.8544 37.4863 0.0000 0.0000 0.0000
# 3 24.2098 37.4863 78.6169 0.0000 0.0000 0.0000
# 4 0.0000 0.0000 0.0000 32.5075 0.0000 0.0000
# 5 0.0000 0.0000 0.0000 0.0000 19.0836 0.0000
# 6 0.0000 0.0000 0.0000 0.0000 0.0000 22.2743
#
#
#
# Elastic Compliance Matrix: (Units=1/GPa)
#
#
# Indices 1 2 3 4 5 6 
#
# 1 0.016775 -0.009447 -0.000661 0.000000 0.000000 0.000000
# 2 -0.009447 0.029722 -0.011263 0.000000 0.000000 0.000000
# 3 -0.000661 -0.011263 0.018294 0.000000 0.000000 0.000000
# 4 0.000000 0.000000 0.000000 0.030762 0.000000 0.000000
# 5 0.000000 0.000000 0.000000 0.000000 0.052401 0.000000
# 6 0.000000 0.000000 0.000000 0.000000 0.000000 0.044895
#
#
# Mechanical properties :
#
#
# Convention : Reuss Voigt Hill
#
# Bulk Modulus (GPa) = 45.35435 45.57478 45.46456
# Shear Modulus (GPa) = 20.58117 22.85433 21.71775
#
# Velocity S-wave (km/s) = 3.38561 3.56768 3.47783
# Velocity P-wave (km/s) = 6.36729 6.50793 6.43800
#
# Compressibility (1/GPa) = 0.02204860
#
# Stress axis : x y z
#
# Youngs Moduli (GPa) = 59.61368 33.64501 54.66264
#
# Poissons Ratio (x) = 0.31784 0.03615
# Poissons Ratio (y) = 0.56316 0.61567
# Poissons Ratio (z) = 0.03942 0.37895
#
# Static dielectric constant tensor:
#      x y z
#    x 3.420780 0.000000 0.000000 
#    y 0.000000 3.151100 0.000000 
#    z 0.000000 0.000000 3.181070 
# 
# 
# High freq. dielectric constant tensor:
#      x y z
#    x 1.699450 0.000000 0.000000 
#    y 0.000000 1.682360 0.000000 
#    z 0.000000 0.000000 1.690430 
# 
# From -- ./inp_files/15799.got.cif
#   From: 2010.03.12/outbox.cif.g09.slc.cpg/sg62_8_cif.got.tgz:15799.got - 2010.04.10 19:12:36.
