data_PCOD8251954
_publ_section_title
;
Structure prediction by ZEFSAII (Michael W. Deem and Ramdas Pophale) SiO2 
 PCOD8251954
Probable space group: P N M A
;
_chemical_formula_sum "Si O2"
_cell_formula_units_Z 48
_cell_length_a 13.335007
_cell_length_b 13.672312
_cell_length_c 12.974513
_cell_angle_alpha 90.000000
_cell_angle_beta 90.000000
_cell_angle_gamma 90.000000
_cell_volume 2365.518092
_symmetry_space_group_name_H-M "P N M A"
_symmetry_group_IT_number 62
_symmetry_cell_setting 'orthorhombic'
loop_
_space_group_symop_operation_xyz
x,y,z
1/2-x,-y,1/2+z
1/2+x,1/2-y,1/2-z
-x,1/2+y,-z
-x,-y,-z
1/2+x,y,1/2-z
1/2-x,1/2+y,1/2+z
x,1/2-y,z
loop_
_atom_site_type_symbol
_atom_site_label
_atom_site_fract_x
_atom_site_fract_y
_atom_site_fract_z
Si Si1 0.183777 0.134979 0.692160
Si Si2 0.880184 0.503125 0.486986
Si Si3 0.735698 0.137368 0.379225
Si Si4 0.336694 0.492904 0.781553
Si Si5 0.029961 0.467068 0.833253
Si Si6 0.982341 0.861061 0.965803
O O1 0.164148 0.250000 0.699394
O O2 0.296325 0.106495 0.725490
O O3 0.128356 0.074850 0.781761
O O4 0.152288 0.099190 0.578058
O O5 0.836074 0.407667 0.429808
O O6 0.823815 0.504051 0.596481
O O7 0.000000 0.500000 0.500000
O O8 0.758455 0.250000 0.359640
O O9 0.637121 0.121157 0.450004
O O10 0.715840 0.087043 0.269370
O O11 0.454391 0.486697 0.759918
O O12 0.048407 0.570923 0.890247
O O13 0.990100 0.388926 0.917198
O O14 0.013120 0.750000 0.943082
#
# Coordination Sequence:
#
# PCOD8251954 Si02
#       6
#     8   8   8   8   8   8
#     4  11  24  40  61  90 122 163 209 253 311 372
#     4  11  22  40  61  91 127 162 201 255 311 364
#     4   9  20  39  62  87 117 161 205 247 307 370
#     4  10  22  40  61  85 125 158 201 256 305 365
#     4  10  19  36  58  85 123 159 198 261 304 359
#     4   9  18  34  60  89 118 159 208 252 305 367
#
# _framework density 20.291539
#
# number of rings (size 3 to 8) (size 9 to 14) (size 15 to 20)
#    0.000    2.000    1.667    1.500    0.000    6.000 
#    0.000    3.333    0.000    0.000    0.000    0.000 
#    0.000    0.000    0.000    0.000    0.000    0.000 
#
# Total GULP energy -594981.725195 kJ/mol
# GULP energy per Si atom -12395.452608 kJ/mol
# Density = 2.024535 g / cm^3
# Si number density = 20.291539 Si / 1000 Ang^3
#
#
#
# Elastic Constant Matrix: (Units=GPa)
#
#
# Indices 1 2 3 4 5 6 
#
# 1 42.5566 37.5404 25.8629 0.0000 0.0000 0.0000
# 2 37.5404 162.1481 48.7117 0.0000 0.0000 0.0000
# 3 25.8629 48.7117 121.1118 0.0000 0.0000 0.0000
# 4 0.0000 0.0000 0.0000 17.4488 0.0000 0.0000
# 5 0.0000 0.0000 0.0000 0.0000 26.2438 0.0000
# 6 0.0000 0.0000 0.0000 0.0000 0.0000 26.4604
#
#
#
# Elastic Compliance Matrix: (Units=1/GPa)
#
#
# Indices 1 2 3 4 5 6 
#
# 1 0.031380 -0.005974 -0.004298 0.000000 0.000000 0.000000
# 2 -0.005974 0.008152 -0.002003 0.000000 0.000000 0.000000
# 3 -0.004298 -0.002003 0.009980 0.000000 0.000000 0.000000
# 4 0.000000 0.000000 0.000000 0.057310 0.000000 0.000000
# 5 0.000000 0.000000 0.000000 0.000000 0.038104 0.000000
# 6 0.000000 0.000000 0.000000 0.000000 0.000000 0.037792
#
#
# Mechanical properties :
#
#
# Convention : Reuss Voigt Hill
#
# Bulk Modulus (GPa) = 40.06107 61.11628 50.58868
# Shear Modulus (GPa) = 23.19210 28.27736 25.73473
#
# Velocity S-wave (km/s) = 3.38441 3.73708 3.56511
# Velocity P-wave (km/s) = 5.92098 6.98610 6.47547
#
# Compressibility (1/GPa) = 0.02496189
#
# Stress axis : x y z
#
# Youngs Moduli (GPa) = 31.86741 122.66925 100.19645
#
# Poissons Ratio (x) = 0.73280 0.43068
# Poissons Ratio (y) = 0.19037 0.20070
# Poissons Ratio (z) = 0.13698 0.24572
#
# Static dielectric constant tensor:
#      x y z
#    x 3.644950 0.000000 0.000000 
#    y 0.000000 3.614750 0.000000 
#    z 0.000000 0.000000 3.746930 
# 
# 
# High freq. dielectric constant tensor:
#      x y z
#    x 1.787330 0.000000 0.000000 
#    y 0.000000 1.783530 0.000000 
#    z 0.000000 0.000000 1.802820 
# 
# From -- ./inp_files/13271.got.cif
#   From: 2010.03.12/outbox.cif.g09.slc.cpg/sg62_7_cif.got.tgz:13271.got - 2010.04.10 19:12:36.
