data_PCOD8251593
_publ_section_title
;
Structure prediction by ZEFSAII (Michael W. Deem and Ramdas Pophale) SiO2 
 PCOD8251593
Probable space group: P N M A
;
_chemical_formula_sum "Si O2"
_cell_formula_units_Z 64
_cell_length_a 18.825790
_cell_length_b 9.304590
_cell_length_c 19.063528
_cell_angle_alpha 90.000000
_cell_angle_beta 90.000000
_cell_angle_gamma 90.000000
_cell_volume 3339.286852
_symmetry_space_group_name_H-M "P N M A"
_symmetry_group_IT_number 62
_symmetry_cell_setting 'orthorhombic'
loop_
_space_group_symop_operation_xyz
x,y,z
1/2-x,-y,1/2+z
1/2+x,1/2-y,1/2-z
-x,1/2+y,-z
-x,-y,-z
1/2+x,y,1/2-z
1/2-x,1/2+y,1/2+z
x,1/2-y,z
loop_
_atom_site_type_symbol
_atom_site_label
_atom_site_fract_x
_atom_site_fract_y
_atom_site_fract_z
Si Si1 0.372315 0.920766 0.173172
Si Si2 0.981893 0.583811 0.699195
Si Si3 0.641517 0.915411 0.459886
Si Si4 0.300001 0.579478 0.031711
Si Si5 0.341599 0.916240 0.878892
Si Si6 0.219871 0.082174 0.806472
Si Si7 0.955250 0.414809 0.831076
Si Si8 0.404304 0.583723 0.412414
O O1 0.384039 0.750000 0.176407
O O2 0.345626 0.976786 0.097565
O O3 0.315224 0.966648 0.232657
O O4 0.447529 0.994513 0.185224
O O5 0.001809 0.750000 0.709999
O O6 0.925014 0.563765 0.636846
O O7 0.942313 0.522113 0.767316
O O8 0.641462 0.750000 0.482663
O O9 0.720450 0.980802 0.460320
O O10 0.610883 0.935601 0.382513
O O11 0.592931 0.997659 0.515373
O O12 0.299586 0.750000 0.034831
O O13 0.331342 0.523230 0.957925
O O14 0.318957 0.750000 0.874654
O O15 0.292911 0.999261 0.822339
O O16 0.237927 0.250000 0.803545
O O17 0.165838 0.044731 0.868899
O O18 0.960345 0.250000 0.804854
O O19 0.028054 0.462234 0.867590
O O20 0.408100 0.750000 0.431727
#
# Coordination Sequence:
#
# PCOD8251593 Si02
#       8
#     8   8   8   8   8   8   8   8
#     4  10  21  40  63  85 112 148 192 240 283 332
#     4  11  24  39  57  84 116 152 190 235 291 343
#     4  10  20  34  57  86 113 152 195 228 278 344
#     4   9  19  37  60  84 110 146 190 236 282 334
#     4  10  22  40  59  83 117 151 188 233 287 342
#     4  10  20  35  59  87 112 146 188 230 282 336
#     4  10  21  37  57  83 116 152 194 236 275 336
#     4  10  19  34  54  82 119 150 182 232 284 334
#
# _framework density 19.165769000000001
#
# number of rings (size 3 to 8) (size 9 to 14) (size 15 to 20)
#    0.000    2.000    2.500    0.750    1.750    3.000 
#    0.000    1.250    0.000    0.000    0.000    0.000 
#    0.000    0.000    0.000    0.000    0.000    0.000 
#
# Total GULP energy -793706.595041 kJ/mol
# GULP energy per Si atom -12401.665548 kJ/mol
# Density = 1.912215 g / cm^3
# Si number density = 19.165769 Si / 1000 Ang^3
#
#
#
# Elastic Constant Matrix: (Units=GPa)
#
#
# Indices 1 2 3 4 5 6 
#
# 1 77.3744 34.8635 50.6296 0.0000 0.0000 0.0000
# 2 34.8635 49.4785 41.6364 0.0000 0.0000 0.0000
# 3 50.6296 41.6364 117.1184 0.0000 0.0000 0.0000
# 4 0.0000 0.0000 0.0000 24.3399 0.0000 0.0000
# 5 0.0000 0.0000 0.0000 0.0000 26.6467 0.0000
# 6 0.0000 0.0000 0.0000 0.0000 0.0000 23.4601
#
#
#
# Elastic Compliance Matrix: (Units=1/GPa)
#
#
# Indices 1 2 3 4 5 6 
#
# 1 0.021148 -0.010285 -0.005486 0.000000 0.000000 0.000000
# 2 -0.010285 0.033840 -0.007584 0.000000 0.000000 0.000000
# 3 -0.005486 -0.007584 0.013606 0.000000 0.000000 0.000000
# 4 0.000000 0.000000 0.000000 0.041085 0.000000 0.000000
# 5 0.000000 0.000000 0.000000 0.000000 0.037528 0.000000
# 6 0.000000 0.000000 0.000000 0.000000 0.000000 0.042626
#
#
# Mechanical properties :
#
#
# Convention : Reuss Voigt Hill
#
# Bulk Modulus (GPa) = 45.69528 55.35892 50.52710
# Shear Modulus (GPa) = 20.50552 22.67880 21.59216
#
# Velocity S-wave (km/s) = 3.27449 3.44364 3.36013
# Velocity P-wave (km/s) = 6.17982 6.69018 6.44006
#
# Compressibility (1/GPa) = 0.02188410
#
# Stress axis : x y z
#
# Youngs Moduli (GPa) = 47.28593 29.55094 73.49658
#
# Poissons Ratio (x) = 0.30393 0.40318
# Poissons Ratio (y) = 0.48633 0.55741
# Poissons Ratio (z) = 0.25940 0.22412
#
# Static dielectric constant tensor:
#      x y z
#    x 3.507080 0.000000 0.000000 
#    y 0.000000 3.296510 0.000000 
#    z 0.000000 0.000000 3.689150 
# 
# 
# High freq. dielectric constant tensor:
#      x y z
#    x 1.751970 0.000000 0.000000 
#    y 0.000000 1.722900 0.000000 
#    z 0.000000 0.000000 1.751980 
# 
# From -- ./inp_files/24739.got.cif
#   From: 2010.03.12/outbox.cif.g09.slc.cpg/sg62_13_cif.got.tgz:24739.got - 2010.04.10 19:12:36.
