data_PCOD8251812
_publ_section_title
;
Structure prediction by ZEFSAII (Michael W. Deem and Ramdas Pophale) SiO2 
 PCOD8251812
Probable space group: P N M A
;
_chemical_formula_sum "Si O2"
_cell_formula_units_Z 48
_cell_length_a 9.167362
_cell_length_b 9.112079
_cell_length_c 30.482302
_cell_angle_alpha 90.000000
_cell_angle_beta 90.000000
_cell_angle_gamma 90.000000
_cell_volume 2546.300286
_symmetry_space_group_name_H-M "P N M A"
_symmetry_group_IT_number 62
_symmetry_cell_setting 'orthorhombic'
loop_
_space_group_symop_operation_xyz
x,y,z
1/2-x,-y,1/2+z
1/2+x,1/2-y,1/2-z
-x,1/2+y,-z
-x,-y,-z
1/2+x,y,1/2-z
1/2-x,1/2+y,1/2+z
x,1/2-y,z
loop_
_atom_site_type_symbol
_atom_site_label
_atom_site_fract_x
_atom_site_fract_y
_atom_site_fract_z
Si Si1 0.338342 0.576493 0.710807
Si Si2 0.650219 0.923724 0.871391
Si Si3 0.146610 0.419458 0.952024
Si Si4 0.354931 0.921784 0.550839
Si Si5 0.669328 0.924986 0.703496
Si Si6 0.842700 0.078224 0.627977
O O1 0.336861 0.750000 0.711231
O O2 0.252053 0.520317 0.668192
O O3 0.260443 0.518429 0.754662
O O4 0.503858 0.519863 0.709737
O O5 0.621847 0.750000 0.868853
O O6 0.725714 0.971575 0.916911
O O7 0.498953 0.006015 0.867112
O O8 0.102861 0.250000 0.951515
O O9 0.284637 0.451480 0.921211
O O10 0.006092 0.505414 0.934353
O O11 0.188203 0.469649 0.001429
O O12 0.380241 0.750000 0.555372
O O13 0.679248 0.750000 0.697656
O O14 0.730390 0.002853 0.660739
O O15 0.853136 0.250000 0.638389
#
# Coordination Sequence:
#
# PCOD8251812 Si02
#       6
#     8   8   8   8   8   8
#     4   9  18  33  57  84 105 129 167 218 266 304
#     4  10  20  35  55  79 105 135 176 220 258 302
#     4   9  19  35  53  76 108 140 170 211 262 311
#     4   9  18  34  57  81 102 131 175 219 258 308
#     4  10  19  35  58  80 103 133 171 213 259 308
#     4  11  23  36  50  74 109 144 175 209 255 308
#
# _framework density 18.850878999999999
#
# number of rings (size 3 to 8) (size 9 to 14) (size 15 to 20)
#    0.000    2.333    0.000    2.500    0.000    6.667 
#    0.000    4.167    0.000    0.000    0.000    0.000 
#    0.000    0.000    0.000    0.000    0.000    0.000 
#
# Total GULP energy -595282.545885 kJ/mol
# GULP energy per Si atom -12401.719706 kJ/mol
# Density = 1.880797 g / cm^3
# Si number density = 18.850879 Si / 1000 Ang^3
#
#
#
# Elastic Constant Matrix: (Units=GPa)
#
#
# Indices 1 2 3 4 5 6 
#
# 1 143.5774 34.1068 59.8989 0.0000 0.0000 0.0000
# 2 34.1068 37.8495 30.0299 0.0000 0.0000 0.0000
# 3 59.8989 30.0299 108.9976 0.0000 0.0000 0.0000
# 4 0.0000 0.0000 0.0000 23.8806 0.0000 0.0000
# 5 0.0000 0.0000 0.0000 0.0000 38.4353 0.0000
# 6 0.0000 0.0000 0.0000 0.0000 0.0000 23.6026
#
#
#
# Elastic Compliance Matrix: (Units=1/GPa)
#
#
# Indices 1 2 3 4 5 6 
#
# 1 0.009982 -0.005941 -0.003849 0.000000 0.000000 0.000000
# 2 -0.005941 0.037348 -0.007025 0.000000 0.000000 0.000000
# 3 -0.003849 -0.007025 0.013225 0.000000 0.000000 0.000000
# 4 0.000000 0.000000 0.000000 0.041875 0.000000 0.000000
# 5 0.000000 0.000000 0.000000 0.000000 0.026018 0.000000
# 6 0.000000 0.000000 0.000000 0.000000 0.000000 0.042368
#
#
# Mechanical properties :
#
#
# Convention : Reuss Voigt Hill
#
# Bulk Modulus (GPa) = 37.13986 59.83286 48.48636
# Shear Modulus (GPa) = 23.42806 28.27629 25.85217
#
# Velocity S-wave (km/s) = 3.52918 3.87718 3.70727
# Velocity P-wave (km/s) = 6.02922 7.20086 6.64093
#
# Compressibility (1/GPa) = 0.02692525
#
# Stress axis : x y z
#
# Youngs Moduli (GPa) = 100.18209 26.77548 75.61553
#
# Poissons Ratio (x) = 0.15908 0.29101
# Poissons Ratio (y) = 0.59522 0.53117
# Poissons Ratio (z) = 0.38556 0.18809
#
# Static dielectric constant tensor:
#      x y z
#    x 3.532430 0.000000 0.000000 
#    y 0.000000 3.221610 0.000000 
#    z 0.000000 0.000000 3.819310 
# 
# 
# High freq. dielectric constant tensor:
#      x y z
#    x 1.737550 0.000000 0.000000 
#    y 0.000000 1.706760 0.000000 
#    z 0.000000 0.000000 1.748790 
# 
# From -- ./inp_files/31939.got.cif
#   From: 2010.03.12/outbox.cif.g09.slc.cpg/sg62_16_cif.got.tgz:31939.got - 2010.04.10 19:12:36.
