data_PCOD8251146
_publ_section_title
;
Structure prediction by ZEFSAII (Michael W. Deem and Ramdas Pophale) SiO2 
 PCOD8251146
Probable space group: P N M A
;
_chemical_formula_sum "Si O2"
_cell_formula_units_Z 64
_cell_length_a 29.478248
_cell_length_b 9.049993
_cell_length_c 12.896883
_cell_angle_alpha 90.000000
_cell_angle_beta 90.000000
_cell_angle_gamma 90.000000
_cell_volume 3440.603854
_symmetry_space_group_name_H-M "P N M A"
_symmetry_group_IT_number 62
_symmetry_cell_setting 'orthorhombic'
loop_
_space_group_symop_operation_xyz
x,y,z
1/2-x,-y,1/2+z
1/2+x,1/2-y,1/2-z
-x,1/2+y,-z
-x,-y,-z
1/2+x,y,1/2-z
1/2-x,1/2+y,1/2+z
x,1/2-y,z
loop_
_atom_site_type_symbol
_atom_site_label
_atom_site_fract_x
_atom_site_fract_y
_atom_site_fract_z
Si Si1 0.902947 0.424698 0.549785
Si Si2 0.117423 0.427349 0.868195
Si Si3 0.807487 0.423590 0.630483
Si Si4 0.680225 0.413161 0.335242
Si Si5 0.431271 0.076705 0.180429
Si Si6 0.786826 0.924531 0.052781
Si Si7 0.080096 0.413189 0.078440
Si Si8 0.465659 0.925768 0.779196
O O1 0.907803 0.250000 0.566475
O O2 0.850992 0.479037 0.564982
O O3 0.917816 0.472509 0.435010
O O4 0.934647 0.503448 0.632927
O O5 0.115869 0.250000 0.868330
O O6 0.100430 0.490360 0.760110
O O7 0.169122 0.484842 0.884960
O O8 0.085791 0.488626 0.964452
O O9 0.803890 0.250000 0.619354
O O10 0.813769 0.463781 0.749384
O O11 0.760282 0.496694 0.592044
O O12 0.695257 0.250000 0.295551
O O13 0.710551 0.465008 0.431838
O O14 0.628721 0.404451 0.369242
O O15 0.423909 0.250000 0.197457
O O16 0.482925 0.029180 0.198659
O O17 0.786454 0.750000 0.067497
O O18 0.060402 0.250000 0.059155
O O19 0.047229 0.490528 0.163996
O O20 0.457942 0.750000 0.782695
#
# Coordination Sequence:
#
# PCOD8251146 Si02
#       8
#     8   8   8   8   8   8   8   8
#     4  10  21  35  50  73 107 139 170 212 261 310
#     4   9  18  35  55  73  98 135 174 211 254 311
#     4  10  19  32  51  75 102 131 166 211 260 305
#     4   9  16  31  53  73  96 131 173 210 248 301
#     4  10  22  36  50  75 111 142 167 209 267 312
#     4   8  17  33  52  73  99 134 169 205 259 313
#     4   8  15  30  53  76  98 127 169 217 254 291
#     4  10  19  34  56  77 101 136 176 217 257 303
#
# _framework density 18.601386000000002
#
# number of rings (size 3 to 8) (size 9 to 14) (size 15 to 20)
#    0.000    2.750    1.250    1.875    0.000    2.500 
#    0.000    5.625    0.000    0.000    0.000    0.000 
#    0.000    0.000    0.000    0.000    0.000    0.000 
#
# Total GULP energy -793091.594019 kJ/mol
# GULP energy per Si atom -12392.056157 kJ/mol
# Density = 1.855905 g / cm^3
# Si number density = 18.601386 Si / 1000 Ang^3
#
#
#
# Elastic Constant Matrix: (Units=GPa)
#
#
# Indices 1 2 3 4 5 6 
#
# 1 99.1572 21.2142 37.0136 0.0000 0.0000 0.0000
# 2 21.2142 11.6071 11.8510 0.0000 0.0000 0.0000
# 3 37.0136 11.8510 69.1121 0.0000 0.0000 0.0000
# 4 0.0000 0.0000 0.0000 25.2141 0.0000 0.0000
# 5 0.0000 0.0000 0.0000 0.0000 13.8202 0.0000
# 6 0.0000 0.0000 0.0000 0.0000 0.0000 11.3744
#
#
#
# Elastic Compliance Matrix: (Units=1/GPa)
#
#
# Indices 1 2 3 4 5 6 
#
# 1 0.017778 -0.027604 -0.004788 0.000000 0.000000 0.000000
# 2 -0.027604 0.147301 -0.010475 0.000000 0.000000 0.000000
# 3 -0.004788 -0.010475 0.018830 0.000000 0.000000 0.000000
# 4 0.000000 0.000000 0.000000 0.039660 0.000000 0.000000
# 5 0.000000 0.000000 0.000000 0.000000 0.072358 0.000000
# 6 0.000000 0.000000 0.000000 0.000000 0.000000 0.087917
#
#
# Mechanical properties :
#
#
# Convention : Reuss Voigt Hill
#
# Bulk Modulus (GPa) = 10.18591 35.55935 22.87263
# Shear Modulus (GPa) = 9.95417 17.40157 13.67787
#
# Velocity S-wave (km/s) = 2.31580 3.06191 2.71461
# Velocity P-wave (km/s) = 3.55504 5.62658 4.70621
#
# Compressibility (1/GPa) = 0.09817484
#
# Stress axis : x y z
#
# Youngs Moduli (GPa) = 56.24944 6.78883 53.10815
#
# Poissons Ratio (x) = 0.18740 0.25427
# Poissons Ratio (y) = 1.55272 0.55630
# Poissons Ratio (z) = 0.26930 0.07111
#
# Static dielectric constant tensor:
#      x y z
#    x 3.815820 0.000000 0.000000 
#    y 0.000000 3.173280 0.000000 
#    z 0.000000 0.000000 3.626450 
# 
# 
# High freq. dielectric constant tensor:
#      x y z
#    x 1.727790 0.000000 0.000000 
#    y 0.000000 1.681330 0.000000 
#    z 0.000000 0.000000 1.730800 
# 
# From -- ./inp_files/15846.got.cif
#   From: 2010.03.12/outbox.cif.g09.slc.cpg/sg62_8_cif.got.tgz:15846.got - 2010.04.10 19:12:36.
