data_PCOD8251025
_publ_section_title
;
Structure prediction by ZEFSAII (Michael W. Deem and Ramdas Pophale) SiO2 
 PCOD8251025
Probable space group: P N M A
;
_chemical_formula_sum "Si O2"
_cell_formula_units_Z 56
_cell_length_a 15.429431
_cell_length_b 8.808361
_cell_length_c 21.590218
_cell_angle_alpha 90.000000
_cell_angle_beta 90.000000
_cell_angle_gamma 90.000000
_cell_volume 2934.283311
_symmetry_space_group_name_H-M "P N M A"
_symmetry_group_IT_number 62
_symmetry_cell_setting 'orthorhombic'
loop_
_space_group_symop_operation_xyz
x,y,z
1/2-x,-y,1/2+z
1/2+x,1/2-y,1/2-z
-x,1/2+y,-z
-x,-y,-z
1/2+x,y,1/2-z
1/2-x,1/2+y,1/2+z
x,1/2-y,z
loop_
_atom_site_type_symbol
_atom_site_label
_atom_site_fract_x
_atom_site_fract_y
_atom_site_fract_z
Si Si1 0.583665 0.428953 0.216051
Si Si2 0.542005 0.920310 0.557984
Si Si3 0.451294 0.929557 0.312557
Si Si4 0.246125 0.071762 0.814079
Si Si5 0.508427 0.578935 0.097101
Si Si6 0.243351 0.579796 0.942448
Si Si7 0.372156 0.420748 0.022734
O O1 0.582134 0.250000 0.223620
O O2 0.515974 0.500048 0.263407
O O3 0.682062 0.488335 0.228759
O O4 0.556178 0.476398 0.147330
O O5 0.505255 0.750000 0.565603
O O6 0.642816 0.916582 0.543889
O O7 0.500000 0.000000 0.500000
O O8 0.521026 0.012416 0.620078
O O9 0.459492 0.750000 0.311763
O O10 0.351908 0.978633 0.296231
O O11 0.259308 0.250000 0.806420
O O12 0.265440 0.028710 0.885053
O O13 0.494609 0.750000 0.122590
O O14 0.415629 0.504220 0.081377
O O15 0.564247 0.580529 0.035393
O O16 0.278151 0.750000 0.928253
O O17 0.286573 0.513472 0.004400
O O18 0.347385 0.250000 0.042515
#
# Coordination Sequence:
#
# PCOD8251025 Si02
#       7
#     8   8   8   8   8   8   8
#     4  12  23  36  58  85 117 153 189 233 285 340
#     4  10  21  38  60  86 113 144 184 231 283 334
#     4  10  22  40  62  86 115 149 190 238 284 336
#     4  10  20  36  58  83 110 147 192 235 280 335
#     4  10  20  33  51  76 112 149 184 224 269 324
#     4  10  19  32  54  82 112 145 185 231 277 330
#     4  10  19  31  50  78 111 146 184 226 271 321
#
# _framework density 19.084727999999998
#
# number of rings (size 3 to 8) (size 9 to 14) (size 15 to 20)
#    0.000    1.714    1.429    3.857    0.000    4.571 
#    0.000    1.429    0.000    8.571    0.000    0.000 
#    0.000    0.000    0.000    0.000    0.000    0.000 
#
# Total GULP energy -694438.934488 kJ/mol
# GULP energy per Si atom -12400.695259 kJ/mol
# Density = 1.904129 g / cm^3
# Si number density = 19.084728 Si / 1000 Ang^3
#
#
#
# Elastic Constant Matrix: (Units=GPa)
#
#
# Indices 1 2 3 4 5 6 
#
# 1 93.6712 49.3878 48.8751 0.0000 0.0000 0.0000
# 2 49.3878 118.2444 34.5725 0.0000 0.0000 0.0000
# 3 48.8751 34.5725 55.8924 0.0000 0.0000 0.0000
# 4 0.0000 0.0000 0.0000 33.1966 0.0000 0.0000
# 5 0.0000 0.0000 0.0000 0.0000 36.1366 0.0000
# 6 0.0000 0.0000 0.0000 0.0000 0.0000 31.7268
#
#
#
# Elastic Compliance Matrix: (Units=1/GPa)
#
#
# Indices 1 2 3 4 5 6 
#
# 1 0.021212 -0.004195 -0.015954 0.000000 0.000000 0.000000
# 2 -0.004195 0.011154 -0.003231 0.000000 0.000000 0.000000
# 3 -0.015954 -0.003231 0.033841 0.000000 0.000000 0.000000
# 4 0.000000 0.000000 0.000000 0.030124 0.000000 0.000000
# 5 0.000000 0.000000 0.000000 0.000000 0.027673 0.000000
# 6 0.000000 0.000000 0.000000 0.000000 0.000000 0.031519
#
#
# Mechanical properties :
#
#
# Convention : Reuss Voigt Hill
#
# Bulk Modulus (GPa) = 51.42191 59.27543 55.34867
# Shear Modulus (GPa) = 23.95059 29.21018 26.58038
#
# Velocity S-wave (km/s) = 3.54639 3.91647 3.73601
# Velocity P-wave (km/s) = 6.61601 7.18180 6.90470
#
# Compressibility (1/GPa) = 0.01944696
#
# Stress axis : x y z
#
# Youngs Moduli (GPa) = 47.14398 89.65480 29.55026
#
# Poissons Ratio (x) = 0.37610 0.47143
# Poissons Ratio (y) = 0.19777 0.09548
# Poissons Ratio (z) = 0.75212 0.28967
#
# Static dielectric constant tensor:
#      x y z
#    x 3.709520 0.000000 0.000000 
#    y 0.000000 3.871100 0.000000 
#    z 0.000000 0.000000 3.229610 
# 
# 
# High freq. dielectric constant tensor:
#      x y z
#    x 1.743690 0.000000 0.000000 
#    y 0.000000 1.762360 0.000000 
#    z 0.000000 0.000000 1.711600 
# 
# From -- ./inp_files/27148.got.cif
#   From: 2010.03.12/outbox.cif.g09.slc.cpg/sg62_14_cif.got.tgz:27148.got - 2010.04.10 19:12:36.
