data_PCOD8251083
_publ_section_title
;
Structure prediction by ZEFSAII (Michael W. Deem and Ramdas Pophale) SiO2 
 PCOD8251083
Probable space group: P N M A
;
_chemical_formula_sum "Si O2"
_cell_formula_units_Z 56
_cell_length_a 14.414433
_cell_length_b 9.133589
_cell_length_c 21.288553
_cell_angle_alpha 90.000000
_cell_angle_beta 90.000000
_cell_angle_gamma 90.000000
_cell_volume 2802.755232
_symmetry_space_group_name_H-M "P N M A"
_symmetry_group_IT_number 62
_symmetry_cell_setting 'orthorhombic'
loop_
_space_group_symop_operation_xyz
x,y,z
1/2-x,-y,1/2+z
1/2+x,1/2-y,1/2-z
-x,1/2+y,-z
-x,-y,-z
1/2+x,y,1/2-z
1/2-x,1/2+y,1/2+z
x,1/2-y,z
loop_
_atom_site_type_symbol
_atom_site_label
_atom_site_fract_x
_atom_site_fract_y
_atom_site_fract_z
Si Si1 0.834864 0.580942 0.358173
Si Si2 0.138810 0.915770 0.083543
Si Si3 0.821367 0.078138 0.229900
Si Si4 0.699551 0.081486 0.112344
Si Si5 0.656668 0.414133 0.536568
Si Si6 0.031506 0.085387 0.843121
Si Si7 0.496574 0.077553 0.067460
O O1 0.864733 0.750000 0.349151
O O2 0.746902 0.567487 0.402953
O O3 0.803294 0.511722 0.292595
O O4 0.916950 0.490248 0.389638
O O5 0.113413 0.750000 0.065048
O O6 0.075966 0.958356 0.144470
O O7 0.112291 0.016709 0.025342
O O8 0.823119 0.250000 0.244410
O O9 0.739802 0.034759 0.180665
O O10 0.922267 0.030486 0.203818
O O11 0.723077 0.250000 0.100722
O O12 0.590459 0.049749 0.107062
O O13 0.749416 0.995268 0.056703
O O14 0.686401 0.250000 0.521119
O O15 0.579820 0.423888 0.589632
O O16 0.040747 0.250000 0.815011
O O17 0.479433 0.250000 0.057128
O O18 0.500000 0.000000 0.000000
#
# Coordination Sequence:
#
# PCOD8251083 Si02
#       7
#     8   8   8   8   8   8   8
#     4  11  24  40  57  80 111 148 187 232 280 330
#     4  10  21  36  54  77 110 148 181 217 269 325
#     4  10  21  39  60  82 108 142 184 231 280 333
#     4   9  20  38  59  81 111 149 186 227 280 337
#     4  10  19  31  54  86 115 142 178 223 269 321
#     4   9  19  36  56  81 112 145 180 220 268 327
#     4  11  23  40  61  87 117 152 194 240 289 341
#
# _framework density 19.980340000000002
#
# number of rings (size 3 to 8) (size 9 to 14) (size 15 to 20)
#    0.000    2.000    0.000    3.000    0.000    8.571 
#    0.000    2.857    0.000    0.000    0.000    0.000 
#    0.000    0.000    0.000    0.000    0.000    0.000 
#
# Total GULP energy -694457.973822 kJ/mol
# GULP energy per Si atom -12401.035247 kJ/mol
# Density = 1.993486 g / cm^3
# Si number density = 19.980340 Si / 1000 Ang^3
#
#
#
# Elastic Constant Matrix: (Units=GPa)
#
#
# Indices 1 2 3 4 5 6 
#
# 1 90.1623 35.6748 11.0719 0.0000 0.0000 0.0000
# 2 35.6748 99.3717 40.7445 0.0000 0.0000 0.0000
# 3 11.0719 40.7445 79.2050 0.0000 0.0000 0.0000
# 4 0.0000 0.0000 0.0000 38.8113 0.0000 0.0000
# 5 0.0000 0.0000 0.0000 0.0000 20.6625 0.0000
# 6 0.0000 0.0000 0.0000 0.0000 0.0000 30.1399
#
#
#
# Elastic Compliance Matrix: (Units=1/GPa)
#
#
# Indices 1 2 3 4 5 6 
#
# 1 0.012961 -0.004955 0.000737 0.000000 0.000000 0.000000
# 2 -0.004955 0.014648 -0.006842 0.000000 0.000000 0.000000
# 3 0.000737 -0.006842 0.016042 0.000000 0.000000 0.000000
# 4 0.000000 0.000000 0.000000 0.025766 0.000000 0.000000
# 5 0.000000 0.000000 0.000000 0.000000 0.048397 0.000000
# 6 0.000000 0.000000 0.000000 0.000000 0.000000 0.033179
#
#
# Mechanical properties :
#
#
# Convention : Reuss Voigt Hill
#
# Bulk Modulus (GPa) = 46.44611 49.30239 47.87425
# Shear Modulus (GPa) = 27.73306 30.00592 28.86949
#
# Velocity S-wave (km/s) = 3.72965 3.87947 3.80530
# Velocity P-wave (km/s) = 6.46865 6.69299 6.58178
#
# Compressibility (1/GPa) = 0.02153033
#
# Stress axis : x y z
#
# Youngs Moduli (GPa) = 77.15262 68.26967 62.33540
#
# Poissons Ratio (x) = 0.33831 -0.04596
# Poissons Ratio (y) = 0.38233 0.42652
# Poissons Ratio (z) = -0.05689 0.46713
#
# Static dielectric constant tensor:
#      x y z
#    x 3.754160 0.000000 0.000000 
#    y 0.000000 3.766560 0.000000 
#    z 0.000000 0.000000 3.539890 
# 
# 
# High freq. dielectric constant tensor:
#      x y z
#    x 1.784630 0.000000 0.000000 
#    y 0.000000 1.786260 0.000000 
#    z 0.000000 0.000000 1.772890 
# 
# From -- ./inp_files/27202.got.cif
#   From: 2010.03.12/outbox.cif.g09.slc.cpg/sg62_14_cif.got.tgz:27202.got - 2010.04.10 19:12:36.
