data_PCOD8251602
_publ_section_title
;
Structure prediction by ZEFSAII (Michael W. Deem and Ramdas Pophale) SiO2 
 PCOD8251602
Probable space group: P N M A
;
_chemical_formula_sum "Si O2"
_cell_formula_units_Z 56
_cell_length_a 14.535420
_cell_length_b 8.878352
_cell_length_c 21.936039
_cell_angle_alpha 90.000000
_cell_angle_beta 90.000000
_cell_angle_gamma 90.000000
_cell_volume 2830.858451
_symmetry_space_group_name_H-M "P N M A"
_symmetry_group_IT_number 62
_symmetry_cell_setting 'orthorhombic'
loop_
_space_group_symop_operation_xyz
x,y,z
1/2-x,-y,1/2+z
1/2+x,1/2-y,1/2-z
-x,1/2+y,-z
-x,-y,-z
1/2+x,y,1/2-z
1/2-x,1/2+y,1/2+z
x,1/2-y,z
loop_
_atom_site_type_symbol
_atom_site_label
_atom_site_fract_x
_atom_site_fract_y
_atom_site_fract_z
Si Si1 0.801233 0.428899 0.123003
Si Si2 0.981791 0.577694 0.645932
Si Si3 0.645294 0.423038 0.903552
Si Si4 0.644324 0.077511 0.036290
Si Si5 0.322336 0.072366 0.781283
Si Si6 0.494556 0.072123 0.433136
Si Si7 0.153096 0.577523 0.142979
O O1 0.792477 0.250000 0.129836
O O2 0.731574 0.493326 0.071657
O O3 0.768256 0.499035 0.187491
O O4 0.903009 0.479992 0.103321
O O5 0.979846 0.750000 0.668217
O O6 0.946631 0.560074 0.576666
O O7 0.917794 0.480962 0.689692
O O8 0.085712 0.514886 0.646230
O O9 0.613142 0.250000 0.899030
O O10 0.752421 0.440937 0.892436
O O11 0.628112 0.496851 0.970394
O O12 0.669831 0.250000 0.023365
O O13 0.312263 0.250000 0.787541
O O14 0.328464 0.020863 0.711339
O O15 0.494066 0.250000 0.442470
O O16 0.500000 0.000000 0.500000
O O17 0.579232 0.025101 0.391023
O O18 0.118360 0.750000 0.142128
#
# Coordination Sequence:
#
# PCOD8251602 Si02
#       7
#     8   8   8   8   8   8   8
#     4   9  19  37  59  83 112 147 186 233 285 336
#     4  10  20  34  53  80 112 144 179 223 273 333
#     4  10  19  34  55  78 106 142 180 223 278 333
#     4   8  15  30  53  78 106 137 170 212 266 325
#     4  10  21  38  58  81 109 146 191 236 284 341
#     4  11  23  39  62  90 120 155 196 242 294 348
#     4  10  23  40  57  80 113 149 190 241 289 336
#
# _framework density 19.781986
#
# number of rings (size 3 to 8) (size 9 to 14) (size 15 to 20)
#    0.000    2.286    0.000    3.429    0.000    6.286 
#    0.000    7.143    0.000    0.000    0.000    0.000 
#    0.000    0.000    0.000    0.000    0.000    0.000 
#
# Total GULP energy -694288.051996 kJ/mol
# GULP energy per Si atom -12398.000928 kJ/mol
# Density = 1.973696 g / cm^3
# Si number density = 19.781986 Si / 1000 Ang^3
#
#
#
# Elastic Constant Matrix: (Units=GPa)
#
#
# Indices 1 2 3 4 5 6 
#
# 1 96.9476 35.4543 31.5167 0.0000 0.0000 0.0000
# 2 35.4543 56.7061 39.8581 0.0000 0.0000 0.0000
# 3 31.5167 39.8581 109.0181 0.0000 0.0000 0.0000
# 4 0.0000 0.0000 0.0000 28.7119 0.0000 0.0000
# 5 0.0000 0.0000 0.0000 0.0000 20.9278 0.0000
# 6 0.0000 0.0000 0.0000 0.0000 0.0000 30.8447
#
#
#
# Elastic Compliance Matrix: (Units=1/GPa)
#
#
# Indices 1 2 3 4 5 6 
#
# 1 0.013469 -0.007650 -0.001097 0.000000 0.000000 0.000000
# 2 -0.007650 0.028079 -0.008054 0.000000 0.000000 0.000000
# 3 -0.001097 -0.008054 0.012435 0.000000 0.000000 0.000000
# 4 0.000000 0.000000 0.000000 0.034829 0.000000 0.000000
# 5 0.000000 0.000000 0.000000 0.000000 0.047783 0.000000
# 6 0.000000 0.000000 0.000000 0.000000 0.000000 0.032420
#
#
# Mechanical properties :
#
#
# Convention : Reuss Voigt Hill
#
# Bulk Modulus (GPa) = 49.06777 52.92558 50.99668
# Shear Modulus (GPa) = 23.87632 26.48639 25.18136
#
# Velocity S-wave (km/s) = 3.47792 3.66309 3.57170
# Velocity P-wave (km/s) = 6.40203 6.68606 6.54559
#
# Compressibility (1/GPa) = 0.02037998
#
# Stress axis : x y z
#
# Youngs Moduli (GPa) = 74.24339 35.61327 80.42040
#
# Poissons Ratio (x) = 0.27246 0.08821
# Poissons Ratio (y) = 0.56799 0.64774
# Poissons Ratio (z) = 0.08143 0.28684
#
# Static dielectric constant tensor:
#      x y z
#    x 3.586000 0.000000 0.000000 
#    y 0.000000 3.438590 0.000000 
#    z 0.000000 0.000000 3.708550 
# 
# 
# High freq. dielectric constant tensor:
#      x y z
#    x 1.776580 0.000000 0.000000 
#    y 0.000000 1.754460 0.000000 
#    z 0.000000 0.000000 1.774560 
# 
# From -- ./inp_files/27132.got.cif
#   From: 2010.03.12/outbox.cif.g09.slc.cpg/sg62_14_cif.got.tgz:27132.got - 2010.04.10 19:12:36.
