data_PCOD8251598
_publ_section_title
;
Structure prediction by ZEFSAII (Michael W. Deem and Ramdas Pophale) SiO2 
 PCOD8251598
Probable space group: P N M A
;
_chemical_formula_sum "Si O2"
_cell_formula_units_Z 48
_cell_length_a 9.191189
_cell_length_b 8.954468
_cell_length_c 30.961988
_cell_angle_alpha 90.000000
_cell_angle_beta 90.000000
_cell_angle_gamma 90.000000
_cell_volume 2548.239970
_symmetry_space_group_name_H-M "P N M A"
_symmetry_group_IT_number 62
_symmetry_cell_setting 'orthorhombic'
loop_
_space_group_symop_operation_xyz
x,y,z
1/2-x,-y,1/2+z
1/2+x,1/2-y,1/2-z
-x,1/2+y,-z
-x,-y,-z
1/2+x,y,1/2-z
1/2-x,1/2+y,1/2+z
x,1/2-y,z
loop_
_atom_site_type_symbol
_atom_site_label
_atom_site_fract_x
_atom_site_fract_y
_atom_site_fract_z
Si Si1 0.679215 0.915618 0.039216
Si Si2 0.833845 0.914920 0.457129
Si Si3 0.184295 0.573563 0.215386
Si Si4 0.186671 0.427118 0.373583
Si Si5 0.855845 0.572444 0.201043
Si Si6 0.621300 0.072051 0.863092
O O1 0.744404 0.750000 0.045827
O O2 0.506410 0.908706 0.037521
O O3 0.730070 0.020938 0.078273
O O4 0.737546 0.978968 0.993351
O O5 0.767613 0.750000 0.463675
O O6 0.801613 0.972951 0.408508
O O7 0.194544 0.750000 0.213861
O O8 0.018629 0.520304 0.212579
O O9 0.252543 0.516557 0.260156
O O10 0.276148 0.510899 0.174948
O O11 0.178164 0.250000 0.372484
O O12 0.034168 0.494743 0.357986
O O13 0.311576 0.487107 0.342155
O O14 0.845509 0.750000 0.193789
O O15 0.594925 0.250000 0.861401
#
# Coordination Sequence:
#
# PCOD8251598 Si02
#       6
#     8   8   8   8   8   8
#     4   9  16  27  45  69  98 132 170 210 249 292
#     4   8  14  24  42  70 103 132 160 201 250 296
#     4   9  18  33  57  81 100 128 167 208 248 298
#     4  11  21  32  48  73 104 137 171 209 254 298
#     4  10  19  34  55  77 100 129 167 208 250 298
#     4   9  17  32  53  78 105 134 169 207 249 298
#
# _framework density 18.836531000000001
#
# number of rings (size 3 to 8) (size 9 to 14) (size 15 to 20)
#    0.000    2.667    0.000    4.000    0.000    6.667 
#    0.000    4.167    0.000    1.000    0.000    0.000 
#    0.000    0.000    0.000    0.000    0.000    0.000 
#
# Total GULP energy -595076.105405 kJ/mol
# GULP energy per Si atom -12397.418863 kJ/mol
# Density = 1.879366 g / cm^3
# Si number density = 18.836531 Si / 1000 Ang^3
#
#
#
# Elastic Constant Matrix: (Units=GPa)
#
#
# Indices 1 2 3 4 5 6 
#
# 1 48.0691 18.2329 13.4027 0.0000 0.0000 0.0000
# 2 18.2329 72.9227 28.7472 0.0000 0.0000 0.0000
# 3 13.4027 28.7472 97.0573 0.0000 0.0000 0.0000
# 4 0.0000 0.0000 0.0000 29.2832 0.0000 0.0000
# 5 0.0000 0.0000 0.0000 0.0000 22.8848 0.0000
# 6 0.0000 0.0000 0.0000 0.0000 0.0000 10.2444
#
#
#
# Elastic Compliance Matrix: (Units=1/GPa)
#
#
# Indices 1 2 3 4 5 6 
#
# 1 0.023224 -0.005143 -0.001684 0.000000 0.000000 0.000000
# 2 -0.005143 0.016665 -0.004226 0.000000 0.000000 0.000000
# 3 -0.001684 -0.004226 0.011787 0.000000 0.000000 0.000000
# 4 0.000000 0.000000 0.000000 0.034149 0.000000 0.000000
# 5 0.000000 0.000000 0.000000 0.000000 0.043697 0.000000
# 6 0.000000 0.000000 0.000000 0.000000 0.000000 0.097614
#
#
# Mechanical properties :
#
#
# Convention : Reuss Voigt Hill
#
# Bulk Modulus (GPa) = 33.81679 37.64607 35.73143
# Shear Modulus (GPa) = 19.29772 22.99358 21.14565
#
# Velocity S-wave (km/s) = 3.20423 3.49763 3.35414
# Velocity P-wave (km/s) = 5.62860 6.02829 5.83187
#
# Compressibility (1/GPa) = 0.02957111
#
# Stress axis : x y z
#
# Youngs Moduli (GPa) = 43.05977 60.00645 84.83699
#
# Poissons Ratio (x) = 0.30860 0.14284
# Poissons Ratio (y) = 0.22145 0.35850
# Poissons Ratio (z) = 0.07250 0.25357
#
# Static dielectric constant tensor:
#      x y z
#    x 3.121760 0.000000 0.000000 
#    y 0.000000 3.310740 0.000000 
#    z 0.000000 0.000000 3.837680 
# 
# 
# High freq. dielectric constant tensor:
#      x y z
#    x 1.688030 0.000000 0.000000 
#    y 0.000000 1.707020 0.000000 
#    z 0.000000 0.000000 1.753540 
# 
# From -- ./inp_files/32001.got.cif
#   From: 2010.03.12/outbox.cif.g09.slc.cpg/sg62_17_cif.got.tgz:32001.got - 2010.04.10 19:12:36.
