data_PCOD8251860
_publ_section_title
;
Structure prediction by ZEFSAII (Michael W. Deem and Ramdas Pophale) SiO2 
 PCOD8251860
Probable space group: P N M A
;
_chemical_formula_sum "Si O2"
_cell_formula_units_Z 48
_cell_length_a 18.799945
_cell_length_b 13.782764
_cell_length_c 9.434966
_cell_angle_alpha 90.000000
_cell_angle_beta 90.000000
_cell_angle_gamma 90.000000
_cell_volume 2444.743151
_symmetry_space_group_name_H-M "P N M A"
_symmetry_group_IT_number 62
_symmetry_cell_setting 'orthorhombic'
loop_
_space_group_symop_operation_xyz
x,y,z
1/2-x,-y,1/2+z
1/2+x,1/2-y,1/2-z
-x,1/2+y,-z
-x,-y,-z
1/2+x,y,1/2-z
1/2-x,1/2+y,1/2+z
x,1/2-y,z
loop_
_atom_site_type_symbol
_atom_site_label
_atom_site_fract_x
_atom_site_fract_y
_atom_site_fract_z
Si Si1 0.954909 0.363313 0.223646
Si Si2 0.911425 0.985007 0.753801
Si Si3 0.252258 0.641323 0.510638
Si Si4 0.713699 0.140190 0.166705
Si Si5 0.089380 0.858881 0.456899
Si Si6 0.162017 0.539086 0.965711
O O1 0.952128 0.250000 0.175958
O O2 0.944841 0.373663 0.390438
O O3 0.894948 0.426657 0.148378
O O4 0.030234 0.411356 0.182099
O O5 0.857184 0.923319 0.658252
O O6 0.946930 0.066286 0.652628
O O7 0.872043 0.043237 0.878960
O O8 0.276895 0.750000 0.472655
O O9 0.249684 0.626975 0.680076
O O10 0.173580 0.620199 0.454975
O O11 0.309537 0.570403 0.436281
O O12 0.691114 0.250000 0.137297
O O13 0.769336 0.108951 0.044815
O O14 0.074110 0.750000 0.404085
#
# Coordination Sequence:
#
# PCOD8251860 Si02
#       6
#     8   8   8   8   8   8
#     4  11  23  41  63  85 118 164 204 237 297 366
#     4  11  23  38  58  92 124 154 196 253 298 342
#     4   9  18  35  58  84 114 152 195 238 290 348
#     4  10  19  35  59  85 116 154 199 239 284 348
#     4  10  20  37  60  83 115 160 197 238 293 355
#     4  11  21  36  62  90 115 154 199 251 297 345
#
# _framework density 19.633963000000001
#
# number of rings (size 3 to 8) (size 9 to 14) (size 15 to 20)
#    0.000    1.667    3.333    2.000    0.000    2.000 
#    0.000    0.833    0.000    1.000    0.000    0.000 
#    0.000    0.000    0.000    0.000    0.000    0.000 
#
# Total GULP energy -595174.788501 kJ/mol
# GULP energy per Si atom -12399.474760 kJ/mol
# Density = 1.958928 g / cm^3
# Si number density = 19.633963 Si / 1000 Ang^3
#
#
#
# Elastic Constant Matrix: (Units=GPa)
#
#
# Indices 1 2 3 4 5 6 
#
# 1 78.4329 34.0669 17.0905 0.0000 0.0000 0.0000
# 2 34.0669 126.5838 42.3207 0.0000 0.0000 0.0000
# 3 17.0905 42.3207 33.2637 0.0000 0.0000 0.0000
# 4 0.0000 0.0000 0.0000 34.5107 0.0000 0.0000
# 5 0.0000 0.0000 0.0000 0.0000 20.0410 0.0000
# 6 0.0000 0.0000 0.0000 0.0000 0.0000 27.4520
#
#
#
# Elastic Compliance Matrix: (Units=1/GPa)
#
#
# Indices 1 2 3 4 5 6 
#
# 1 0.014801 -0.002507 -0.004414 0.000000 0.000000 0.000000
# 2 -0.002507 0.014172 -0.016743 0.000000 0.000000 0.000000
# 3 -0.004414 -0.016743 0.053632 0.000000 0.000000 0.000000
# 4 0.000000 0.000000 0.000000 0.028977 0.000000 0.000000
# 5 0.000000 0.000000 0.000000 0.000000 0.049898 0.000000
# 6 0.000000 0.000000 0.000000 0.000000 0.000000 0.036427
#
#
# Mechanical properties :
#
#
# Convention : Reuss Voigt Hill
#
# Bulk Modulus (GPa) = 28.34768 47.24853 37.79810
# Shear Modulus (GPa) = 19.45562 26.05421 22.75492
#
# Velocity S-wave (km/s) = 3.15130 3.64675 3.40804
# Velocity P-wave (km/s) = 5.26406 6.46905 5.89741
#
# Compressibility (1/GPa) = 0.03527625
#
# Stress axis : x y z
#
# Youngs Moduli (GPa) = 67.56429 70.55988 18.64542
#
# Poissons Ratio (x) = 0.17692 0.08231
# Poissons Ratio (y) = 0.16941 0.31218
# Poissons Ratio (z) = 0.29825 1.18138
#
# Static dielectric constant tensor:
#      x y z
#    x 3.555130 0.000000 0.000000 
#    y 0.000000 3.815320 0.000000 
#    z 0.000000 0.000000 3.328460 
# 
# 
# High freq. dielectric constant tensor:
#      x y z
#    x 1.760260 0.000000 0.000000 
#    y 0.000000 1.779920 0.000000 
#    z 0.000000 0.000000 1.739950 
# 
# From -- ./inp_files/8581.got.cif
#   From: 2010.03.12/outbox.cif.g09.slc.cpg/sg62_5_cif.got.tgz:8581.got - 2010.04.10 19:12:36.
