data_PCOD8251034
_publ_section_title
;
Structure prediction by ZEFSAII (Michael W. Deem and Ramdas Pophale) SiO2 
 PCOD8251034
Probable space group: P N M A
;
_chemical_formula_sum "Si O2"
_cell_formula_units_Z 64
_cell_length_a 33.673396
_cell_length_b 8.708595
_cell_length_c 11.781639
_cell_angle_alpha 90.000000
_cell_angle_beta 90.000000
_cell_angle_gamma 90.000000
_cell_volume 3454.941697
_symmetry_space_group_name_H-M "P N M A"
_symmetry_group_IT_number 62
_symmetry_cell_setting 'orthorhombic'
loop_
_space_group_symop_operation_xyz
x,y,z
1/2-x,-y,1/2+z
1/2+x,1/2-y,1/2-z
-x,1/2+y,-z
-x,-y,-z
1/2+x,y,1/2-z
1/2-x,1/2+y,1/2+z
x,1/2-y,z
loop_
_atom_site_type_symbol
_atom_site_label
_atom_site_fract_x
_atom_site_fract_y
_atom_site_fract_z
Si Si1 0.821972 0.569994 0.104475
Si Si2 0.632219 0.574571 0.159182
Si Si3 0.470406 0.571419 0.149230
Si Si4 0.329482 0.931095 0.050820
Si Si5 0.550314 0.426763 0.110089
Si Si6 0.812335 0.426289 0.862718
Si Si7 0.232741 0.931134 0.706374
Si Si8 0.390113 0.930044 0.237623
O O1 0.814041 0.750000 0.121932
O O2 0.818268 0.526774 0.974490
O O3 0.790216 0.479634 0.179930
O O4 0.866817 0.527345 0.146726
O O5 0.635109 0.750000 0.118537
O O6 0.586703 0.522867 0.159401
O O7 0.648444 0.554936 0.286471
O O8 0.659802 0.472556 0.077426
O O9 0.480255 0.750000 0.167299
O O10 0.510172 0.476559 0.175149
O O11 0.435507 0.507883 0.233343
O O12 0.454539 0.540049 0.022753
O O13 0.322626 0.750000 0.062741
O O14 0.365015 0.992606 0.130823
O O15 0.289486 0.015427 0.091504
O O16 0.559062 0.250000 0.134758
O O17 0.805253 0.250000 0.897143
O O18 0.775368 0.488263 0.790728
O O19 0.238377 0.750000 0.704797
O O20 0.393903 0.750000 0.220263
#
# Coordination Sequence:
#
# PCOD8251034 Si02
#       8
#     8   8   8   8   8   8   8   8
#     4  10  21  39  61  84 111 144 188 235 282 334
#     4  11  23  37  55  80 112 151 190 231 283 341
#     4   9  16  30  51  79 113 148 180 218 275 337
#     4  10  19  35  57  82 113 145 183 229 279 331
#     4  10  19  31  50  79 115 149 183 226 278 335
#     4  11  25  42  58  79 110 149 192 236 284 335
#     4  11  23  39  60  85 112 145 185 230 282 335
#     4   8  15  31  55  81 108 142 177 220 275 330
#
# _framework density 18.524190999999998
#
# number of rings (size 3 to 8) (size 9 to 14) (size 15 to 20)
#    0.000    2.000    1.250    3.750    1.750    2.500 
#    0.000    1.250    0.000    0.750    0.000    0.000 
#    0.000    0.000    0.000    0.000    0.000    0.000 
#
# Total GULP energy -793591.933726 kJ/mol
# GULP energy per Si atom -12399.873964 kJ/mol
# Density = 1.848203 g / cm^3
# Si number density = 18.524191 Si / 1000 Ang^3
#
#
#
# Elastic Constant Matrix: (Units=GPa)
#
#
# Indices 1 2 3 4 5 6 
#
# 1 111.9164 24.5205 27.4211 0.0000 0.0000 0.0000
# 2 24.5205 47.0919 10.9774 0.0000 0.0000 0.0000
# 3 27.4211 10.9774 63.7076 0.0000 0.0000 0.0000
# 4 0.0000 0.0000 0.0000 24.6705 0.0000 0.0000
# 5 0.0000 0.0000 0.0000 0.0000 22.2093 0.0000
# 6 0.0000 0.0000 0.0000 0.0000 0.0000 29.4962
#
#
#
# Elastic Compliance Matrix: (Units=1/GPa)
#
#
# Indices 1 2 3 4 5 6 
#
# 1 0.010936 -0.004789 -0.003882 0.000000 0.000000 0.000000
# 2 -0.004789 0.024221 -0.002112 0.000000 0.000000 0.000000
# 3 -0.003882 -0.002112 0.017731 0.000000 0.000000 0.000000
# 4 0.000000 0.000000 0.000000 0.040534 0.000000 0.000000
# 5 0.000000 0.000000 0.000000 0.000000 0.045026 0.000000
# 6 0.000000 0.000000 0.000000 0.000000 0.000000 0.033903
#
#
# Mechanical properties :
#
#
# Convention : Reuss Voigt Hill
#
# Bulk Modulus (GPa) = 31.92640 38.72820 35.32730
# Shear Modulus (GPa) = 24.46685 25.92833 25.19759
#
# Velocity S-wave (km/s) = 3.63823 3.74532 3.69216
# Velocity P-wave (km/s) = 5.90943 6.29725 6.10642
#
# Compressibility (1/GPa) = 0.03132204
#
# Stress axis : x y z
#
# Youngs Moduli (GPa) = 91.44429 41.28616 56.39712
#
# Poissons Ratio (x) = 0.19773 0.21892
# Poissons Ratio (y) = 0.43795 0.11912
# Poissons Ratio (z) = 0.35496 0.08720
#
# Static dielectric constant tensor:
#      x y z
#    x 3.665040 0.000000 0.000000 
#    y 0.000000 3.381400 0.000000 
#    z 0.000000 0.000000 3.138480 
# 
# 
# High freq. dielectric constant tensor:
#      x y z
#    x 1.727040 0.000000 0.000000 
#    y 0.000000 1.719630 0.000000 
#    z 0.000000 0.000000 1.687700 
# 
# From -- ./inp_files/15872.got.cif
#   From: 2010.03.12/outbox.cif.g09.slc.cpg/sg62_8_cif.got.tgz:15872.got - 2010.04.10 19:12:36.
