data_PCOD8251597
_publ_section_title
;
Structure prediction by ZEFSAII (Michael W. Deem and Ramdas Pophale) SiO2 
 PCOD8251597
Probable space group: P N M A
;
_chemical_formula_sum "Si O2"
_cell_formula_units_Z 48
_cell_length_a 33.898461
_cell_length_b 13.555280
_cell_length_c 5.259103
_cell_angle_alpha 90.000000
_cell_angle_beta 90.000000
_cell_angle_gamma 90.000000
_cell_volume 2416.574292
_symmetry_space_group_name_H-M "P N M A"
_symmetry_group_IT_number 62
_symmetry_cell_setting 'orthorhombic'
loop_
_space_group_symop_operation_xyz
x,y,z
1/2-x,-y,1/2+z
1/2+x,1/2-y,1/2-z
-x,1/2+y,-z
-x,-y,-z
1/2+x,y,1/2-z
1/2-x,1/2+y,1/2+z
x,1/2-y,z
loop_
_atom_site_type_symbol
_atom_site_label
_atom_site_fract_x
_atom_site_fract_y
_atom_site_fract_z
Si Si1 0.463706 0.497568 0.313841
Si Si2 0.103069 0.863720 0.284370
Si Si3 0.242637 0.134315 0.314143
Si Si4 0.621582 0.969593 0.693739
Si Si5 0.481228 0.361258 0.916046
Si Si6 0.204154 0.051661 0.814303
O O1 0.500000 0.500000 0.500000
O O2 0.419060 0.526122 0.390450
O O3 0.478055 0.579164 0.109934
O O4 0.462363 0.388101 0.190231
O O5 0.108809 0.750000 0.355046
O O6 0.119400 0.924990 0.523767
O O7 0.055952 0.884838 0.224378
O O8 0.127961 0.888859 0.030871
O O9 0.255397 0.250000 0.311185
O O10 0.217931 0.112085 0.567880
O O11 0.280567 0.062032 0.311131
O O12 0.217050 0.110578 0.064850
O O13 0.656844 0.047929 0.688026
O O14 0.494390 0.250000 0.903851
#
# Coordination Sequence:
#
# PCOD8251597 Si02
#       6
#     8   8   8   8   8   8
#     4  10  19  34  55  76 108 156 190 230 289 331
#     4  10  20  33  53  81 113 152 192 240 292 333
#     4  10  21  41  65  87 118 155 191 235 293 357
#     4  11  21  36  57  83 120 148 189 242 285 339
#     4   9  19  34  51  75 106 147 198 237 277 334
#     4  10  22  39  62  93 119 152 193 238 292 347
#
# _framework density 19.862828
#
# number of rings (size 3 to 8) (size 9 to 14) (size 15 to 20)
#    0.000    2.000    1.667    2.000    0.000    2.667 
#    0.000    1.667    0.000    0.000    0.000    0.000 
#    0.000    0.000    0.000    0.000    0.000    0.000 
#
# Total GULP energy -594648.539090 kJ/mol
# GULP energy per Si atom -12388.511231 kJ/mol
# Density = 1.981762 g / cm^3
# Si number density = 19.862828 Si / 1000 Ang^3
#
#
#
# Elastic Constant Matrix: (Units=GPa)
#
#
# Indices 1 2 3 4 5 6 
#
# 1 101.9507 25.5404 32.9547 0.0000 0.0000 0.0000
# 2 25.5404 83.1704 17.5777 0.0000 0.0000 0.0000
# 3 32.9547 17.5777 109.9795 0.0000 0.0000 0.0000
# 4 0.0000 0.0000 0.0000 22.9282 0.0000 0.0000
# 5 0.0000 0.0000 0.0000 0.0000 15.6814 0.0000
# 6 0.0000 0.0000 0.0000 0.0000 0.0000 20.9699
#
#
#
# Elastic Compliance Matrix: (Units=1/GPa)
#
#
# Indices 1 2 3 4 5 6 
#
# 1 0.011499 -0.002901 -0.002982 0.000000 0.000000 0.000000
# 2 -0.002901 0.013176 -0.001237 0.000000 0.000000 0.000000
# 3 -0.002982 -0.001237 0.010184 0.000000 0.000000 0.000000
# 4 0.000000 0.000000 0.000000 0.043614 0.000000 0.000000
# 5 0.000000 0.000000 0.000000 0.000000 0.063770 0.000000
# 6 0.000000 0.000000 0.000000 0.000000 0.000000 0.047687
#
#
# Mechanical properties :
#
#
# Convention : Reuss Voigt Hill
#
# Bulk Modulus (GPa) = 48.49759 49.69400 49.09580
# Shear Modulus (GPa) = 23.69185 26.51775 25.10480
#
# Velocity S-wave (km/s) = 3.45740 3.65779 3.55901
# Velocity P-wave (km/s) = 6.35668 6.55074 6.45444
#
# Compressibility (1/GPa) = 0.02061958
#
# Stress axis : x y z
#
# Youngs Moduli (GPa) = 86.96152 75.89718 98.19532
#
# Poissons Ratio (x) = 0.22018 0.29282
# Poissons Ratio (y) = 0.25228 0.12142
# Poissons Ratio (z) = 0.25932 0.09385
#
# Static dielectric constant tensor:
#      x y z
#    x 2.423060 0.000000 0.000000 
#    y 0.000000 2.980370 0.000000 
#    z 0.000000 0.000000 3.554580 
# 
# 
# High freq. dielectric constant tensor:
#      x y z
#    x 1.766780 0.000000 0.000000 
#    y 0.000000 1.750770 0.000000 
#    z 0.000000 0.000000 1.792990 
# 
# From -- ./inp_files/3551.got.cif
#   From: 2010.03.12/outbox.cif.g09.slc.cpg/sg62_2_cif.got.tgz:3551.got - 2010.04.10 19:12:36.
