data_PCOD8251249
_publ_section_title
;
Structure prediction by ZEFSAII (Michael W. Deem and Ramdas Pophale) SiO2 
 PCOD8251249
Probable space group: P N M A
;
_chemical_formula_sum "Si O2"
_cell_formula_units_Z 64
_cell_length_a 10.801758
_cell_length_b 22.868296
_cell_length_c 12.182549
_cell_angle_alpha 90.000000
_cell_angle_beta 90.000000
_cell_angle_gamma 90.000000
_cell_volume 3009.306443
_symmetry_space_group_name_H-M "P N M A"
_symmetry_group_IT_number 62
_symmetry_cell_setting 'orthorhombic'
loop_
_space_group_symop_operation_xyz
x,y,z
1/2-x,-y,1/2+z
1/2+x,1/2-y,1/2-z
-x,1/2+y,-z
-x,-y,-z
1/2+x,y,1/2-z
1/2-x,1/2+y,1/2+z
x,1/2-y,z
loop_
_atom_site_type_symbol
_atom_site_label
_atom_site_fract_x
_atom_site_fract_y
_atom_site_fract_z
Si Si1 0.367241 0.933477 0.660005
Si Si2 0.586228 0.009396 0.638557
Si Si3 0.691282 0.634498 0.313820
Si Si4 0.172783 0.434745 0.401971
Si Si5 0.056890 0.314059 0.075286
Si Si6 0.584664 0.362508 0.651486
Si Si7 0.827961 0.521723 0.373199
Si Si8 0.222589 0.685154 0.956969
O O1 0.399404 0.945159 0.789077
O O2 0.368387 0.864383 0.638264
O O3 0.468773 0.972354 0.596167
O O4 0.232611 0.957009 0.623912
O O5 0.593722 0.074543 0.587598
O O6 0.579239 0.023463 0.770511
O O7 0.700292 0.970373 0.602384
O O8 0.791555 0.650790 0.220759
O O9 0.545422 0.639540 0.278086
O O10 0.715738 0.568134 0.354048
O O11 0.713140 0.679590 0.412066
O O12 0.103950 0.460302 0.511557
O O13 0.189269 0.364841 0.409015
O O14 0.100402 0.250000 0.117487
O O15 0.911618 0.322793 0.098482
O O16 0.081694 0.315258 0.944876
O O17 0.275694 0.750000 0.930302
#
# Coordination Sequence:
#
# PCOD8251249 Si02
#       8
#     8   8   8   8   8   8   8   8
#     4  11  20  33  55  78 104 143 179 224 275 330
#     4  10  19  32  53  81 111 136 175 225 277 334
#     4   9  18  32  55  84 113 142 181 227 282 334
#     4  10  20  33  53  77 105 143 179 221 281 326
#     4  10  21  35  54  79 104 139 189 232 267 315
#     4  10  19  34  56  84 116 145 177 230 282 332
#     4   9  19  33  50  82 110 136 175 223 276 337
#     4   9  18  34  54  75 101 140 188 231 268 323
#
# _framework density 21.26736
#
# number of rings (size 3 to 8) (size 9 to 14) (size 15 to 20)
#    0.000    2.250    2.500    0.750    0.000    2.500 
#    0.000    0.000    5.500    0.000    0.000    0.000 
#    0.000    0.000    0.000    0.000    0.000    0.000 
#
# Total GULP energy -793015.349179 kJ/mol
# GULP energy per Si atom -12390.864831 kJ/mol
# Density = 2.121895 g / cm^3
# Si number density = 21.267360 Si / 1000 Ang^3
#
#
#
# Elastic Constant Matrix: (Units=GPa)
#
#
# Indices 1 2 3 4 5 6 
#
# 1 46.7016 3.6072 -7.0939 0.0000 0.0000 0.0000
# 2 3.6072 109.5626 5.8800 0.0000 0.0000 0.0000
# 3 -7.0939 5.8800 42.4772 0.0000 0.0000 0.0000
# 4 0.0000 0.0000 0.0000 23.5901 0.0000 0.0000
# 5 0.0000 0.0000 0.0000 0.0000 20.4076 0.0000
# 6 0.0000 0.0000 0.0000 0.0000 0.0000 20.4945
#
#
#
# Elastic Compliance Matrix: (Units=1/GPa)
#
#
# Indices 1 2 3 4 5 6 
#
# 1 0.022064 -0.000931 0.003814 0.000000 0.000000 0.000000
# 2 -0.000931 0.009235 -0.001434 0.000000 0.000000 0.000000
# 3 0.003814 -0.001434 0.024377 0.000000 0.000000 0.000000
# 4 0.000000 0.000000 0.000000 0.042391 0.000000 0.000000
# 5 0.000000 0.000000 0.000000 0.000000 0.049001 0.000000
# 6 0.000000 0.000000 0.000000 0.000000 0.000000 0.048794
#
#
# Mechanical properties :
#
#
# Convention : Reuss Voigt Hill
#
# Bulk Modulus (GPa) = 17.07261 22.61423 19.84342
# Shear Modulus (GPa) = 23.53067 25.98831 24.75949
#
# Velocity S-wave (km/s) = 3.32990 3.49948 3.41574
# Velocity P-wave (km/s) = 4.77801 5.19469 4.99070
#
# Compressibility (1/GPa) = 0.05857334
#
# Stress axis : x y z
#
# Youngs Moduli (GPa) = 45.32323 108.28595 41.02159
#
# Poissons Ratio (x) = 0.10082 -0.15644
# Poissons Ratio (y) = 0.04220 0.05882
# Poissons Ratio (z) = -0.17285 0.15526
#
# Static dielectric constant tensor:
#      x y z
#    x 3.405520 0.000000 0.000000 
#    y 0.000000 3.870310 0.000000 
#    z 0.000000 0.000000 3.872670 
# 
# 
# High freq. dielectric constant tensor:
#      x y z
#    x 1.797700 0.000000 0.000000 
#    y 0.000000 1.835470 0.000000 
#    z 0.000000 0.000000 1.828250 
# 
# From -- ./inp_files/12601.got.cif
#   From: 2010.03.12/outbox.cif.g09.slc.cpg/sg62_7_cif.got.tgz:12601.got - 2010.04.10 19:12:36.
