data_PCOD8251540
_publ_section_title
;
Structure prediction by ZEFSAII (Michael W. Deem and Ramdas Pophale) SiO2 
 PCOD8251540
Probable space group: P N M A
;
_chemical_formula_sum "Si O2"
_cell_formula_units_Z 40
_cell_length_a 10.285937
_cell_length_b 19.831635
_cell_length_c 11.115821
_cell_angle_alpha 90.000000
_cell_angle_beta 90.000000
_cell_angle_gamma 90.000000
_cell_volume 2267.482403
_symmetry_space_group_name_H-M "P N M A"
_symmetry_group_IT_number 62
_symmetry_cell_setting 'orthorhombic'
loop_
_space_group_symop_operation_xyz
x,y,z
1/2-x,-y,1/2+z
1/2+x,1/2-y,1/2-z
-x,1/2+y,-z
-x,-y,-z
1/2+x,y,1/2-z
1/2-x,1/2+y,1/2+z
x,1/2-y,z
loop_
_atom_site_type_symbol
_atom_site_label
_atom_site_fract_x
_atom_site_fract_y
_atom_site_fract_z
Si Si1 0.317422 0.620540 0.225947
Si Si2 0.937783 0.487920 0.187206
Si Si3 0.078775 0.826629 0.372841
Si Si4 0.677676 0.536272 0.444441
Si Si5 0.591282 0.943851 0.943241
O O1 0.336714 0.548183 0.288764
O O2 0.453695 0.659691 0.212330
O O3 0.212826 0.663592 0.299933
O O4 0.260790 0.602173 0.093210
O O5 0.944097 0.437531 0.301373
O O6 0.077362 0.521379 0.163623
O O7 0.893570 0.446108 0.069690
O O8 0.073668 0.750000 0.417602
O O9 0.072847 0.872635 0.491671
O O10 0.761477 0.468430 0.460495
O O11 0.500000 0.000000 0.000000
#
# Coordination Sequence:
#
# PCOD8251540 Si02
#       5
#     8   8   8   8   8
#     4  11  20  37  57  83 116 147 188 229 279 342
#     4  10  20  32  57  89 114 140 180 238 290 329
#     4  12  24  38  56  83 117 154 189 235 288 340
#     4  10  19  33  58  86 114 140 180 235 287 328
#     4  11  20  33  57  81 110 143 192 232 273 337
#
# _framework density 17.640711
#
# number of rings (size 3 to 8) (size 9 to 14) (size 15 to 20)
#    0.000    1.200    8.000    0.600    2.800    0.000 
#    0.000    0.000    0.000    6.000    0.000    0.000 
#    0.000    0.000    0.000    0.000    0.000    0.000 
#
# Total GULP energy -495912.470344 kJ/mol
# GULP energy per Si atom -12397.811759 kJ/mol
# Density = 1.760056 g / cm^3
# Si number density = 17.640711 Si / 1000 Ang^3
#
#
#
# Elastic Constant Matrix: (Units=GPa)
#
#
# Indices 1 2 3 4 5 6 
#
# 1 99.3463 25.1403 40.9446 0.0000 0.0000 0.0000
# 2 25.1403 103.6088 42.6923 0.0000 0.0000 0.0000
# 3 40.9446 42.6923 113.9313 0.0000 0.0000 0.0000
# 4 0.0000 0.0000 0.0000 22.1554 0.0000 0.0000
# 5 0.0000 0.0000 0.0000 0.0000 30.7932 0.0000
# 6 0.0000 0.0000 0.0000 0.0000 0.0000 16.0006
#
#
#
# Elastic Compliance Matrix: (Units=1/GPa)
#
#
# Indices 1 2 3 4 5 6 
#
# 1 0.011971 -0.001339 -0.003800 0.000000 0.000000 0.000000
# 2 -0.001339 0.011564 -0.003852 0.000000 0.000000 0.000000
# 3 -0.003800 -0.003852 0.011586 0.000000 0.000000 0.000000
# 4 0.000000 0.000000 0.000000 0.045136 0.000000 0.000000
# 5 0.000000 0.000000 0.000000 0.000000 0.032475 0.000000
# 6 0.000000 0.000000 0.000000 0.000000 0.000000 0.062498
#
#
# Mechanical properties :
#
#
# Convention : Reuss Voigt Hill
#
# Bulk Modulus (GPa) = 58.34756 59.38231 58.86493
# Shear Modulus (GPa) = 25.13516 27.66379 26.39948
#
# Velocity S-wave (km/s) = 3.77880 3.96432 3.87267
# Velocity P-wave (km/s) = 7.22402 7.39524 7.31013
#
# Compressibility (1/GPa) = 0.01713868
#
# Stress axis : x y z
#
# Youngs Moduli (GPa) = 83.53598 86.47691 86.30749
#
# Poissons Ratio (x) = 0.11577 0.32801
# Poissons Ratio (y) = 0.11183 0.33246
# Poissons Ratio (z) = 0.31747 0.33312
#
# Static dielectric constant tensor:
#      x y z
#    x 3.594770 0.000000 0.000000 
#    y 0.000000 2.958420 0.000000 
#    z 0.000000 0.000000 3.474800 
# 
# 
# High freq. dielectric constant tensor:
#      x y z
#    x 1.709240 0.000000 0.000000 
#    y 0.000000 1.631640 0.000000 
#    z 0.000000 0.000000 1.683450 
# 
# From -- ./inp_files/11211.got.cif
#   From: 2010.03.12/outbox.cif.g09.slc.cpg/sg62_6_cif.got.tgz:11211.got - 2010.04.10 19:12:36.
