data_PCOD8251163
_publ_section_title
;
Structure prediction by ZEFSAII (Michael W. Deem and Ramdas Pophale) SiO2 
 PCOD8251163
Probable space group: P N M A
;
_chemical_formula_sum "Si O2"
_cell_formula_units_Z 64
_cell_length_a 24.943154
_cell_length_b 9.044784
_cell_length_c 14.860898
_cell_angle_alpha 90.000000
_cell_angle_beta 90.000000
_cell_angle_gamma 90.000000
_cell_volume 3352.699435
_symmetry_space_group_name_H-M "P N M A"
_symmetry_group_IT_number 62
_symmetry_cell_setting 'orthorhombic'
loop_
_space_group_symop_operation_xyz
x,y,z
1/2-x,-y,1/2+z
1/2+x,1/2-y,1/2-z
-x,1/2+y,-z
-x,-y,-z
1/2+x,y,1/2-z
1/2-x,1/2+y,1/2+z
x,1/2-y,z
loop_
_atom_site_type_symbol
_atom_site_label
_atom_site_fract_x
_atom_site_fract_y
_atom_site_fract_z
Si Si1 0.964637 0.415795 0.111641
Si Si2 0.956919 0.419505 0.316840
Si Si3 0.677487 0.578598 0.201368
Si Si4 0.687299 0.922529 0.401449
Si Si5 0.074742 0.080107 0.358479
Si Si6 0.777157 0.075194 0.513070
Si Si7 0.919085 0.579751 0.950328
Si Si8 0.380121 0.920487 0.052153
O O1 0.954197 0.250000 0.074412
O O2 0.943412 0.431042 0.212176
O O3 0.028370 0.446930 0.110461
O O4 0.932218 0.532988 0.052503
O O5 0.952846 0.250000 0.351285
O O6 0.913413 0.521296 0.364049
O O7 0.016124 0.484252 0.336537
O O8 0.664717 0.750000 0.189835
O O9 0.705728 0.546210 0.297714
O O10 0.620147 0.499297 0.199601
O O11 0.715427 0.526708 0.118179
O O12 0.690717 0.750000 0.423804
O O13 0.722729 0.008287 0.474194
O O14 0.626702 0.976910 0.410071
O O15 0.077287 0.250000 0.329163
O O16 0.084177 0.056453 0.463945
O O17 0.774851 0.250000 0.502787
O O18 0.825738 0.013195 0.453950
O O19 0.900512 0.750000 0.949851
O O20 0.364739 0.750000 0.067067
#
# Coordination Sequence:
#
# PCOD8251163 Si02
#       8
#     8   8   8   8   8   8   8   8
#     4   9  19  35  54  79 113 147 182 225 273 324
#     4  10  19  32  51  78 111 148 185 222 268 327
#     4   9  20  37  58  83 110 140 179 228 279 326
#     4  11  22  38  60  86 112 142 182 232 281 330
#     4   9  18  32  53  80 111 144 182 226 271 322
#     4  10  21  40  60  80 108 145 186 231 279 330
#     4  10  20  36  58  82 109 144 182 225 275 328
#     4  10  20  34  52  77 110 146 182 226 277 326
#
# _framework density 19.089096999999999
#
# number of rings (size 3 to 8) (size 9 to 14) (size 15 to 20)
#    0.000    2.250    0.000    2.625    0.000    4.500 
#    2.250    0.000    0.000    0.000    0.000    0.000 
#    0.000    0.000    0.000    0.000    0.000    0.000 
#
# Total GULP energy -793715.286956 kJ/mol
# GULP energy per Si atom -12401.801359 kJ/mol
# Density = 1.904565 g / cm^3
# Si number density = 19.089097 Si / 1000 Ang^3
#
#
#
# Elastic Constant Matrix: (Units=GPa)
#
#
# Indices 1 2 3 4 5 6 
#
# 1 66.6956 34.7718 40.9443 0.0000 0.0000 0.0000
# 2 34.7718 76.4292 37.3273 0.0000 0.0000 0.0000
# 3 40.9443 37.3273 79.9446 0.0000 0.0000 0.0000
# 4 0.0000 0.0000 0.0000 28.4127 0.0000 0.0000
# 5 0.0000 0.0000 0.0000 0.0000 23.0791 0.0000
# 6 0.0000 0.0000 0.0000 0.0000 0.0000 34.5901
#
#
#
# Elastic Compliance Matrix: (Units=1/GPa)
#
#
# Indices 1 2 3 4 5 6 
#
# 1 0.024055 -0.006382 -0.009340 0.000000 0.000000 0.000000
# 2 -0.006382 0.018642 -0.005436 0.000000 0.000000 0.000000
# 3 -0.009340 -0.005436 0.019830 0.000000 0.000000 0.000000
# 4 0.000000 0.000000 0.000000 0.035196 0.000000 0.000000
# 5 0.000000 0.000000 0.000000 0.000000 0.043329 0.000000
# 6 0.000000 0.000000 0.000000 0.000000 0.000000 0.028910
#
#
# Mechanical properties :
#
#
# Convention : Reuss Voigt Hill
#
# Bulk Modulus (GPa) = 49.47650 49.90625 49.69138
# Shear Modulus (GPa) = 22.82955 24.55145 23.69050
#
# Velocity S-wave (km/s) = 3.46200 3.59018 3.52667
# Velocity P-wave (km/s) = 6.47731 6.58684 6.53231
#
# Compressibility (1/GPa) = 0.02021162
#
# Stress axis : x y z
#
# Youngs Moduli (GPa) = 41.57217 53.64133 50.42842
#
# Poissons Ratio (x) = 0.34235 0.47099
# Poissons Ratio (y) = 0.26532 0.27411
# Poissons Ratio (z) = 0.38828 0.29157
#
# Static dielectric constant tensor:
#      x y z
#    x 3.326870 0.000000 0.000000 
#    y 0.000000 3.520090 0.000000 
#    z 0.000000 0.000000 3.538680 
# 
# 
# High freq. dielectric constant tensor:
#      x y z
#    x 1.727740 0.000000 0.000000 
#    y 0.000000 1.744980 0.000000 
#    z 0.000000 0.000000 1.746700 
# 
# From -- ./inp_files/20973.got.cif
#   From: 2010.03.12/outbox.cif.g09.slc.cpg/sg62_11_cif.got.tgz:20973.got - 2010.04.10 19:12:36.
