data_PCOD8251855
_publ_section_title
;
Structure prediction by ZEFSAII (Michael W. Deem and Ramdas Pophale) SiO2 
 PCOD8251855
Probable space group: P N M A
;
_chemical_formula_sum "Si O2"
_cell_formula_units_Z 32
_cell_length_a 11.710488
_cell_length_b 17.694547
_cell_length_c 7.615359
_cell_angle_alpha 90.000000
_cell_angle_beta 90.000000
_cell_angle_gamma 90.000000
_cell_volume 1577.992096
_symmetry_space_group_name_H-M "P N M A"
_symmetry_group_IT_number 62
_symmetry_cell_setting 'orthorhombic'
loop_
_space_group_symop_operation_xyz
x,y,z
1/2-x,-y,1/2+z
1/2+x,1/2-y,1/2-z
-x,1/2+y,-z
-x,-y,-z
1/2+x,y,1/2-z
1/2-x,1/2+y,1/2+z
x,1/2-y,z
loop_
_atom_site_type_symbol
_atom_site_label
_atom_site_fract_x
_atom_site_fract_y
_atom_site_fract_z
Si Si1 0.536502 0.045340 0.669855
Si Si2 0.108000 0.440364 0.380276
Si Si3 0.953880 0.338571 0.591363
Si Si4 0.248856 0.932276 0.527453
O O1 0.463827 0.121273 0.715979
O O2 0.667448 0.068509 0.642267
O O3 0.500000 0.000000 0.500000
O O4 0.506612 0.988939 0.831614
O O5 0.183090 0.421015 0.208834
O O6 0.184842 0.486864 0.519749
O O7 0.063770 0.364489 0.474790
O O8 0.957704 0.250000 0.618404
O O9 0.836634 0.361870 0.495464
#
# Coordination Sequence:
#
# PCOD8251855 Si02
#       4
#     8   8   8   8
#     4   9  19  37  61  82 104 144 198 239 275 332
#     4  10  19  35  59  85 110 147 196 240 276 331
#     4  11  23  36  53  85 123 151 183 233 290 343
#     4  10  19  36  61  82 107 150 197 238 281 332
#
# _framework density 20.278936000000002
#
# number of rings (size 3 to 8) (size 9 to 14) (size 15 to 20)
#    0.000    2.000    0.000    6.000    0.000    2.000 
#    0.000    3.750    0.000    0.000    0.000    0.000 
#    0.000    0.000    0.000    0.000    0.000    0.000 
#
# Total GULP energy -396438.281537 kJ/mol
# GULP energy per Si atom -12388.696298 kJ/mol
# Density = 2.023278 g / cm^3
# Si number density = 20.278936 Si / 1000 Ang^3
#
#
#
# Elastic Constant Matrix: (Units=GPa)
#
#
# Indices 1 2 3 4 5 6 
#
# 1 109.0121 51.6156 49.9309 0.0000 0.0000 0.0000
# 2 51.6156 164.3585 56.9681 0.0000 0.0000 0.0000
# 3 49.9309 56.9681 112.0281 0.0000 0.0000 0.0000
# 4 0.0000 0.0000 0.0000 23.8411 0.0000 0.0000
# 5 0.0000 0.0000 0.0000 0.0000 42.2517 0.0000
# 6 0.0000 0.0000 0.0000 0.0000 0.0000 23.4099
#
#
#
# Elastic Compliance Matrix: (Units=1/GPa)
#
#
# Indices 1 2 3 4 5 6 
#
# 1 0.012243 -0.002372 -0.004251 0.000000 0.000000 0.000000
# 2 -0.002372 0.007845 -0.002933 0.000000 0.000000 0.000000
# 3 -0.004251 -0.002933 0.012312 0.000000 0.000000 0.000000
# 4 0.000000 0.000000 0.000000 0.041944 0.000000 0.000000
# 5 0.000000 0.000000 0.000000 0.000000 0.023668 0.000000
# 6 0.000000 0.000000 0.000000 0.000000 0.000000 0.042717
#
#
# Mechanical properties :
#
#
# Convention : Reuss Voigt Hill
#
# Bulk Modulus (GPa) = 75.23879 78.04755 76.64317
# Shear Modulus (GPa) = 30.43770 33.02615 31.73192
#
# Velocity S-wave (km/s) = 3.87841 4.03996 3.96001
# Velocity P-wave (km/s) = 7.56562 7.76739 7.66717
#
# Compressibility (1/GPa) = 0.01329102
#
# Stress axis : x y z
#
# Youngs Moduli (GPa) = 81.67814 127.46213 81.22035
#
# Poissons Ratio (x) = 0.30228 0.34525
# Poissons Ratio (y) = 0.19370 0.23818
# Poissons Ratio (z) = 0.34720 0.37379
#
# Static dielectric constant tensor:
#      x y z
#    x 4.242350 0.000000 0.000000 
#    y 0.000000 3.254020 0.000000 
#    z 0.000000 0.000000 4.023350 
# 
# 
# High freq. dielectric constant tensor:
#      x y z
#    x 1.813830 0.000000 0.000000 
#    y 0.000000 1.744420 0.000000 
#    z 0.000000 0.000000 1.808500 
# 
# From -- ./inp_files/4835.got.cif
#   From: 2010.03.12/outbox.cif.g09.slc.cpg/sg62_3_cif.got.tgz:4835.got - 2010.04.10 19:12:36.
