data_PCOD8251104
_publ_section_title
;
Structure prediction by ZEFSAII (Michael W. Deem and Ramdas Pophale) SiO2 
 PCOD8251104
Probable space group: P N M A
;
_chemical_formula_sum "Si O2"
_cell_formula_units_Z 48
_cell_length_a 9.729876
_cell_length_b 10.405646
_cell_length_c 25.155993
_cell_angle_alpha 90.000000
_cell_angle_beta 90.000000
_cell_angle_gamma 90.000000
_cell_volume 2546.934744
_symmetry_space_group_name_H-M "P N M A"
_symmetry_group_IT_number 62
_symmetry_cell_setting 'orthorhombic'
loop_
_space_group_symop_operation_xyz
x,y,z
1/2-x,-y,1/2+z
1/2+x,1/2-y,1/2-z
-x,1/2+y,-z
-x,-y,-z
1/2+x,y,1/2-z
1/2-x,1/2+y,1/2+z
x,1/2-y,z
loop_
_atom_site_type_symbol
_atom_site_label
_atom_site_fract_x
_atom_site_fract_y
_atom_site_fract_z
Si Si1 0.729895 0.893196 0.871232
Si Si2 0.262099 0.750000 0.317344
Si Si3 0.501384 0.405425 0.049728
Si Si4 0.970171 0.025563 0.288998
Si Si5 0.980858 0.750000 0.269061
Si Si6 0.006629 0.896361 0.829586
Si Si7 0.288904 0.978952 0.863132
O O1 0.758380 0.750000 0.890393
O O2 0.631144 0.953523 0.916095
O O3 0.879352 0.960024 0.862860
O O4 0.651678 0.891617 0.814338
O O5 0.149375 0.750000 0.269005
O O6 0.413051 0.750000 0.289980
O O7 0.243870 0.870403 0.356773
O O8 0.499066 0.250000 0.037263
O O9 0.638711 0.441959 0.081810
O O10 0.500000 0.500000 0.000000
O O11 0.936101 0.876069 0.302191
O O12 0.115626 0.068715 0.314154
O O13 0.973647 0.031525 0.225793
O O14 0.967832 0.750000 0.816388
O O15 0.145650 0.902828 0.863261
#
# Coordination Sequence:
#
# PCOD8251104 Si02
#       7
#     8   4   8   8   4   8   8
#     4   9  20  36  54  82 111 143 184 228 273 325
#     4  10  20  34  52  78 118 152 192 220 270 322
#     4  10  22  42  66  84 107 138 184 238 291 344
#     4  10  19  32  49  77 113 153 186 216 257 318
#     4  10  20  30  46  74 110 156 184 220 254 312
#     4  11  20  31  52  80 113 148 181 220 267 324
#     4  10  21  35  55  80 112 145 187 227 275 326
#
# _framework density 18.846183
#
# number of rings (size 3 to 8) (size 9 to 14) (size 15 to 20)
#    0.000    2.000    1.667    2.000    3.500    3.333 
#    1.500    0.833    0.000    0.000    0.000    0.000 
#    0.000    0.000    0.000    0.000    0.000    0.000 
#
# Total GULP energy -594708.746277 kJ/mol
# GULP energy per Si atom -12389.765547 kJ/mol
# Density = 1.880329 g / cm^3
# Si number density = 18.846183 Si / 1000 Ang^3
#
#
#
# Elastic Constant Matrix: (Units=GPa)
#
#
# Indices 1 2 3 4 5 6 
#
# 1 148.8053 27.6985 60.4133 0.0000 0.0000 0.0000
# 2 27.6985 75.8493 30.2829 0.0000 0.0000 0.0000
# 3 60.4133 30.2829 108.2112 0.0000 0.0000 0.0000
# 4 0.0000 0.0000 0.0000 23.3145 0.0000 0.0000
# 5 0.0000 0.0000 0.0000 0.0000 13.4783 0.0000
# 6 0.0000 0.0000 0.0000 0.0000 0.0000 21.0050
#
#
#
# Elastic Compliance Matrix: (Units=1/GPa)
#
#
# Indices 1 2 3 4 5 6 
#
# 1 0.008822 -0.001413 -0.004530 0.000000 0.000000 0.000000
# 2 -0.001413 0.015069 -0.003428 0.000000 0.000000 0.000000
# 3 -0.004530 -0.003428 0.012730 0.000000 0.000000 0.000000
# 4 0.000000 0.000000 0.000000 0.042892 0.000000 0.000000
# 5 0.000000 0.000000 0.000000 0.000000 0.074193 0.000000
# 6 0.000000 0.000000 0.000000 0.000000 0.000000 0.047608
#
#
# Mechanical properties :
#
#
# Convention : Reuss Voigt Hill
#
# Bulk Modulus (GPa) = 55.93357 63.29503 59.61430
# Shear Modulus (GPa) = 22.12243 25.85765 23.99004
#
# Velocity S-wave (km/s) = 3.42985 3.70812 3.57170
# Velocity P-wave (km/s) = 6.74008 7.21051 6.97926
#
# Compressibility (1/GPa) = 0.01787835
#
# Stress axis : x y z
#
# Youngs Moduli (GPa) = 113.34848 66.36254 78.55722
#
# Poissons Ratio (x) = 0.09378 0.35586
# Poissons Ratio (y) = 0.16018 0.26930
# Poissons Ratio (z) = 0.51347 0.22749
#
# Static dielectric constant tensor:
#      x y z
#    x 3.729660 0.000000 0.000000 
#    y 0.000000 3.543460 0.000000 
#    z 0.000000 0.000000 3.080260 
# 
# 
# High freq. dielectric constant tensor:
#      x y z
#    x 1.744210 0.000000 0.000000 
#    y 0.000000 1.734640 0.000000 
#    z 0.000000 0.000000 1.685090 
# 
# From -- ./inp_files/28826.got.cif
#   From: 2010.03.12/outbox.cif.g09.slc.cpg/sg62_15_cif.got.tgz:28826.got - 2010.04.10 19:12:36.
