data_PCOD8251094
_publ_section_title
;
Structure prediction by ZEFSAII (Michael W. Deem and Ramdas Pophale) SiO2 
 PCOD8251094
Probable space group: P N M A
;
_chemical_formula_sum "Si O2"
_cell_formula_units_Z 48
_cell_length_a 8.321835
_cell_length_b 15.398893
_cell_length_c 18.228281
_cell_angle_alpha 90.000000
_cell_angle_beta 90.000000
_cell_angle_gamma 90.000000
_cell_volume 2335.900377
_symmetry_space_group_name_H-M "P N M A"
_symmetry_group_IT_number 62
_symmetry_cell_setting 'orthorhombic'
loop_
_space_group_symop_operation_xyz
x,y,z
1/2-x,-y,1/2+z
1/2+x,1/2-y,1/2-z
-x,1/2+y,-z
-x,-y,-z
1/2+x,y,1/2-z
1/2-x,1/2+y,1/2+z
x,1/2-y,z
loop_
_atom_site_type_symbol
_atom_site_label
_atom_site_fract_x
_atom_site_fract_y
_atom_site_fract_z
Si Si1 0.067891 0.250000 0.302486
Si Si2 0.766360 0.599542 0.443488
Si Si3 0.766407 0.094993 0.447053
Si Si4 0.131481 0.404606 0.398195
Si Si5 0.131861 0.599214 0.394655
Si Si6 0.200659 0.250000 0.147688
Si Si7 0.765748 0.750000 0.199811
Si Si8 0.374146 0.250000 0.646443
O O1 0.159716 0.334616 0.334215
O O2 0.078000 0.250000 0.214965
O O3 0.882000 0.250000 0.323190
O O4 0.701600 0.501648 0.429993
O O5 0.760087 0.617934 0.530858
O O6 0.646815 0.664764 0.403234
O O7 0.945074 0.612585 0.412581
O O8 0.759179 0.117830 0.533443
O O9 0.664338 0.164949 0.401327
O O10 0.950357 0.099430 0.424935
O O11 0.167399 0.500936 0.367498
O O12 0.180208 0.664015 0.330542
O O13 0.753958 0.750000 0.287570
O O14 0.951038 0.750000 0.180501
#
# Coordination Sequence:
#
# PCOD8251094 Si02
#       8
#     4   8   8   8   8   4   4   4
#     4  10  19  32  48  74 108 140 169 202 246 304
#     4   9  17  35  60  82 101 131 174 220 264 314
#     4   8  16  32  58  83 104 133 172 213 260 313
#     4   8  16  32  58  83 104 133 172 213 260 313
#     4   9  17  35  60  82 101 131 174 220 264 314
#     4  10  19  32  48  74 108 140 169 202 246 304
#     4  12  25  38  52  76 108 144 179 220 270 318
#     4  12  25  38  52  76 108 144 179 220 270 318
#
# _framework density 20.548819999999999
#
# number of rings (size 3 to 8) (size 9 to 14) (size 15 to 20)
#    0.000    2.667    0.000    4.500    0.000    4.000 
#    0.000   11.667    0.000    0.000    0.000    0.000 
#    0.000    0.000    0.000    0.000    0.000    0.000 
#
# Total GULP energy -595132.531127 kJ/mol
# GULP energy per Si atom -12398.594398 kJ/mol
# Density = 2.050205 g / cm^3
# Si number density = 20.548820 Si / 1000 Ang^3
#
#
#
# Elastic Constant Matrix: (Units=GPa)
#
#
# Indices 1 2 3 4 5 6 
#
# 1 25.1956 0.2943 -14.3261 0.0000 0.0000 0.0000
# 2 0.2943 120.6794 26.3742 0.0000 0.0000 0.0000
# 3 -14.3261 26.3742 43.2983 0.0000 0.0000 0.0000
# 4 0.0000 0.0000 0.0000 13.5585 0.0000 0.0000
# 5 0.0000 0.0000 0.0000 0.0000 28.2263 0.0000
# 6 0.0000 0.0000 0.0000 0.0000 0.0000 13.1184
#
#
#
# Elastic Compliance Matrix: (Units=1/GPa)
#
#
# Indices 1 2 3 4 5 6 
#
# 1 0.050819 -0.004382 0.019484 0.000000 0.000000 0.000000
# 2 -0.004382 0.009937 -0.007503 0.000000 0.000000 0.000000
# 3 0.019484 -0.007503 0.034112 0.000000 0.000000 0.000000
# 4 0.000000 0.000000 0.000000 0.073754 0.000000 0.000000
# 5 0.000000 0.000000 0.000000 0.000000 0.035428 0.000000
# 6 0.000000 0.000000 0.000000 0.000000 0.000000 0.076229
#
#
# Mechanical properties :
#
#
# Convention : Reuss Voigt Hill
#
# Bulk Modulus (GPa) = 9.08545 23.76201 16.42373
# Shear Modulus (GPa) = 16.56893 22.76937 19.66915
#
# Velocity S-wave (km/s) = 2.84266 3.33237 3.09721
# Velocity P-wave (km/s) = 3.89939 5.13761 4.56072
#
# Compressibility (1/GPa) = 0.11006606
#
# Stress axis : x y z
#
# Youngs Moduli (GPa) = 19.67766 100.63610 29.31498
#
# Poissons Ratio (x) = 0.44099 -0.57116
# Poissons Ratio (y) = 0.08623 0.21994
# Poissons Ratio (z) = -0.38339 0.75504
#
# Static dielectric constant tensor:
#      x y z
#    x 3.209050 0.000000 0.000000 
#    y 0.000000 4.191510 0.000000 
#    z 0.000000 0.000000 3.803990 
# 
# 
# High freq. dielectric constant tensor:
#      x y z
#    x 1.766000 0.000000 0.000000 
#    y 0.000000 1.818840 0.000000 
#    z 0.000000 0.000000 1.794620 
# 
# From -- ./inp_files/22377.got.cif
#   From: 2010.03.12/outbox.cif.g09.slc.cpg/sg62_12_cif.got.tgz:22377.got - 2010.04.10 19:12:36.
