data_PCOD8251089
_publ_section_title
;
Structure prediction by ZEFSAII (Michael W. Deem and Ramdas Pophale) SiO2 
 PCOD8251089
Probable space group: P N M A
;
_chemical_formula_sum "Si O2"
_cell_formula_units_Z 64
_cell_length_a 15.567884
_cell_length_b 16.701961
_cell_length_c 12.058023
_cell_angle_alpha 90.000000
_cell_angle_beta 90.000000
_cell_angle_gamma 90.000000
_cell_volume 3135.257100
_symmetry_space_group_name_H-M "P N M A"
_symmetry_group_IT_number 62
_symmetry_cell_setting 'orthorhombic'
loop_
_space_group_symop_operation_xyz
x,y,z
1/2-x,-y,1/2+z
1/2+x,1/2-y,1/2-z
-x,1/2+y,-z
-x,-y,-z
1/2+x,y,1/2-z
1/2-x,1/2+y,1/2+z
x,1/2-y,z
loop_
_atom_site_type_symbol
_atom_site_label
_atom_site_fract_x
_atom_site_fract_y
_atom_site_fract_z
Si Si1 0.002695 0.404249 0.873333
Si Si2 0.835752 0.596055 0.736770
Si Si3 0.947382 0.417061 0.500000
Si Si4 0.881932 0.658586 0.500000
Si Si5 0.149923 0.588372 0.726305
Si Si6 0.164248 0.096055 0.736770
Si Si7 0.497305 0.595751 0.626667
Si Si8 0.649923 0.911628 0.226306
O O1 0.917102 0.370768 0.812374
O O2 0.086160 0.367509 0.809967
O O3 1.000000 0.500000 0.865216
O O4 0.004117 0.374349 0.000000
O O5 0.846964 0.612491 0.606953
O O6 0.742788 0.632562 0.771403
O O7 0.835861 0.502495 0.763321
O O8 0.913840 0.632491 0.809967
O O9 0.886897 0.408295 0.395793
O O10 0.886897 0.408294 0.604208
O O11 0.000000 0.500000 0.500000
O O12 0.014868 0.344518 0.500000
O O13 0.850855 0.750000 0.500000
O O14 0.846965 0.612491 0.393047
O O15 0.164139 0.497505 0.763321
O O16 0.082898 0.629232 0.812373
O O17 0.257212 0.132562 0.771403
#
# Coordination Sequence:
#
# PCOD8251089 Si02
#       8
#     8   8   8   8   8   8   8   8
#     4   9  17  30  48  82 121 144 178 239 295 342
#     4  10  20  34  54  87 116 152 193 240 301 351
#     4  12  18  38  62  89 117 150 205 263 295 343
#     4  12  24  40  60  83 123 165 197 245 314 373
#     4  10  19  31  59  87 115 146 196 252 290 342
#     4  10  20  34  54  87 116 152 193 240 301 351
#     4   9  17  30  48  82 121 144 178 239 295 342
#     4  10  19  31  59  87 115 146 196 252 290 342
#
# _framework density 20.413
#
# number of rings (size 3 to 8) (size 9 to 14) (size 15 to 20)
#    0.000    1.750    5.000    0.750    3.500    0.000 
#    0.000    1.250    0.000    0.750    0.000    0.000 
#    0.000    0.000    0.000    0.000    0.000    0.000 
#
# Total GULP energy -793299.637146 kJ/mol
# GULP energy per Si atom -12395.306830 kJ/mol
# Density = 2.036654 g / cm^3
# Si number density = 20.413000 Si / 1000 Ang^3
#
#
#
# Elastic Constant Matrix: (Units=GPa)
#
#
# Indices 1 2 3 4 5 6 
#
# 1 225.9511 5.9811 109.2970 0.0000 0.0000 0.0000
# 2 5.9811 17.5218 -4.3814 0.0000 0.0000 0.0000
# 3 109.2970 -4.3814 188.9488 0.0000 0.0000 0.0000
# 4 0.0000 0.0000 0.0000 0.8963 0.0000 0.0000
# 5 0.0000 0.0000 0.0000 0.0000 18.9065 0.0000
# 6 0.0000 0.0000 0.0000 0.0000 0.0000 6.0500
#
#
#
# Elastic Compliance Matrix: (Units=1/GPa)
#
#
# Indices 1 2 3 4 5 6 
#
# 1 0.006307 -0.003083 -0.003719 0.000000 0.000000 0.000000
# 2 -0.003083 0.058912 0.003149 0.000000 0.000000 0.000000
# 3 -0.003719 0.003149 0.007517 0.000000 0.000000 0.000000
# 4 0.000000 0.000000 0.000000 1.115654 0.000000 0.000000
# 5 0.000000 0.000000 0.000000 0.000000 0.052892 0.000000
# 6 0.000000 0.000000 0.000000 0.000000 0.000000 0.165289
#
#
# Mechanical properties :
#
#
# Convention : Reuss Voigt Hill
#
# Bulk Modulus (GPa) = 15.28370 72.69056 43.98713
# Shear Modulus (GPa) = 3.48266 26.60556 15.04411
#
# Velocity S-wave (km/s) = 1.30759 3.61413 2.71770
# Velocity P-wave (km/s) = 3.12782 7.28719 5.60742
#
# Compressibility (1/GPa) = 0.06542919
#
# Stress axis : x y z
#
# Youngs Moduli (GPa) = 158.56592 16.97457 133.03200
#
# Poissons Ratio (x) = 0.05233 0.49481
# Poissons Ratio (y) = 0.48883 -0.41896
# Poissons Ratio (z) = 0.58978 -0.05346
#
# Static dielectric constant tensor:
#      x y z
#    x 4.322730 0.000000 0.000000 
#    y 0.000000 3.057980 0.000000 
#    z 0.000000 0.000000 3.988010 
# 
# 
# High freq. dielectric constant tensor:
#      x y z
#    x 1.820570 0.000000 0.000000 
#    y 0.000000 1.721150 0.000000 
#    z 0.000000 0.000000 1.808000 
# 
# From -- ./inp_files/13598.got.cif
#   From: 2010.03.12/outbox.cif.g09.slc.cpg/sg62_7_cif.got.tgz:13598.got - 2010.04.10 19:12:36.
