data_PCOD8251290
_publ_section_title
;
Structure prediction by ZEFSAII (Michael W. Deem and Ramdas Pophale) SiO2 
 PCOD8251290
Probable space group: P N M A
;
_chemical_formula_sum "Si O2"
_cell_formula_units_Z 64
_cell_length_a 17.095932
_cell_length_b 9.002131
_cell_length_c 21.826954
_cell_angle_alpha 90.000000
_cell_angle_beta 90.000000
_cell_angle_gamma 90.000000
_cell_volume 3359.164279
_symmetry_space_group_name_H-M "P N M A"
_symmetry_group_IT_number 62
_symmetry_cell_setting 'orthorhombic'
loop_
_space_group_symop_operation_xyz
x,y,z
1/2-x,-y,1/2+z
1/2+x,1/2-y,1/2-z
-x,1/2+y,-z
-x,-y,-z
1/2+x,y,1/2-z
1/2-x,1/2+y,1/2+z
x,1/2-y,z
loop_
_atom_site_type_symbol
_atom_site_label
_atom_site_fract_x
_atom_site_fract_y
_atom_site_fract_z
Si Si1 0.912665 0.079446 0.431370
Si Si2 0.037004 0.578421 0.860689
Si Si3 0.655760 0.423401 0.719634
Si Si4 0.735075 0.922483 0.109197
Si Si5 0.854587 0.424910 0.028296
Si Si6 0.433494 0.418894 0.926083
Si Si7 0.786956 0.926496 0.351020
Si Si8 0.135146 0.075548 0.101421
O O1 0.900165 0.250000 0.412690
O O2 0.910236 0.054861 0.503696
O O3 0.843103 0.980861 0.404910
O O4 0.996221 0.025271 0.404978
O O5 0.054246 0.750000 0.850192
O O6 0.074643 0.494590 0.802914
O O7 0.077322 0.528144 0.924322
O O8 0.945422 0.542720 0.863062
O O9 0.640974 0.250000 0.722071
O O10 0.726521 0.465154 0.673973
O O11 0.678274 0.483396 0.786547
O O12 0.749154 0.750000 0.092402
O O13 0.642728 0.956650 0.114404
O O14 0.771618 0.022030 0.055325
O O15 0.851644 0.250000 0.015525
O O16 0.871887 0.509258 0.965975
O O17 0.461368 0.250000 0.915853
O O18 0.778783 0.750000 0.353529
O O19 0.701990 0.997299 0.359232
O O20 0.152122 0.250000 0.095994
#
# Coordination Sequence:
#
# PCOD8251290 Si02
#       8
#     8   8   8   8   8   8   8   8
#     4  10  20  34  54  80 110 143 177 219 276 333
#     4   9  20  37  57  82 113 146 182 224 272 325
#     4   9  20  38  58  78 104 142 186 229 273 319
#     4   9  17  33  56  80 108 144 184 226 271 323
#     4  10  19  32  54  85 117 148 180 222 272 323
#     4   9  18  33  54  80 109 139 176 222 273 327
#     4  11  23  39  56  78 109 146 188 231 275 323
#     4  11  22  36  55  82 113 146 182 224 274 329
#
# _framework density 19.052358000000002
#
# number of rings (size 3 to 8) (size 9 to 14) (size 15 to 20)
#    0.000    2.250    0.000    2.625    0.000    4.500 
#    2.250    0.000    0.000    0.000    0.000    0.000 
#    0.000    0.000    0.000    0.000    0.000    0.000 
#
# Total GULP energy -793792.585850 kJ/mol
# GULP energy per Si atom -12403.009154 kJ/mol
# Density = 1.900899 g / cm^3
# Si number density = 19.052358 Si / 1000 Ang^3
#
#
#
# Elastic Constant Matrix: (Units=GPa)
#
#
# Indices 1 2 3 4 5 6 
#
# 1 119.9360 48.6139 38.2123 0.0000 0.0000 0.0000
# 2 48.6139 78.1448 38.0680 0.0000 0.0000 0.0000
# 3 38.2123 38.0680 70.0886 0.0000 0.0000 0.0000
# 4 0.0000 0.0000 0.0000 25.9833 0.0000 0.0000
# 5 0.0000 0.0000 0.0000 0.0000 16.1353 0.0000
# 6 0.0000 0.0000 0.0000 0.0000 0.0000 35.8549
#
#
#
# Elastic Compliance Matrix: (Units=1/GPa)
#
#
# Indices 1 2 3 4 5 6 
#
# 1 0.011683 -0.005663 -0.003293 0.000000 0.000000 0.000000
# 2 -0.005663 0.020146 -0.007855 0.000000 0.000000 0.000000
# 3 -0.003293 -0.007855 0.020329 0.000000 0.000000 0.000000
# 4 0.000000 0.000000 0.000000 0.038486 0.000000 0.000000
# 5 0.000000 0.000000 0.000000 0.000000 0.061976 0.000000
# 6 0.000000 0.000000 0.000000 0.000000 0.000000 0.027890
#
#
# Mechanical properties :
#
#
# Convention : Reuss Voigt Hill
#
# Bulk Modulus (GPa) = 53.95030 57.55086 55.75058
# Shear Modulus (GPa) = 22.69510 25.14638 23.92074
#
# Velocity S-wave (km/s) = 3.45512 3.63692 3.54718
# Velocity P-wave (km/s) = 6.65548 6.92160 6.78984
#
# Compressibility (1/GPa) = 0.01853558
#
# Stress axis : x y z
#
# Youngs Moduli (GPa) = 85.59725 49.63688 49.19008
#
# Poissons Ratio (x) = 0.28112 0.16200
# Poissons Ratio (y) = 0.48477 0.38637
# Poissons Ratio (z) = 0.28190 0.38988
#
# Static dielectric constant tensor:
#      x y z
#    x 3.614170 0.000000 0.000000 
#    y 0.000000 3.512350 0.000000 
#    z 0.000000 0.000000 3.412270 
# 
# 
# High freq. dielectric constant tensor:
#      x y z
#    x 1.748880 0.000000 0.000000 
#    y 0.000000 1.743570 0.000000 
#    z 0.000000 0.000000 1.725020 
# 
# From -- ./inp_files/27664.got.cif
#   From: 2010.03.12/outbox.cif.g09.slc.cpg/sg62_14_cif.got.tgz:27664.got - 2010.04.10 19:12:36.
