data_PCOD8251261
_publ_section_title
;
Structure prediction by ZEFSAII (Michael W. Deem and Ramdas Pophale) SiO2 
 PCOD8251261
Probable space group: P N M A
;
_chemical_formula_sum "Si O2"
_cell_formula_units_Z 64
_cell_length_a 19.578412
_cell_length_b 9.000664
_cell_length_c 19.249021
_cell_angle_alpha 90.000000
_cell_angle_beta 90.000000
_cell_angle_gamma 90.000000
_cell_volume 3392.037612
_symmetry_space_group_name_H-M "P N M A"
_symmetry_group_IT_number 62
_symmetry_cell_setting 'orthorhombic'
loop_
_space_group_symop_operation_xyz
x,y,z
1/2-x,-y,1/2+z
1/2+x,1/2-y,1/2-z
-x,1/2+y,-z
-x,-y,-z
1/2+x,y,1/2-z
1/2-x,1/2+y,1/2+z
x,1/2-y,z
loop_
_atom_site_type_symbol
_atom_site_label
_atom_site_fract_x
_atom_site_fract_y
_atom_site_fract_z
Si Si1 0.676633 0.921114 0.753920
Si Si2 0.093868 0.088283 0.502330
Si Si3 0.976041 0.418855 0.270872
Si Si4 0.719296 0.924787 0.992206
Si Si5 0.769820 0.073761 0.862529
Si Si6 0.876195 0.578787 0.769462
Si Si7 0.787039 0.577783 0.641172
Si Si8 0.471877 0.412491 0.896264
O O1 0.686383 0.750000 0.775989
O O2 0.596893 0.955494 0.735808
O O3 0.718589 0.957543 0.684792
O O4 0.704343 0.018261 0.818295
O O5 0.129477 0.250000 0.497249
O O6 0.022242 0.104652 0.538961
O O7 0.144993 0.971890 0.539227
O O8 0.085323 0.029352 0.422156
O O9 0.977281 0.250000 0.298617
O O10 0.042042 0.443872 0.221362
O O11 0.982665 0.531188 0.333891
O O12 0.730372 0.750000 0.991086
O O13 0.772766 0.002168 0.939836
O O14 0.721870 0.983506 0.071074
O O15 0.766704 0.250000 0.868805
O O16 0.839992 0.024858 0.825662
O O17 0.854416 0.750000 0.782306
O O18 0.851823 0.532177 0.691143
O O19 0.791483 0.750000 0.621062
O O20 0.439700 0.250000 0.879738
#
# Coordination Sequence:
#
# PCOD8251261 Si02
#       8
#     8   8   8   8   8   8   8   8
#     4   9  19  36  57  81 109 141 176 215 262 316
#     4  10  20  33  47  67  99 136 171 208 252 303
#     4  10  19  32  54  79 103 135 171 209 259 314
#     4  12  23  34  52  76 102 134 175 220 264 313
#     4  11  22  36  55  78 106 141 179 219 263 311
#     4   9  19  36  56  79 108 139 172 214 262 312
#     4   9  18  34  54  77 108 142 175 214 260 310
#     4  10  20  31  45  69 101 136 171 206 246 298
#
# _framework density 18.867716000000001
#
# number of rings (size 3 to 8) (size 9 to 14) (size 15 to 20)
#    0.000    2.000    0.000    5.250    0.000    7.500 
#    0.000    0.000    0.000    0.750    0.000    0.000 
#    0.000    0.000    0.000    0.000    0.000    0.000 
#
# Total GULP energy -793087.958384 kJ/mol
# GULP energy per Si atom -12391.999350 kJ/mol
# Density = 1.882477 g / cm^3
# Si number density = 18.867716 Si / 1000 Ang^3
#
#
#
# Elastic Constant Matrix: (Units=GPa)
#
#
# Indices 1 2 3 4 5 6 
#
# 1 75.9688 10.2286 -0.5989 0.0000 0.0000 0.0000
# 2 10.2286 113.3320 25.7123 0.0000 0.0000 0.0000
# 3 -0.5989 25.7123 52.9716 0.0000 0.0000 0.0000
# 4 0.0000 0.0000 0.0000 28.2995 0.0000 0.0000
# 5 0.0000 0.0000 0.0000 0.0000 16.3495 0.0000
# 6 0.0000 0.0000 0.0000 0.0000 0.0000 22.1283
#
#
#
# Elastic Compliance Matrix: (Units=1/GPa)
#
#
# Indices 1 2 3 4 5 6 
#
# 1 0.013357 -0.001393 0.000827 0.000000 0.000000 0.000000
# 2 -0.001393 0.010061 -0.004899 0.000000 0.000000 0.000000
# 3 0.000827 -0.004899 0.021265 0.000000 0.000000 0.000000
# 4 0.000000 0.000000 0.000000 0.035336 0.000000 0.000000
# 5 0.000000 0.000000 0.000000 0.000000 0.061164 0.000000
# 6 0.000000 0.000000 0.000000 0.000000 0.000000 0.045191
#
#
# Mechanical properties :
#
#
# Convention : Reuss Voigt Hill
#
# Bulk Modulus (GPa) = 29.62671 34.77293 32.19982
# Shear Modulus (GPa) = 23.97429 27.15082 25.56255
#
# Velocity S-wave (km/s) = 3.56849 3.79754 3.68480
# Velocity P-wave (km/s) = 5.71972 6.13989 5.93353
#
# Compressibility (1/GPa) = 0.03375333
#
# Stress axis : x y z
#
# Youngs Moduli (GPa) = 74.86481 99.39454 47.02454
#
# Poissons Ratio (x) = 0.13848 -0.03890
# Poissons Ratio (y) = 0.10430 0.23039
# Poissons Ratio (z) = -0.06194 0.48696
#
# Static dielectric constant tensor:
#      x y z
#    x 3.573880 0.000000 0.000000 
#    y 0.000000 3.620390 0.000000 
#    z 0.000000 0.000000 3.289470 
# 
# 
# High freq. dielectric constant tensor:
#      x y z
#    x 1.726300 0.000000 0.000000 
#    y 0.000000 1.738430 0.000000 
#    z 0.000000 0.000000 1.710830 
# 
# From -- ./inp_files/24749.got.cif
#   From: 2010.03.12/outbox.cif.g09.slc.cpg/sg62_13_cif.got.tgz:24749.got - 2010.04.10 19:12:36.
