data_PCOD8251229
_publ_section_title
;
Structure prediction by ZEFSAII (Michael W. Deem and Ramdas Pophale) SiO2 
 PCOD8251229
Probable space group: P N M A
;
_chemical_formula_sum "Si O2"
_cell_formula_units_Z 64
_cell_length_a 14.198127
_cell_length_b 13.933550
_cell_length_c 18.401155
_cell_angle_alpha 90.000000
_cell_angle_beta 90.000000
_cell_angle_gamma 90.000000
_cell_volume 3640.306243
_symmetry_space_group_name_H-M "P N M A"
_symmetry_group_IT_number 62
_symmetry_cell_setting 'orthorhombic'
loop_
_space_group_symop_operation_xyz
x,y,z
1/2-x,-y,1/2+z
1/2+x,1/2-y,1/2-z
-x,1/2+y,-z
-x,-y,-z
1/2+x,y,1/2-z
1/2-x,1/2+y,1/2+z
x,1/2-y,z
loop_
_atom_site_type_symbol
_atom_site_label
_atom_site_fract_x
_atom_site_fract_y
_atom_site_fract_z
Si Si1 0.424138 0.636847 0.211561
Si Si2 0.734553 0.359366 0.568915
Si Si3 0.403174 0.138959 0.567967
Si Si4 0.571243 0.453456 0.641505
Si Si5 0.493230 0.141812 0.414392
Si Si6 0.752559 0.450969 0.841986
Si Si7 0.284548 0.642697 0.591763
Si Si8 0.859007 0.138329 0.705408
O O1 0.409932 0.750000 0.219379
O O2 0.386083 0.582608 0.283012
O O3 0.351801 0.595197 0.151763
O O4 0.531790 0.608530 0.196349
O O5 0.698731 0.250000 0.580541
O O6 0.647535 0.431173 0.579841
O O7 0.768924 0.372092 0.485638
O O8 0.816891 0.383951 0.625905
O O9 0.382734 0.250000 0.576440
O O10 0.476938 0.107601 0.629319
O O11 0.443967 0.112215 0.489707
O O12 0.306331 0.084136 0.585269
O O13 0.547258 0.567012 0.644522
O O14 0.466281 0.250000 0.390926
O O15 0.604351 0.129321 0.422865
O O16 0.746884 0.567009 0.848626
O O17 0.807854 0.422389 0.768280
O O18 0.264563 0.750000 0.621961
O O19 0.848727 0.250000 0.726601
#
# Coordination Sequence:
#
# PCOD8251229 Si02
#       8
#     8   8   8   8   8   8   8   8
#     4  11  22  34  51  77 107 134 167 213 268 321
#     4  10  19  32  53  78 105 138 176 213 257 315
#     4  11  19  28  48  79 113 135 160 207 267 323
#     4  12  18  29  50  77 105 139 168 207 265 316
#     4  10  20  32  48  76 109 140 172 212 261 313
#     4  12  21  33  52  80 107 138 171 213 268 315
#     4  10  20  35  53  75 103 141 183 218 253 304
#     4  10  20  34  53  79 109 136 168 213 266 318
#
# _framework density 17.580938
#
# number of rings (size 3 to 8) (size 9 to 14) (size 15 to 20)
#    0.000    1.250    5.000    3.375    0.000    0.000 
#    0.000    1.250    0.000    0.750    0.000    0.000 
#    0.000    0.000    0.000    0.000    0.000    0.000 
#
# Total GULP energy -793465.051940 kJ/mol
# GULP energy per Si atom -12397.891437 kJ/mol
# Density = 1.754092 g / cm^3
# Si number density = 17.580938 Si / 1000 Ang^3
#
#
#
# Elastic Constant Matrix: (Units=GPa)
#
#
# Indices 1 2 3 4 5 6 
#
# 1 84.8704 45.1208 30.2273 0.0000 0.0000 0.0000
# 2 45.1208 112.8294 45.7676 0.0000 0.0000 0.0000
# 3 30.2273 45.7676 55.2917 0.0000 0.0000 0.0000
# 4 0.0000 0.0000 0.0000 25.2858 0.0000 0.0000
# 5 0.0000 0.0000 0.0000 0.0000 21.6049 0.0000
# 6 0.0000 0.0000 0.0000 0.0000 0.0000 24.3018
#
#
#
# Elastic Compliance Matrix: (Units=1/GPa)
#
#
# Indices 1 2 3 4 5 6 
#
# 1 0.015884 -0.004260 -0.005157 0.000000 0.000000 0.000000
# 2 -0.004260 0.014486 -0.009661 0.000000 0.000000 0.000000
# 3 -0.005157 -0.009661 0.028903 0.000000 0.000000 0.000000
# 4 0.000000 0.000000 0.000000 0.039548 0.000000 0.000000
# 5 0.000000 0.000000 0.000000 0.000000 0.046286 0.000000
# 6 0.000000 0.000000 0.000000 0.000000 0.000000 0.041149
#
#
# Mechanical properties :
#
#
# Convention : Reuss Voigt Hill
#
# Bulk Modulus (GPa) = 47.36078 55.02476 51.19277
# Shear Modulus (GPa) = 21.60274 23.03021 22.31647
#
# Velocity S-wave (km/s) = 3.50917 3.62325 3.56667
# Velocity P-wave (km/s) = 6.58910 6.99070 6.79287
#
# Compressibility (1/GPa) = 0.02111452
#
# Stress axis : x y z
#
# Youngs Moduli (GPa) = 62.95470 69.03396 34.59888
#
# Poissons Ratio (x) = 0.29410 0.17844
# Poissons Ratio (y) = 0.26820 0.33428
# Poissons Ratio (z) = 0.32469 0.66697
#
# Static dielectric constant tensor:
#      x y z
#    x 3.257440 0.000000 0.000000 
#    y 0.000000 3.368910 0.000000 
#    z 0.000000 0.000000 3.097230 
# 
# 
# High freq. dielectric constant tensor:
#      x y z
#    x 1.665840 0.000000 0.000000 
#    y 0.000000 1.680770 0.000000 
#    z 0.000000 0.000000 1.655070 
# 
# From -- ./inp_files/24110.got.cif
#   From: 2010.03.12/outbox.cif.g09.slc.cpg/sg62_13_cif.got.tgz:24110.got - 2010.04.10 19:12:36.
