data_PCOD8251172
_publ_section_title
;
Structure prediction by ZEFSAII (Michael W. Deem and Ramdas Pophale) SiO2 
 PCOD8251172
Probable space group: P N M A
;
_chemical_formula_sum "Si O2"
_cell_formula_units_Z 64
_cell_length_a 24.574004
_cell_length_b 12.955256
_cell_length_c 11.043776
_cell_angle_alpha 90.000000
_cell_angle_beta 90.000000
_cell_angle_gamma 90.000000
_cell_volume 3515.924278
_symmetry_space_group_name_H-M "P N M A"
_symmetry_group_IT_number 62
_symmetry_cell_setting 'orthorhombic'
loop_
_space_group_symop_operation_xyz
x,y,z
1/2-x,-y,1/2+z
1/2+x,1/2-y,1/2-z
-x,1/2+y,-z
-x,-y,-z
1/2+x,y,1/2-z
1/2-x,1/2+y,1/2+z
x,1/2-y,z
loop_
_atom_site_type_symbol
_atom_site_label
_atom_site_fract_x
_atom_site_fract_y
_atom_site_fract_z
Si Si1 0.370256 0.367621 0.606111
Si Si2 0.244860 0.367064 0.141377
Si Si3 0.562227 0.952995 0.600427
Si Si4 0.137222 0.058579 0.254579
Si Si5 0.448925 0.632663 0.572413
Si Si6 0.841715 0.477700 0.272167
Si Si7 0.224362 0.529859 0.957397
Si Si8 0.164902 0.371813 0.501814
O O1 0.365439 0.250000 0.649802
O O2 0.419479 0.379151 0.510491
O O3 0.377865 0.438798 0.725824
O O4 0.317023 0.405085 0.537450
O O5 0.228296 0.250000 0.125728
O O6 0.201262 0.420887 0.230465
O O7 0.307975 0.377216 0.183299
O O8 0.243111 0.422621 0.013391
O O9 0.501788 0.917849 0.637186
O O10 0.599302 0.944828 0.720989
O O11 0.564446 0.070673 0.551164
O O12 0.101072 0.129203 0.165952
O O13 0.124520 0.086990 0.394908
O O14 0.459864 0.750000 0.535038
O O15 0.803043 0.514812 0.163362
O O16 0.846933 0.566695 0.373699
O O17 0.275116 0.607473 0.948211
O O18 0.156245 0.250000 0.524753
#
# Coordination Sequence:
#
# PCOD8251172 Si02
#       8
#     8   8   8   8   8   8   8   8
#     4   9  17  32  55  77 103 138 172 219 276 319
#     4  10  19  32  52  74 103 140 173 218 270 312
#     4   9  20  35  53  85 111 133 180 229 269 325
#     4  10  20  33  51  79 108 136 182 221 257 325
#     4  10  19  34  58  81 107 141 176 225 279 320
#     4  10  21  35  52  76 110 140 178 224 265 321
#     4   9  19  33  48  75 103 131 180 222 261 319
#     4  11  21  34  52  74 106 147 182 216 268 325
#
# _framework density 18.202894000000001
#
# number of rings (size 3 to 8) (size 9 to 14) (size 15 to 20)
#    0.000    2.250    1.250    2.625    0.000    3.500 
#    0.000    3.125    0.000    0.000    0.000    0.000 
#    0.000    0.000    0.000    0.000    0.000    0.000 
#
# Total GULP energy -792984.328513 kJ/mol
# GULP energy per Si atom -12390.380133 kJ/mol
# Density = 1.816146 g / cm^3
# Si number density = 18.202894 Si / 1000 Ang^3
#
#
#
# Elastic Constant Matrix: (Units=GPa)
#
#
# Indices 1 2 3 4 5 6 
#
# 1 58.2722 18.1456 17.8655 0.0000 0.0000 0.0000
# 2 18.1456 127.8657 39.9287 0.0000 0.0000 0.0000
# 3 17.8655 39.9287 65.4952 0.0000 0.0000 0.0000
# 4 0.0000 0.0000 0.0000 12.4042 0.0000 0.0000
# 5 0.0000 0.0000 0.0000 0.0000 23.1685 0.0000
# 6 0.0000 0.0000 0.0000 0.0000 0.0000 15.9540
#
#
#
# Elastic Compliance Matrix: (Units=1/GPa)
#
#
# Indices 1 2 3 4 5 6 
#
# 1 0.018907 -0.001325 -0.004350 0.000000 0.000000 0.000000
# 2 -0.001325 0.009752 -0.005584 0.000000 0.000000 0.000000
# 3 -0.004350 -0.005584 0.019859 0.000000 0.000000 0.000000
# 4 0.000000 0.000000 0.000000 0.080618 0.000000 0.000000
# 5 0.000000 0.000000 0.000000 0.000000 0.043162 0.000000
# 6 0.000000 0.000000 0.000000 0.000000 0.000000 0.062680
#
#
# Mechanical properties :
#
#
# Convention : Reuss Voigt Hill
#
# Bulk Modulus (GPa) = 38.45975 44.83476 41.64725
# Shear Modulus (GPa) = 18.78551 22.01825 20.40188
#
# Velocity S-wave (km/s) = 3.21597 3.48171 3.35147
# Velocity P-wave (km/s) = 5.91305 6.39117 6.15676
#
# Compressibility (1/GPa) = 0.02600121
#
# Stress axis : x y z
#
# Youngs Moduli (GPa) = 52.89066 102.53799 50.35470
#
# Poissons Ratio (x) = 0.13585 0.21903
# Poissons Ratio (y) = 0.07007 0.28119
# Poissons Ratio (z) = 0.23006 0.57259
#
# Static dielectric constant tensor:
#      x y z
#    x 3.450550 0.000000 0.000000 
#    y 0.000000 3.236070 0.000000 
#    z 0.000000 0.000000 3.408070 
# 
# 
# High freq. dielectric constant tensor:
#      x y z
#    x 1.698460 0.000000 0.000000 
#    y 0.000000 1.698320 0.000000 
#    z 0.000000 0.000000 1.689400 
# 
# From -- ./inp_files/15568.got.cif
#   From: 2010.03.12/outbox.cif.g09.slc.cpg/sg62_8_cif.got.tgz:15568.got - 2010.04.10 19:12:36.
