data_PCOD8251461
_publ_section_title
;
Structure prediction by ZEFSAII (Michael W. Deem and Ramdas Pophale) SiO2 
 PCOD8251461
Probable space group: P N M A
;
_chemical_formula_sum "Si O2"
_cell_formula_units_Z 64
_cell_length_a 23.728237
_cell_length_b 16.545564
_cell_length_c 9.454937
_cell_angle_alpha 90.000000
_cell_angle_beta 90.000000
_cell_angle_gamma 90.000000
_cell_volume 3711.980505
_symmetry_space_group_name_H-M "P N M A"
_symmetry_group_IT_number 62
_symmetry_cell_setting 'orthorhombic'
loop_
_space_group_symop_operation_xyz
x,y,z
1/2-x,-y,1/2+z
1/2+x,1/2-y,1/2-z
-x,1/2+y,-z
-x,-y,-z
1/2+x,y,1/2-z
1/2-x,1/2+y,1/2+z
x,1/2-y,z
loop_
_atom_site_type_symbol
_atom_site_label
_atom_site_fract_x
_atom_site_fract_y
_atom_site_fract_z
Si Si1 0.759730 0.436552 0.652239
Si Si2 0.537884 0.841408 0.059156
Si Si3 0.930455 0.071881 0.288811
Si Si4 0.637997 0.656804 0.268391
Si Si5 0.553356 0.843873 0.503672
Si Si6 0.539827 0.103268 0.695858
Si Si7 0.814166 0.002253 0.367317
Si Si8 0.160798 0.157001 0.762000
O O1 0.807543 0.397844 0.750323
O O2 0.731907 0.510351 0.741307
O O3 0.784715 0.472262 0.510732
O O4 0.710757 0.368066 0.627039
O O5 0.535547 0.750000 0.003360
O O6 0.596587 0.858495 0.137110
O O7 0.486519 0.854186 0.166606
O O8 0.533108 0.899938 0.923869
O O9 0.956383 0.991132 0.226265
O O10 0.865642 0.061921 0.334805
O O11 0.935103 0.138978 0.167178
O O12 0.656521 0.750000 0.276220
O O13 0.607673 0.628651 0.412884
O O14 0.542726 0.750000 0.478291
O O15 0.497642 0.887950 0.444634
O O16 0.600275 0.143913 0.664161
O O17 0.834662 0.907085 0.370651
O O18 0.167890 0.250000 0.712419
#
# Coordination Sequence:
#
# PCOD8251461 Si02
#       8
#     8   8   8   8   8   8   8   8
#     4  10  19  36  54  78 110 142 181 227 270 318
#     4  10  19  33  55  79 109 141 177 227 273 318
#     4  11  20  35  52  85 110 139 181 227 275 314
#     4   9  18  32  55  79 105 143 184 218 264 328
#     4  10  21  35  55  83 112 143 179 224 276 324
#     4  10  20  36  56  78 110 143 184 217 267 336
#     4   9  22  33  55  79 110 139 181 226 270 317
#     4   9  19  34  60  80 105 146 187 218 261 328
#
# _framework density 17.241468999999999
#
# number of rings (size 3 to 8) (size 9 to 14) (size 15 to 20)
#    0.750    1.500    1.250    3.375    1.750    0.000 
#    0.000    0.000    0.000    1.500    0.000    0.000 
#    0.000    0.000    0.000    0.000    0.000    0.000 
#
# Total GULP energy -793204.315031 kJ/mol
# GULP energy per Si atom -12393.817422 kJ/mol
# Density = 1.720223 g / cm^3
# Si number density = 17.241469 Si / 1000 Ang^3
#
#
#
# Elastic Constant Matrix: (Units=GPa)
#
#
# Indices 1 2 3 4 5 6 
#
# 1 99.7094 22.8109 29.3638 0.0000 0.0000 0.0000
# 2 22.8109 48.2293 15.3655 0.0000 0.0000 0.0000
# 3 29.3638 15.3655 78.6886 0.0000 0.0000 0.0000
# 4 0.0000 0.0000 0.0000 23.1836 0.0000 0.0000
# 5 0.0000 0.0000 0.0000 0.0000 18.8581 0.0000
# 6 0.0000 0.0000 0.0000 0.0000 0.0000 12.2679
#
#
#
# Elastic Compliance Matrix: (Units=1/GPa)
#
#
# Indices 1 2 3 4 5 6 
#
# 1 0.012150 -0.004587 -0.003638 0.000000 0.000000 0.000000
# 2 -0.004587 0.023842 -0.002944 0.000000 0.000000 0.000000
# 3 -0.003638 -0.002944 0.014641 0.000000 0.000000 0.000000
# 4 0.000000 0.000000 0.000000 0.043134 0.000000 0.000000
# 5 0.000000 0.000000 0.000000 0.000000 0.053028 0.000000
# 6 0.000000 0.000000 0.000000 0.000000 0.000000 0.081513
#
#
# Mechanical properties :
#
#
# Convention : Reuss Voigt Hill
#
# Bulk Modulus (GPa) = 35.34322 40.18974 37.76648
# Shear Modulus (GPa) = 19.22504 21.46774 20.34639
#
# Velocity S-wave (km/s) = 3.34285 3.53246 3.43896
# Velocity P-wave (km/s) = 5.95340 6.32441 6.14171
#
# Compressibility (1/GPa) = 0.02829397
#
# Stress axis : x y z
#
# Youngs Moduli (GPa) = 82.30416 41.94307 68.30240
#
# Poissons Ratio (x) = 0.19241 0.24850
# Poissons Ratio (y) = 0.37757 0.20106
# Poissons Ratio (z) = 0.29944 0.12347
#
# Static dielectric constant tensor:
#      x y z
#    x 3.330050 0.000000 0.000000 
#    y 0.000000 3.167280 0.000000 
#    z 0.000000 0.000000 2.982490 
# 
# 
# High freq. dielectric constant tensor:
#      x y z
#    x 1.674480 0.000000 0.000000 
#    y 0.000000 1.662790 0.000000 
#    z 0.000000 0.000000 1.644030 
# 
# From -- ./inp_files/8923.got.cif
#   From: 2010.03.12/outbox.cif.g09.slc.cpg/sg62_5_cif.got.tgz:8923.got - 2010.04.10 19:12:36.
