data_PCOD8251352
_publ_section_title
;
Structure prediction by ZEFSAII (Michael W. Deem and Ramdas Pophale) SiO2 
 PCOD8251352
Probable space group: P N M A
;
_chemical_formula_sum "Si O2"
_cell_formula_units_Z 64
_cell_length_a 19.467476
_cell_length_b 9.033764
_cell_length_c 20.427214
_cell_angle_alpha 90.000000
_cell_angle_beta 90.000000
_cell_angle_gamma 90.000000
_cell_volume 3592.423490
_symmetry_space_group_name_H-M "P N M A"
_symmetry_group_IT_number 62
_symmetry_cell_setting 'orthorhombic'
loop_
_space_group_symop_operation_xyz
x,y,z
1/2-x,-y,1/2+z
1/2+x,1/2-y,1/2-z
-x,1/2+y,-z
-x,-y,-z
1/2+x,y,1/2-z
1/2-x,1/2+y,1/2+z
x,1/2-y,z
loop_
_atom_site_type_symbol
_atom_site_label
_atom_site_fract_x
_atom_site_fract_y
_atom_site_fract_z
Si Si1 0.566035 0.925075 0.381888
Si Si2 0.716971 0.924135 0.563187
Si Si3 0.279552 0.077810 0.197525
Si Si4 0.570848 0.580595 0.770433
Si Si5 0.429726 0.079110 0.380329
Si Si6 0.209262 0.923847 0.318385
Si Si7 0.562958 0.578361 0.233241
Si Si8 0.302379 0.924038 0.567055
O O1 0.573481 0.750000 0.390209
O O2 0.575812 0.980537 0.307060
O O3 0.491480 0.977567 0.407296
O O4 0.623077 0.003159 0.425822
O O5 0.730112 0.750000 0.557887
O O6 0.638071 0.960755 0.579464
O O7 0.766486 0.988446 0.618390
O O8 0.735391 0.003622 0.495152
O O9 0.269671 0.250000 0.217088
O O10 0.360373 0.040475 0.189502
O O11 0.243931 0.037833 0.129570
O O12 0.248054 0.976889 0.253764
O O13 0.551131 0.750000 0.778876
O O14 0.585807 0.540693 0.695021
O O15 0.505200 0.492867 0.798258
O O16 0.450459 0.250000 0.389106
O O17 0.223031 0.750000 0.327037
O O18 0.128401 0.959069 0.311137
O O19 0.548294 0.750000 0.237684
O O20 0.310403 0.750000 0.556509
#
# Coordination Sequence:
#
# PCOD8251352 Si02
#       8
#     8   8   8   8   8   8   8   8
#     4  10  19  33  52  77 110 145 182 222 265 318
#     4  11  23  39  56  77 110 146 185 228 273 324
#     4  10  20  36  57  82 110 142 182 226 271 320
#     4   9  17  32  54  80 107 137 176 220 268 318
#     4   9  18  33  52  75 105 143 182 221 264 318
#     4  11  21  35  57  83 111 141 180 224 270 322
#     4   9  19  33  51  81 113 139 173 221 271 317
#     4  11  23  37  55  79 110 147 186 225 273 326
#
# _framework density 17.815270999999999
#
# number of rings (size 3 to 8) (size 9 to 14) (size 15 to 20)
#    0.000    2.000    2.500    1.500    0.000    4.000 
#    0.000    0.000    0.000    0.750    0.000    0.000 
#    0.000    0.000    0.000    0.000    0.000    0.000 
#
# Total GULP energy -793761.082447 kJ/mol
# GULP energy per Si atom -12402.516913 kJ/mol
# Density = 1.777472 g / cm^3
# Si number density = 17.815271 Si / 1000 Ang^3
#
#
#
# Elastic Constant Matrix: (Units=GPa)
#
#
# Indices 1 2 3 4 5 6 
#
# 1 93.4216 35.7188 30.9892 0.0000 0.0000 0.0000
# 2 35.7188 48.3249 15.1252 0.0000 0.0000 0.0000
# 3 30.9892 15.1252 59.0241 0.0000 0.0000 0.0000
# 4 0.0000 0.0000 0.0000 27.2800 0.0000 0.0000
# 5 0.0000 0.0000 0.0000 0.0000 19.8252 0.0000
# 6 0.0000 0.0000 0.0000 0.0000 0.0000 30.9529
#
#
#
# Elastic Compliance Matrix: (Units=1/GPa)
#
#
# Indices 1 2 3 4 5 6 
#
# 1 0.016725 -0.010452 -0.006103 0.000000 0.000000 0.000000
# 2 -0.010452 0.029029 -0.001951 0.000000 0.000000 0.000000
# 3 -0.006103 -0.001951 0.020646 0.000000 0.000000 0.000000
# 4 0.000000 0.000000 0.000000 0.036657 0.000000 0.000000
# 5 0.000000 0.000000 0.000000 0.000000 0.050441 0.000000
# 6 0.000000 0.000000 0.000000 0.000000 0.000000 0.032307
#
#
# Mechanical properties :
#
#
# Convention : Reuss Voigt Hill
#
# Bulk Modulus (GPa) = 34.02663 40.49299 37.25981
# Shear Modulus (GPa) = 21.49494 23.54078 22.51786
#
# Velocity S-wave (km/s) = 3.47731 3.63903 3.55908
# Velocity P-wave (km/s) = 5.93830 6.35888 6.15218
#
# Compressibility (1/GPa) = 0.02938875
#
# Stress axis : x y z
#
# Youngs Moduli (GPa) = 59.79228 34.44792 48.43488
#
# Poissons Ratio (x) = 0.36004 0.29558
# Poissons Ratio (y) = 0.62493 0.09452
# Poissons Ratio (z) = 0.36488 0.06722
#
# Static dielectric constant tensor:
#      x y z
#    x 3.414210 0.000000 0.000000 
#    y 0.000000 3.318940 0.000000 
#    z 0.000000 0.000000 3.169180 
# 
# 
# High freq. dielectric constant tensor:
#      x y z
#    x 1.691370 0.000000 0.000000 
#    y 0.000000 1.695840 0.000000 
#    z 0.000000 0.000000 1.665430 
# 
# From -- ./inp_files/27656.got.cif
#   From: 2010.03.12/outbox.cif.g09.slc.cpg/sg62_14_cif.got.tgz:27656.got - 2010.04.10 19:12:36.
