data_PCOD8251770
_publ_section_title
;
Structure prediction by ZEFSAII (Michael W. Deem and Ramdas Pophale) SiO2 
 PCOD8251770
Probable space group: P N M A
;
_chemical_formula_sum "Si O2"
_cell_formula_units_Z 40
_cell_length_a 9.112211
_cell_length_b 14.756327
_cell_length_c 15.800764
_cell_angle_alpha 90.000000
_cell_angle_beta 90.000000
_cell_angle_gamma 90.000000
_cell_volume 2124.614420
_symmetry_space_group_name_H-M "P N M A"
_symmetry_group_IT_number 62
_symmetry_cell_setting 'orthorhombic'
loop_
_space_group_symop_operation_xyz
x,y,z
1/2-x,-y,1/2+z
1/2+x,1/2-y,1/2-z
-x,1/2+y,-z
-x,-y,-z
1/2+x,y,1/2-z
1/2-x,1/2+y,1/2+z
x,1/2-y,z
loop_
_atom_site_type_symbol
_atom_site_label
_atom_site_fract_x
_atom_site_fract_y
_atom_site_fract_z
Si Si1 0.184050 0.400872 0.652614
Si Si2 0.600161 0.936947 0.941649
Si Si3 0.493254 0.647061 0.308447
Si Si4 0.356244 0.975865 0.447602
Si Si5 0.821159 0.651098 0.540561
O O1 0.145743 0.508027 0.643014
O O2 0.342936 0.390721 0.694083
O O3 0.181488 0.353763 0.561277
O O4 0.065265 0.353940 0.712724
O O5 0.490566 0.853131 0.923635
O O6 0.748285 0.914441 0.993984
O O7 0.500000 0.000000 0.000000
O O8 0.489692 0.750000 0.343145
O O9 0.391719 0.582681 0.365463
O O10 0.500000 0.000000 0.500000
O O11 0.279475 0.071069 0.420559
O O12 0.759699 0.750000 0.567453
#
# Coordination Sequence:
#
# PCOD8251770 Si02
#       5
#     8   8   8   8   8
#     4  10  22  36  52  83 117 145 178 227 285 336
#     4   8  18  36  55  75 107 151 188 226 273 325
#     4  12  23  34  54  86 120 148 179 225 287 346
#     4  10  19  35  55  79 113 151 190 228 274 326
#     4  10  20  38  60  82 113 150 193 234 273 330
#
# _framework density 18.826944999999998
#
# number of rings (size 3 to 8) (size 9 to 14) (size 15 to 20)
#    0.000    2.400    4.000    1.800    8.400    0.800 
#    0.000    0.000    0.000    1.200    0.000    0.000 
#    0.000    0.000    0.000    0.000    0.000    0.000 
#
# Total GULP energy -495588.708466 kJ/mol
# GULP energy per Si atom -12389.717712 kJ/mol
# Density = 1.878409 g / cm^3
# Si number density = 18.826945 Si / 1000 Ang^3
#
#
#
# Elastic Constant Matrix: (Units=GPa)
#
#
# Indices 1 2 3 4 5 6 
#
# 1 131.2194 36.8499 28.2997 0.0000 0.0000 0.0000
# 2 36.8499 100.3941 30.7157 0.0000 0.0000 0.0000
# 3 28.2997 30.7157 55.2583 0.0000 0.0000 0.0000
# 4 0.0000 0.0000 0.0000 17.1186 0.0000 0.0000
# 5 0.0000 0.0000 0.0000 0.0000 30.6305 0.0000
# 6 0.0000 0.0000 0.0000 0.0000 0.0000 21.8357
#
#
#
# Elastic Compliance Matrix: (Units=1/GPa)
#
#
# Indices 1 2 3 4 5 6 
#
# 1 0.008979 -0.002276 -0.003333 0.000000 0.000000 0.000000
# 2 -0.002276 0.012579 -0.005826 0.000000 0.000000 0.000000
# 3 -0.003333 -0.005826 0.023043 0.000000 0.000000 0.000000
# 4 0.000000 0.000000 0.000000 0.058416 0.000000 0.000000
# 5 0.000000 0.000000 0.000000 0.000000 0.032647 0.000000
# 6 0.000000 0.000000 0.000000 0.000000 0.000000 0.045797
#
#
# Mechanical properties :
#
#
# Convention : Reuss Voigt Hill
#
# Bulk Modulus (GPa) = 46.02159 53.17805 49.59982
# Shear Modulus (GPa) = 23.63238 26.65072 25.14155
#
# Velocity S-wave (km/s) = 3.54678 3.76648 3.65828
# Velocity P-wave (km/s) = 6.42421 6.87184 6.65179
#
# Compressibility (1/GPa) = 0.02172893
#
# Stress axis : x y z
#
# Youngs Moduli (GPa) = 111.37302 79.49945 43.39796
#
# Poissons Ratio (x) = 0.18093 0.14466
# Poissons Ratio (y) = 0.25347 0.25285
# Poissons Ratio (z) = 0.37124 0.46319
#
# Static dielectric constant tensor:
#      x y z
#    x 4.211530 0.000000 0.000000 
#    y 0.000000 3.957530 0.000000 
#    z 0.000000 0.000000 3.234420 
# 
# 
# High freq. dielectric constant tensor:
#      x y z
#    x 1.752290 0.000000 0.000000 
#    y 0.000000 1.715000 0.000000 
#    z 0.000000 0.000000 1.693600 
# 
# From -- ./inp_files/16795.got.cif
#   From: 2010.03.12/outbox.cif.g09.slc.cpg/sg62_9_cif.got.tgz:16795.got - 2010.04.10 19:12:36.
