data_PCOD8251018
_publ_section_title
;
Structure prediction by ZEFSAII (Michael W. Deem and Ramdas Pophale) SiO2 
 PCOD8251018
Probable space group: P N M A
;
_chemical_formula_sum "Si O2"
_cell_formula_units_Z 64
_cell_length_a 8.825237
_cell_length_b 20.629697
_cell_length_c 18.644658
_cell_angle_alpha 90.000000
_cell_angle_beta 90.000000
_cell_angle_gamma 90.000000
_cell_volume 3394.483077
_symmetry_space_group_name_H-M "P N M A"
_symmetry_group_IT_number 62
_symmetry_cell_setting 'orthorhombic'
loop_
_space_group_symop_operation_xyz
x,y,z
1/2-x,-y,1/2+z
1/2+x,1/2-y,1/2-z
-x,1/2+y,-z
-x,-y,-z
1/2+x,y,1/2-z
1/2-x,1/2+y,1/2+z
x,1/2-y,z
loop_
_atom_site_type_symbol
_atom_site_label
_atom_site_fract_x
_atom_site_fract_y
_atom_site_fract_z
Si Si1 0.253753 0.175164 0.500010
Si Si2 0.765627 0.086242 0.661193
Si Si3 0.774833 0.325482 0.166040
Si Si4 0.909140 0.597949 0.383405
Si Si5 0.526536 0.322249 0.595782
Si Si6 0.531147 0.099909 0.258244
Si Si7 0.714258 0.508897 0.788262
Si Si8 0.229053 0.820608 0.213838
O O1 0.208039 0.250000 0.517995
O O2 0.240296 0.160549 0.416541
O O3 0.140515 0.124207 0.538619
O O4 0.427548 0.163288 0.524662
O O5 0.643470 0.118385 0.607231
O O6 0.817779 0.138665 0.718197
O O7 0.917733 0.072271 0.615064
O O8 0.709441 0.023897 0.707514
O O9 0.788649 0.250000 0.182866
O O10 0.636559 0.353569 0.211498
O O11 0.934516 0.358168 0.185750
O O12 0.799457 0.540655 0.354282
O O13 0.881171 0.655384 0.326240
O O14 0.602875 0.250000 0.589229
O O15 0.413824 0.321959 0.662187
O O16 0.421148 0.060285 0.205703
O O17 0.629708 0.046903 0.301063
O O18 0.269517 0.750000 0.242383
#
# Coordination Sequence:
#
# PCOD8251018 Si02
#       8
#     8   8   8   8   8   8   8   8
#     4   9  20  38  57  80 118 154 189 231 281 339
#     4  11  19  27  47  75 112 157 200 236 266 306
#     4  10  21  42  69  93 108 133 175 237 305 354
#     4  10  19  31  50  76 112 163 192 224 271 327
#     4   9  18  30  46  73 111 156 198 235 271 320
#     4  10  21  38  65  86 115 135 179 238 293 344
#     4  10  20  35  53  85 118 155 192 234 274 317
#     4   9  17  27  41  67 104 150 205 250 274 300
#
# _framework density 18.854123000000001
#
# number of rings (size 3 to 8) (size 9 to 14) (size 15 to 20)
#    0.000    2.250    1.250    3.375    3.500    3.000 
#    0.000    3.750    0.000    6.000    0.000    0.000 
#    0.000    0.000    0.000    0.000    0.000    0.000 
#
# Total GULP energy -793135.885047 kJ/mol
# GULP energy per Si atom -12392.748204 kJ/mol
# Density = 1.881121 g / cm^3
# Si number density = 18.854123 Si / 1000 Ang^3
#
#
#
# Elastic Constant Matrix: (Units=GPa)
#
#
# Indices 1 2 3 4 5 6 
#
# 1 83.1152 23.9281 14.2870 0.0000 0.0000 0.0000
# 2 23.9281 81.9404 21.2658 0.0000 0.0000 0.0000
# 3 14.2870 21.2658 58.6402 0.0000 0.0000 0.0000
# 4 0.0000 0.0000 0.0000 19.7892 0.0000 0.0000
# 5 0.0000 0.0000 0.0000 0.0000 17.6222 0.0000
# 6 0.0000 0.0000 0.0000 0.0000 0.0000 26.5772
#
#
#
# Elastic Compliance Matrix: (Units=1/GPa)
#
#
# Indices 1 2 3 4 5 6 
#
# 1 0.013351 -0.003372 -0.002030 0.000000 0.000000 0.000000
# 2 -0.003372 0.014324 -0.004373 0.000000 0.000000 0.000000
# 3 -0.002030 -0.004373 0.019134 0.000000 0.000000 0.000000
# 4 0.000000 0.000000 0.000000 0.050533 0.000000 0.000000
# 5 0.000000 0.000000 0.000000 0.000000 0.056747 0.000000
# 6 0.000000 0.000000 0.000000 0.000000 0.000000 0.037626
#
#
# Mechanical properties :
#
#
# Convention : Reuss Voigt Hill
#
# Bulk Modulus (GPa) = 36.68570 38.07307 37.37938
# Shear Modulus (GPa) = 22.69118 23.74536 23.21827
#
# Velocity S-wave (km/s) = 3.47293 3.55269 3.51304
# Velocity P-wave (km/s) = 5.96503 6.08820 6.02693
#
# Compressibility (1/GPa) = 0.02725858
#
# Stress axis : x y z
#
# Youngs Moduli (GPa) = 74.89962 69.81509 52.26419
#
# Poissons Ratio (x) = 0.23541 0.10610
# Poissons Ratio (y) = 0.25256 0.22855
# Poissons Ratio (z) = 0.15205 0.30529
#
# Static dielectric constant tensor:
#      x y z
#    x 3.560130 0.000000 0.000000 
#    y 0.000000 3.627660 0.000000 
#    z 0.000000 0.000000 3.158470 
# 
# 
# High freq. dielectric constant tensor:
#      x y z
#    x 1.731220 0.000000 0.000000 
#    y 0.000000 1.738400 0.000000 
#    z 0.000000 0.000000 1.694610 
# 
# From -- ./inp_files/26287.got.cif
#   From: 2010.03.12/outbox.cif.g09.slc.cpg/sg62_14_cif.got.tgz:26287.got - 2010.04.10 19:12:36.
