data_PCOD8251779
_publ_section_title
;
Structure prediction by ZEFSAII (Michael W. Deem and Ramdas Pophale) SiO2 
 PCOD8251779
Probable space group: P N M A
;
_chemical_formula_sum "Si O2"
_cell_formula_units_Z 56
_cell_length_a 14.604186
_cell_length_b 9.143511
_cell_length_c 21.776148
_cell_angle_alpha 90.000000
_cell_angle_beta 90.000000
_cell_angle_gamma 90.000000
_cell_volume 2907.846028
_symmetry_space_group_name_H-M "P N M A"
_symmetry_group_IT_number 62
_symmetry_cell_setting 'orthorhombic'
loop_
_space_group_symop_operation_xyz
x,y,z
1/2-x,-y,1/2+z
1/2+x,1/2-y,1/2-z
-x,1/2+y,-z
-x,-y,-z
1/2+x,y,1/2-z
1/2-x,1/2+y,1/2+z
x,1/2-y,z
loop_
_atom_site_type_symbol
_atom_site_label
_atom_site_fract_x
_atom_site_fract_y
_atom_site_fract_z
Si Si1 0.280749 0.077294 0.480838
Si Si2 0.108096 0.418726 0.745484
Si Si3 0.946099 0.577056 0.681456
Si Si4 0.818495 0.420440 0.774816
Si Si5 0.596394 0.079317 0.613453
Si Si6 0.925289 0.578891 0.540701
Si Si7 0.391943 0.422320 0.596403
O O1 0.293711 0.250000 0.475713
O O2 0.174607 0.033607 0.484273
O O3 0.331241 0.012107 0.541089
O O4 0.324577 0.008858 0.420239
O O5 0.079157 0.250000 0.737312
O O6 0.210641 0.446488 0.723418
O O7 0.096820 0.466923 0.815719
O O8 0.043391 0.518081 0.704117
O O9 0.942465 0.750000 0.689806
O O10 0.862318 0.507367 0.718630
O O11 0.934351 0.529566 0.611046
O O12 0.843063 0.250000 0.766391
O O13 0.858699 0.485350 0.838278
O O14 0.617514 0.250000 0.606135
O O15 0.497790 0.036925 0.584998
O O16 0.941631 0.750000 0.533790
O O17 0.000000 0.500000 0.500000
O O18 0.377386 0.250000 0.598720
#
# Coordination Sequence:
#
# PCOD8251779 Si02
#       7
#     8   8   8   8   8   8   8
#     4  10  21  37  58  83 113 154 194 233 289 346
#     4  10  21  36  61  88 113 152 197 241 289 348
#     4  11  23  39  58  86 123 155 187 241 301 351
#     4  10  20  37  61  87 114 152 200 244 289 345
#     4  10  19  35  56  85 118 145 185 240 287 341
#     4  10  24  42  60  84 116 154 198 241 285 344
#     4   9  18  34  56  83 115 144 188 245 283 334
#
# _framework density 19.258241000000002
#
# number of rings (size 3 to 8) (size 9 to 14) (size 15 to 20)
#    0.000    2.000    1.429    1.714    2.000    2.857 
#    0.000    0.714    0.000    0.000    0.000    0.000 
#    0.000    0.000    0.000    0.000    0.000    0.000 
#
# Total GULP energy -694595.730568 kJ/mol
# GULP energy per Si atom -12403.495189 kJ/mol
# Density = 1.921441 g / cm^3
# Si number density = 19.258241 Si / 1000 Ang^3
#
#
#
# Elastic Constant Matrix: (Units=GPa)
#
#
# Indices 1 2 3 4 5 6 
#
# 1 90.1417 27.1409 39.7607 0.0000 0.0000 0.0000
# 2 27.1409 42.2375 35.5494 0.0000 0.0000 0.0000
# 3 39.7607 35.5494 104.1393 0.0000 0.0000 0.0000
# 4 0.0000 0.0000 0.0000 27.4763 0.0000 0.0000
# 5 0.0000 0.0000 0.0000 0.0000 38.3909 0.0000
# 6 0.0000 0.0000 0.0000 0.0000 0.0000 30.0352
#
#
#
# Elastic Compliance Matrix: (Units=1/GPa)
#
#
# Indices 1 2 3 4 5 6 
#
# 1 0.014525 -0.006547 -0.003311 0.000000 0.000000 0.000000
# 2 -0.006547 0.036171 -0.009848 0.000000 0.000000 0.000000
# 3 -0.003311 -0.009848 0.014228 0.000000 0.000000 0.000000
# 4 0.000000 0.000000 0.000000 0.036395 0.000000 0.000000
# 5 0.000000 0.000000 0.000000 0.000000 0.026048 0.000000
# 6 0.000000 0.000000 0.000000 0.000000 0.000000 0.033294
#
#
# Mechanical properties :
#
#
# Convention : Reuss Voigt Hill
#
# Bulk Modulus (GPa) = 39.19536 49.04674 44.12105
# Shear Modulus (GPa) = 23.97190 28.11833 26.04511
#
# Velocity S-wave (km/s) = 3.53194 3.82523 3.68151
# Velocity P-wave (km/s) = 6.08519 6.71067 6.40557
#
# Compressibility (1/GPa) = 0.02551322
#
# Stress axis : x y z
#
# Youngs Moduli (GPa) = 68.84536 27.64643 70.28243
#
# Poissons Ratio (x) = 0.18100 0.23270
# Poissons Ratio (y) = 0.45073 0.69213
# Poissons Ratio (z) = 0.22794 0.27226
#
# Static dielectric constant tensor:
#      x y z
#    x 3.658040 0.000000 0.000000 
#    y 0.000000 3.274670 0.000000 
#    z 0.000000 0.000000 3.702960 
# 
# 
# High freq. dielectric constant tensor:
#      x y z
#    x 1.765860 0.000000 0.000000 
#    y 0.000000 1.723290 0.000000 
#    z 0.000000 0.000000 1.760710 
# 
# From -- ./inp_files/27231.got.cif
#   From: 2010.03.12/outbox.cif.g09.slc.cpg/sg62_14_cif.got.tgz:27231.got - 2010.04.10 19:12:36.
