data_PCOD8251801
_publ_section_title
;
Structure prediction by ZEFSAII (Michael W. Deem and Ramdas Pophale) SiO2 
 PCOD8251801
Probable space group: P N M A
;
_chemical_formula_sum "Si O2"
_cell_formula_units_Z 40
_cell_length_a 12.285048
_cell_length_b 9.106707
_cell_length_c 18.613698
_cell_angle_alpha 90.000000
_cell_angle_beta 90.000000
_cell_angle_gamma 90.000000
_cell_volume 2082.432269
_symmetry_space_group_name_H-M "P N M A"
_symmetry_group_IT_number 62
_symmetry_cell_setting 'orthorhombic'
loop_
_space_group_symop_operation_xyz
x,y,z
1/2-x,-y,1/2+z
1/2+x,1/2-y,1/2-z
-x,1/2+y,-z
-x,-y,-z
1/2+x,y,1/2-z
1/2-x,1/2+y,1/2+z
x,1/2-y,z
loop_
_atom_site_type_symbol
_atom_site_label
_atom_site_fract_x
_atom_site_fract_y
_atom_site_fract_z
Si Si1 0.386563 0.418578 0.181803
Si Si2 0.968857 0.422034 0.161513
Si Si3 0.181645 0.924003 0.118146
Si Si4 0.940578 0.579561 0.564266
Si Si5 0.300406 0.423991 0.455281
O O1 0.349454 0.250000 0.171342
O O2 0.407292 0.454857 0.264548
O O3 0.293589 0.524796 0.153304
O O4 0.498091 0.449862 0.138929
O O5 0.993208 0.250000 0.152599
O O6 0.082337 0.507004 0.161794
O O7 0.893141 0.485915 0.097678
O O8 0.175471 0.750000 0.122852
O O9 0.176378 0.979715 0.035820
O O10 0.938153 0.750000 0.543981
O O11 0.817550 0.518408 0.570997
O O12 0.000000 0.500000 0.500000
O O13 0.302674 0.250000 0.451195
#
# Coordination Sequence:
#
# PCOD8251801 Si02
#       5
#     8   8   8   8   8
#     4  10  22  37  60  87 113 149 193 238 282 335
#     4  10  22  39  61  85 113 150 193 239 282 334
#     4  11  22  38  59  83 117 153 186 232 288 344
#     4  10  19  35  57  84 113 147 189 233 282 334
#     4   9  19  36  59  84 114 149 187 235 286 334
#
# _framework density 19.208309
#
# number of rings (size 3 to 8) (size 9 to 14) (size 15 to 20)
#    0.000    2.000    2.000    1.200    2.800    0.800 
#    0.000    2.000    0.000    0.000    0.000    0.000 
#    0.000    0.000    0.000    0.000    0.000    0.000 
#
# Total GULP energy -496118.240789 kJ/mol
# GULP energy per Si atom -12402.956020 kJ/mol
# Density = 1.916459 g / cm^3
# Si number density = 19.208309 Si / 1000 Ang^3
#
#
#
# Elastic Constant Matrix: (Units=GPa)
#
#
# Indices 1 2 3 4 5 6 
#
# 1 89.5954 35.2963 32.2953 0.0000 0.0000 0.0000
# 2 35.2963 52.6248 39.6703 0.0000 0.0000 0.0000
# 3 32.2953 39.6703 114.2008 0.0000 0.0000 0.0000
# 4 0.0000 0.0000 0.0000 25.0313 0.0000 0.0000
# 5 0.0000 0.0000 0.0000 0.0000 32.0118 0.0000
# 6 0.0000 0.0000 0.0000 0.0000 0.0000 30.1167
#
#
#
# Elastic Compliance Matrix: (Units=1/GPa)
#
#
# Indices 1 2 3 4 5 6 
#
# 1 0.015258 -0.009458 -0.001030 0.000000 0.000000 0.000000
# 2 -0.009458 0.031606 -0.008304 0.000000 0.000000 0.000000
# 3 -0.001030 -0.008304 0.011932 0.000000 0.000000 0.000000
# 4 0.000000 0.000000 0.000000 0.039950 0.000000 0.000000
# 5 0.000000 0.000000 0.000000 0.000000 0.031238 0.000000
# 6 0.000000 0.000000 0.000000 0.000000 0.000000 0.033204
#
#
# Mechanical properties :
#
#
# Convention : Reuss Voigt Hill
#
# Bulk Modulus (GPa) = 47.14080 52.32721 49.73400
# Shear Modulus (GPa) = 24.05644 27.37590 25.71617
#
# Velocity S-wave (km/s) = 3.54276 3.77929 3.66294
# Velocity P-wave (km/s) = 6.42884 6.80773 6.62100
#
# Compressibility (1/GPa) = 0.02121305
#
# Stress axis : x y z
#
# Youngs Moduli (GPa) = 65.53779 31.63937 83.80534
#
# Poissons Ratio (x) = 0.29924 0.08628
# Poissons Ratio (y) = 0.61985 0.69596
# Poissons Ratio (z) = 0.06747 0.26275
#
# Static dielectric constant tensor:
#      x y z
#    x 3.733350 0.000000 0.000000 
#    y 0.000000 3.258630 0.000000 
#    z 0.000000 0.000000 3.709700 
# 
# 
# High freq. dielectric constant tensor:
#      x y z
#    x 1.761450 0.000000 0.000000 
#    y 0.000000 1.720970 0.000000 
#    z 0.000000 0.000000 1.755560 
# 
# From -- ./inp_files/22770.got.cif
#   From: 2010.03.12/outbox.cif.g09.slc.cpg/sg62_12_cif.got.tgz:22770.got - 2010.04.10 19:12:36.
