data_PCOD8251917
_publ_section_title
;
Structure prediction by ZEFSAII (Michael W. Deem and Ramdas Pophale) SiO2 
 PCOD8251917
Probable space group: P N M A
;
_chemical_formula_sum "Si O2"
_cell_formula_units_Z 48
_cell_length_a 19.433999
_cell_length_b 15.011427
_cell_length_c 7.870266
_cell_angle_alpha 90.000000
_cell_angle_beta 90.000000
_cell_angle_gamma 90.000000
_cell_volume 2296.008892
_symmetry_space_group_name_H-M "P N M A"
_symmetry_group_IT_number 62
_symmetry_cell_setting 'orthorhombic'
loop_
_space_group_symop_operation_xyz
x,y,z
1/2-x,-y,1/2+z
1/2+x,1/2-y,1/2-z
-x,1/2+y,-z
-x,-y,-z
1/2+x,y,1/2-z
1/2-x,1/2+y,1/2+z
x,1/2-y,z
loop_
_atom_site_type_symbol
_atom_site_label
_atom_site_fract_x
_atom_site_fract_y
_atom_site_fract_z
Si Si1 0.327149 0.146155 0.997068
Si Si2 0.463012 0.068248 0.877031
Si Si3 0.092857 0.351862 0.808770
Si Si4 0.826167 0.356072 0.124720
Si Si5 0.421273 0.493865 0.538394
Si Si6 0.238769 0.146634 0.686733
O O1 0.314260 0.250000 0.994440
O O2 0.305432 0.111275 0.185342
O O3 0.409037 0.129243 0.977620
O O4 0.279209 0.102466 0.848856
O O5 0.521561 0.127530 0.786459
O O6 0.414563 0.016877 0.740802
O O7 0.500000 0.000000 0.000000
O O8 0.092149 0.250000 0.870919
O O9 0.157190 0.371174 0.684178
O O10 0.109895 0.412695 0.973061
O O11 0.841006 0.250000 0.118959
O O12 0.894096 0.407981 0.064148
O O13 0.766883 0.388382 0.994053
O O14 0.500000 0.500000 0.500000
O O15 0.255992 0.250000 0.696102
#
# Coordination Sequence:
#
# PCOD8251917 Si02
#       6
#     8   8   8   8   8   8
#     4  10  19  35  63  91 119 163 211 257 310 379
#     4  11  22  40  60  89 128 163 212 268 313 377
#     4  10  22  42  64  90 128 169 209 266 330 377
#     4  10  20  38  65  93 124 163 212 262 314 373
#     4  10  21  38  60  88 121 158 208 258 308 379
#     4   9  19  39  62  89 124 164 210 260 315 379
#
# _framework density 20.905842
#
# number of rings (size 3 to 8) (size 9 to 14) (size 15 to 20)
#    0.000    2.000    1.667    2.500    0.000    2.667 
#    9.000    1.667    0.000    0.000    0.000    0.000 
#    0.000    0.000    0.000    0.000    0.000    0.000 
#
# Total GULP energy -594773.341631 kJ/mol
# GULP energy per Si atom -12391.111284 kJ/mol
# Density = 2.085826 g / cm^3
# Si number density = 20.905842 Si / 1000 Ang^3
#
#
#
# Elastic Constant Matrix: (Units=GPa)
#
#
# Indices 1 2 3 4 5 6 
#
# 1 96.9189 20.4537 51.6490 0.0000 0.0000 0.0000
# 2 20.4537 66.7021 34.6147 0.0000 0.0000 0.0000
# 3 51.6490 34.6147 173.4231 0.0000 0.0000 0.0000
# 4 0.0000 0.0000 0.0000 26.7880 0.0000 0.0000
# 5 0.0000 0.0000 0.0000 0.0000 33.3901 0.0000
# 6 0.0000 0.0000 0.0000 0.0000 0.0000 22.8114
#
#
#
# Elastic Compliance Matrix: (Units=1/GPa)
#
#
# Indices 1 2 3 4 5 6 
#
# 1 0.012529 -0.002126 -0.003307 0.000000 0.000000 0.000000
# 2 -0.002126 0.017085 -0.002777 0.000000 0.000000 0.000000
# 3 -0.003307 -0.002777 0.007305 0.000000 0.000000 0.000000
# 4 0.000000 0.000000 0.000000 0.037330 0.000000 0.000000
# 5 0.000000 0.000000 0.000000 0.000000 0.029949 0.000000
# 6 0.000000 0.000000 0.000000 0.000000 0.000000 0.043838
#
#
# Mechanical properties :
#
#
# Convention : Reuss Voigt Hill
#
# Bulk Modulus (GPa) = 48.78122 61.16434 54.97278
# Shear Modulus (GPa) = 29.19042 31.95300 30.57171
#
# Velocity S-wave (km/s) = 3.74074 3.91375 3.82822
# Velocity P-wave (km/s) = 6.48397 7.05293 6.77443
#
# Compressibility (1/GPa) = 0.02049969
#
# Stress axis : x y z
#
# Youngs Moduli (GPa) = 79.81559 58.53096 136.88402
#
# Poissons Ratio (x) = 0.12442 0.45269
# Poissons Ratio (y) = 0.16966 0.38013
# Poissons Ratio (z) = 0.26396 0.16254
#
# Static dielectric constant tensor:
#      x y z
#    x 3.861240 0.000000 0.000000 
#    y 0.000000 3.150580 0.000000 
#    z 0.000000 0.000000 4.941860 
# 
# 
# High freq. dielectric constant tensor:
#      x y z
#    x 1.819990 0.000000 0.000000 
#    y 0.000000 1.804390 0.000000 
#    z 0.000000 0.000000 1.824610 
# 
# From -- ./inp_files/7620.got.cif
#   From: 2010.03.12/outbox.cif.g09.slc.cpg/sg62_4_cif.got.tgz:7620.got - 2010.04.10 19:12:36.
