data_PCOD8251143
_publ_section_title
;
Structure prediction by ZEFSAII (Michael W. Deem and Ramdas Pophale) SiO2 
 PCOD8251143
Probable space group: P N M A
;
_chemical_formula_sum "Si O2"
_cell_formula_units_Z 48
_cell_length_a 19.418448
_cell_length_b 8.898848
_cell_length_c 15.708629
_cell_angle_alpha 90.000000
_cell_angle_beta 90.000000
_cell_angle_gamma 90.000000
_cell_volume 2714.479636
_symmetry_space_group_name_H-M "P N M A"
_symmetry_group_IT_number 62
_symmetry_cell_setting 'orthorhombic'
loop_
_space_group_symop_operation_xyz
x,y,z
1/2-x,-y,1/2+z
1/2+x,1/2-y,1/2-z
-x,1/2+y,-z
-x,-y,-z
1/2+x,y,1/2-z
1/2-x,1/2+y,1/2+z
x,1/2-y,z
loop_
_atom_site_type_symbol
_atom_site_label
_atom_site_fract_x
_atom_site_fract_y
_atom_site_fract_z
Si Si1 0.046891 0.424600 0.430243
Si Si2 0.543636 0.927988 0.425660
Si Si3 0.795836 0.570900 0.576213
Si Si4 0.799987 0.423838 0.927828
Si Si5 0.547999 0.424696 0.257049
Si Si6 0.806717 0.425396 0.741929
O O1 0.047239 0.250000 0.449831
O O2 0.125554 0.483525 0.437614
O O3 0.014684 0.457255 0.336064
O O4 0.000000 0.500000 0.500000
O O5 0.538476 0.750000 0.430161
O O6 0.622237 0.988244 0.434239
O O7 0.500000 0.000000 0.500000
O O8 0.513118 0.981808 0.334017
O O9 0.790916 0.750000 0.586535
O O10 0.751063 0.505261 0.497666
O O11 0.764504 0.490591 0.661302
O O12 0.805535 0.250000 0.949246
O O13 0.768104 0.448167 0.832817
O O14 0.543243 0.250000 0.280295
O O15 0.626384 0.472485 0.247318
O O16 0.825451 0.250000 0.729328
#
# Coordination Sequence:
#
# PCOD8251143 Si02
#       6
#     8   8   8   8   8   8
#     4   9  18  30  48  70  93 122 156 193 236 280
#     4  10  19  32  51  74  97 126 159 198 242 286
#     4   9  17  32  50  68  91 124 159 193 234 282
#     4   8  16  31  50  68  92 123 155 189 232 279
#     4   9  17  31  49  69  93 126 163 196 231 282
#     4   9  16  28  47  71  94 121 156 195 236 283
#
# _framework density 17.682946999999999
#
# number of rings (size 3 to 8) (size 9 to 14) (size 15 to 20)
#    0.000    3.000    0.000    3.500    0.000    3.333 
#    0.000    6.667    0.000    4.000    0.000    0.000 
#    0.000    0.000    0.000    0.000    0.000    0.000 
#
# Total GULP energy -594650.537254 kJ/mol
# GULP energy per Si atom -12388.552859 kJ/mol
# Density = 1.764270 g / cm^3
# Si number density = 17.682947 Si / 1000 Ang^3
#
#
#
# Elastic Constant Matrix: (Units=GPa)
#
#
# Indices 1 2 3 4 5 6 
#
# 1 55.2836 25.7659 64.8372 0.0000 0.0000 0.0000
# 2 25.7659 52.8342 56.2107 0.0000 0.0000 0.0000
# 3 64.8372 56.2107 191.6868 0.0000 0.0000 0.0000
# 4 0.0000 0.0000 0.0000 35.7438 0.0000 0.0000
# 5 0.0000 0.0000 0.0000 0.0000 31.9654 0.0000
# 6 0.0000 0.0000 0.0000 0.0000 0.0000 15.7178
#
#
#
# Elastic Compliance Matrix: (Units=1/GPa)
#
#
# Indices 1 2 3 4 5 6 
#
# 1 0.031154 -0.005787 -0.008841 0.000000 0.000000 0.000000
# 2 -0.005787 0.028585 -0.006425 0.000000 0.000000 0.000000
# 3 -0.008841 -0.006425 0.010091 0.000000 0.000000 0.000000
# 4 0.000000 0.000000 0.000000 0.027977 0.000000 0.000000
# 5 0.000000 0.000000 0.000000 0.000000 0.031284 0.000000
# 6 0.000000 0.000000 0.000000 0.000000 0.000000 0.063622
#
#
# Mechanical properties :
#
#
# Convention : Reuss Voigt Hill
#
# Bulk Modulus (GPa) = 36.06905 65.93691 51.00298
# Shear Modulus (GPa) = 20.48674 26.88480 23.68577
#
# Velocity S-wave (km/s) = 3.40745 3.90344 3.66385
# Velocity P-wave (km/s) = 5.99357 7.59507 6.84135
#
# Compressibility (1/GPa) = 0.02772460
#
# Stress axis : x y z
#
# Youngs Moduli (GPa) = 32.09824 34.98362 99.09664
#
# Poissons Ratio (x) = 0.20247 0.87608
# Poissons Ratio (y) = 0.18577 0.63666
# Poissons Ratio (z) = 0.28377 0.22476
#
# Static dielectric constant tensor:
#      x y z
#    x 3.088740 0.000000 0.000000 
#    y 0.000000 3.233640 0.000000 
#    z 0.000000 0.000000 3.468270 
# 
# 
# High freq. dielectric constant tensor:
#      x y z
#    x 1.631480 0.000000 0.000000 
#    y 0.000000 1.675580 0.000000 
#    z 0.000000 0.000000 1.710340 
# 
# From -- ./inp_files/15158.got.cif
#   From: 2010.03.12/outbox.cif.g09.slc.cpg/sg62_8_cif.got.tgz:15158.got - 2010.04.10 19:12:36.
