data_PCOD8251723
_publ_section_title
;
Structure prediction by ZEFSAII (Michael W. Deem and Ramdas Pophale) SiO2 
 PCOD8251723
Probable space group: P N M A
;
_chemical_formula_sum "Si O2"
_cell_formula_units_Z 64
_cell_length_a 19.233916
_cell_length_b 13.733073
_cell_length_c 11.696813
_cell_angle_alpha 90.000000
_cell_angle_beta 90.000000
_cell_angle_gamma 90.000000
_cell_volume 3089.605222
_symmetry_space_group_name_H-M "P N M A"
_symmetry_group_IT_number 62
_symmetry_cell_setting 'orthorhombic'
loop_
_space_group_symop_operation_xyz
x,y,z
1/2-x,-y,1/2+z
1/2+x,1/2-y,1/2-z
-x,1/2+y,-z
-x,-y,-z
1/2+x,y,1/2-z
1/2-x,1/2+y,1/2+z
x,1/2-y,z
loop_
_atom_site_type_symbol
_atom_site_label
_atom_site_fract_x
_atom_site_fract_y
_atom_site_fract_z
Si Si1 0.650485 0.140560 0.222195
Si Si2 0.182497 0.637290 0.118596
Si Si3 0.669460 0.359596 0.958767
Si Si4 0.005524 0.039593 0.244698
Si Si5 0.424789 0.136617 0.808169
Si Si6 0.903740 0.050088 0.443805
Si Si7 0.206635 0.864736 0.701288
Si Si8 0.104059 0.634387 0.899524
O O1 0.631027 0.250000 0.259216
O O2 0.680904 0.139951 0.094223
O O3 0.584269 0.075352 0.244413
O O4 0.714102 0.094937 0.296728
O O5 0.190127 0.750000 0.086728
O O6 0.149747 0.622383 0.244479
O O7 0.261467 0.597746 0.105624
O O8 0.128905 0.595837 0.023345
O O9 0.650041 0.250000 0.916694
O O10 0.606152 0.433237 0.932913
O O11 0.964574 0.079459 0.356341
O O12 0.968088 0.079214 0.131137
O O13 0.013768 0.921489 0.240939
O O14 0.444835 0.250000 0.816224
O O15 0.423241 0.085677 0.931111
O O16 0.831190 0.102980 0.414557
O O17 0.212667 0.750000 0.707239
O O18 0.161791 0.901416 0.809130
O O19 0.090367 0.750000 0.894332
#
# Coordination Sequence:
#
# PCOD8251723 Si02
#       8
#     8   8   8   8   8   8   8   8
#     4  10  19  34  58  89 116 141 186 248 296 333
#     4   9  19  38  61  84 112 152 196 237 287 348
#     4  10  20  35  60  88 112 146 197 247 289 340
#     4  11  23  37  55  91 117 150 196 237 295 344
#     4  11  24  39  56  80 120 162 194 228 286 362
#     4  11  23  38  57  86 119 155 193 236 296 353
#     4   9  18  34  59  86 111 144 188 241 291 331
#     4   9  17  35  61  86 111 141 188 244 288 335
#
# _framework density 20.714621000000001
#
# number of rings (size 3 to 8) (size 9 to 14) (size 15 to 20)
#    0.000    2.000    2.500    1.125    1.750    2.500 
#    0.000    0.000    0.000    0.000    0.000    0.000 
#    0.000    0.000    0.000    0.000    0.000    0.000 
#
# Total GULP energy -793269.141734 kJ/mol
# GULP energy per Si atom -12394.830340 kJ/mol
# Density = 2.066747 g / cm^3
# Si number density = 20.714621 Si / 1000 Ang^3
#
#
#
# Elastic Constant Matrix: (Units=GPa)
#
#
# Indices 1 2 3 4 5 6 
#
# 1 100.8692 35.6166 8.5886 0.0000 0.0000 0.0000
# 2 35.6166 57.4258 4.2895 0.0000 0.0000 0.0000
# 3 8.5886 4.2895 31.3490 0.0000 0.0000 0.0000
# 4 0.0000 0.0000 0.0000 16.3215 0.0000 0.0000
# 5 0.0000 0.0000 0.0000 0.0000 26.6933 0.0000
# 6 0.0000 0.0000 0.0000 0.0000 0.0000 32.3949
#
#
#
# Elastic Compliance Matrix: (Units=1/GPa)
#
#
# Indices 1 2 3 4 5 6 
#
# 1 0.012879 -0.007804 -0.002461 0.000000 0.000000 0.000000
# 2 -0.007804 0.022322 -0.000916 0.000000 0.000000 0.000000
# 3 -0.002461 -0.000916 0.032698 0.000000 0.000000 0.000000
# 4 0.000000 0.000000 0.000000 0.061269 0.000000 0.000000
# 5 0.000000 0.000000 0.000000 0.000000 0.037463 0.000000
# 6 0.000000 0.000000 0.000000 0.000000 0.000000 0.030869
#
#
# Mechanical properties :
#
#
# Convention : Reuss Voigt Hill
#
# Bulk Modulus (GPa) = 21.95969 31.84816 26.90393
# Shear Modulus (GPa) = 21.27287 24.49190 22.88238
#
# Velocity S-wave (km/s) = 3.20808 3.44226 3.32723
# Velocity P-wave (km/s) = 4.93421 5.58632 5.27036
#
# Compressibility (1/GPa) = 0.04553798
#
# Stress axis : x y z
#
# Youngs Moduli (GPa) = 77.64649 44.79810 30.58249
#
# Poissons Ratio (x) = 0.34960 0.07525
# Poissons Ratio (y) = 0.60595 0.02802
# Poissons Ratio (z) = 0.19106 0.04105
#
# Static dielectric constant tensor:
#      x y z
#    x 3.818660 0.000000 0.000000 
#    y 0.000000 3.857940 0.000000 
#    z 0.000000 0.000000 3.560600 
# 
# 
# High freq. dielectric constant tensor:
#      x y z
#    x 1.812450 0.000000 0.000000 
#    y 0.000000 1.807810 0.000000 
#    z 0.000000 0.000000 1.788100 
# 
# From -- ./inp_files/14348.got.cif
#   From: 2010.03.12/outbox.cif.g09.slc.cpg/sg62_8_cif.got.tgz:14348.got - 2010.04.10 19:12:36.
