data_PCOD8251614
_publ_section_title
;
Structure prediction by ZEFSAII (Michael W. Deem and Ramdas Pophale) SiO2 
 PCOD8251614
Probable space group: P N M A
;
_chemical_formula_sum "Si O2"
_cell_formula_units_Z 64
_cell_length_a 5.424878
_cell_length_b 22.140407
_cell_length_c 25.357861
_cell_angle_alpha 90.000000
_cell_angle_beta 90.000000
_cell_angle_gamma 90.000000
_cell_volume 3045.707500
_symmetry_space_group_name_H-M "P N M A"
_symmetry_group_IT_number 62
_symmetry_cell_setting 'orthorhombic'
loop_
_space_group_symop_operation_xyz
x,y,z
1/2-x,-y,1/2+z
1/2+x,1/2-y,1/2-z
-x,1/2+y,-z
-x,-y,-z
1/2+x,y,1/2-z
1/2-x,1/2+y,1/2+z
x,1/2-y,z
loop_
_atom_site_type_symbol
_atom_site_label
_atom_site_fract_x
_atom_site_fract_y
_atom_site_fract_z
Si Si1 0.380241 0.316962 0.072477
Si Si2 0.900632 0.530176 0.442031
Si Si3 0.185544 0.073404 0.774449
Si Si4 0.678525 0.427648 0.387507
Si Si5 0.439961 0.682505 0.474914
Si Si6 0.395723 0.913680 0.397228
Si Si7 0.746684 0.060320 0.267171
Si Si8 0.245517 0.590825 0.956794
O O1 0.421218 0.250000 0.096125
O O2 0.182111 0.354129 0.107947
O O3 0.615983 0.359115 0.078034
O O4 0.304381 0.313232 0.011078
O O5 0.899199 0.458862 0.422527
O O6 0.661141 0.556121 0.410550
O O7 0.876518 0.539893 0.505753
O O8 0.160831 0.556264 0.424899
O O9 0.447059 0.102006 0.755764
O O10 0.144979 0.085802 0.835358
O O11 0.195186 0.001915 0.763077
O O12 0.690149 0.450903 0.328315
O O13 0.425128 0.447247 0.416389
O O14 0.558403 0.750000 0.471146
O O15 0.385565 0.656544 0.416633
O O16 0.611915 0.632210 0.500118
O O17 0.510245 0.095297 0.241034
#
# Coordination Sequence:
#
# PCOD8251614 Si02
#       8
#     8   8   8   8   8   8   8   8
#     4  10  21  39  60  84 117 160 205 241 289 358
#     4  11  22  36  57  91 130 157 191 238 312 370
#     4  10  19  34  55  80 114 153 196 245 297 354
#     4  11  24  36  60  87 121 158 199 251 304 368
#     4   9  19  37  58  86 120 162 209 241 281 352
#     4  11  21  37  60  90 123 162 198 249 304 360
#     4  10  21  37  57  84 113 150 196 247 299 359
#     4  10  21  36  56  90 125 165 192 247 298 366
#
# _framework density 21.013179999999998
#
# number of rings (size 3 to 8) (size 9 to 14) (size 15 to 20)
#    0.000    1.750    1.250    4.500    3.500    1.000 
#    0.000    0.000    0.000    1.500    0.000    0.000 
#    0.000    0.000    0.000    0.000    0.000    0.000 
#
# Total GULP energy -792852.282439 kJ/mol
# GULP energy per Si atom -12388.316913 kJ/mol
# Density = 2.096535 g / cm^3
# Si number density = 21.013180 Si / 1000 Ang^3
#
#
#
# Elastic Constant Matrix: (Units=GPa)
#
#
# Indices 1 2 3 4 5 6 
#
# 1 130.6461 15.1469 38.7572 0.0000 0.0000 0.0000
# 2 15.1469 87.3146 16.2941 0.0000 0.0000 0.0000
# 3 38.7572 16.2941 134.9261 0.0000 0.0000 0.0000
# 4 0.0000 0.0000 0.0000 18.2731 0.0000 0.0000
# 5 0.0000 0.0000 0.0000 0.0000 33.5148 0.0000
# 6 0.0000 0.0000 0.0000 0.0000 0.0000 16.5179
#
#
#
# Elastic Compliance Matrix: (Units=1/GPa)
#
#
# Indices 1 2 3 4 5 6 
#
# 1 0.008458 -0.001037 -0.002304 0.000000 0.000000 0.000000
# 2 -0.001037 0.011844 -0.001132 0.000000 0.000000 0.000000
# 3 -0.002304 -0.001132 0.008210 0.000000 0.000000 0.000000
# 4 0.000000 0.000000 0.000000 0.054725 0.000000 0.000000
# 5 0.000000 0.000000 0.000000 0.000000 0.029838 0.000000
# 6 0.000000 0.000000 0.000000 0.000000 0.000000 0.060540
#
#
# Mechanical properties :
#
#
# Convention : Reuss Voigt Hill
#
# Bulk Modulus (GPa) = 51.11312 54.80922 52.96117
# Shear Modulus (GPa) = 26.44316 32.50707 29.47511
#
# Velocity S-wave (km/s) = 3.55125 3.93744 3.74932
# Velocity P-wave (km/s) = 6.41812 6.84187 6.63338
#
# Compressibility (1/GPa) = 0.01956445
#
# Stress axis : x y z
#
# Youngs Moduli (GPa) = 118.22963 84.43025 121.80091
#
# Poissons Ratio (x) = 0.08758 0.28067
# Poissons Ratio (y) = 0.12263 0.13792
# Poissons Ratio (z) = 0.27244 0.09561
#
# Static dielectric constant tensor:
#      x y z
#    x 4.613780 0.000000 0.000000 
#    y 0.000000 3.841800 0.000000 
#    z 0.000000 0.000000 3.686550 
# 
# 
# High freq. dielectric constant tensor:
#      x y z
#    x 1.853120 0.000000 0.000000 
#    y 0.000000 1.791500 0.000000 
#    z 0.000000 0.000000 1.811480 
# 
# From -- ./inp_files/28452.got.cif
#   From: 2010.03.12/outbox.cif.g09.slc.cpg/sg62_15_cif.got.tgz:28452.got - 2010.04.10 19:12:36.
