data_PCOD8251841
_publ_section_title
;
Structure prediction by ZEFSAII (Michael W. Deem and Ramdas Pophale) SiO2 
 PCOD8251841
Probable space group: P N M A
;
_chemical_formula_sum "Si O2"
_cell_formula_units_Z 48
_cell_length_a 20.304533
_cell_length_b 8.479913
_cell_length_c 14.336231
_cell_angle_alpha 90.000000
_cell_angle_beta 90.000000
_cell_angle_gamma 90.000000
_cell_volume 2468.421907
_symmetry_space_group_name_H-M "P N M A"
_symmetry_group_IT_number 62
_symmetry_cell_setting 'orthorhombic'
loop_
_space_group_symop_operation_xyz
x,y,z
1/2-x,-y,1/2+z
1/2+x,1/2-y,1/2-z
-x,1/2+y,-z
-x,-y,-z
1/2+x,y,1/2-z
1/2-x,1/2+y,1/2+z
x,1/2-y,z
loop_
_atom_site_type_symbol
_atom_site_label
_atom_site_fract_x
_atom_site_fract_y
_atom_site_fract_z
Si Si1 0.429777 0.935929 0.302729
Si Si2 0.298629 0.930825 0.786493
Si Si3 0.316916 0.565748 0.168534
Si Si4 0.422163 0.433244 0.691011
Si Si5 0.881049 0.565570 0.999537
Si Si6 0.728316 0.568831 0.018468
O O1 0.420103 0.750000 0.309327
O O2 0.380660 0.001005 0.223456
O O3 0.504281 0.982574 0.277357
O O4 0.409014 0.003833 0.403609
O O5 0.281182 0.750000 0.765259
O O6 0.247591 0.040025 0.731403
O O7 0.372260 0.963929 0.751500
O O8 0.295652 0.962267 0.896308
O O9 0.322756 0.750000 0.146414
O O10 0.314737 0.471905 0.071885
O O11 0.409087 0.250000 0.710232
O O12 0.415826 0.467072 0.581424
O O13 0.896643 0.750000 0.986196
O O14 0.803592 0.532378 0.994234
O O15 0.718025 0.750000 0.046575
#
# Coordination Sequence:
#
# PCOD8251841 Si02
#       6
#     8   8   8   8   8   8
#     4   9  20  38  59  85 119 157 194 239 294 350
#     4  12  24  39  59  86 119 157 200 242 289 345
#     4  11  21  39  63  87 118 155 196 244 295 347
#     4  11  22  37  59  87 119 157 198 239 293 352
#     4  10  19  35  58  87 123 154 186 239 296 348
#     4  11  22  38  61  90 120 150 195 247 294 345
#
# _framework density 19.445620999999999
#
# number of rings (size 3 to 8) (size 9 to 14) (size 15 to 20)
#    0.000    1.333    3.333    3.500    0.000    0.667 
#    0.000    5.000    0.000    0.000    0.000    0.000 
#    0.000    0.000    0.000    0.000    0.000    0.000 
#
# Total GULP energy -595454.323255 kJ/mol
# GULP energy per Si atom -12405.298401 kJ/mol
# Density = 1.940136 g / cm^3
# Si number density = 19.445621 Si / 1000 Ang^3
#
#
#
# Elastic Constant Matrix: (Units=GPa)
#
#
# Indices 1 2 3 4 5 6 
#
# 1 82.8519 20.9171 14.1458 0.0000 0.0000 0.0000
# 2 20.9171 48.8646 6.8034 0.0000 0.0000 0.0000
# 3 14.1458 6.8034 78.4936 0.0000 0.0000 0.0000
# 4 0.0000 0.0000 0.0000 32.8914 0.0000 0.0000
# 5 0.0000 0.0000 0.0000 0.0000 32.1883 0.0000
# 6 0.0000 0.0000 0.0000 0.0000 0.0000 20.0326
#
#
#
# Elastic Compliance Matrix: (Units=1/GPa)
#
#
# Indices 1 2 3 4 5 6 
#
# 1 0.013837 -0.005644 -0.002004 0.000000 0.000000 0.000000
# 2 -0.005644 0.023017 -0.000978 0.000000 0.000000 0.000000
# 3 -0.002004 -0.000978 0.013186 0.000000 0.000000 0.000000
# 4 0.000000 0.000000 0.000000 0.030403 0.000000 0.000000
# 5 0.000000 0.000000 0.000000 0.000000 0.031067 0.000000
# 6 0.000000 0.000000 0.000000 0.000000 0.000000 0.049919
#
#
# Mechanical properties :
#
#
# Convention : Reuss Voigt Hill
#
# Bulk Modulus (GPa) = 30.49984 32.66033 31.58009
# Shear Modulus (GPa) = 26.36992 28.24538 27.30765
#
# Velocity S-wave (km/s) = 3.68650 3.81534 3.75148
# Velocity P-wave (km/s) = 5.81714 6.02008 5.91948
#
# Compressibility (1/GPa) = 0.03278705
#
# Stress axis : x y z
#
# Youngs Moduli (GPa) = 72.27074 43.44646 75.83872
#
# Poissons Ratio (x) = 0.24521 0.15201
# Poissons Ratio (y) = 0.40789 0.07416
# Poissons Ratio (z) = 0.14486 0.04248
#
# Static dielectric constant tensor:
#      x y z
#    x 3.622440 0.000000 0.000000 
#    y 0.000000 3.356930 0.000000 
#    z 0.000000 0.000000 3.594220 
# 
# 
# High freq. dielectric constant tensor:
#      x y z
#    x 1.754730 0.000000 0.000000 
#    y 0.000000 1.747480 0.000000 
#    z 0.000000 0.000000 1.759420 
# 
# From -- ./inp_files/19556.got.cif
#   From: 2010.03.12/outbox.cif.g09.slc.cpg/sg62_10_cif.got.tgz:19556.got - 2010.04.10 19:12:36.
