data_PCOD8251402
_publ_section_title
;
Structure prediction by ZEFSAII (Michael W. Deem and Ramdas Pophale) SiO2 
 PCOD8251402
Probable space group: P N M A
;
_chemical_formula_sum "Si O2"
_cell_formula_units_Z 64
_cell_length_a 29.251860
_cell_length_b 8.896869
_cell_length_c 12.120417
_cell_angle_alpha 90.000000
_cell_angle_beta 90.000000
_cell_angle_gamma 90.000000
_cell_volume 3154.338117
_symmetry_space_group_name_H-M "P N M A"
_symmetry_group_IT_number 62
_symmetry_cell_setting 'orthorhombic'
loop_
_space_group_symop_operation_xyz
x,y,z
1/2-x,-y,1/2+z
1/2+x,1/2-y,1/2-z
-x,1/2+y,-z
-x,-y,-z
1/2+x,y,1/2-z
1/2-x,1/2+y,1/2+z
x,1/2-y,z
loop_
_atom_site_type_symbol
_atom_site_label
_atom_site_fract_x
_atom_site_fract_y
_atom_site_fract_z
Si Si1 0.026850 0.571361 0.255327
Si Si2 0.681297 0.075804 0.967513
Si Si3 0.610972 0.072620 0.151884
Si Si4 0.837462 0.427950 0.240804
Si Si5 0.719752 0.575091 0.535662
Si Si6 0.562248 0.422077 0.466153
Si Si7 0.841685 0.581333 0.871837
Si Si8 0.439957 0.071463 0.305056
O O1 0.025320 0.750000 0.255451
O O2 0.062454 0.513694 0.348345
O O3 0.042137 0.507175 0.138176
O O4 0.976228 0.504099 0.279766
O O5 0.680409 0.250000 0.935306
O O6 0.726375 0.038195 0.039562
O O7 0.682335 0.981343 0.856520
O O8 0.636911 0.032725 0.039200
O O9 0.601716 0.250000 0.166210
O O10 0.641958 0.015143 0.254219
O O11 0.836129 0.250000 0.238231
O O12 0.889437 0.485309 0.226804
O O13 0.805401 0.494967 0.143113
O O14 0.709905 0.750000 0.534588
O O15 0.699924 0.512969 0.420861
O O16 0.544233 0.250000 0.469908
O O17 0.617065 0.424197 0.459415
O O18 0.546631 0.512410 0.573621
O O19 0.823706 0.750000 0.854001
O O20 0.444110 0.250000 0.301045
#
# Coordination Sequence:
#
# PCOD8251402 Si02
#       8
#     8   8   8   8   8   8   8   8
#     4  11  22  35  56  86 118 155 198 247 296 355
#     4  10  23  41  63  86 117 156 198 247 297 352
#     4   9  20  40  60  83 116 156 199 245 294 346
#     4  10  23  41  62  87 121 156 195 246 296 351
#     4  10  21  38  59  87 119 152 191 239 295 351
#     4  10  19  33  53  82 120 157 193 239 291 348
#     4   9  18  32  56  85 114 151 191 234 286 344
#     4  11  21  36  57  83 117 159 198 245 299 351
#
# _framework density 20.28952
#
# number of rings (size 3 to 8) (size 9 to 14) (size 15 to 20)
#    0.000    2.000    1.250    3.000    1.750    4.500 
#    0.000    0.625    0.000    0.000    0.000    0.000 
#    0.000    0.000    0.000    0.000    0.000    0.000 
#
# Total GULP energy -793628.064990 kJ/mol
# GULP energy per Si atom -12400.438515 kJ/mol
# Density = 2.024334 g / cm^3
# Si number density = 20.289520 Si / 1000 Ang^3
#
#
#
# Elastic Constant Matrix: (Units=GPa)
#
#
# Indices 1 2 3 4 5 6 
#
# 1 108.6894 40.4907 30.1175 0.0000 0.0000 0.0000
# 2 40.4907 71.2739 18.2573 0.0000 0.0000 0.0000
# 3 30.1175 18.2573 70.6574 0.0000 0.0000 0.0000
# 4 0.0000 0.0000 0.0000 27.3842 0.0000 0.0000
# 5 0.0000 0.0000 0.0000 0.0000 19.3529 0.0000
# 6 0.0000 0.0000 0.0000 0.0000 0.0000 29.7391
#
#
#
# Elastic Compliance Matrix: (Units=1/GPa)
#
#
# Indices 1 2 3 4 5 6 
#
# 1 0.012535 -0.006160 -0.003751 0.000000 0.000000 0.000000
# 2 -0.006160 0.018052 -0.002039 0.000000 0.000000 0.000000
# 3 -0.003751 -0.002039 0.016279 0.000000 0.000000 0.000000
# 4 0.000000 0.000000 0.000000 0.036517 0.000000 0.000000
# 5 0.000000 0.000000 0.000000 0.000000 0.051672 0.000000
# 6 0.000000 0.000000 0.000000 0.000000 0.000000 0.033626
#
#
# Mechanical properties :
#
#
# Convention : Reuss Voigt Hill
#
# Bulk Modulus (GPa) = 43.54395 47.59462 45.56928
# Shear Modulus (GPa) = 24.97052 26.07892 25.52472
#
# Velocity S-wave (km/s) = 3.51195 3.58905 3.55071
# Velocity P-wave (km/s) = 6.16060 6.37838 6.27044
#
# Compressibility (1/GPa) = 0.02296530
#
# Stress axis : x y z
#
# Youngs Moduli (GPa) = 79.77762 55.39486 61.43053
#
# Poissons Ratio (x) = 0.34124 0.23044
# Poissons Ratio (y) = 0.49144 0.12524
# Poissons Ratio (z) = 0.29926 0.11294
#
# Static dielectric constant tensor:
#      x y z
#    x 4.036490 0.000000 0.000000 
#    y 0.000000 3.518180 0.000000 
#    z 0.000000 0.000000 3.439860 
# 
# 
# High freq. dielectric constant tensor:
#      x y z
#    x 1.805480 0.000000 0.000000 
#    y 0.000000 1.781620 0.000000 
#    z 0.000000 0.000000 1.770250 
# 
# From -- ./inp_files/15778.got.cif
#   From: 2010.03.12/outbox.cif.g09.slc.cpg/sg62_8_cif.got.tgz:15778.got - 2010.04.10 19:12:36.
