data_PCOD8251806
_publ_section_title
;
Structure prediction by ZEFSAII (Michael W. Deem and Ramdas Pophale) SiO2 
 PCOD8251806
Probable space group: P N M A
;
_chemical_formula_sum "Si O2"
_cell_formula_units_Z 64
_cell_length_a 22.981260
_cell_length_b 14.466957
_cell_length_c 9.507989
_cell_angle_alpha 90.000000
_cell_angle_beta 90.000000
_cell_angle_gamma 90.000000
_cell_volume 3161.110646
_symmetry_space_group_name_H-M "P N M A"
_symmetry_group_IT_number 62
_symmetry_cell_setting 'orthorhombic'
loop_
_space_group_symop_operation_xyz
x,y,z
1/2-x,-y,1/2+z
1/2+x,1/2-y,1/2-z
-x,1/2+y,-z
-x,-y,-z
1/2+x,y,1/2-z
1/2-x,1/2+y,1/2+z
x,1/2-y,z
loop_
_atom_site_type_symbol
_atom_site_label
_atom_site_fract_x
_atom_site_fract_y
_atom_site_fract_z
Si Si1 0.136447 0.463136 0.699678
Si Si2 0.580717 0.649314 0.122980
Si Si3 0.473330 0.607898 0.634301
Si Si4 0.584340 0.649869 0.802039
Si Si5 0.156231 0.353163 0.195150
Si Si6 0.825743 0.490143 0.602711
Si Si7 0.217853 0.358663 0.905477
Si Si8 0.983695 0.905655 0.180208
O O1 0.129653 0.570903 0.750321
O O2 0.150200 0.459351 0.535314
O O3 0.188029 0.407457 0.772929
O O4 0.075479 0.414807 0.732624
O O5 0.610984 0.750000 0.129755
O O6 0.624845 0.571577 0.178337
O O7 0.524215 0.655824 0.220866
O O8 0.564090 0.626175 0.961100
O O9 0.526867 0.658346 0.708276
O O10 0.413230 0.636187 0.708706
O O11 0.471276 0.640581 0.471138
O O12 0.481736 0.499360 0.650623
O O13 0.616082 0.750000 0.794096
O O14 0.174208 0.250000 0.244287
O O15 0.190931 0.427778 0.290094
O O16 0.174284 0.369582 0.034911
O O17 0.774978 0.418709 0.562072
O O18 0.232008 0.250000 0.875769
#
# Coordination Sequence:
#
# PCOD8251806 Si02
#       8
#     8   8   8   8   8   8   8   8
#     4  10  22  39  63  87 122 160 196 243 303 352
#     4  10  21  36  58  89 121 161 201 241 298 355
#     4  10  19  35  57  86 124 159 194 236 291 351
#     4   9  20  35  57  90 126 158 194 239 293 353
#     4  11  23  39  63  90 117 154 200 244 297 357
#     4  11  23  41  63  87 120 153 202 253 296 349
#     4  11  24  44  64  85 115 158 203 248 299 352
#     4  10  20  35  58  88 123 159 193 243 293 356
#
# _framework density 20.246048999999999
#
# number of rings (size 3 to 8) (size 9 to 14) (size 15 to 20)
#    0.000    1.750    2.500    1.500    1.750    4.000 
#    0.000    0.625    0.000    0.750    0.000    0.000 
#    0.000    0.000    0.000    0.000    0.000    0.000 
#
# Total GULP energy -793337.109984 kJ/mol
# GULP energy per Si atom -12395.892343 kJ/mol
# Density = 2.019997 g / cm^3
# Si number density = 20.246049 Si / 1000 Ang^3
#
#
#
# Elastic Constant Matrix: (Units=GPa)
#
#
# Indices 1 2 3 4 5 6 
#
# 1 61.4884 20.7990 21.5085 0.0000 0.0000 0.0000
# 2 20.7990 109.4147 40.6498 0.0000 0.0000 0.0000
# 3 21.5085 40.6498 76.7185 0.0000 0.0000 0.0000
# 4 0.0000 0.0000 0.0000 19.9685 0.0000 0.0000
# 5 0.0000 0.0000 0.0000 0.0000 24.9664 0.0000
# 6 0.0000 0.0000 0.0000 0.0000 0.0000 22.4277
#
#
#
# Elastic Compliance Matrix: (Units=1/GPa)
#
#
# Indices 1 2 3 4 5 6 
#
# 1 0.018365 -0.001965 -0.004107 0.000000 0.000000 0.000000
# 2 -0.001965 0.011590 -0.005590 0.000000 0.000000 0.000000
# 3 -0.004107 -0.005590 0.017148 0.000000 0.000000 0.000000
# 4 0.000000 0.000000 0.000000 0.050079 0.000000 0.000000
# 5 0.000000 0.000000 0.000000 0.000000 0.040054 0.000000
# 6 0.000000 0.000000 0.000000 0.000000 0.000000 0.044588
#
#
# Mechanical properties :
#
#
# Convention : Reuss Voigt Hill
#
# Bulk Modulus (GPa) = 42.05635 45.94848 44.00242
# Shear Modulus (GPa) = 23.46600 24.45014 23.95807
#
# Velocity S-wave (km/s) = 3.40816 3.47890 3.44371
# Velocity P-wave (km/s) = 6.02538 6.23548 6.13133
#
# Compressibility (1/GPa) = 0.02377762
#
# Stress axis : x y z
#
# Youngs Moduli (GPa) = 54.45235 86.28199 58.31519
#
# Poissons Ratio (x) = 0.16954 0.23953
# Poissons Ratio (y) = 0.10700 0.32599
# Poissons Ratio (z) = 0.22366 0.48232
#
# Static dielectric constant tensor:
#      x y z
#    x 3.500900 0.000000 0.000000 
#    y 0.000000 3.828770 0.000000 
#    z 0.000000 0.000000 3.602440 
# 
# 
# High freq. dielectric constant tensor:
#      x y z
#    x 1.774700 0.000000 0.000000 
#    y 0.000000 1.803360 0.000000 
#    z 0.000000 0.000000 1.784100 
# 
# From -- ./inp_files/9473.got.cif
#   From: 2010.03.12/outbox.cif.g09.slc.cpg/sg62_5_cif.got.tgz:9473.got - 2010.04.10 19:12:36.
