data_PCOD8251114
_publ_section_title
;
Structure prediction by ZEFSAII (Michael W. Deem and Ramdas Pophale) SiO2 
 PCOD8251114
Probable space group: P N M A
;
_chemical_formula_sum "Si O2"
_cell_formula_units_Z 56
_cell_length_a 19.152748
_cell_length_b 9.238660
_cell_length_c 19.125865
_cell_angle_alpha 90.000000
_cell_angle_beta 90.000000
_cell_angle_gamma 90.000000
_cell_volume 3384.240084
_symmetry_space_group_name_H-M "P N M A"
_symmetry_group_IT_number 62
_symmetry_cell_setting 'orthorhombic'
loop_
_space_group_symop_operation_xyz
x,y,z
1/2-x,-y,1/2+z
1/2+x,1/2-y,1/2-z
-x,1/2+y,-z
-x,-y,-z
1/2+x,y,1/2-z
1/2-x,1/2+y,1/2+z
x,1/2-y,z
loop_
_atom_site_type_symbol
_atom_site_label
_atom_site_fract_x
_atom_site_fract_y
_atom_site_fract_z
Si Si1 0.513805 0.417259 0.289770
Si Si2 0.275185 0.417562 0.365639
Si Si3 0.053061 0.078971 0.051348
Si Si4 0.805611 0.416420 0.978896
Si Si5 0.740161 0.084756 0.838585
Si Si6 0.161688 0.083466 0.258178
Si Si7 0.875600 0.579486 0.234602
O O1 0.492050 0.250000 0.284215
O O2 0.531193 0.457851 0.369587
O O3 0.579706 0.453841 0.239681
O O4 0.452227 0.514421 0.259551
O O5 0.294615 0.250000 0.353269
O O6 0.270769 0.455772 0.447159
O O7 0.199893 0.455231 0.331331
O O8 0.336079 0.513002 0.331951
O O9 0.051494 0.250000 0.037170
O O10 0.130231 0.020975 0.036708
O O11 0.000000 0.000000 0.000000
O O12 0.832198 0.250000 0.977782
O O13 0.743834 0.440015 0.921988
O O14 0.752779 0.250000 0.818068
O O15 0.665889 0.036277 0.805852
O O16 0.804224 0.999872 0.805720
O O17 0.171538 0.250000 0.238906
O O18 0.881418 0.750000 0.223736
#
# Coordination Sequence:
#
# PCOD8251114 Si02
#       7
#     8   8   8   8   8   8   8
#     4  10  20  33  48  68  95 127 162 198 235 281
#     4   9  18  32  51  72  95 124 158 198 240 284
#     4  11  22  33  46  69 101 133 162 192 235 289
#     4  10  19  32  50  72  97 126 158 195 242 290
#     4   9  18  32  49  70  96 124 159 198 239 289
#     4   9  17  32  51  70  92 122 163 202 236 278
#     4  10  20  32  48  71  97 127 160 197 240 285
#
# _framework density 16.547288999999999
#
# number of rings (size 3 to 8) (size 9 to 14) (size 15 to 20)
#    0.000    2.286    1.429    1.714    0.000    6.286 
#    0.000    0.000    0.000    0.857    0.000    0.000 
#    0.000    0.000    0.000    0.000    0.000    0.429 
#
# Total GULP energy -694302.603938 kJ/mol
# GULP energy per Si atom -12398.260785 kJ/mol
# Density = 1.650963 g / cm^3
# Si number density = 16.547289 Si / 1000 Ang^3
#
#
#
# Elastic Constant Matrix: (Units=GPa)
#
#
# Indices 1 2 3 4 5 6 
#
# 1 113.2437 50.6887 70.6103 0.0000 0.0000 0.0000
# 2 50.6887 61.0308 40.4258 0.0000 0.0000 0.0000
# 3 70.6103 40.4258 101.2733 0.0000 0.0000 0.0000
# 4 0.0000 0.0000 0.0000 19.8571 0.0000 0.0000
# 5 0.0000 0.0000 0.0000 0.0000 22.7143 0.0000
# 6 0.0000 0.0000 0.0000 0.0000 0.0000 89.4770
#
#
#
# Elastic Compliance Matrix: (Units=1/GPa)
#
#
# Indices 1 2 3 4 5 6 
#
# 1 0.018963 -0.009505 -0.009428 0.000000 0.000000 0.000000
# 2 -0.009505 0.027039 -0.004166 0.000000 0.000000 0.000000
# 3 -0.009428 -0.004166 0.018110 0.000000 0.000000 0.000000
# 4 0.000000 0.000000 0.000000 0.050360 0.000000 0.000000
# 5 0.000000 0.000000 0.000000 0.000000 0.044025 0.000000
# 6 0.000000 0.000000 0.000000 0.000000 0.000000 0.011176
#
#
# Mechanical properties :
#
#
# Convention : Reuss Voigt Hill
#
# Bulk Modulus (GPa) = 55.81822 66.55527 61.18674
# Shear Modulus (GPa) = 22.53841 33.99790 28.26816
#
# Velocity S-wave (km/s) = 3.69461 4.53768 4.13767
# Velocity P-wave (km/s) = 7.21152 8.23180 7.73849
#
# Compressibility (1/GPa) = 0.01791530
#
# Stress axis : x y z
#
# Youngs Moduli (GPa) = 52.73296 36.98328 55.21704
#
# Poissons Ratio (x) = 0.35154 0.52056
# Poissons Ratio (y) = 0.50124 0.23004
# Poissons Ratio (z) = 0.49714 0.15407
#
# Static dielectric constant tensor:
#      x y z
#    x 3.172680 0.000000 0.000000 
#    y 0.000000 3.185410 0.000000 
#    z 0.000000 0.000000 3.248350 
# 
# 
# High freq. dielectric constant tensor:
#      x y z
#    x 1.628740 0.000000 0.000000 
#    y 0.000000 1.643080 0.000000 
#    z 0.000000 0.000000 1.629160 
# 
# From -- ./inp_files/27510.got.cif
#   From: 2010.03.12/outbox.cif.g09.slc.cpg/sg62_14_cif.got.tgz:27510.got - 2010.04.10 19:12:36.
