data_PCOD8251295
_publ_section_title
;
Structure prediction by ZEFSAII (Michael W. Deem and Ramdas Pophale) SiO2 
 PCOD8251295
Probable space group: P N M A
;
_chemical_formula_sum "Si O2"
_cell_formula_units_Z 64
_cell_length_a 32.773559
_cell_length_b 9.215664
_cell_length_c 11.518878
_cell_angle_alpha 90.000000
_cell_angle_beta 90.000000
_cell_angle_gamma 90.000000
_cell_volume 3479.047964
_symmetry_space_group_name_H-M "P N M A"
_symmetry_group_IT_number 62
_symmetry_cell_setting 'orthorhombic'
loop_
_space_group_symop_operation_xyz
x,y,z
1/2-x,-y,1/2+z
1/2+x,1/2-y,1/2-z
-x,1/2+y,-z
-x,-y,-z
1/2+x,y,1/2-z
1/2-x,1/2+y,1/2+z
x,1/2-y,z
loop_
_atom_site_type_symbol
_atom_site_label
_atom_site_fract_x
_atom_site_fract_y
_atom_site_fract_z
Si Si1 0.409790 0.079497 0.683585
Si Si2 0.695977 0.579804 0.933548
Si Si3 0.172295 0.918846 0.314385
Si Si4 0.287105 0.582010 0.616550
Si Si5 0.867781 0.919164 0.016037
Si Si6 0.051028 0.417858 0.594265
Si Si7 0.865973 0.580691 0.281659
Si Si8 0.027313 0.419226 0.335602
O O1 0.417730 0.250000 0.670708
O O2 0.373038 0.044315 0.771618
O O3 0.399804 0.013065 0.557905
O O4 0.449887 0.003053 0.733005
O O5 0.689734 0.750000 0.916982
O O6 0.743509 0.536459 0.934826
O O7 0.673595 0.501849 0.827679
O O8 0.676593 0.524961 0.054285
O O9 0.182255 0.750000 0.306380
O O10 0.205725 0.997307 0.235717
O O11 0.288471 0.750000 0.648606
O O12 0.321531 0.542777 0.521654
O O13 0.877403 0.750000 0.995724
O O14 0.873642 0.965009 0.149017
O O15 0.040979 0.250000 0.621753
O O16 0.094954 0.463972 0.642325
O O17 0.050694 0.447080 0.456670
O O18 0.018198 0.518219 0.658069
O O19 0.856634 0.750000 0.290777
O O20 0.025208 0.250000 0.304960
#
# Coordination Sequence:
#
# PCOD8251295 Si02
#       8
#     8   8   8   8   8   8   8   8
#     4  10  19  33  54  79 104 137 177 219 264 309
#     4  10  21  34  51  76 105 136 170 214 264 312
#     4   9  19  34  52  74 102 134 171 215 260 309
#     4   9  19  34  51  73 101 134 172 214 258 303
#     4   9  19  36  55  74 102 140 178 217 262 313
#     4   9  19  35  53  80 112 138 173 219 264 314
#     4  10  21  36  56  79 104 140 177 215 264 316
#     4  10  19  32  55  82 109 141 173 214 266 318
#
# _framework density 18.395838000000001
#
# number of rings (size 3 to 8) (size 9 to 14) (size 15 to 20)
#    0.000    2.500    0.000    1.500    1.750    3.000 
#    0.000    0.625    0.000    0.000    0.000    0.000 
#    0.000    0.000    0.000    0.000    0.000    0.000 
#
# Total GULP energy -793834.258584 kJ/mol
# GULP energy per Si atom -12403.660290 kJ/mol
# Density = 1.835397 g / cm^3
# Si number density = 18.395838 Si / 1000 Ang^3
#
#
#
# Elastic Constant Matrix: (Units=GPa)
#
#
# Indices 1 2 3 4 5 6 
#
# 1 66.6378 28.6439 25.2317 0.0000 0.0000 0.0000
# 2 28.6439 52.5705 28.2776 0.0000 0.0000 0.0000
# 3 25.2317 28.2776 79.4121 0.0000 0.0000 0.0000
# 4 0.0000 0.0000 0.0000 29.1441 0.0000 0.0000
# 5 0.0000 0.0000 0.0000 0.0000 23.9763 0.0000
# 6 0.0000 0.0000 0.0000 0.0000 0.0000 32.3624
#
#
#
# Elastic Compliance Matrix: (Units=1/GPa)
#
#
# Indices 1 2 3 4 5 6 
#
# 1 0.020191 -0.009339 -0.003090 0.000000 0.000000 0.000000
# 2 -0.009339 0.027849 -0.006949 0.000000 0.000000 0.000000
# 3 -0.003090 -0.006949 0.016049 0.000000 0.000000 0.000000
# 4 0.000000 0.000000 0.000000 0.034312 0.000000 0.000000
# 5 0.000000 0.000000 0.000000 0.000000 0.041708 0.000000
# 6 0.000000 0.000000 0.000000 0.000000 0.000000 0.030900
#
#
# Mechanical properties :
#
#
# Convention : Reuss Voigt Hill
#
# Bulk Modulus (GPa) = 39.47587 40.32521 39.90054
# Shear Modulus (GPa) = 22.91382 24.86102 23.88742
#
# Velocity S-wave (km/s) = 3.53313 3.68019 3.60741
# Velocity P-wave (km/s) = 6.17655 6.32668 6.25206
#
# Compressibility (1/GPa) = 0.02533193
#
# Stress axis : x y z
#
# Youngs Moduli (GPa) = 49.52747 35.90830 62.31029
#
# Poissons Ratio (x) = 0.33536 0.19252
# Poissons Ratio (y) = 0.46256 0.43300
# Poissons Ratio (z) = 0.15302 0.24953
#
# Static dielectric constant tensor:
#      x y z
#    x 3.315560 0.000000 0.000000 
#    y 0.000000 3.323860 0.000000 
#    z 0.000000 0.000000 3.382020 
# 
# 
# High freq. dielectric constant tensor:
#      x y z
#    x 1.710330 0.000000 0.000000 
#    y 0.000000 1.711600 0.000000 
#    z 0.000000 0.000000 1.710490 
# 
# From -- ./inp_files/15914.got.cif
#   From: 2010.03.12/outbox.cif.g09.slc.cpg/sg62_8_cif.got.tgz:15914.got - 2010.04.10 19:12:36.
