data_PCOD8251447
_publ_section_title
;
Structure prediction by ZEFSAII (Michael W. Deem and Ramdas Pophale) SiO2 
 PCOD8251447
Probable space group: P N M A
;
_chemical_formula_sum "Si O2"
_cell_formula_units_Z 64
_cell_length_a 15.052827
_cell_length_b 9.060608
_cell_length_c 23.714343
_cell_angle_alpha 90.000000
_cell_angle_beta 90.000000
_cell_angle_gamma 90.000000
_cell_volume 3234.346234
_symmetry_space_group_name_H-M "P N M A"
_symmetry_group_IT_number 62
_symmetry_cell_setting 'orthorhombic'
loop_
_space_group_symop_operation_xyz
x,y,z
1/2-x,-y,1/2+z
1/2+x,1/2-y,1/2-z
-x,1/2+y,-z
-x,-y,-z
1/2+x,y,1/2-z
1/2-x,1/2+y,1/2+z
x,1/2-y,z
loop_
_atom_site_type_symbol
_atom_site_label
_atom_site_fract_x
_atom_site_fract_y
_atom_site_fract_z
Si Si1 0.932153 0.422333 0.251033
Si Si2 0.266249 0.925203 0.752466
Si Si3 0.243190 0.919462 0.023796
Si Si4 0.808279 0.917967 0.872267
Si Si5 0.510236 0.916460 0.629324
Si Si6 0.580321 0.073543 0.165602
Si Si7 0.428343 0.919310 0.962228
Si Si8 0.580994 0.423570 0.531121
O O1 0.919525 0.250000 0.261604
O O2 0.833701 0.492634 0.244078
O O3 0.988347 0.455581 0.195088
O O4 0.990855 0.485760 0.302990
O O5 0.264081 0.750000 0.758240
O O6 0.303652 0.973814 0.691766
O O7 0.331428 0.987295 0.801705
O O8 0.211429 0.750000 0.024181
O O9 0.251797 0.978125 0.088002
O O10 0.335186 0.939025 0.992493
O O11 0.174452 0.021325 0.991181
O O12 0.773213 0.750000 0.876969
O O13 0.909771 0.929190 0.893402
O O14 0.546176 0.750000 0.619572
O O15 0.573570 0.030321 0.596688
O O16 0.583160 0.250000 0.167235
O O17 0.578325 0.014415 0.101288
O O18 0.457245 0.750000 0.958258
O O19 0.500000 0.000000 0.000000
O O20 0.500000 0.500000 0.500000
O O21 0.574189 0.250000 0.523400
#
# Coordination Sequence:
#
# PCOD8251447 Si02
#       8
#     8   8   8   8   8   8   8   8
#     4   9  17  29  52  82 112 147 185 238 294 342
#     4   9  17  29  51  84 114 144 187 241 295 343
#     4  11  24  40  58  85 118 159 202 244 296 353
#     4  10  19  33  56  85 115 150 194 244 294 350
#     4  10  19  33  54  83 118 151 187 234 290 350
#     4   9  17  33  53  82 116 144 189 243 290 341
#     4  10  24  42  63  87 117 159 204 252 297 342
#     4  12  24  38  57  84 118 156 194 238 289 353
#
# _framework density 19.787616
#
# number of rings (size 3 to 8) (size 9 to 14) (size 15 to 20)
#    0.000    2.000    2.500    1.500    3.500    1.000 
#    0.000    0.000    0.000    2.250    0.000    0.000 
#    0.000    0.000    0.000    0.000    0.000    0.000 
#
# Total GULP energy -793431.022221 kJ/mol
# GULP energy per Si atom -12397.359722 kJ/mol
# Density = 1.974258 g / cm^3
# Si number density = 19.787616 Si / 1000 Ang^3
#
#
#
# Elastic Constant Matrix: (Units=GPa)
#
#
# Indices 1 2 3 4 5 6 
#
# 1 111.7791 36.1403 62.6218 0.0000 0.0000 0.0000
# 2 36.1403 77.0316 46.3708 0.0000 0.0000 0.0000
# 3 62.6218 46.3708 155.4769 0.0000 0.0000 0.0000
# 4 0.0000 0.0000 0.0000 24.5049 0.0000 0.0000
# 5 0.0000 0.0000 0.0000 0.0000 34.3341 0.0000
# 6 0.0000 0.0000 0.0000 0.0000 0.0000 19.9183
#
#
#
# Elastic Compliance Matrix: (Units=1/GPa)
#
#
# Indices 1 2 3 4 5 6 
#
# 1 0.012235 -0.003381 -0.003920 0.000000 0.000000 0.000000
# 2 -0.003381 0.016757 -0.003636 0.000000 0.000000 0.000000
# 3 -0.003920 -0.003636 0.009095 0.000000 0.000000 0.000000
# 4 0.000000 0.000000 0.000000 0.040808 0.000000 0.000000
# 5 0.000000 0.000000 0.000000 0.000000 0.029126 0.000000
# 6 0.000000 0.000000 0.000000 0.000000 0.000000 0.050205
#
#
# Mechanical properties :
#
#
# Convention : Reuss Voigt Hill
#
# Bulk Modulus (GPa) = 61.67528 70.50592 66.09060
# Shear Modulus (GPa) = 26.95375 29.02845 27.99110
#
# Velocity S-wave (km/s) = 3.69474 3.83430 3.76517
# Velocity P-wave (km/s) = 7.03120 7.43715 7.23702
#
# Compressibility (1/GPa) = 0.01621395
#
# Stress axis : x y z
#
# Youngs Moduli (GPa) = 81.73145 59.67820 109.95074
#
# Poissons Ratio (x) = 0.20176 0.43097
# Poissons Ratio (y) = 0.27631 0.39977
# Poissons Ratio (z) = 0.32036 0.21699
#
# Static dielectric constant tensor:
#      x y z
#    x 3.142990 0.000000 0.000000 
#    y 0.000000 3.071440 0.000000 
#    z 0.000000 0.000000 3.771360 
# 
# 
# High freq. dielectric constant tensor:
#      x y z
#    x 1.775200 0.000000 0.000000 
#    y 0.000000 1.715130 0.000000 
#    z 0.000000 0.000000 1.788840 
# 
# From -- ./inp_files/29915.got.cif
#   From: 2010.03.12/outbox.cif.g09.slc.cpg/sg62_15_cif.got.tgz:29915.got - 2010.04.10 19:12:36.
