data_PCOD8251335
_publ_section_title
;
Structure prediction by ZEFSAII (Michael W. Deem and Ramdas Pophale) SiO2 
 PCOD8251335
Probable space group: P N M A
;
_chemical_formula_sum "Si O2"
_cell_formula_units_Z 28
_cell_length_a 4.948148
_cell_length_b 36.838968
_cell_length_c 7.784534
_cell_angle_alpha 90.000000
_cell_angle_beta 90.000000
_cell_angle_gamma 90.000000
_cell_volume 1419.001179
_symmetry_space_group_name_H-M "P N M A"
_symmetry_group_IT_number 62
_symmetry_cell_setting 'orthorhombic'
loop_
_space_group_symop_operation_xyz
x,y,z
1/2-x,-y,1/2+z
1/2+x,1/2-y,1/2-z
-x,1/2+y,-z
-x,-y,-z
1/2+x,y,1/2-z
1/2-x,1/2+y,1/2+z
x,1/2-y,z
loop_
_atom_site_type_symbol
_atom_site_label
_atom_site_fract_x
_atom_site_fract_y
_atom_site_fract_z
Si Si1 0.063061 0.391687 0.360501
Si Si2 0.047194 0.250000 0.633442
Si Si3 0.041183 0.813588 0.630324
Si Si4 0.444889 0.468713 0.133479
O O1 0.879614 0.391942 0.186561
O O2 0.991935 0.353842 0.456310
O O3 0.990062 0.429228 0.460041
O O4 0.851232 0.250000 0.797120
O O5 0.001650 0.285512 0.520865
O O6 0.335745 0.808062 0.711505
O O7 0.640900 0.472100 0.297978
O O8 0.500000 0.500000 0.000000
#
# Coordination Sequence:
#
# PCOD8251335 Si02
#       4
#     8   4   8   8
#     4   8  16  30  51  73  95 125 169 211 239 277
#     4  12  24  36  50  78 112 132 152 206 268 300
#     4  10  19  36  58  75  93 133 180 206 232 295
#     4  10  19  33  51  75 103 133 166 206 250 295
#
# _framework density 19.732189000000002
#
# number of rings (size 3 to 8) (size 9 to 14) (size 15 to 20)
#    0.000    2.286    0.000    3.429    0.000    0.000 
#    0.000    2.857    0.000    0.000    0.000    0.000 
#    0.000    0.000    0.000    0.000    0.000    0.000 
#
# Total GULP energy -346974.873116 kJ/mol
# GULP energy per Si atom -12391.959754 kJ/mol
# Density = 1.968728 g / cm^3
# Si number density = 19.732189 Si / 1000 Ang^3
#
#
#
# Elastic Constant Matrix: (Units=GPa)
#
#
# Indices 1 2 3 4 5 6 
#
# 1 70.0855 6.3291 1.2125 0.0000 0.0000 0.0000
# 2 6.3291 208.2899 56.3637 0.0000 0.0000 0.0000
# 3 1.2125 56.3637 43.3163 0.0000 0.0000 0.0000
# 4 0.0000 0.0000 0.0000 27.2998 0.0000 0.0000
# 5 0.0000 0.0000 0.0000 0.0000 24.5022 0.0000
# 6 0.0000 0.0000 0.0000 0.0000 0.0000 26.9076
#
#
#
# Elastic Compliance Matrix: (Units=1/GPa)
#
#
# Indices 1 2 3 4 5 6 
#
# 1 0.014309 -0.000504 0.000255 0.000000 0.000000 0.000000
# 2 -0.000504 0.007428 -0.009651 0.000000 0.000000 0.000000
# 3 0.000255 -0.009651 0.035637 0.000000 0.000000 0.000000
# 4 0.000000 0.000000 0.000000 0.036630 0.000000 0.000000
# 5 0.000000 0.000000 0.000000 0.000000 0.040813 0.000000
# 6 0.000000 0.000000 0.000000 0.000000 0.000000 0.037164
#
#
# Mechanical properties :
#
#
# Convention : Reuss Voigt Hill
#
# Bulk Modulus (GPa) = 26.61385 49.94471 38.27928
# Shear Modulus (GPa) = 24.47303 32.92768 28.70035
#
# Velocity S-wave (km/s) = 3.52555 4.08944 3.81792
# Velocity P-wave (km/s) = 5.48539 6.90393 6.23513
#
# Compressibility (1/GPa) = 0.03757442
#
# Stress axis : x y z
#
# Youngs Moduli (GPa) = 69.88430 134.62647 28.06060
#
# Poissons Ratio (x) = 0.06783 -0.00716
# Poissons Ratio (y) = 0.03521 0.27082
# Poissons Ratio (z) = -0.01782 1.29931
#
# Static dielectric constant tensor:
#      x y z
#    x 3.873040 0.000000 0.000000 
#    y 0.000000 4.224230 0.000000 
#    z 0.000000 0.000000 2.859730 
# 
# 
# High freq. dielectric constant tensor:
#      x y z
#    x 1.796340 0.000000 0.000000 
#    y 0.000000 1.806100 0.000000 
#    z 0.000000 0.000000 1.686960 
# 
# From -- ./inp_files/3795.got.cif
#   From: 2010.03.12/outbox.cif.g09.slc.cpg/sg62_2_cif.got.tgz:3795.got - 2010.04.10 19:12:36.
