data_PCOD8251984
_publ_section_title
;
Structure prediction by ZEFSAII (Michael W. Deem and Ramdas Pophale) SiO2 
 PCOD8251984
Probable space group: P N M A
;
_chemical_formula_sum "Si O2"
_cell_formula_units_Z 48
_cell_length_a 14.301673
_cell_length_b 18.180553
_cell_length_c 8.750894
_cell_angle_alpha 90.000000
_cell_angle_beta 90.000000
_cell_angle_gamma 90.000000
_cell_volume 2275.340286
_symmetry_space_group_name_H-M "P N M A"
_symmetry_group_IT_number 62
_symmetry_cell_setting 'orthorhombic'
loop_
_space_group_symop_operation_xyz
x,y,z
1/2-x,-y,1/2+z
1/2+x,1/2-y,1/2-z
-x,1/2+y,-z
-x,-y,-z
1/2+x,y,1/2-z
1/2-x,1/2+y,1/2+z
x,1/2-y,z
loop_
_atom_site_type_symbol
_atom_site_label
_atom_site_fract_x
_atom_site_fract_y
_atom_site_fract_z
Si Si1 0.407860 0.333776 0.851735
Si Si2 0.838864 0.835407 0.586595
Si Si3 0.990299 0.073640 0.392869
Si Si4 0.242813 0.427751 0.910534
Si Si5 0.804270 0.425378 0.242397
Si Si6 0.394685 0.832337 0.259019
O O1 0.373304 0.250000 0.861667
O O2 0.320299 0.384700 0.807804
O O3 0.493332 0.342933 0.733910
O O4 0.446557 0.358163 0.015474
O O5 0.862333 0.750000 0.623097
O O6 0.910606 0.894192 0.667554
O O7 0.734438 0.853082 0.652240
O O8 0.849113 0.850459 0.405896
O O9 0.917424 0.063147 0.251206
O O10 0.000000 0.000000 0.500000
O O11 0.241543 0.510190 0.854753
O O12 0.144151 0.388094 0.884327
O O13 0.265650 0.425517 0.087205
O O14 0.367892 0.750000 0.306583
#
# Coordination Sequence:
#
# PCOD8251984 Si02
#       6
#     8   8   8   8   8   8
#     4   9  18  33  56  81 106 146 192 225 268 343
#     4  10  21  38  58  84 116 148 187 238 295 348
#     4  10  19  36  60  83 113 153 196 233 278 347
#     4  11  21  36  56  81 112 144 189 238 283 333
#     4  11  23  36  58  84 111 148 191 238 283 340
#     4   9  18  35  58  81 109 145 183 228 280 337
#
# _framework density 21.095745999999998
#
# number of rings (size 3 to 8) (size 9 to 14) (size 15 to 20)
#    0.000    2.000    0.000    7.000    0.000    4.000 
#    0.000    5.000    0.000    0.000    0.000    0.000 
#    0.000    0.000    0.000    0.000    0.000    0.000 
#
# Total GULP energy -594746.759196 kJ/mol
# GULP energy per Si atom -12390.557483 kJ/mol
# Density = 2.104773 g / cm^3
# Si number density = 21.095746 Si / 1000 Ang^3
#
#
#
# Elastic Constant Matrix: (Units=GPa)
#
#
# Indices 1 2 3 4 5 6 
#
# 1 49.0996 21.1513 -8.4738 0.0000 0.0000 0.0000
# 2 21.1513 91.4570 8.3860 0.0000 0.0000 0.0000
# 3 -8.4738 8.3860 22.0861 0.0000 0.0000 0.0000
# 4 0.0000 0.0000 0.0000 25.5469 0.0000 0.0000
# 5 0.0000 0.0000 0.0000 0.0000 31.7219 0.0000
# 6 0.0000 0.0000 0.0000 0.0000 0.0000 37.4167
#
#
#
# Elastic Compliance Matrix: (Units=1/GPa)
#
#
# Indices 1 2 3 4 5 6 
#
# 1 0.025562 -0.007057 0.012487 0.000000 0.000000 0.000000
# 2 -0.007057 0.013277 -0.007749 0.000000 0.000000 0.000000
# 3 0.012487 -0.007749 0.053010 0.000000 0.000000 0.000000
# 4 0.000000 0.000000 0.000000 0.039144 0.000000 0.000000
# 5 0.000000 0.000000 0.000000 0.000000 0.031524 0.000000
# 6 0.000000 0.000000 0.000000 0.000000 0.000000 0.026726
#
#
# Mechanical properties :
#
#
# Convention : Reuss Voigt Hill
#
# Bulk Modulus (GPa) = 11.46635 22.75218 17.10926
# Shear Modulus (GPa) = 22.42659 28.37571 25.40115
#
# Velocity S-wave (km/s) = 3.26404 3.67153 3.47376
# Velocity P-wave (km/s) = 4.43311 5.36490 4.92110
#
# Compressibility (1/GPa) = 0.08721172
#
# Stress axis : x y z
#
# Youngs Moduli (GPa) = 39.12109 75.32064 18.86425
#
# Poissons Ratio (x) = 0.53151 -0.23555
# Poissons Ratio (y) = 0.27606 0.14617
# Poissons Ratio (z) = -0.48849 0.58362
#
# Static dielectric constant tensor:
#      x y z
#    x 4.535710 0.000000 0.000000 
#    y 0.000000 3.997080 0.000000 
#    z 0.000000 0.000000 3.342920 
# 
# 
# High freq. dielectric constant tensor:
#      x y z
#    x 1.836530 0.000000 0.000000 
#    y 0.000000 1.841840 0.000000 
#    z 0.000000 0.000000 1.775580 
# 
# From -- ./inp_files/6441.got.cif
#   From: 2010.03.12/outbox.cif.g09.slc.cpg/sg62_4_cif.got.tgz:6441.got - 2010.04.10 19:12:36.
