data_PCOD8251338
_publ_section_title
;
Structure prediction by ZEFSAII (Michael W. Deem and Ramdas Pophale) SiO2 
 PCOD8251338
Probable space group: P N M A
;
_chemical_formula_sum "Si O2"
_cell_formula_units_Z 64
_cell_length_a 18.961981
_cell_length_b 8.899569
_cell_length_c 23.007261
_cell_angle_alpha 90.000000
_cell_angle_beta 90.000000
_cell_angle_gamma 90.000000
_cell_volume 3882.554859
_symmetry_space_group_name_H-M "P N M A"
_symmetry_group_IT_number 62
_symmetry_cell_setting 'orthorhombic'
loop_
_space_group_symop_operation_xyz
x,y,z
1/2-x,-y,1/2+z
1/2+x,1/2-y,1/2-z
-x,1/2+y,-z
-x,-y,-z
1/2+x,y,1/2-z
1/2-x,1/2+y,1/2+z
x,1/2-y,z
loop_
_atom_site_type_symbol
_atom_site_label
_atom_site_fract_x
_atom_site_fract_y
_atom_site_fract_z
Si Si1 0.859851 0.576962 0.441948
Si Si2 0.999458 0.928602 0.248047
Si Si3 0.730878 0.076164 0.832025
Si Si4 0.644047 0.926963 0.062951
Si Si5 0.642559 0.574252 0.733635
Si Si6 0.999622 0.428570 0.619403
Si Si7 0.224094 0.078054 0.338981
Si Si8 0.358158 0.926734 0.722711
O O1 0.871785 0.750000 0.458330
O O2 0.794849 0.557776 0.397985
O O3 0.839792 0.487409 0.499324
O O4 0.931500 0.509754 0.413835
O O5 0.996092 0.750000 0.243370
O O6 0.000994 0.987308 0.314507
O O7 0.067969 0.989177 0.214675
O O8 0.931975 0.001388 0.216386
O O9 0.741095 0.250000 0.815213
O O10 0.670956 0.007703 0.790900
O O11 0.804582 0.988659 0.825935
O O12 0.641829 0.750000 0.060573
O O13 0.569412 0.991093 0.086455
O O14 0.706701 0.976011 0.105819
O O15 0.635134 0.750000 0.747714
O O16 0.695260 0.548497 0.679614
O O17 0.000811 0.250000 0.620714
O O18 0.212136 0.250000 0.356711
O O19 0.173290 0.033601 0.285746
O O20 0.367708 0.750000 0.713723
#
# Coordination Sequence:
#
# PCOD8251338 Si02
#       8
#     8   8   8   8   8   8   8   8
#     4  10  20  35  50  67  98 136 174 208 247 294
#     4  11  19  32  52  75 102 134 171 205 247 304
#     4  10  19  33  52  72  96 133 171 208 251 299
#     4  11  21  32  49  72  98 131 174 213 246 288
#     4  10  20  33  50  74 102 129 165 210 256 301
#     4   9  18  32  46  68  99 133 171 206 237 285
#     4   9  19  34  49  68  97 132 165 203 251 298
#     4  10  20  33  50  74 102 130 164 209 257 300
#
# _framework density 16.483992000000001
#
# number of rings (size 3 to 8) (size 9 to 14) (size 15 to 20)
#    0.000    2.000    2.500    3.000    0.000    3.500 
#    0.000    0.625    0.000    0.000    0.000    0.875 
#    0.000    0.000    0.000    0.000    0.000    0.000 
#
# Total GULP energy -793788.242598 kJ/mol
# GULP energy per Si atom -12402.941291 kJ/mol
# Density = 1.644647 g / cm^3
# Si number density = 16.483992 Si / 1000 Ang^3
#
#
#
# Elastic Constant Matrix: (Units=GPa)
#
#
# Indices 1 2 3 4 5 6 
#
# 1 114.6545 39.3731 42.7018 0.0000 0.0000 0.0000
# 2 39.3731 72.3588 36.5471 0.0000 0.0000 0.0000
# 3 42.7018 36.5471 70.9328 0.0000 0.0000 0.0000
# 4 0.0000 0.0000 0.0000 23.9799 0.0000 0.0000
# 5 0.0000 0.0000 0.0000 0.0000 19.8886 0.0000
# 6 0.0000 0.0000 0.0000 0.0000 0.0000 30.3514
#
#
#
# Elastic Compliance Matrix: (Units=1/GPa)
#
#
# Indices 1 2 3 4 5 6 
#
# 1 0.012003 -0.003895 -0.005219 0.000000 0.000000 0.000000
# 2 -0.003895 0.019946 -0.007932 0.000000 0.000000 0.000000
# 3 -0.005219 -0.007932 0.021326 0.000000 0.000000 0.000000
# 4 0.000000 0.000000 0.000000 0.041702 0.000000 0.000000
# 5 0.000000 0.000000 0.000000 0.000000 0.050280 0.000000
# 6 0.000000 0.000000 0.000000 0.000000 0.000000 0.032947
#
#
# Mechanical properties :
#
#
# Convention : Reuss Voigt Hill
#
# Bulk Modulus (GPa) = 52.12877 55.02112 53.57495
# Shear Modulus (GPa) = 22.86326 24.13225 23.49776
#
# Velocity S-wave (km/s) = 3.72828 3.83035 3.77966
# Velocity P-wave (km/s) = 7.08703 7.28101 7.18467
#
# Compressibility (1/GPa) = 0.01918327
#
# Stress axis : x y z
#
# Youngs Moduli (GPa) = 83.31018 50.13569 46.89024
#
# Poissons Ratio (x) = 0.19530 0.24472
# Poissons Ratio (y) = 0.32453 0.37192
# Poissons Ratio (z) = 0.43479 0.39766
#
# Static dielectric constant tensor:
#      x y z
#    x 3.175160 0.000000 0.000000 
#    y 0.000000 3.059350 0.000000 
#    z 0.000000 0.000000 2.866700 
# 
# 
# High freq. dielectric constant tensor:
#      x y z
#    x 1.633920 0.000000 0.000000 
#    y 0.000000 1.638800 0.000000 
#    z 0.000000 0.000000 1.603180 
# 
# From -- ./inp_files/27706.got.cif
#   From: 2010.03.12/outbox.cif.g09.slc.cpg/sg62_14_cif.got.tgz:27706.got - 2010.04.10 19:12:36.
