data_PCOD8251096
_publ_section_title
;
Structure prediction by ZEFSAII (Michael W. Deem and Ramdas Pophale) SiO2 
 PCOD8251096
Probable space group: P N M A
;
_chemical_formula_sum "Si O2"
_cell_formula_units_Z 48
_cell_length_a 12.090957
_cell_length_b 8.802860
_cell_length_c 24.107661
_cell_angle_alpha 90.000000
_cell_angle_beta 90.000000
_cell_angle_gamma 90.000000
_cell_volume 2565.898940
_symmetry_space_group_name_H-M "P N M A"
_symmetry_group_IT_number 62
_symmetry_cell_setting 'orthorhombic'
loop_
_space_group_symop_operation_xyz
x,y,z
1/2-x,-y,1/2+z
1/2+x,1/2-y,1/2-z
-x,1/2+y,-z
-x,-y,-z
1/2+x,y,1/2-z
1/2-x,1/2+y,1/2+z
x,1/2-y,z
loop_
_atom_site_type_symbol
_atom_site_label
_atom_site_fract_x
_atom_site_fract_y
_atom_site_fract_z
Si Si1 0.166240 0.572089 0.211364
Si Si2 0.030066 0.928825 0.106587
Si Si3 0.713990 0.070075 0.581088
Si Si4 0.365593 0.569287 0.137965
Si Si5 0.270657 0.929442 0.544270
Si Si6 0.108709 0.568355 0.331542
O O1 0.178539 0.750000 0.219879
O O2 0.065452 0.534433 0.169770
O O3 0.280960 0.509757 0.185437
O O4 0.141732 0.499431 0.271455
O O5 0.039417 0.750000 0.094384
O O6 0.906789 0.992479 0.097835
O O7 0.109898 0.013424 0.063877
O O8 0.711610 0.250000 0.586033
O O9 0.745823 0.018883 0.519255
O O10 0.804818 0.003744 0.623478
O O11 0.360696 0.750000 0.133442
O O12 0.329208 0.502816 0.078792
O O13 0.487031 0.508623 0.152641
O O14 0.266072 0.750000 0.550814
O O15 0.108336 0.750000 0.330523
#
# Coordination Sequence:
#
# PCOD8251096 Si02
#       6
#     8   8   8   8   8   8
#     4   8  15  26  45  72  97 120 152 195 242 285
#     4   9  17  31  51  76  99 123 159 203 245 284
#     4   9  18  29  45  72 103 129 158 197 241 286
#     4   9  18  32  50  73  97 125 160 198 241 285
#     4  10  19  32  49  69  96 133 167 197 237 283
#     4   9  17  28  46  74 103 126 153 197 246 287
#
# _framework density 18.706893999999998
#
# number of rings (size 3 to 8) (size 9 to 14) (size 15 to 20)
#    0.000    3.000    0.000    2.000    2.333    0.667 
#    0.000    0.833    0.000    6.000    0.000    0.000 
#    0.000    0.000    0.000    0.000    0.000    0.000 
#
# Total GULP energy -595072.686720 kJ/mol
# GULP energy per Si atom -12397.347640 kJ/mol
# Density = 1.866432 g / cm^3
# Si number density = 18.706894 Si / 1000 Ang^3
#
#
#
# Elastic Constant Matrix: (Units=GPa)
#
#
# Indices 1 2 3 4 5 6 
#
# 1 137.3672 16.3791 86.0292 0.0000 0.0000 0.0000
# 2 16.3791 19.7232 21.5030 0.0000 0.0000 0.0000
# 3 86.0292 21.5030 177.8201 0.0000 0.0000 0.0000
# 4 0.0000 0.0000 0.0000 20.8860 0.0000 0.0000
# 5 0.0000 0.0000 0.0000 0.0000 25.2664 0.0000
# 6 0.0000 0.0000 0.0000 0.0000 0.0000 14.3435
#
#
#
# Elastic Compliance Matrix: (Units=1/GPa)
#
#
# Indices 1 2 3 4 5 6 
#
# 1 0.010677 -0.003726 -0.004715 0.000000 0.000000 0.000000
# 2 -0.003726 0.059702 -0.005417 0.000000 0.000000 0.000000
# 3 -0.004715 -0.005417 0.008560 0.000000 0.000000 0.000000
# 4 0.000000 0.000000 0.000000 0.047879 0.000000 0.000000
# 5 0.000000 0.000000 0.000000 0.000000 0.039578 0.000000
# 6 0.000000 0.000000 0.000000 0.000000 0.000000 0.069718
#
#
# Mechanical properties :
#
#
# Convention : Reuss Voigt Hill
#
# Bulk Modulus (GPa) = 19.52263 64.74811 42.13537
# Shear Modulus (GPa) = 17.79973 26.16581 21.98277
#
# Velocity S-wave (km/s) = 3.08800 3.74401 3.43172
# Velocity P-wave (km/s) = 4.81384 7.30597 6.18669
#
# Compressibility (1/GPa) = 0.05122260
#
# Stress axis : x y z
#
# Youngs Moduli (GPa) = 93.66079 16.74997 116.82634
#
# Poissons Ratio (x) = 0.06241 0.55082
# Poissons Ratio (y) = 0.34900 0.63281
# Poissons Ratio (z) = 0.44160 0.09073
#
# Static dielectric constant tensor:
#      x y z
#    x 3.675750 0.000000 0.000000 
#    y 0.000000 2.886880 0.000000 
#    z 0.000000 0.000000 3.699250 
# 
# 
# High freq. dielectric constant tensor:
#      x y z
#    x 1.732470 0.000000 0.000000 
#    y 0.000000 1.667980 0.000000 
#    z 0.000000 0.000000 1.737700 
# 
# From -- ./inp_files/29216.got.cif
#   From: 2010.03.12/outbox.cif.g09.slc.cpg/sg62_15_cif.got.tgz:29216.got - 2010.04.10 19:12:36.
