data_PCOD8251439
_publ_section_title
;
Structure prediction by ZEFSAII (Michael W. Deem and Ramdas Pophale) SiO2 
 PCOD8251439
Probable space group: P N M A
;
_chemical_formula_sum "Si O2"
_cell_formula_units_Z 48
_cell_length_a 21.647998
_cell_length_b 9.159350
_cell_length_c 12.324360
_cell_angle_alpha 90.000000
_cell_angle_beta 90.000000
_cell_angle_gamma 90.000000
_cell_volume 2443.693702
_symmetry_space_group_name_H-M "P N M A"
_symmetry_group_IT_number 62
_symmetry_cell_setting 'orthorhombic'
loop_
_space_group_symop_operation_xyz
x,y,z
1/2-x,-y,1/2+z
1/2+x,1/2-y,1/2-z
-x,1/2+y,-z
-x,-y,-z
1/2+x,y,1/2-z
1/2-x,1/2+y,1/2+z
x,1/2-y,z
loop_
_atom_site_type_symbol
_atom_site_label
_atom_site_fract_x
_atom_site_fract_y
_atom_site_fract_z
Si Si1 0.004810 0.588002 0.891468
Si Si2 0.826861 0.423517 0.356149
Si Si3 0.645796 0.913906 0.623454
Si Si4 0.900738 0.578539 0.732462
Si Si5 0.806088 0.920739 0.917594
Si Si6 0.933759 0.075373 0.517046
O O1 0.980792 0.750000 0.918700
O O2 0.073745 0.588072 0.847830
O O3 0.960966 0.524258 0.798152
O O4 0.000000 0.500000 0.000000
O O5 0.826474 0.250000 0.350645
O O6 0.824598 0.482913 0.232294
O O7 0.764140 0.480183 0.413290
O O8 0.887920 0.474667 0.420199
O O9 0.670038 0.750000 0.601209
O O10 0.659103 0.007626 0.517945
O O11 0.904365 0.750000 0.701799
O O12 0.840397 0.542674 0.804526
O O13 0.899692 0.481057 0.624996
O O14 0.807837 0.750000 0.939497
O O15 0.942142 0.250000 0.521192
O O16 0.000000 0.000000 0.500000
#
# Coordination Sequence:
#
# PCOD8251439 Si02
#       6
#     8   8   8   8   8   8
#     4  10  19  33  54  82 114 149 187 234 287 338
#     4   9  21  40  60  83 116 157 192 236 296 348
#     4  10  20  36  59  82 111 149 190 234 284 342
#     4  10  21  37  59  87 121 155 192 240 294 349
#     4  10  21  38  59  85 117 154 192 236 291 347
#     4  11  23  41  64  88 119 156 200 246 297 355
#
# _framework density 19.642396000000002
#
# number of rings (size 3 to 8) (size 9 to 14) (size 15 to 20)
#    0.000    2.000    1.667    1.500    2.333    4.000 
#    0.000    5.000    0.000    0.000    0.000    0.000 
#    0.000    0.000    0.000    0.000    0.000    0.000 
#
# Total GULP energy -595102.745932 kJ/mol
# GULP energy per Si atom -12397.973874 kJ/mol
# Density = 1.959769 g / cm^3
# Si number density = 19.642396 Si / 1000 Ang^3
#
#
#
# Elastic Constant Matrix: (Units=GPa)
#
#
# Indices 1 2 3 4 5 6 
#
# 1 114.5696 31.2796 37.1425 0.0000 0.0000 0.0000
# 2 31.2796 56.3373 43.9092 0.0000 0.0000 0.0000
# 3 37.1425 43.9092 121.6684 0.0000 0.0000 0.0000
# 4 0.0000 0.0000 0.0000 32.1978 0.0000 0.0000
# 5 0.0000 0.0000 0.0000 0.0000 29.3326 0.0000
# 6 0.0000 0.0000 0.0000 0.0000 0.0000 23.7538
#
#
#
# Elastic Compliance Matrix: (Units=1/GPa)
#
#
# Indices 1 2 3 4 5 6 
#
# 1 0.010489 -0.004630 -0.001531 0.000000 0.000000 0.000000
# 2 -0.004630 0.026741 -0.008237 0.000000 0.000000 0.000000
# 3 -0.001531 -0.008237 0.011659 0.000000 0.000000 0.000000
# 4 0.000000 0.000000 0.000000 0.031058 0.000000 0.000000
# 5 0.000000 0.000000 0.000000 0.000000 0.034092 0.000000
# 6 0.000000 0.000000 0.000000 0.000000 0.000000 0.042098
#
#
# Mechanical properties :
#
#
# Convention : Reuss Voigt Hill
#
# Bulk Modulus (GPa) = 49.77056 57.47086 53.62071
# Shear Modulus (GPa) = 26.09173 29.07311 27.58242
#
# Velocity S-wave (km/s) = 3.64859 3.85141 3.75137
# Velocity P-wave (km/s) = 6.56833 7.00713 6.79127
#
# Compressibility (1/GPa) = 0.02009220
#
# Stress axis : x y z
#
# Youngs Moduli (GPa) = 95.33970 37.39557 85.76978
#
# Poissons Ratio (x) = 0.17316 0.13130
# Poissons Ratio (y) = 0.44146 0.70650
# Poissons Ratio (z) = 0.14596 0.30803
#
# Static dielectric constant tensor:
#      x y z
#    x 4.007640 0.000000 0.000000 
#    y 0.000000 3.005330 0.000000 
#    z 0.000000 0.000000 3.852450 
# 
# 
# High freq. dielectric constant tensor:
#      x y z
#    x 1.778930 0.000000 0.000000 
#    y 0.000000 1.738000 0.000000 
#    z 0.000000 0.000000 1.774130 
# 
# From -- ./inp_files/15142.got.cif
#   From: 2010.03.12/outbox.cif.g09.slc.cpg/sg62_8_cif.got.tgz:15142.got - 2010.04.10 19:12:36.
