data_PCOD8251817
_publ_section_title
;
Structure prediction by ZEFSAII (Michael W. Deem and Ramdas Pophale) SiO2 
 PCOD8251817
Probable space group: P N M A
;
_chemical_formula_sum "Si O2"
_cell_formula_units_Z 64
_cell_length_a 19.315235
_cell_length_b 12.547160
_cell_length_c 14.808229
_cell_angle_alpha 90.000000
_cell_angle_beta 90.000000
_cell_angle_gamma 90.000000
_cell_volume 3588.794200
_symmetry_space_group_name_H-M "P N M A"
_symmetry_group_IT_number 62
_symmetry_cell_setting 'orthorhombic'
loop_
_space_group_symop_operation_xyz
x,y,z
1/2-x,-y,1/2+z
1/2+x,1/2-y,1/2-z
-x,1/2+y,-z
-x,-y,-z
1/2+x,y,1/2-z
1/2-x,1/2+y,1/2+z
x,1/2-y,z
loop_
_atom_site_type_symbol
_atom_site_label
_atom_site_fract_x
_atom_site_fract_y
_atom_site_fract_z
Si Si1 0.046222 0.129122 0.136700
Si Si2 0.426117 0.513252 0.283518
Si Si3 0.898487 0.487174 0.553228
Si Si4 0.349181 0.630341 0.791343
Si Si5 0.702537 0.875239 0.777172
Si Si6 0.379832 0.624140 0.461634
Si Si7 0.268668 0.376124 0.019711
Si Si8 0.462342 0.623909 0.098342
O O1 0.017630 0.250000 0.132763
O O2 0.117809 0.124961 0.192040
O O3 0.064486 0.085315 0.036664
O O4 0.989747 0.057184 0.184277
O O5 0.363563 0.436024 0.259535
O O6 0.403526 0.591150 0.362977
O O7 0.449379 0.585391 0.199964
O O8 0.893424 0.556831 0.643043
O O9 0.828320 0.421873 0.543687
O O10 0.908859 0.564042 0.467372
O O11 0.960558 0.403452 0.564860
O O12 0.353765 0.750000 0.829802
O O13 0.268998 0.595587 0.784071
O O14 0.686621 0.750000 0.774108
O O15 0.717932 0.913506 0.878368
O O16 0.375112 0.750000 0.467115
O O17 0.304174 0.576316 0.484594
O O18 0.269687 0.250000 0.011914
O O19 0.450475 0.750000 0.092207
#
# Coordination Sequence:
#
# PCOD8251817 Si02
#       8
#     8   8   8   8   8   8   8   8
#     4  10  20  36  57  83 109 139 188 234 273 327
#     4  12  21  37  55  85 112 152 182 224 286 334
#     4  11  21  38  55  81 108 149 186 221 287 329
#     4  10  19  35  59  82 108 141 182 231 277 326
#     4  10  20  35  57  85 113 140 184 237 278 323
#     4  10  21  37  59  82 110 148 187 230 275 329
#     4  10  19  35  58  82 107 142 189 231 271 328
#     4  11  24  37  52  80 117 147 184 228 275 342
#
# _framework density 17.833288
#
# number of rings (size 3 to 8) (size 9 to 14) (size 15 to 20)
#    0.000    1.500    3.750    2.625    0.000    0.000 
#    0.000    0.000    0.000    0.000    0.000    0.000 
#    0.000    0.000    0.000    0.000    0.000    0.000 
#
# Total GULP energy -793699.483271 kJ/mol
# GULP energy per Si atom -12401.554426 kJ/mol
# Density = 1.779270 g / cm^3
# Si number density = 17.833288 Si / 1000 Ang^3
#
#
#
# Elastic Constant Matrix: (Units=GPa)
#
#
# Indices 1 2 3 4 5 6 
#
# 1 92.7740 32.4748 28.0212 0.0000 0.0000 0.0000
# 2 32.4748 49.4367 30.6229 0.0000 0.0000 0.0000
# 3 28.0212 30.6229 109.3177 0.0000 0.0000 0.0000
# 4 0.0000 0.0000 0.0000 32.3767 0.0000 0.0000
# 5 0.0000 0.0000 0.0000 0.0000 30.6679 0.0000
# 6 0.0000 0.0000 0.0000 0.0000 0.0000 27.6888
#
#
#
# Elastic Compliance Matrix: (Units=1/GPa)
#
#
# Indices 1 2 3 4 5 6 
#
# 1 0.014134 -0.008519 -0.001237 0.000000 0.000000 0.000000
# 2 -0.008519 0.029609 -0.006111 0.000000 0.000000 0.000000
# 3 -0.001237 -0.006111 0.011176 0.000000 0.000000 0.000000
# 4 0.000000 0.000000 0.000000 0.030886 0.000000 0.000000
# 5 0.000000 0.000000 0.000000 0.000000 0.032607 0.000000
# 6 0.000000 0.000000 0.000000 0.000000 0.000000 0.036116
#
#
# Mechanical properties :
#
#
# Convention : Reuss Voigt Hill
#
# Bulk Modulus (GPa) = 43.12669 48.19625 45.66147
# Shear Modulus (GPa) = 25.77440 28.84062 27.30751
#
# Velocity S-wave (km/s) = 3.80583 4.02585 3.91738
# Velocity P-wave (km/s) = 6.59911 6.97815 6.79128
#
# Compressibility (1/GPa) = 0.02318750
#
# Stress axis : x y z
#
# Youngs Moduli (GPa) = 70.74967 33.77345 89.47401
#
# Poissons Ratio (x) = 0.28771 0.11065
# Poissons Ratio (y) = 0.60270 0.54675
# Poissons Ratio (z) = 0.08750 0.20638
#
# Static dielectric constant tensor:
#      x y z
#    x 3.363310 0.000000 0.000000 
#    y 0.000000 3.115620 0.000000 
#    z 0.000000 0.000000 3.390970 
# 
# 
# High freq. dielectric constant tensor:
#      x y z
#    x 1.700800 0.000000 0.000000 
#    y 0.000000 1.677240 0.000000 
#    z 0.000000 0.000000 1.698910 
# 
# From -- ./inp_files/14355.got.cif
#   From: 2010.03.12/outbox.cif.g09.slc.cpg/sg62_8_cif.got.tgz:14355.got - 2010.04.10 19:12:36.
