data_PCOD8251856
_publ_section_title
;
Structure prediction by ZEFSAII (Michael W. Deem and Ramdas Pophale) SiO2 
 PCOD8251856
Probable space group: P N M A
;
_chemical_formula_sum "Si O2"
_cell_formula_units_Z 64
_cell_length_a 10.630800
_cell_length_b 9.261377
_cell_length_c 32.578108
_cell_angle_alpha 90.000000
_cell_angle_beta 90.000000
_cell_angle_gamma 90.000000
_cell_volume 3207.505204
_symmetry_space_group_name_H-M "P N M A"
_symmetry_group_IT_number 62
_symmetry_cell_setting 'orthorhombic'
loop_
_space_group_symop_operation_xyz
x,y,z
1/2-x,-y,1/2+z
1/2+x,1/2-y,1/2-z
-x,1/2+y,-z
-x,-y,-z
1/2+x,y,1/2-z
1/2-x,1/2+y,1/2+z
x,1/2-y,z
loop_
_atom_site_type_symbol
_atom_site_label
_atom_site_fract_x
_atom_site_fract_y
_atom_site_fract_z
Si Si1 0.628811 0.413488 0.369780
Si Si2 0.196598 0.917245 0.985947
Si Si3 0.304008 0.086448 0.058696
Si Si4 0.279273 0.409940 0.862020
Si Si5 0.811907 0.077802 0.216249
Si Si6 0.941613 0.591427 0.076257
Si Si7 0.921125 0.916808 0.576598
Si Si8 0.098397 0.419860 0.221764
O O1 0.574595 0.250000 0.368947
O O2 0.760990 0.419629 0.393685
O O3 0.534843 0.514857 0.393261
O O4 0.641661 0.471836 0.323403
O O5 0.162939 0.750000 0.990046
O O6 0.320254 0.943650 0.958891
O O7 0.078381 0.997244 0.964815
O O8 0.217424 0.982781 0.031121
O O9 0.292319 0.250000 0.041618
O O10 0.446920 0.031708 0.057515
O O11 0.318150 0.250000 0.845673
O O12 0.212315 0.503468 0.827148
O O13 0.188163 0.391472 0.900246
O O14 0.397958 0.494768 0.881236
O O15 0.805597 0.250000 0.210557
O O16 0.702777 0.017506 0.246688
O O17 0.953404 0.032375 0.231400
O O18 0.992902 0.750000 0.063702
O O19 0.926517 0.750000 0.589755
O O20 0.107867 0.250000 0.225106
#
# Coordination Sequence:
#
# PCOD8251856 Si02
#       8
#     8   8   8   8   8   8   8   8
#     4  10  20  36  56  79 108 143 182 228 277 332
#     4  10  20  34  55  80 108 144 187 231 279 332
#     4  10  21  35  53  79 112 145 182 230 283 331
#     4  10  20  34  55  83 109 141 183 225 271 326
#     4  10  19  35  59  85 112 145 184 230 278 333
#     4  10  20  35  56  79 106 142 186 229 274 327
#     4   9  19  35  55  80 109 147 186 227 277 332
#     4   9  19  34  57  85 111 142 184 228 275 331
#
# _framework density 19.953201
#
# number of rings (size 3 to 8) (size 9 to 14) (size 15 to 20)
#    0.000    2.250    1.250    1.500    0.000    4.000 
#    0.000    5.000    0.000    0.000    0.000    0.000 
#    0.000    0.000    0.000    0.000    0.000    0.000 
#
# Total GULP energy -793354.653442 kJ/mol
# GULP energy per Si atom -12396.166460 kJ/mol
# Density = 1.990779 g / cm^3
# Si number density = 19.953201 Si / 1000 Ang^3
#
#
#
# Elastic Constant Matrix: (Units=GPa)
#
#
# Indices 1 2 3 4 5 6 
#
# 1 25.6229 20.1496 35.9112 0.0000 0.0000 0.0000
# 2 20.1496 81.1854 32.2130 0.0000 0.0000 0.0000
# 3 35.9112 32.2130 96.1973 0.0000 0.0000 0.0000
# 4 0.0000 0.0000 0.0000 25.6731 0.0000 0.0000
# 5 0.0000 0.0000 0.0000 0.0000 30.4666 0.0000
# 6 0.0000 0.0000 0.0000 0.0000 0.0000 14.1823
#
#
#
# Elastic Compliance Matrix: (Units=1/GPa)
#
#
# Indices 1 2 3 4 5 6 
#
# 1 0.088657 -0.010231 -0.029670 0.000000 0.000000 0.000000
# 2 -0.010231 0.015386 -0.001333 0.000000 0.000000 0.000000
# 3 -0.029670 -0.001333 0.021918 0.000000 0.000000 0.000000
# 4 0.000000 0.000000 0.000000 0.038951 0.000000 0.000000
# 5 0.000000 0.000000 0.000000 0.000000 0.032823 0.000000
# 6 0.000000 0.000000 0.000000 0.000000 0.000000 0.070510
#
#
# Mechanical properties :
#
#
# Convention : Reuss Voigt Hill
#
# Bulk Modulus (GPa) = 22.99277 42.17257 32.58267
# Shear Modulus (GPa) = 13.69072 21.71320 17.70196
#
# Velocity S-wave (km/s) = 2.62227 3.30238 2.98178
# Velocity P-wave (km/s) = 4.55157 5.97683 5.31222
#
# Compressibility (1/GPa) = 0.04349194
#
# Stress axis : x y z
#
# Youngs Moduli (GPa) = 11.27939 64.99579 45.62523
#
# Poissons Ratio (x) = 0.66500 1.35371
# Poissons Ratio (y) = 0.11540 0.06080
# Poissons Ratio (z) = 0.33466 0.08662
#
# Static dielectric constant tensor:
#      x y z
#    x 3.798470 0.000000 0.000000 
#    y 0.000000 3.669960 0.000000 
#    z 0.000000 0.000000 3.703520 
# 
# 
# High freq. dielectric constant tensor:
#      x y z
#    x 1.777800 0.000000 0.000000 
#    y 0.000000 1.763790 0.000000 
#    z 0.000000 0.000000 1.774930 
# 
# From -- ./inp_files/32488.got.cif
#   From: 2010.03.12/outbox.cif.g09.slc.cpg/sg62_17_cif.got.tgz:32488.got - 2010.04.10 19:12:36.
