data_PCOD8251513
_publ_section_title
;
Structure prediction by ZEFSAII (Michael W. Deem and Ramdas Pophale) SiO2 
 PCOD8251513
Probable space group: P N M A
;
_chemical_formula_sum "Si O2"
_cell_formula_units_Z 64
_cell_length_a 16.950760
_cell_length_b 16.278267
_cell_length_c 11.694835
_cell_angle_alpha 90.000000
_cell_angle_beta 90.000000
_cell_angle_gamma 90.000000
_cell_volume 3226.944093
_symmetry_space_group_name_H-M "P N M A"
_symmetry_group_IT_number 62
_symmetry_cell_setting 'orthorhombic'
loop_
_space_group_symop_operation_xyz
x,y,z
1/2-x,-y,1/2+z
1/2+x,1/2-y,1/2-z
-x,1/2+y,-z
-x,-y,-z
1/2+x,y,1/2-z
1/2-x,1/2+y,1/2+z
x,1/2-y,z
loop_
_atom_site_type_symbol
_atom_site_label
_atom_site_fract_x
_atom_site_fract_y
_atom_site_fract_z
Si Si1 0.809760 0.160634 0.761477
Si Si2 0.597124 0.002347 0.756872
Si Si3 0.917334 0.493574 0.730601
Si Si4 0.263017 0.161129 0.490681
Si Si5 0.663006 0.015881 0.004810
Si Si6 0.799065 0.902888 0.074100
Si Si7 0.085246 0.841201 0.856459
Si Si8 0.406791 0.843696 0.625516
O O1 0.854241 0.250000 0.754253
O O2 0.755438 0.159470 0.872988
O O3 0.751215 0.157514 0.653693
O O4 0.866568 0.082695 0.776073
O O5 0.506875 0.030014 0.741635
O O6 0.599579 0.903136 0.748966
O O7 0.628495 0.029093 0.879544
O O8 0.648264 0.038740 0.654114
O O9 0.906105 0.493239 0.593165
O O10 0.889325 0.581246 0.785528
O O11 0.240644 0.250000 0.440250
O O12 0.198755 0.099212 0.441740
O O13 0.352888 0.138890 0.456788
O O14 0.735854 0.952898 0.998621
O O15 0.854504 0.853073 0.988000
O O16 0.096908 0.750000 0.805524
O O17 0.998404 0.851684 0.910656
O O18 0.391658 0.750000 0.674681
#
# Coordination Sequence:
#
# PCOD8251513 Si02
#       8
#     8   8   8   8   8   8   8   8
#     4  10  21  39  57  86 123 159 200 246 299 360
#     4  11  22  39  61  87 122 161 200 248 299 364
#     4  10  24  39  63  86 119 165 201 246 299 356
#     4  10  19  33  56  83 117 156 201 247 295 355
#     4  11  22  40  58  85 120 158 206 246 298 356
#     4  11  22  35  63  87 121 156 199 249 309 355
#     4   9  20  37  59  90 120 156 200 247 301 355
#     4  10  22  39  61  92 124 154 197 250 302 357
#
# _framework density 19.833006999999998
#
# number of rings (size 3 to 8) (size 9 to 14) (size 15 to 20)
#    0.000    1.750    2.500    1.500    3.500    1.500 
#    0.000    5.625    0.000    3.000    0.000    0.000 
#    0.000    0.000    0.000    0.000    0.000    0.000 
#
# Total GULP energy -793058.840029 kJ/mol
# GULP energy per Si atom -12391.544375 kJ/mol
# Density = 1.978787 g / cm^3
# Si number density = 19.833007 Si / 1000 Ang^3
#
#
#
# Elastic Constant Matrix: (Units=GPa)
#
#
# Indices 1 2 3 4 5 6 
#
# 1 66.6241 38.5933 19.7808 0.0000 0.0000 0.0000
# 2 38.5933 127.6625 17.6389 0.0000 0.0000 0.0000
# 3 19.7808 17.6389 49.0558 0.0000 0.0000 0.0000
# 4 0.0000 0.0000 0.0000 25.9001 0.0000 0.0000
# 5 0.0000 0.0000 0.0000 0.0000 26.2641 0.0000
# 6 0.0000 0.0000 0.0000 0.0000 0.0000 28.5260
#
#
#
# Elastic Compliance Matrix: (Units=1/GPa)
#
#
# Indices 1 2 3 4 5 6 
#
# 1 0.019810 -0.005140 -0.006140 0.000000 0.000000 0.000000
# 2 -0.005140 0.009577 -0.001371 0.000000 0.000000 0.000000
# 3 -0.006140 -0.001371 0.023354 0.000000 0.000000 0.000000
# 4 0.000000 0.000000 0.000000 0.038610 0.000000 0.000000
# 5 0.000000 0.000000 0.000000 0.000000 0.038075 0.000000
# 6 0.000000 0.000000 0.000000 0.000000 0.000000 0.035056
#
#
# Mechanical properties :
#
#
# Convention : Reuss Voigt Hill
#
# Bulk Modulus (GPa) = 36.44501 43.92984 40.18743
# Shear Modulus (GPa) = 25.13464 27.29331 26.21397
#
# Velocity S-wave (km/s) = 3.56380 3.71368 3.63951
# Velocity P-wave (km/s) = 5.94559 6.37076 6.16184
#
# Compressibility (1/GPa) = 0.02743860
#
# Stress axis : x y z
#
# Youngs Moduli (GPa) = 50.47906 104.42192 42.82007
#
# Poissons Ratio (x) = 0.53678 0.26290
# Poissons Ratio (y) = 0.25949 0.05869
# Poissons Ratio (z) = 0.30993 0.14312
#
# Static dielectric constant tensor:
#      x y z
#    x 3.582040 0.000000 0.000000 
#    y 0.000000 3.894770 0.000000 
#    z 0.000000 0.000000 3.350520 
# 
# 
# High freq. dielectric constant tensor:
#      x y z
#    x 1.770270 0.000000 0.000000 
#    y 0.000000 1.784870 0.000000 
#    z 0.000000 0.000000 1.758770 
# 
# From -- ./inp_files/14342.got.cif
#   From: 2010.03.12/outbox.cif.g09.slc.cpg/sg62_8_cif.got.tgz:14342.got - 2010.04.10 19:12:36.
