data_PCOD8251646
_publ_section_title
;
Structure prediction by ZEFSAII (Michael W. Deem and Ramdas Pophale) SiO2 
 PCOD8251646
Probable space group: P N M A
;
_chemical_formula_sum "Si O2"
_cell_formula_units_Z 48
_cell_length_a 10.002437
_cell_length_b 9.174113
_cell_length_c 29.350324
_cell_angle_alpha 90.000000
_cell_angle_beta 90.000000
_cell_angle_gamma 90.000000
_cell_volume 2693.288084
_symmetry_space_group_name_H-M "P N M A"
_symmetry_group_IT_number 62
_symmetry_cell_setting 'orthorhombic'
loop_
_space_group_symop_operation_xyz
x,y,z
1/2-x,-y,1/2+z
1/2+x,1/2-y,1/2-z
-x,1/2+y,-z
-x,-y,-z
1/2+x,y,1/2-z
1/2-x,1/2+y,1/2+z
x,1/2-y,z
loop_
_atom_site_type_symbol
_atom_site_label
_atom_site_fract_x
_atom_site_fract_y
_atom_site_fract_z
Si Si1 0.222959 0.418054 0.381961
Si Si2 0.717263 0.580201 0.208686
Si Si3 0.392459 0.420175 0.530907
Si Si4 0.378645 0.581920 0.977789
Si Si5 0.524130 0.921138 0.289440
Si Si6 0.464867 0.919472 0.618840
O O1 0.191365 0.250000 0.373070
O O2 0.172478 0.504534 0.338013
O O3 0.146995 0.477498 0.426624
O O4 0.379225 0.441950 0.390953
O O5 0.700676 0.750000 0.200314
O O6 0.869855 0.540785 0.222165
O O7 0.617199 0.526628 0.247971
O O8 0.500000 0.500000 0.500000
O O9 0.430211 0.250000 0.534883
O O10 0.249595 0.443726 0.508648
O O11 0.384244 0.493560 0.580429
O O12 0.416274 0.750000 0.974993
O O13 0.500000 0.500000 0.000000
O O14 0.541700 0.750000 0.299635
O O15 0.574194 0.011890 0.332748
O O16 0.424194 0.750000 0.618073
#
# Coordination Sequence:
#
# PCOD8251646 Si02
#       6
#     8   8   8   8   8   8
#     4   9  18  35  55  76 107 140 176 219 263 316
#     4   9  18  33  54  77 102 135 175 216 262 316
#     4  11  21  36  58  83 110 141 181 225 269 319
#     4  10  22  39  55  78 112 146 180 223 270 321
#     4   9  18  34  53  76 105 137 175 219 266 317
#     4  10  19  34  56  82 108 138 180 225 268 317
#
# _framework density 17.822081000000001
#
# number of rings (size 3 to 8) (size 9 to 14) (size 15 to 20)
#    0.000    2.333    1.667    1.000    0.000    3.333 
#    3.000    0.000    0.000    0.000    0.000    0.000 
#    0.000    0.000    0.000    0.000    0.000    0.000 
#
# Total GULP energy -595279.678580 kJ/mol
# GULP energy per Si atom -12401.659970 kJ/mol
# Density = 1.778152 g / cm^3
# Si number density = 17.822081 Si / 1000 Ang^3
#
#
#
# Elastic Constant Matrix: (Units=GPa)
#
#
# Indices 1 2 3 4 5 6 
#
# 1 67.1635 50.9863 74.0930 0.0000 0.0000 0.0000
# 2 50.9863 85.9616 80.2853 0.0000 0.0000 0.0000
# 3 74.0930 80.2853 187.4070 0.0000 0.0000 0.0000
# 4 0.0000 0.0000 0.0000 38.8901 0.0000 0.0000
# 5 0.0000 0.0000 0.0000 0.0000 33.3142 0.0000
# 6 0.0000 0.0000 0.0000 0.0000 0.0000 24.9277
#
#
#
# Elastic Compliance Matrix: (Units=1/GPa)
#
#
# Indices 1 2 3 4 5 6 
#
# 1 0.032586 -0.012161 -0.007673 0.000000 0.000000 0.000000
# 2 -0.012161 0.023931 -0.005444 0.000000 0.000000 0.000000
# 3 -0.007673 -0.005444 0.010702 0.000000 0.000000 0.000000
# 4 0.000000 0.000000 0.000000 0.025714 0.000000 0.000000
# 5 0.000000 0.000000 0.000000 0.000000 0.030017 0.000000
# 6 0.000000 0.000000 0.000000 0.000000 0.000000 0.040116
#
#
# Mechanical properties :
#
#
# Convention : Reuss Voigt Hill
#
# Bulk Modulus (GPa) = 60.01727 83.47348 71.74537
# Shear Modulus (GPa) = 22.81275 28.43758 25.62516
#
# Velocity S-wave (km/s) = 3.58163 3.99888 3.79599
# Velocity P-wave (km/s) = 7.13113 8.26197 7.71729
#
# Compressibility (1/GPa) = 0.01666187
#
# Stress axis : x y z
#
# Youngs Moduli (GPa) = 30.68805 41.78751 93.44144
#
# Poissons Ratio (x) = 0.50818 0.71701
# Poissons Ratio (y) = 0.37320 0.50869
# Poissons Ratio (z) = 0.23548 0.22749
#
# Static dielectric constant tensor:
#      x y z
#    x 3.094930 0.000000 0.000000 
#    y 0.000000 3.348810 0.000000 
#    z 0.000000 0.000000 3.464830 
# 
# 
# High freq. dielectric constant tensor:
#      x y z
#    x 1.672050 0.000000 0.000000 
#    y 0.000000 1.691210 0.000000 
#    z 0.000000 0.000000 1.702760 
# 
# From -- ./inp_files/31945.got.cif
#   From: 2010.03.12/outbox.cif.g09.slc.cpg/sg62_16_cif.got.tgz:31945.got - 2010.04.10 19:12:36.
