data_PCOD8251563
_publ_section_title
;
Structure prediction by ZEFSAII (Michael W. Deem and Ramdas Pophale) SiO2 
 PCOD8251563
Probable space group: P N M A
;
_chemical_formula_sum "Si O2"
_cell_formula_units_Z 64
_cell_length_a 9.710026
_cell_length_b 20.806837
_cell_length_c 18.119311
_cell_angle_alpha 90.000000
_cell_angle_beta 90.000000
_cell_angle_gamma 90.000000
_cell_volume 3660.733698
_symmetry_space_group_name_H-M "P N M A"
_symmetry_group_IT_number 62
_symmetry_cell_setting 'orthorhombic'
loop_
_space_group_symop_operation_xyz
x,y,z
1/2-x,-y,1/2+z
1/2+x,1/2-y,1/2-z
-x,1/2+y,-z
-x,-y,-z
1/2+x,y,1/2-z
1/2-x,1/2+y,1/2+z
x,1/2-y,z
loop_
_atom_site_type_symbol
_atom_site_label
_atom_site_fract_x
_atom_site_fract_y
_atom_site_fract_z
Si Si1 0.878172 0.976997 0.314011
Si Si2 0.072516 0.176385 0.423651
Si Si3 0.914492 0.061269 0.977858
Si Si4 0.043201 0.388814 0.111820
Si Si5 0.663632 0.880359 0.838875
Si Si6 0.595032 0.058857 0.973204
Si Si7 0.311246 0.323301 0.313966
Si Si8 0.936429 0.473043 0.821543
O O1 0.917306 0.933370 0.384604
O O2 0.911539 0.050494 0.337307
O O3 0.718636 0.974023 0.290891
O O4 0.965454 0.951101 0.244842
O O5 0.082607 0.250000 0.452832
O O6 0.049091 0.126722 0.490923
O O7 0.209674 0.155808 0.379763
O O8 0.945048 0.171994 0.367016
O O9 0.754312 0.045286 0.992873
O O10 0.941901 0.076573 0.891057
O O11 0.973359 0.117424 0.030418
O O12 0.000000 0.000000 0.000000
O O13 0.206504 0.378325 0.105417
O O14 0.014549 0.457428 0.150085
O O15 0.968970 0.335092 0.161595
O O16 0.722704 0.864685 0.758153
O O17 0.500000 0.000000 0.000000
O O18 0.288955 0.250000 0.292739
#
# Coordination Sequence:
#
# PCOD8251563 Si02
#       8
#     8   8   8   8   8   8   8   8
#     4  10  20  32  52  82 108 140 173 222 280 326
#     4  11  24  39  54  77 112 151 191 233 272 324
#     4   9  19  34  52  78 109 141 175 225 273 322
#     4  10  19  34  53  72 109 148 181 221 263 317
#     4  11  21  33  50  80 112 146 186 224 263 316
#     4  11  21  36  58  81 108 142 192 228 277 332
#     4  11  22  35  53  74 106 156 191 215 260 319
#     4   9  19  32  49  78 110 132 169 218 279 321
#
# _framework density 17.482832999999999
#
# number of rings (size 3 to 8) (size 9 to 14) (size 15 to 20)
#    0.000    1.750    3.750    1.875    1.750    4.000 
#    0.000    0.000    0.000    0.000    0.000    4.375 
#    0.000    0.000    0.000    0.000    0.000    0.000 
#
# Total GULP energy -793371.036201 kJ/mol
# GULP energy per Si atom -12396.422441 kJ/mol
# Density = 1.744304 g / cm^3
# Si number density = 17.482833 Si / 1000 Ang^3
#
#
#
# Elastic Constant Matrix: (Units=GPa)
#
#
# Indices 1 2 3 4 5 6 
#
# 1 88.3003 22.1482 49.6992 0.0000 0.0000 0.0000
# 2 22.1482 63.7131 40.7599 0.0000 0.0000 0.0000
# 3 49.6992 40.7599 108.7129 0.0000 0.0000 0.0000
# 4 0.0000 0.0000 0.0000 24.1379 0.0000 0.0000
# 5 0.0000 0.0000 0.0000 0.0000 32.4551 0.0000
# 6 0.0000 0.0000 0.0000 0.0000 0.0000 16.5237
#
#
#
# Elastic Compliance Matrix: (Units=1/GPa)
#
#
# Indices 1 2 3 4 5 6 
#
# 1 0.015308 -0.001111 -0.006582 0.000000 0.000000 0.000000
# 2 -0.001111 0.020729 -0.007264 0.000000 0.000000 0.000000
# 3 -0.006582 -0.007264 0.014931 0.000000 0.000000 0.000000
# 4 0.000000 0.000000 0.000000 0.041429 0.000000 0.000000
# 5 0.000000 0.000000 0.000000 0.000000 0.030812 0.000000
# 6 0.000000 0.000000 0.000000 0.000000 0.000000 0.060519
#
#
# Mechanical properties :
#
#
# Convention : Reuss Voigt Hill
#
# Bulk Modulus (GPa) = 47.49580 53.99344 50.74462
# Shear Modulus (GPa) = 22.65943 24.49792 23.57868
#
# Velocity S-wave (km/s) = 3.60404 3.74740 3.67642
# Velocity P-wave (km/s) = 6.67420 7.04803 6.86366
#
# Compressibility (1/GPa) = 0.02105449
#
# Stress axis : x y z
#
# Youngs Moduli (GPa) = 65.32471 48.24255 66.97488
#
# Poissons Ratio (x) = 0.05359 0.44081
# Poissons Ratio (y) = 0.07257 0.48650
# Poissons Ratio (z) = 0.42995 0.35043
#
# Static dielectric constant tensor:
#      x y z
#    x 3.338990 0.000000 0.000000 
#    y 0.000000 3.085280 0.000000 
#    z 0.000000 0.000000 3.629950 
# 
# 
# High freq. dielectric constant tensor:
#      x y z
#    x 1.689660 0.000000 0.000000 
#    y 0.000000 1.627690 0.000000 
#    z 0.000000 0.000000 1.674520 
# 
# From -- ./inp_files/22637.got.cif
#   From: 2010.03.12/outbox.cif.g09.slc.cpg/sg62_12_cif.got.tgz:22637.got - 2010.04.10 19:12:36.
