data_PCOD8251378
_publ_section_title
;
Structure prediction by ZEFSAII (Michael W. Deem and Ramdas Pophale) SiO2 
 PCOD8251378
Probable space group: P N M A
;
_chemical_formula_sum "Si O2"
_cell_formula_units_Z 64
_cell_length_a 25.800947
_cell_length_b 9.324959
_cell_length_c 14.698304
_cell_angle_alpha 90.000000
_cell_angle_beta 90.000000
_cell_angle_gamma 90.000000
_cell_volume 3536.305717
_symmetry_space_group_name_H-M "P N M A"
_symmetry_group_IT_number 62
_symmetry_cell_setting 'orthorhombic'
loop_
_space_group_symop_operation_xyz
x,y,z
1/2-x,-y,1/2+z
1/2+x,1/2-y,1/2-z
-x,1/2+y,-z
-x,-y,-z
1/2+x,y,1/2-z
1/2-x,1/2+y,1/2+z
x,1/2-y,z
loop_
_atom_site_type_symbol
_atom_site_label
_atom_site_fract_x
_atom_site_fract_y
_atom_site_fract_z
Si Si1 0.210146 0.416112 0.004466
Si Si2 0.498303 0.917048 0.093726
Si Si3 0.861583 0.084179 0.868606
Si Si4 0.105379 0.919918 0.326582
Si Si5 0.828080 0.080393 0.504136
Si Si6 0.374791 0.914987 0.359080
Si Si7 0.615505 0.414771 0.847648
Si Si8 0.447808 0.083759 0.482419
O O1 0.207794 0.250000 0.030416
O O2 0.187336 0.501294 0.090161
O O3 0.268556 0.467124 0.986359
O O4 0.178186 0.448839 0.912699
O O5 0.504033 0.750000 0.070543
O O6 0.546133 0.969070 0.156492
O O7 0.445501 0.951190 0.147025
O O8 0.500000 0.000000 0.000000
O O9 0.845752 0.250000 0.862926
O O10 0.874436 0.018245 0.769425
O O11 0.912131 0.061673 0.929753
O O12 0.108511 0.750000 0.321635
O O13 0.141524 0.979029 0.407772
O O14 0.834198 0.250000 0.496467
O O15 0.851867 0.013768 0.413842
O O16 0.392138 0.750000 0.373238
O O17 0.364730 0.948025 0.253679
O O18 0.420431 0.017022 0.394129
O O19 0.625382 0.250000 0.874443
O O20 0.459529 0.250000 0.463640
O O21 0.500000 0.000000 0.500000
#
# Coordination Sequence:
#
# PCOD8251378 Si02
#       8
#     8   8   8   8   8   8   8   8
#     4   9  19  36  55  76 104 136 172 217 266 310
#     4  10  19  33  53  76 106 139 172 213 262 310
#     4   9  19  35  56  78 102 136 176 217 259 308
#     4   9  18  33  54  78 104 137 175 211 253 312
#     4  10  20  35  55  76 103 140 176 213 261 315
#     4   9  19  36  55  75 104 138 175 221 266 313
#     4  10  21  34  54  82 107 137 177 220 263 309
#     4  10  20  33  52  78 107 140 177 216 263 314
#
# _framework density 18.097982999999999
#
# number of rings (size 3 to 8) (size 9 to 14) (size 15 to 20)
#    0.000    2.500    1.250    0.375    1.750    2.500 
#    0.000    3.750    0.000    0.000    0.000    0.000 
#    0.000    0.000    0.000    0.000    0.000    0.000 
#
# Total GULP energy -793702.934003 kJ/mol
# GULP energy per Si atom -12401.608344 kJ/mol
# Density = 1.805679 g / cm^3
# Si number density = 18.097983 Si / 1000 Ang^3
#
#
#
# Elastic Constant Matrix: (Units=GPa)
#
#
# Indices 1 2 3 4 5 6 
#
# 1 136.2389 44.7652 55.5573 0.0000 0.0000 0.0000
# 2 44.7652 51.9200 37.5417 0.0000 0.0000 0.0000
# 3 55.5573 37.5417 132.5681 0.0000 0.0000 0.0000
# 4 0.0000 0.0000 0.0000 28.7346 0.0000 0.0000
# 5 0.0000 0.0000 0.0000 0.0000 14.5424 0.0000
# 6 0.0000 0.0000 0.0000 0.0000 0.0000 28.1684
#
#
#
# Elastic Compliance Matrix: (Units=1/GPa)
#
#
# Indices 1 2 3 4 5 6 
#
# 1 0.010806 -0.007598 -0.002377 0.000000 0.000000 0.000000
# 2 -0.007598 0.029562 -0.005187 0.000000 0.000000 0.000000
# 3 -0.002377 -0.005187 0.010008 0.000000 0.000000 0.000000
# 4 0.000000 0.000000 0.000000 0.034801 0.000000 0.000000
# 5 0.000000 0.000000 0.000000 0.000000 0.068765 0.000000
# 6 0.000000 0.000000 0.000000 0.000000 0.000000 0.035501
#
#
# Mechanical properties :
#
#
# Convention : Reuss Voigt Hill
#
# Bulk Modulus (GPa) = 49.87097 66.27281 58.07189
# Shear Modulus (GPa) = 22.07970 26.47992 24.27981
#
# Velocity S-wave (km/s) = 3.49665 3.82925 3.66673
# Velocity P-wave (km/s) = 6.62707 7.49995 7.07698
#
# Compressibility (1/GPa) = 0.02005175
#
# Stress axis : x y z
#
# Youngs Moduli (GPa) = 92.54198 33.82681 99.91573
#
# Poissons Ratio (x) = 0.25702 0.23749
# Poissons Ratio (y) = 0.70315 0.51831
# Poissons Ratio (z) = 0.21996 0.17547
#
# Static dielectric constant tensor:
#      x y z
#    x 3.505190 0.000000 0.000000 
#    y 0.000000 3.296960 0.000000 
#    z 0.000000 0.000000 3.522690 
# 
# 
# High freq. dielectric constant tensor:
#      x y z
#    x 1.707100 0.000000 0.000000 
#    y 0.000000 1.684320 0.000000 
#    z 0.000000 0.000000 1.704550 
# 
# From -- ./inp_files/20936.got.cif
#   From: 2010.03.12/outbox.cif.g09.slc.cpg/sg62_11_cif.got.tgz:20936.got - 2010.04.10 19:12:36.
