data_PCOD8251607
_publ_section_title
;
Structure prediction by ZEFSAII (Michael W. Deem and Ramdas Pophale) SiO2 
 PCOD8251607
Probable space group: P N M A
;
_chemical_formula_sum "Si O2"
_cell_formula_units_Z 56
_cell_length_a 21.207697
_cell_length_b 8.592489
_cell_length_c 15.318527
_cell_angle_alpha 90.000000
_cell_angle_beta 90.000000
_cell_angle_gamma 90.000000
_cell_volume 2791.447737
_symmetry_space_group_name_H-M "P N M A"
_symmetry_group_IT_number 62
_symmetry_cell_setting 'orthorhombic'
loop_
_space_group_symop_operation_xyz
x,y,z
1/2-x,-y,1/2+z
1/2+x,1/2-y,1/2-z
-x,1/2+y,-z
-x,-y,-z
1/2+x,y,1/2-z
1/2-x,1/2+y,1/2+z
x,1/2-y,z
loop_
_atom_site_type_symbol
_atom_site_label
_atom_site_fract_x
_atom_site_fract_y
_atom_site_fract_z
Si Si1 0.644013 0.077973 0.938774
Si Si2 0.272808 0.936091 0.320298
Si Si3 0.266692 0.571403 0.515579
Si Si4 0.096348 0.068024 0.742942
Si Si5 0.541139 0.568389 0.255652
Si Si6 0.169620 0.433531 0.186854
Si Si7 0.457912 0.575189 0.926776
O O1 0.672282 0.250000 0.916319
O O2 0.596214 0.029061 0.860796
O O3 0.698151 0.950366 0.942742
O O4 0.611426 0.085867 0.032294
O O5 0.270101 0.750000 0.319415
O O6 0.269558 0.005942 0.419162
O O7 0.339968 0.002114 0.285013
O O8 0.214303 0.992654 0.261304
O O9 0.282526 0.750000 0.502186
O O10 0.314034 0.503074 0.589287
O O11 0.096468 0.250000 0.759857
O O12 0.029498 0.006817 0.783192
O O13 0.549909 0.750000 0.276361
O O14 0.595955 0.472560 0.302534
O O15 0.546981 0.542397 0.152785
O O16 0.179734 0.250000 0.193019
O O17 0.480601 0.750000 0.900154
O O18 0.500000 0.500000 0.000000
#
# Coordination Sequence:
#
# PCOD8251607 Si02
#       7
#     8   8   8   8   8   8   8
#     4  10  19  34  55  79 109 146 185 230 279 335
#     4  10  20  39  64  85 109 152 198 237 283 340
#     4  10  22  37  57  85 114 144 187 239 289 340
#     4   9  18  35  58  82 108 143 192 237 276 330
#     4  11  22  38  57  81 113 152 197 239 284 345
#     4  11  23  39  56  85 122 151 183 236 296 346
#     4  11  21  33  51  80 116 150 184 229 286 348
#
# _framework density 20.061275999999999
#
# number of rings (size 3 to 8) (size 9 to 14) (size 15 to 20)
#    0.000    1.714    2.857    2.143    0.000    4.571 
#    0.000    2.143    0.000    0.000    0.000    0.000 
#    0.000    0.000    0.000    0.000    0.000    0.000 
#
# Total GULP energy -693864.428781 kJ/mol
# GULP energy per Si atom -12390.436228 kJ/mol
# Density = 2.001562 g / cm^3
# Si number density = 20.061276 Si / 1000 Ang^3
#
#
#
# Elastic Constant Matrix: (Units=GPa)
#
#
# Indices 1 2 3 4 5 6 
#
# 1 131.1597 12.4202 32.7336 0.0000 0.0000 0.0000
# 2 12.4202 28.9563 13.9838 0.0000 0.0000 0.0000
# 3 32.7336 13.9838 88.6855 0.0000 0.0000 0.0000
# 4 0.0000 0.0000 0.0000 21.1587 0.0000 0.0000
# 5 0.0000 0.0000 0.0000 0.0000 30.7218 0.0000
# 6 0.0000 0.0000 0.0000 0.0000 0.0000 26.3580
#
#
#
# Elastic Compliance Matrix: (Units=1/GPa)
#
#
# Indices 1 2 3 4 5 6 
#
# 1 0.008539 -0.002317 -0.002786 0.000000 0.000000 0.000000
# 2 -0.002317 0.038010 -0.005138 0.000000 0.000000 0.000000
# 3 -0.002786 -0.005138 0.013114 0.000000 0.000000 0.000000
# 4 0.000000 0.000000 0.000000 0.047262 0.000000 0.000000
# 5 0.000000 0.000000 0.000000 0.000000 0.032550 0.000000
# 6 0.000000 0.000000 0.000000 0.000000 0.000000 0.037939
#
#
# Mechanical properties :
#
#
# Convention : Reuss Voigt Hill
#
# Bulk Modulus (GPa) = 25.52301 40.78629 33.15465
# Shear Modulus (GPa) = 23.70141 28.29198 25.99669
#
# Velocity S-wave (km/s) = 3.44095 3.75944 3.60372
# Velocity P-wave (km/s) = 5.34201 6.26255 5.82050
#
# Compressibility (1/GPa) = 0.03918033
#
# Stress axis : x y z
#
# Youngs Moduli (GPa) = 117.10822 26.30891 76.25186
#
# Poissons Ratio (x) = 0.06096 0.21247
# Poissons Ratio (y) = 0.27134 0.39179
# Poissons Ratio (z) = 0.32631 0.13518
#
# Static dielectric constant tensor:
#      x y z
#    x 3.911550 0.000000 0.000000 
#    y 0.000000 3.475620 0.000000 
#    z 0.000000 0.000000 4.170180 
# 
# 
# High freq. dielectric constant tensor:
#      x y z
#    x 1.789080 0.000000 0.000000 
#    y 0.000000 1.760240 0.000000 
#    z 0.000000 0.000000 1.773470 
# 
# From -- ./inp_files/20369.got.cif
#   From: 2010.03.12/outbox.cif.g09.slc.cpg/sg62_11_cif.got.tgz:20369.got - 2010.04.10 19:12:36.
