data_PCOD8251679
_publ_section_title
;
Structure prediction by ZEFSAII (Michael W. Deem and Ramdas Pophale) SiO2 
 PCOD8251679
Probable space group: P N M A
;
_chemical_formula_sum "Si O2"
_cell_formula_units_Z 48
_cell_length_a 28.753047
_cell_length_b 8.794370
_cell_length_c 10.327328
_cell_angle_alpha 90.000000
_cell_angle_beta 90.000000
_cell_angle_gamma 90.000000
_cell_volume 2611.419113
_symmetry_space_group_name_H-M "P N M A"
_symmetry_group_IT_number 62
_symmetry_cell_setting 'orthorhombic'
loop_
_space_group_symop_operation_xyz
x,y,z
1/2-x,-y,1/2+z
1/2+x,1/2-y,1/2-z
-x,1/2+y,-z
-x,-y,-z
1/2+x,y,1/2-z
1/2-x,1/2+y,1/2+z
x,1/2-y,z
loop_
_atom_site_type_symbol
_atom_site_label
_atom_site_fract_x
_atom_site_fract_y
_atom_site_fract_z
Si Si1 0.522329 0.570432 0.873945
Si Si2 0.719013 0.572010 0.497877
Si Si3 0.477645 0.074234 0.625354
Si Si4 0.283923 0.929691 0.230644
Si Si5 0.114125 0.923111 0.992853
Si Si6 0.389523 0.927627 0.228739
O O1 0.520353 0.750000 0.882772
O O2 0.492947 0.515736 0.751311
O O3 0.575909 0.517181 0.866038
O O4 0.500000 0.500000 0.000000
O O5 0.727279 0.750000 0.512003
O O6 0.751517 0.505769 0.384025
O O7 0.733341 0.497672 0.633677
O O8 0.665784 0.532399 0.459972
O O9 0.492988 0.250000 0.637113
O O10 0.421565 0.059504 0.612055
O O11 0.500000 0.000000 0.500000
O O12 0.280061 0.750000 0.242859
O O13 0.336785 0.979848 0.199620
O O14 0.113574 0.750000 0.939615
O O15 0.097670 0.032350 0.876793
O O16 0.396644 0.750000 0.205898
#
# Coordination Sequence:
#
# PCOD8251679 Si02
#       6
#     8   8   8   8   8   8
#     4  12  25  41  58  80 112 149 187 232 282 337
#     4   9  18  35  56  79 111 144 180 225 270 325
#     4  11  21  35  58  86 114 146 184 226 271 325
#     4   9  19  35  56  82 112 143 180 227 276 326
#     4   9  18  33  56  82 109 143 185 226 269 324
#     4  10  19  34  57  81 110 146 185 227 275 332
#
# _framework density 18.38081
#
# number of rings (size 3 to 8) (size 9 to 14) (size 15 to 20)
#    0.000    2.000    1.667    2.500    0.000    2.000 
#    3.000    0.000    0.000    0.000    0.000    0.000 
#    0.000    0.000    0.000    0.000    0.000    0.000 
#
# Total GULP energy -595253.953854 kJ/mol
# GULP energy per Si atom -12401.124039 kJ/mol
# Density = 1.833897 g / cm^3
# Si number density = 18.380810 Si / 1000 Ang^3
#
#
#
# Elastic Constant Matrix: (Units=GPa)
#
#
# Indices 1 2 3 4 5 6 
#
# 1 113.9479 38.8317 78.6823 0.0000 0.0000 0.0000
# 2 38.8317 90.1852 48.3501 0.0000 0.0000 0.0000
# 3 78.6823 48.3501 138.3444 0.0000 0.0000 0.0000
# 4 0.0000 0.0000 0.0000 33.3823 0.0000 0.0000
# 5 0.0000 0.0000 0.0000 0.0000 35.9108 0.0000
# 6 0.0000 0.0000 0.0000 0.0000 0.0000 25.5163
#
#
#
# Elastic Compliance Matrix: (Units=1/GPa)
#
#
# Indices 1 2 3 4 5 6 
#
# 1 0.014827 -0.002293 -0.007631 0.000000 0.000000 0.000000
# 2 -0.002293 0.013999 -0.003589 0.000000 0.000000 0.000000
# 3 -0.007631 -0.003589 0.012823 0.000000 0.000000 0.000000
# 4 0.000000 0.000000 0.000000 0.029956 0.000000 0.000000
# 5 0.000000 0.000000 0.000000 0.000000 0.027847 0.000000
# 6 0.000000 0.000000 0.000000 0.000000 0.000000 0.039191
#
#
# Mechanical properties :
#
#
# Convention : Reuss Voigt Hill
#
# Bulk Modulus (GPa) = 68.38305 74.91174 71.64740
# Shear Modulus (GPa) = 29.31820 30.73612 30.02716
#
# Velocity S-wave (km/s) = 3.99813 4.09367 4.04618
# Velocity P-wave (km/s) = 7.65491 7.94909 7.80339
#
# Compressibility (1/GPa) = 0.01462351
#
# Stress axis : x y z
#
# Youngs Moduli (GPa) = 67.44552 71.43128 77.98607
#
# Poissons Ratio (x) = 0.16378 0.59514
# Poissons Ratio (y) = 0.15464 0.27987
# Poissons Ratio (z) = 0.51470 0.25634
#
# Static dielectric constant tensor:
#      x y z
#    x 3.808640 0.000000 0.000000 
#    y 0.000000 3.406400 0.000000 
#    z 0.000000 0.000000 3.298610 
# 
# 
# High freq. dielectric constant tensor:
#      x y z
#    x 1.725270 0.000000 0.000000 
#    y 0.000000 1.717020 0.000000 
#    z 0.000000 0.000000 1.694000 
# 
# From -- ./inp_files/10227.got.cif
#   From: 2010.03.12/outbox.cif.g09.slc.cpg/sg62_6_cif.got.tgz:10227.got - 2010.04.10 19:12:36.
