data_PCOD8251225
_publ_section_title
;
Structure prediction by ZEFSAII (Michael W. Deem and Ramdas Pophale) SiO2 
 PCOD8251225
Probable space group: P N M A
;
_chemical_formula_sum "Si O2"
_cell_formula_units_Z 64
_cell_length_a 8.916150
_cell_length_b 11.215029
_cell_length_c 34.096708
_cell_angle_alpha 90.000000
_cell_angle_beta 90.000000
_cell_angle_gamma 90.000000
_cell_volume 3409.496253
_symmetry_space_group_name_H-M "P N M A"
_symmetry_group_IT_number 62
_symmetry_cell_setting 'orthorhombic'
loop_
_space_group_symop_operation_xyz
x,y,z
1/2-x,-y,1/2+z
1/2+x,1/2-y,1/2-z
-x,1/2+y,-z
-x,-y,-z
1/2+x,y,1/2-z
1/2-x,1/2+y,1/2+z
x,1/2-y,z
loop_
_atom_site_type_symbol
_atom_site_label
_atom_site_fract_x
_atom_site_fract_y
_atom_site_fract_z
Si Si1 0.832347 0.612111 0.387641
Si Si2 0.863194 0.889187 0.915161
Si Si3 0.810881 0.112640 0.114501
Si Si4 0.178712 0.881057 0.513353
Si Si5 0.566327 0.497336 0.060827
Si Si6 0.369863 0.993183 0.747711
Si Si7 0.604647 0.384709 0.798495
Si Si8 0.138631 0.615460 0.799776
O O1 0.766364 0.750000 0.391176
O O2 0.716156 0.500449 0.392362
O O3 0.904223 0.592892 0.344928
O O4 0.962047 0.601386 0.420703
O O5 0.818245 0.750000 0.901990
O O6 0.829415 0.904580 0.961535
O O7 0.039700 0.906742 0.910650
O O8 0.766590 0.250000 0.117985
O O9 0.832359 0.056340 0.157776
O O10 0.672033 0.048091 0.094875
O O11 0.175634 0.750000 0.495750
O O12 0.169418 0.964627 0.475711
O O13 0.041513 0.894598 0.544082
O O14 0.497491 0.946676 0.719471
O O15 0.287051 0.890931 0.772924
O O16 0.245915 0.049850 0.720097
O O17 0.445601 0.080541 0.779365
O O18 0.634795 0.250000 0.788021
O O19 0.090247 0.750000 0.806420
#
# Coordination Sequence:
#
# PCOD8251225 Si02
#       8
#     8   8   8   8   8   8   8   8
#     4  10  20  35  54  78 107 139 177 220 266 316
#     4   9  19  36  56  79 108 143 180 217 264 320
#     4  10  20  34  53  78 108 140 177 222 267 314
#     4   9  18  33  52  74 102 137 176 217 260 311
#     4  10  19  32  53  77 104 136 175 217 263 313
#     4  10  20  34  52  74 100 134 175 212 258 314
#     4  10  20  34  52  73 100 134 172 215 261 312
#     4  10  20  34  52  76 106 136 170 216 264 310
#
# _framework density 18.771101999999999
#
# number of rings (size 3 to 8) (size 9 to 14) (size 15 to 20)
#    0.000    2.250    0.000    3.000    0.000    1.000 
#    0.000    5.000    0.000    6.000    0.000    0.000 
#    0.000    0.000    0.000    0.000    0.000    0.000 
#
# Total GULP energy -792933.492882 kJ/mol
# GULP energy per Si atom -12389.585826 kJ/mol
# Density = 1.872838 g / cm^3
# Si number density = 18.771102 Si / 1000 Ang^3
#
#
#
# Elastic Constant Matrix: (Units=GPa)
#
#
# Indices 1 2 3 4 5 6 
#
# 1 65.0228 14.3802 29.6568 0.0000 0.0000 0.0000
# 2 14.3802 71.6836 19.8278 0.0000 0.0000 0.0000
# 3 29.6568 19.8278 76.2664 0.0000 0.0000 0.0000
# 4 0.0000 0.0000 0.0000 19.5070 0.0000 0.0000
# 5 0.0000 0.0000 0.0000 0.0000 31.2592 0.0000
# 6 0.0000 0.0000 0.0000 0.0000 0.0000 16.4478
#
#
#
# Elastic Compliance Matrix: (Units=1/GPa)
#
#
# Indices 1 2 3 4 5 6 
#
# 1 0.018932 -0.001898 -0.006868 0.000000 0.000000 0.000000
# 2 -0.001898 0.015221 -0.003219 0.000000 0.000000 0.000000
# 3 -0.006868 -0.003219 0.016620 0.000000 0.000000 0.000000
# 4 0.000000 0.000000 0.000000 0.051264 0.000000 0.000000
# 5 0.000000 0.000000 0.000000 0.000000 0.031991 0.000000
# 6 0.000000 0.000000 0.000000 0.000000 0.000000 0.060798
#
#
# Mechanical properties :
#
#
# Convention : Reuss Voigt Hill
#
# Bulk Modulus (GPa) = 37.31114 37.85582 37.58348
# Shear Modulus (GPa) = 21.95584 23.38335 22.66960
#
# Velocity S-wave (km/s) = 3.42374 3.53329 3.47895
# Velocity P-wave (km/s) = 5.96233 6.07095 6.01688
#
# Compressibility (1/GPa) = 0.02680165
#
# Stress axis : x y z
#
# Youngs Moduli (GPa) = 52.82179 65.69702 60.16977
#
# Poissons Ratio (x) = 0.12469 0.41326
# Poissons Ratio (y) = 0.10026 0.19370
# Poissons Ratio (z) = 0.36279 0.21149
#
# Static dielectric constant tensor:
#      x y z
#    x 3.457820 0.000000 0.000000 
#    y 0.000000 3.486030 0.000000 
#    z 0.000000 0.000000 3.637660 
# 
# 
# High freq. dielectric constant tensor:
#      x y z
#    x 1.721990 0.000000 0.000000 
#    y 0.000000 1.722240 0.000000 
#    z 0.000000 0.000000 1.742010 
# 
# From -- ./inp_files/32264.got.cif
#   From: 2010.03.12/outbox.cif.g09.slc.cpg/sg62_17_cif.got.tgz:32264.got - 2010.04.10 19:12:36.
