data_PCOD8251359
_publ_section_title
;
Structure prediction by ZEFSAII (Michael W. Deem and Ramdas Pophale) SiO2 
 PCOD8251359
Probable space group: P N M A
;
_chemical_formula_sum "Si O2"
_cell_formula_units_Z 64
_cell_length_a 15.996905
_cell_length_b 18.530049
_cell_length_c 11.098102
_cell_angle_alpha 90.000000
_cell_angle_beta 90.000000
_cell_angle_gamma 90.000000
_cell_volume 3289.737500
_symmetry_space_group_name_H-M "P N M A"
_symmetry_group_IT_number 62
_symmetry_cell_setting 'orthorhombic'
loop_
_space_group_symop_operation_xyz
x,y,z
1/2-x,-y,1/2+z
1/2+x,1/2-y,1/2-z
-x,1/2+y,-z
-x,-y,-z
1/2+x,y,1/2-z
1/2-x,1/2+y,1/2+z
x,1/2-y,z
loop_
_atom_site_type_symbol
_atom_site_label
_atom_site_fract_x
_atom_site_fract_y
_atom_site_fract_z
Si Si1 0.180987 0.333861 0.036684
Si Si2 0.707394 0.168292 0.181575
Si Si3 0.577778 0.958988 0.897631
Si Si4 0.064242 0.054773 0.941438
Si Si5 0.304777 0.467165 0.327934
Si Si6 0.816795 0.421355 0.609791
Si Si7 0.005641 0.904109 0.315985
Si Si8 0.462071 0.668222 0.958831
O O1 0.165504 0.250000 0.008755
O O2 0.092508 0.375800 0.018993
O O3 0.254117 0.361178 0.946019
O O4 0.204161 0.345803 0.175675
O O5 0.736127 0.250000 0.153563
O O6 0.775427 0.112210 0.131129
O O7 0.621781 0.150583 0.113617
O O8 0.628261 0.962392 0.775609
O O9 0.536257 0.880454 0.906613
O O10 0.507425 0.021792 0.893546
O O11 0.645507 0.970008 0.002355
O O12 0.029848 0.088767 0.817259
O O13 0.147432 0.006157 0.936670
O O14 0.000000 0.000000 0.000000
O O15 0.228115 0.522158 0.298952
O O16 0.894812 0.385497 0.683095
O O17 0.954314 0.844992 0.395697
O O18 0.488932 0.750000 0.935195
#
# Coordination Sequence:
#
# PCOD8251359 Si02
#       8
#     8   8   8   8   8   8   8   8
#     4  10  22  39  58  86 122 158 193 241 307 364
#     4  10  20  36  59  86 121 156 190 242 302 358
#     4  10  19  33  52  82 113 144 189 241 288 338
#     4  10  24  40  61  88 116 160 203 246 293 358
#     4  10  20  33  55  82 116 147 192 241 286 346
#     4  10  19  33  56  82 110 152 188 242 289 347
#     4  10  21  37  58  84 113 150 195 250 291 340
#     4  10  21  35  57  85 113 152 192 238 297 351
#
# _framework density 19.454440000000002
#
# number of rings (size 3 to 8) (size 9 to 14) (size 15 to 20)
#    0.000    2.000    1.250    3.000    5.250    3.000 
#    0.000    0.625    0.000    0.000    0.000    0.000 
#    0.000    0.000    0.000    0.000    0.000    0.000 
#
# Total GULP energy -793036.638067 kJ/mol
# GULP energy per Si atom -12391.197470 kJ/mol
# Density = 1.941016 g / cm^3
# Si number density = 19.454440 Si / 1000 Ang^3
#
#
#
# Elastic Constant Matrix: (Units=GPa)
#
#
# Indices 1 2 3 4 5 6 
#
# 1 91.4226 55.6630 17.7750 0.0000 0.0000 0.0000
# 2 55.6630 112.9087 27.6908 0.0000 0.0000 0.0000
# 3 17.7750 27.6908 44.8399 0.0000 0.0000 0.0000
# 4 0.0000 0.0000 0.0000 26.5215 0.0000 0.0000
# 5 0.0000 0.0000 0.0000 0.0000 18.7657 0.0000
# 6 0.0000 0.0000 0.0000 0.0000 0.0000 34.4195
#
#
#
# Elastic Compliance Matrix: (Units=1/GPa)
#
#
# Indices 1 2 3 4 5 6 
#
# 1 0.015740 -0.007341 -0.001706 0.000000 0.000000 0.000000
# 2 -0.007341 0.013861 -0.005650 0.000000 0.000000 0.000000
# 3 -0.001706 -0.005650 0.026467 0.000000 0.000000 0.000000
# 4 0.000000 0.000000 0.000000 0.037705 0.000000 0.000000
# 5 0.000000 0.000000 0.000000 0.000000 0.053289 0.000000
# 6 0.000000 0.000000 0.000000 0.000000 0.000000 0.029053
#
#
# Mechanical properties :
#
#
# Convention : Reuss Voigt Hill
#
# Bulk Modulus (GPa) = 37.48970 50.15877 43.82424
# Shear Modulus (GPa) = 23.32084 25.81083 24.56583
#
# Velocity S-wave (km/s) = 3.46604 3.64638 3.55736
# Velocity P-wave (km/s) = 5.94393 6.60052 6.28081
#
# Compressibility (1/GPa) = 0.02667400
#
# Stress axis : x y z
#
# Youngs Moduli (GPa) = 63.53430 72.14238 37.78298
#
# Poissons Ratio (x) = 0.52960 0.06445
# Poissons Ratio (y) = 0.46641 0.21348
# Poissons Ratio (z) = 0.10838 0.40761
#
# Static dielectric constant tensor:
#      x y z
#    x 3.765710 0.000000 0.000000 
#    y 0.000000 3.710290 0.000000 
#    z 0.000000 0.000000 3.509070 
# 
# 
# High freq. dielectric constant tensor:
#      x y z
#    x 1.763700 0.000000 0.000000 
#    y 0.000000 1.756510 0.000000 
#    z 0.000000 0.000000 1.745040 
# 
# From -- ./inp_files/13570.got.cif
#   From: 2010.03.12/outbox.cif.g09.slc.cpg/sg62_7_cif.got.tgz:13570.got - 2010.04.10 19:12:36.
