data_PCOD8251275
_publ_section_title
;
Structure prediction by ZEFSAII (Michael W. Deem and Ramdas Pophale) SiO2 
 PCOD8251275
Probable space group: P N M A
;
_chemical_formula_sum "Si O2"
_cell_formula_units_Z 56
_cell_length_a 21.547821
_cell_length_b 9.226404
_cell_length_c 14.361347
_cell_angle_alpha 90.000000
_cell_angle_beta 90.000000
_cell_angle_gamma 90.000000
_cell_volume 2855.163626
_symmetry_space_group_name_H-M "P N M A"
_symmetry_group_IT_number 62
_symmetry_cell_setting 'orthorhombic'
loop_
_space_group_symop_operation_xyz
x,y,z
1/2-x,-y,1/2+z
1/2+x,1/2-y,1/2-z
-x,1/2+y,-z
-x,-y,-z
1/2+x,y,1/2-z
1/2-x,1/2+y,1/2+z
x,1/2-y,z
loop_
_atom_site_type_symbol
_atom_site_label
_atom_site_fract_x
_atom_site_fract_y
_atom_site_fract_z
Si Si1 0.836215 0.582833 0.396489
Si Si2 0.434699 0.581158 0.604870
Si Si3 0.819725 0.918241 0.188751
Si Si4 0.023521 0.417218 0.588675
Si Si5 0.910349 0.081292 0.713842
Si Si6 0.078435 0.919025 0.919169
Si Si7 0.301978 0.419790 0.923644
O O1 0.832444 0.750000 0.425234
O O2 0.803686 0.554098 0.297218
O O3 0.907480 0.531700 0.385944
O O4 0.801013 0.494030 0.475791
O O5 0.418314 0.750000 0.598265
O O6 0.400642 0.513055 0.693921
O O7 0.508064 0.553508 0.612363
O O8 0.406887 0.502382 0.514728
O O9 0.837414 0.750000 0.173199
O O10 0.760106 0.965383 0.129904
O O11 0.877813 0.016497 0.160471
O O12 0.021087 0.250000 0.561984
O O13 0.000000 0.500000 0.500000
O O14 0.979390 0.449303 0.676312
O O15 0.900034 0.250000 0.738344
O O16 0.861045 0.028577 0.636560
O O17 0.092176 0.750000 0.933853
O O18 0.305340 0.250000 0.940785
#
# Coordination Sequence:
#
# PCOD8251275 Si02
#       7
#     8   8   8   8   8   8   8
#     4  10  21  37  58  84 115 152 192 236 290 347
#     4  10  21  36  58  87 117 148 185 234 286 340
#     4  10  22  40  60  82 113 153 195 237 283 339
#     4  10  19  32  54  82 113 149 185 232 291 345
#     4  10  20  35  55  83 118 154 189 232 289 345
#     4  10  21  38  59  85 114 148 189 234 285 339
#     4  10  22  39  58  82 114 151 191 236 282 334
#
# _framework density 19.613588
#
# number of rings (size 3 to 8) (size 9 to 14) (size 15 to 20)
#    0.000    2.000    1.429    1.714    0.000    6.286 
#    0.000    1.429    0.000    0.000    0.000    0.000 
#    0.000    0.000    0.000    0.000    0.000    0.000 
#
# Total GULP energy -694635.742593 kJ/mol
# GULP energy per Si atom -12404.209689 kJ/mol
# Density = 1.956895 g / cm^3
# Si number density = 19.613588 Si / 1000 Ang^3
#
#
#
# Elastic Constant Matrix: (Units=GPa)
#
#
# Indices 1 2 3 4 5 6 
#
# 1 67.3812 26.9257 34.7822 0.0000 0.0000 0.0000
# 2 26.9257 70.3168 54.6501 0.0000 0.0000 0.0000
# 3 34.7822 54.6501 129.9078 0.0000 0.0000 0.0000
# 4 0.0000 0.0000 0.0000 41.9485 0.0000 0.0000
# 5 0.0000 0.0000 0.0000 0.0000 29.3368 0.0000
# 6 0.0000 0.0000 0.0000 0.0000 0.0000 24.8408
#
#
#
# Elastic Compliance Matrix: (Units=1/GPa)
#
#
# Indices 1 2 3 4 5 6 
#
# 1 0.018223 -0.004734 -0.002888 0.000000 0.000000 0.000000
# 2 -0.004734 0.022359 -0.008139 0.000000 0.000000 0.000000
# 3 -0.002888 -0.008139 0.011895 0.000000 0.000000 0.000000
# 4 0.000000 0.000000 0.000000 0.023839 0.000000 0.000000
# 5 0.000000 0.000000 0.000000 0.000000 0.034087 0.000000
# 6 0.000000 0.000000 0.000000 0.000000 0.000000 0.040256
#
#
# Mechanical properties :
#
#
# Convention : Reuss Voigt Hill
#
# Bulk Modulus (GPa) = 47.71694 55.59132 51.65413
# Shear Modulus (GPa) = 26.43187 29.30843 27.87015
#
# Velocity S-wave (km/s) = 3.67499 3.86980 3.77365
# Velocity P-wave (km/s) = 6.51066 6.95499 6.73649
#
# Compressibility (1/GPa) = 0.02095692
#
# Stress axis : x y z
#
# Youngs Moduli (GPa) = 54.87517 44.72384 84.06992
#
# Poissons Ratio (x) = 0.21170 0.24278
# Poissons Ratio (y) = 0.25976 0.68423
# Poissons Ratio (z) = 0.15847 0.36400
#
# Static dielectric constant tensor:
#      x y z
#    x 3.369140 0.000000 0.000000 
#    y 0.000000 3.478200 0.000000 
#    z 0.000000 0.000000 3.273520 
# 
# 
# High freq. dielectric constant tensor:
#      x y z
#    x 1.756940 0.000000 0.000000 
#    y 0.000000 1.758150 0.000000 
#    z 0.000000 0.000000 1.772670 
# 
# From -- ./inp_files/20353.got.cif
#   From: 2010.03.12/outbox.cif.g09.slc.cpg/sg62_11_cif.got.tgz:20353.got - 2010.04.10 19:12:36.
