data_PCOD8251355
_publ_section_title
;
Structure prediction by ZEFSAII (Michael W. Deem and Ramdas Pophale) SiO2 
 PCOD8251355
Probable space group: P N M A
;
_chemical_formula_sum "Si O2"
_cell_formula_units_Z 48
_cell_length_a 15.954484
_cell_length_b 17.492521
_cell_length_c 9.920313
_cell_angle_alpha 90.000000
_cell_angle_beta 90.000000
_cell_angle_gamma 90.000000
_cell_volume 2768.602086
_symmetry_space_group_name_H-M "P N M A"
_symmetry_group_IT_number 62
_symmetry_cell_setting 'orthorhombic'
loop_
_space_group_symop_operation_xyz
x,y,z
1/2-x,-y,1/2+z
1/2+x,1/2-y,1/2-z
-x,1/2+y,-z
-x,-y,-z
1/2+x,y,1/2-z
1/2-x,1/2+y,1/2+z
x,1/2-y,z
loop_
_atom_site_type_symbol
_atom_site_label
_atom_site_fract_x
_atom_site_fract_y
_atom_site_fract_z
Si Si1 0.242897 0.957161 0.833422
Si Si2 0.700914 0.929835 0.957008
Si Si3 0.625078 0.163590 0.196228
Si Si4 0.932175 0.984361 0.112749
Si Si5 0.644133 0.163999 0.504728
Si Si6 0.979441 0.443014 0.383578
O O1 0.237981 0.976728 0.673097
O O2 0.285596 0.873808 0.845054
O O3 0.150726 0.961706 0.902912
O O4 0.303682 0.015720 0.911877
O O5 0.757387 0.856635 0.993505
O O6 0.608773 0.901141 0.915352
O O7 0.629604 0.250000 0.144760
O O8 0.605584 0.158818 0.355341
O O9 0.548361 0.122503 0.123371
O O10 0.976240 0.002851 0.252809
O O11 0.903202 0.895490 0.103346
O O12 0.000000 0.000000 0.000000
O O13 0.635012 0.250000 0.562996
O O14 0.000000 0.500000 0.500000
#
# Coordination Sequence:
#
# PCOD8251355 Si02
#       6
#     8   8   8   8   8   8
#     4   9  18  32  51  76 100 136 175 216 259 318
#     4   9  18  31  53  75 102 133 177 214 263 321
#     4  10  19  33  52  79 111 141 174 223 275 316
#     4  10  19  34  55  81 102 140 186 222 260 317
#     4   9  18  34  55  77 104 138 179 227 270 312
#     4  11  20  32  53  82 109 142 178 219 265 327
#
# _framework density 17.337271000000001
#
# number of rings (size 3 to 8) (size 9 to 14) (size 15 to 20)
#    0.000    2.333    3.333    0.000    0.000    0.667 
#    0.000    4.167    0.000    0.000    0.000    0.000 
#    0.000    0.000    0.000    0.000    0.000    0.000 
#
# Total GULP energy -594854.182590 kJ/mol
# GULP energy per Si atom -12392.795471 kJ/mol
# Density = 1.729781 g / cm^3
# Si number density = 17.337271 Si / 1000 Ang^3
#
#
#
# Elastic Constant Matrix: (Units=GPa)
#
#
# Indices 1 2 3 4 5 6 
#
# 1 90.1451 57.0680 38.0341 0.0000 0.0000 0.0000
# 2 57.0680 130.6612 40.4164 0.0000 0.0000 0.0000
# 3 38.0341 40.4164 64.0848 0.0000 0.0000 0.0000
# 4 0.0000 0.0000 0.0000 22.3857 0.0000 0.0000
# 5 0.0000 0.0000 0.0000 0.0000 25.3354 0.0000
# 6 0.0000 0.0000 0.0000 0.0000 0.0000 24.9487
#
#
#
# Elastic Compliance Matrix: (Units=1/GPa)
#
#
# Indices 1 2 3 4 5 6 
#
# 1 0.017493 -0.005502 -0.006912 0.000000 0.000000 0.000000
# 2 -0.005502 0.011239 -0.003823 0.000000 0.000000 0.000000
# 3 -0.006912 -0.003823 0.022117 0.000000 0.000000 0.000000
# 4 0.000000 0.000000 0.000000 0.044671 0.000000 0.000000
# 5 0.000000 0.000000 0.000000 0.000000 0.039470 0.000000
# 6 0.000000 0.000000 0.000000 0.000000 0.000000 0.040082
#
#
# Mechanical properties :
#
#
# Convention : Reuss Voigt Hill
#
# Bulk Modulus (GPa) = 54.41935 61.76978 58.09456
# Shear Modulus (GPa) = 23.40043 24.49214 23.94629
#
# Velocity S-wave (km/s) = 3.67784 3.76265 3.72049
# Velocity P-wave (km/s) = 7.03506 7.38799 7.21368
#
# Compressibility (1/GPa) = 0.01837582
#
# Stress axis : x y z
#
# Youngs Moduli (GPa) = 57.16660 88.97647 45.21371
#
# Poissons Ratio (x) = 0.48957 0.31251
# Poissons Ratio (y) = 0.31454 0.17283
# Poissons Ratio (z) = 0.39512 0.34011
#
# Static dielectric constant tensor:
#      x y z
#    x 3.537700 0.000000 0.000000 
#    y 0.000000 2.546390 0.000000 
#    z 0.000000 0.000000 3.217630 
# 
# 
# High freq. dielectric constant tensor:
#      x y z
#    x 1.680830 0.000000 0.000000 
#    y 0.000000 1.642570 0.000000 
#    z 0.000000 0.000000 1.663170 
# 
# From -- ./inp_files/6461.got.cif
#   From: 2010.03.12/outbox.cif.g09.slc.cpg/sg62_4_cif.got.tgz:6461.got - 2010.04.10 19:12:36.
