data_PCOD8251001
_publ_section_title
;
Structure prediction by ZEFSAII (Michael W. Deem and Ramdas Pophale) SiO2 
 PCOD8251001
Probable space group: P N M A
;
_chemical_formula_sum "Si O2"
_cell_formula_units_Z 48
_cell_length_a 18.181055
_cell_length_b 9.276240
_cell_length_c 16.450142
_cell_angle_alpha 90.000000
_cell_angle_beta 90.000000
_cell_angle_gamma 90.000000
_cell_volume 2774.346546
_symmetry_space_group_name_H-M "P N M A"
_symmetry_group_IT_number 62
_symmetry_cell_setting 'orthorhombic'
loop_
_space_group_symop_operation_xyz
x,y,z
1/2-x,-y,1/2+z
1/2+x,1/2-y,1/2-z
-x,1/2+y,-z
-x,-y,-z
1/2+x,y,1/2-z
1/2-x,1/2+y,1/2+z
x,1/2-y,z
loop_
_atom_site_type_symbol
_atom_site_label
_atom_site_fract_x
_atom_site_fract_y
_atom_site_fract_z
Si Si1 0.520447 0.083742 0.580376
Si Si2 0.325112 0.081911 0.861458
Si Si3 0.335004 0.920383 0.323979
Si Si4 0.453496 0.082821 0.747364
Si Si5 0.075300 0.584234 0.504783
Si Si6 0.587671 0.584049 0.812197
O O1 0.516584 0.250000 0.557574
O O2 0.602392 0.041281 0.610016
O O3 0.462124 0.045042 0.651881
O O4 0.500000 0.000000 0.500000
O O5 0.315600 0.250000 0.876225
O O6 0.243209 0.016719 0.854429
O O7 0.370906 0.051051 0.778460
O O8 0.367350 0.016805 0.939648
O O9 0.332985 0.750000 0.306780
O O10 0.351742 0.999540 0.239546
O O11 0.475349 0.250000 0.761212
O O12 0.507628 0.986189 0.801026
O O13 0.058127 0.750000 0.482650
O O14 0.110985 0.570684 0.593826
O O15 0.000000 0.500000 0.500000
O O16 0.584093 0.750000 0.784203
#
# Coordination Sequence:
#
# PCOD8251001 Si02
#       6
#     8   8   8   8   8   8
#     4   9  18  32  51  74  96 126 170 209 245 292
#     4   9  17  33  55  75  99 131 171 212 247 296
#     4   9  19  36  55  72  96 137 178 208 249 305
#     4   9  17  32  55  75  94 130 173 205 241 303
#     4  10  19  31  52  79 105 134 167 206 251 305
#     4  10  19  31  49  77 106 131 162 204 254 300
#
# _framework density 17.301372000000001
#
# number of rings (size 3 to 8) (size 9 to 14) (size 15 to 20)
#    0.000    2.667    1.667    1.500    0.000    3.333 
#    3.000    1.667    0.000    0.000    0.000    0.000 
#    0.000    0.000    0.000    0.000    0.000    0.000 
#
# Total GULP energy -595042.962379 kJ/mol
# GULP energy per Si atom -12396.728383 kJ/mol
# Density = 1.726199 g / cm^3
# Si number density = 17.301372 Si / 1000 Ang^3
#
#
#
# Elastic Constant Matrix: (Units=GPa)
#
#
# Indices 1 2 3 4 5 6 
#
# 1 136.2378 37.0208 74.0315 0.0000 0.0000 0.0000
# 2 37.0208 51.5861 43.8503 0.0000 0.0000 0.0000
# 3 74.0315 43.8503 136.8489 0.0000 0.0000 0.0000
# 4 0.0000 0.0000 0.0000 28.5741 0.0000 0.0000
# 5 0.0000 0.0000 0.0000 0.0000 24.3598 0.0000
# 6 0.0000 0.0000 0.0000 0.0000 0.0000 18.7887
#
#
#
# Elastic Compliance Matrix: (Units=1/GPa)
#
#
# Indices 1 2 3 4 5 6 
#
# 1 0.010932 -0.003873 -0.004673 0.000000 0.000000 0.000000
# 2 -0.003873 0.028014 -0.006881 0.000000 0.000000 0.000000
# 3 -0.004673 -0.006881 0.012040 0.000000 0.000000 0.000000
# 4 0.000000 0.000000 0.000000 0.034997 0.000000 0.000000
# 5 0.000000 0.000000 0.000000 0.000000 0.041051 0.000000
# 6 0.000000 0.000000 0.000000 0.000000 0.000000 0.053224
#
#
# Mechanical properties :
#
#
# Convention : Reuss Voigt Hill
#
# Bulk Modulus (GPa) = 49.67312 70.49754 60.08533
# Shear Modulus (GPa) = 22.95455 25.66254 24.30854
#
# Velocity S-wave (km/s) = 3.64641 3.85550 3.75241
# Velocity P-wave (km/s) = 6.81918 7.78814 7.31971
#
# Compressibility (1/GPa) = 0.02013161
#
# Stress axis : x y z
#
# Youngs Moduli (GPa) = 91.47693 35.69657 83.05619
#
# Poissons Ratio (x) = 0.13826 0.38810
# Poissons Ratio (y) = 0.35431 0.57152
# Poissons Ratio (z) = 0.42744 0.24563
#
# Static dielectric constant tensor:
#      x y z
#    x 3.404680 0.000000 0.000000 
#    y 0.000000 3.098850 0.000000 
#    z 0.000000 0.000000 3.371590 
# 
# 
# High freq. dielectric constant tensor:
#      x y z
#    x 1.656870 0.000000 0.000000 
#    y 0.000000 1.650800 0.000000 
#    z 0.000000 0.000000 1.672990 
# 
# From -- ./inp_files/19654.got.cif
#   From: 2010.03.12/outbox.cif.g09.slc.cpg/sg62_10_cif.got.tgz:19654.got - 2010.04.10 19:12:36.
