data_PCOD8251041
_publ_section_title
;
Structure prediction by ZEFSAII (Michael W. Deem and Ramdas Pophale) SiO2 
 PCOD8251041
Probable space group: P N M A
;
_chemical_formula_sum "Si O2"
_cell_formula_units_Z 56
_cell_length_a 16.815682
_cell_length_b 9.371307
_cell_length_c 19.573465
_cell_angle_alpha 90.000000
_cell_angle_beta 90.000000
_cell_angle_gamma 90.000000
_cell_volume 3084.482886
_symmetry_space_group_name_H-M "P N M A"
_symmetry_group_IT_number 62
_symmetry_cell_setting 'orthorhombic'
loop_
_space_group_symop_operation_xyz
x,y,z
1/2-x,-y,1/2+z
1/2+x,1/2-y,1/2-z
-x,1/2+y,-z
-x,-y,-z
1/2+x,y,1/2-z
1/2-x,1/2+y,1/2+z
x,1/2-y,z
loop_
_atom_site_type_symbol
_atom_site_label
_atom_site_fract_x
_atom_site_fract_y
_atom_site_fract_z
Si Si1 0.936952 0.084913 0.956158
Si Si2 0.845512 0.917694 0.351430
Si Si3 0.741483 0.919232 0.479041
Si Si4 0.236814 0.416868 0.239412
Si Si5 0.589469 0.912553 0.304998
Si Si6 0.474653 0.086359 0.839807
Si Si7 0.327430 0.583540 0.886083
O O1 0.942981 0.250000 0.976916
O O2 0.957001 0.061951 0.875951
O O3 0.848518 0.024484 0.971491
O O4 0.000000 0.000000 0.000000
O O5 0.834337 0.750000 0.337477
O O6 0.795755 0.972961 0.416500
O O7 0.937507 0.955165 0.364448
O O8 0.816846 0.004496 0.284810
O O9 0.740824 0.750000 0.479028
O O10 0.778968 0.977579 0.549415
O O11 0.242511 0.250000 0.223779
O O12 0.163778 0.481609 0.196929
O O13 0.225598 0.448300 0.319545
O O14 0.622587 0.750000 0.303160
O O15 0.530854 0.942660 0.241715
O O16 0.455062 0.250000 0.856158
O O17 0.412484 0.992570 0.881922
O O18 0.345569 0.750000 0.894102
#
# Coordination Sequence:
#
# PCOD8251041 Si02
#       7
#     8   8   8   8   8   8   8
#     4  10  20  34  53  75 102 137 173 211 259 313
#     4  10  19  34  55  77 103 141 180 212 256 316
#     4   9  18  35  55  73 100 144 181 204 254 325
#     4  10  19  31  51  77 101 131 173 221 263 303
#     4   9  17  34  54  72  99 136 172 209 259 314
#     4   9  19  33  53  80 105 133 176 221 259 304
#     4   9  19  35  53  74 105 140 174 214 262 314
#
# _framework density 18.155393
#
# number of rings (size 3 to 8) (size 9 to 14) (size 15 to 20)
#    0.000    2.571    1.429    0.429    0.000    3.429 
#    0.000    1.429    0.000    0.000    0.000    0.000 
#    0.000    0.000    0.000    0.000    0.000    0.000 
#
# Total GULP energy -694406.847264 kJ/mol
# GULP energy per Si atom -12400.122273 kJ/mol
# Density = 1.811407 g / cm^3
# Si number density = 18.155393 Si / 1000 Ang^3
#
#
#
# Elastic Constant Matrix: (Units=GPa)
#
#
# Indices 1 2 3 4 5 6 
#
# 1 129.7088 41.9130 69.4730 0.0000 0.0000 0.0000
# 2 41.9130 52.2362 35.4072 0.0000 0.0000 0.0000
# 3 69.4730 35.4072 104.8070 0.0000 0.0000 0.0000
# 4 0.0000 0.0000 0.0000 21.3213 0.0000 0.0000
# 5 0.0000 0.0000 0.0000 0.0000 29.8286 0.0000
# 6 0.0000 0.0000 0.0000 0.0000 0.0000 31.6983
#
#
#
# Elastic Compliance Matrix: (Units=1/GPa)
#
#
# Indices 1 2 3 4 5 6 
#
# 1 0.013296 -0.006088 -0.006756 0.000000 0.000000 0.000000
# 2 -0.006088 0.027618 -0.005294 0.000000 0.000000 0.000000
# 3 -0.006756 -0.005294 0.015809 0.000000 0.000000 0.000000
# 4 0.000000 0.000000 0.000000 0.046901 0.000000 0.000000
# 5 0.000000 0.000000 0.000000 0.000000 0.033525 0.000000
# 6 0.000000 0.000000 0.000000 0.000000 0.000000 0.031547
#
#
# Mechanical properties :
#
#
# Convention : Reuss Voigt Hill
#
# Bulk Modulus (GPa) = 48.91510 64.48203 56.69857
# Shear Modulus (GPa) = 23.60846 25.90024 24.75435
#
# Velocity S-wave (km/s) = 3.60996 3.78112 3.69653
# Velocity P-wave (km/s) = 6.66158 7.39299 7.03679
#
# Compressibility (1/GPa) = 0.02044358
#
# Stress axis : x y z
#
# Youngs Moduli (GPa) = 75.21211 36.20866 63.25707
#
# Poissons Ratio (x) = 0.22046 0.42739
# Poissons Ratio (y) = 0.45793 0.33490
# Poissons Ratio (z) = 0.50816 0.19170
#
# Static dielectric constant tensor:
#      x y z
#    x 3.311610 0.000000 0.000000 
#    y 0.000000 3.197010 0.000000 
#    z 0.000000 0.000000 3.522060 
# 
# 
# High freq. dielectric constant tensor:
#      x y z
#    x 1.697070 0.000000 0.000000 
#    y 0.000000 1.684550 0.000000 
#    z 0.000000 0.000000 1.708530 
# 
# From -- ./inp_files/27272.got.cif
#   From: 2010.03.12/outbox.cif.g09.slc.cpg/sg62_14_cif.got.tgz:27272.got - 2010.04.10 19:12:36.
