data_PCOD8251090
_publ_section_title
;
Structure prediction by ZEFSAII (Michael W. Deem and Ramdas Pophale) SiO2 
 PCOD8251090
Probable space group: P N M A
;
_chemical_formula_sum "Si O2"
_cell_formula_units_Z 48
_cell_length_a 5.181832
_cell_length_b 18.800340
_cell_length_c 27.141279
_cell_angle_alpha 90.000000
_cell_angle_beta 90.000000
_cell_angle_gamma 90.000000
_cell_volume 2644.108921
_symmetry_space_group_name_H-M "P N M A"
_symmetry_group_IT_number 62
_symmetry_cell_setting 'orthorhombic'
loop_
_space_group_symop_operation_xyz
x,y,z
1/2-x,-y,1/2+z
1/2+x,1/2-y,1/2-z
-x,1/2+y,-z
-x,-y,-z
1/2+x,y,1/2-z
1/2-x,1/2+y,1/2+z
x,1/2-y,z
loop_
_atom_site_type_symbol
_atom_site_label
_atom_site_fract_x
_atom_site_fract_y
_atom_site_fract_z
Si Si1 0.732477 0.169459 0.582914
Si Si2 0.332272 0.969996 0.368815
Si Si3 0.772227 0.669554 0.480731
Si Si4 0.096753 0.455406 0.454048
Si Si5 0.785507 0.331599 0.281472
Si Si6 0.159922 0.954785 0.643767
O O1 0.737194 0.250000 0.603661
O O2 0.683563 0.115928 0.628599
O O3 0.506968 0.160103 0.543189
O O4 0.005872 0.148819 0.558479
O O5 0.317648 0.999870 0.425284
O O6 0.596640 0.995232 0.344033
O O7 0.093748 0.002280 0.337211
O O8 0.816004 0.750000 0.499032
O O9 0.786685 0.619455 0.528310
O O10 0.000000 0.500000 0.500000
O O11 0.864612 0.440358 0.415086
O O12 0.511466 0.348770 0.257007
O O13 0.801584 0.250000 0.299069
O O14 0.815630 0.379435 0.329674
#
# Coordination Sequence:
#
# PCOD8251090 Si02
#       6
#     8   8   8   8   8   8
#     4  10  19  32  47  66  96 140 186 221 251 307
#     4  10  20  33  50  74 106 137 178 229 266 322
#     4  10  20  30  43  64  93 136 189 226 256 302
#     4  10  20  32  50  71 107 150 179 219 278 325
#     4  10  21  40  64  84 111 148 184 233 294 342
#     4  10  22  34  53  83 105 138 184 230 265 340
#
# _framework density 18.153563999999999
#
# number of rings (size 3 to 8) (size 9 to 14) (size 15 to 20)
#    1.000    1.000    1.667    3.000    2.333    2.000 
#    0.000    0.833    0.000    0.000    0.000    0.000 
#    0.000   13.333    0.000    0.000    0.000    0.000 
#
# Total GULP energy -594993.482503 kJ/mol
# GULP energy per Si atom -12395.697552 kJ/mol
# Density = 1.811225 g / cm^3
# Si number density = 18.153564 Si / 1000 Ang^3
#
#
#
# Elastic Constant Matrix: (Units=GPa)
#
#
# Indices 1 2 3 4 5 6 
#
# 1 88.4986 17.7042 7.0670 0.0000 0.0000 0.0000
# 2 17.7042 111.0083 31.7411 0.0000 0.0000 0.0000
# 3 7.0670 31.7411 43.6216 0.0000 0.0000 0.0000
# 4 0.0000 0.0000 0.0000 37.2618 0.0000 0.0000
# 5 0.0000 0.0000 0.0000 0.0000 14.4867 0.0000
# 6 0.0000 0.0000 0.0000 0.0000 0.0000 24.8964
#
#
#
# Elastic Compliance Matrix: (Units=1/GPa)
#
#
# Indices 1 2 3 4 5 6 
#
# 1 0.011688 -0.001670 -0.000678 0.000000 0.000000 0.000000
# 2 -0.001670 0.011614 -0.008180 0.000000 0.000000 0.000000
# 3 -0.000678 -0.008180 0.028987 0.000000 0.000000 0.000000
# 4 0.000000 0.000000 0.000000 0.026837 0.000000 0.000000
# 5 0.000000 0.000000 0.000000 0.000000 0.069029 0.000000
# 6 0.000000 0.000000 0.000000 0.000000 0.000000 0.040167
#
#
# Mechanical properties :
#
#
# Convention : Reuss Voigt Hill
#
# Bulk Modulus (GPa) = 32.01931 39.57257 35.79594
# Shear Modulus (GPa) = 22.74923 27.77006 25.25965
#
# Velocity S-wave (km/s) = 3.54383 3.91542 3.73425
# Velocity P-wave (km/s) = 5.86697 6.50283 6.19307
#
# Compressibility (1/GPa) = 0.03123115
#
# Stress axis : x y z
#
# Youngs Moduli (GPa) = 85.55871 86.10550 34.49882
#
# Poissons Ratio (x) = 0.14381 0.02340
# Poissons Ratio (y) = 0.14289 0.28220
# Poissons Ratio (z) = 0.05803 0.70435
#
# Static dielectric constant tensor:
#      x y z
#    x 3.480200 0.000000 0.000000 
#    y 0.000000 3.577490 0.000000 
#    z 0.000000 0.000000 2.778690 
# 
# 
# High freq. dielectric constant tensor:
#      x y z
#    x 1.720000 0.000000 0.000000 
#    y 0.000000 1.714830 0.000000 
#    z 0.000000 0.000000 1.641440 
# 
# From -- ./inp_files/30459.got.cif
#   From: 2010.03.12/outbox.cif.g09.slc.cpg/sg62_16_cif.got.tgz:30459.got - 2010.04.10 19:12:36.
