data_PCOD8251435
_publ_section_title
;
Structure prediction by ZEFSAII (Michael W. Deem and Ramdas Pophale) SiO2 
 PCOD8251435
Probable space group: P N M A
;
_chemical_formula_sum "Si O2"
_cell_formula_units_Z 64
_cell_length_a 15.125775
_cell_length_b 8.869316
_cell_length_c 24.572687
_cell_angle_alpha 90.000000
_cell_angle_beta 90.000000
_cell_angle_gamma 90.000000
_cell_volume 3296.555661
_symmetry_space_group_name_H-M "P N M A"
_symmetry_group_IT_number 62
_symmetry_cell_setting 'orthorhombic'
loop_
_space_group_symop_operation_xyz
x,y,z
1/2-x,-y,1/2+z
1/2+x,1/2-y,1/2-z
-x,1/2+y,-z
-x,-y,-z
1/2+x,y,1/2-z
1/2-x,1/2+y,1/2+z
x,1/2-y,z
loop_
_atom_site_type_symbol
_atom_site_label
_atom_site_fract_x
_atom_site_fract_y
_atom_site_fract_z
Si Si1 0.691655 0.073764 0.812904
Si Si2 0.626990 0.076779 0.533745
Si Si3 0.109251 0.923760 0.194168
Si Si4 0.040719 0.424470 0.392757
Si Si5 0.799917 0.928143 0.537398
Si Si6 0.480034 0.428796 0.222721
Si Si7 0.064301 0.923546 0.072112
Si Si8 0.651353 0.925495 0.926072
O O1 0.672536 0.250000 0.819993
O O2 0.789381 0.046629 0.787525
O O3 0.617917 0.001953 0.772852
O O4 0.690408 0.997050 0.871679
O O5 0.655512 0.250000 0.534143
O O6 0.540732 0.047308 0.570078
O O7 0.705170 0.978707 0.561052
O O8 0.612469 0.028681 0.471303
O O9 0.082739 0.750000 0.203274
O O10 0.099613 0.968120 0.131134
O O11 0.041836 0.027138 0.227321
O O12 0.061300 0.250000 0.385059
O O13 0.124048 0.498885 0.423686
O O14 0.025834 0.492646 0.332482
O O15 0.954009 0.451577 0.429113
O O16 0.808318 0.750000 0.534047
O O17 0.805373 0.994415 0.477165
O O18 0.467116 0.250000 0.220539
O O19 0.085804 0.750000 0.057633
O O20 0.675293 0.750000 0.926345
#
# Coordination Sequence:
#
# PCOD8251435 Si02
#       8
#     8   8   8   8   8   8   8   8
#     4  10  20  36  59  85 113 146 186 228 283 341
#     4  10  20  34  53  80 112 143 178 223 273 324
#     4  10  21  38  60  84 109 144 187 231 279 334
#     4   8  18  35  52  73 106 144 179 224 274 322
#     4  11  20  32  51  76 109 148 184 217 270 335
#     4  10  21  39  59  81 112 146 186 237 284 325
#     4   9  19  37  58  79 109 143 178 225 276 329
#     4  10  19  33  54  81 111 140 184 234 275 321
#
# _framework density 19.414202
#
# number of rings (size 3 to 8) (size 9 to 14) (size 15 to 20)
#    0.000    2.250    0.000    3.750    0.000    3.000 
#    2.250    6.875    0.000    0.000    0.000    0.000 
#    0.000    0.000    0.000    0.000    0.000    0.000 
#
# Total GULP energy -793623.901291 kJ/mol
# GULP energy per Si atom -12400.373458 kJ/mol
# Density = 1.937001 g / cm^3
# Si number density = 19.414202 Si / 1000 Ang^3
#
#
#
# Elastic Constant Matrix: (Units=GPa)
#
#
# Indices 1 2 3 4 5 6 
#
# 1 118.4633 44.0066 33.0102 0.0000 0.0000 0.0000
# 2 44.0066 83.1140 21.6571 0.0000 0.0000 0.0000
# 3 33.0102 21.6571 36.8516 0.0000 0.0000 0.0000
# 4 0.0000 0.0000 0.0000 25.5527 0.0000 0.0000
# 5 0.0000 0.0000 0.0000 0.0000 24.4295 0.0000
# 6 0.0000 0.0000 0.0000 0.0000 0.0000 32.7271
#
#
#
# Elastic Compliance Matrix: (Units=1/GPa)
#
#
# Indices 1 2 3 4 5 6 
#
# 1 0.012455 -0.004354 -0.008598 0.000000 0.000000 0.000000
# 2 -0.004354 0.015729 -0.005344 0.000000 0.000000 0.000000
# 3 -0.008598 -0.005344 0.037978 0.000000 0.000000 0.000000
# 4 0.000000 0.000000 0.000000 0.039135 0.000000 0.000000
# 5 0.000000 0.000000 0.000000 0.000000 0.040934 0.000000
# 6 0.000000 0.000000 0.000000 0.000000 0.000000 0.030556
#
#
# Mechanical properties :
#
#
# Convention : Reuss Voigt Hill
#
# Bulk Modulus (GPa) = 33.81692 48.41965 41.11829
# Shear Modulus (GPa) = 22.39803 25.85887 24.12845
#
# Velocity S-wave (km/s) = 3.40029 3.65356 3.52920
# Velocity P-wave (km/s) = 5.73345 6.54159 6.15081
#
# Compressibility (1/GPa) = 0.02957099
#
# Stress axis : x y z
#
# Youngs Moduli (GPa) = 80.29145 63.57493 26.33133
#
# Poissons Ratio (x) = 0.27681 0.22638
# Poissons Ratio (y) = 0.34960 0.14071
# Poissons Ratio (z) = 0.69031 0.33972
#
# Static dielectric constant tensor:
#      x y z
#    x 3.935720 0.000000 0.000000 
#    y 0.000000 3.464980 0.000000 
#    z 0.000000 0.000000 3.363650 
# 
# 
# High freq. dielectric constant tensor:
#      x y z
#    x 1.772620 0.000000 0.000000 
#    y 0.000000 1.751070 0.000000 
#    z 0.000000 0.000000 1.731780 
# 
# From -- ./inp_files/29946.got.cif
#   From: 2010.03.12/outbox.cif.g09.slc.cpg/sg62_15_cif.got.tgz:29946.got - 2010.04.10 19:12:36.
