data_PCOD8251953
_publ_section_title
;
Structure prediction by ZEFSAII (Michael W. Deem and Ramdas Pophale) SiO2 
 PCOD8251953
Probable space group: P N M A
;
_chemical_formula_sum "Si O2"
_cell_formula_units_Z 40
_cell_length_a 17.479972
_cell_length_b 22.196797
_cell_length_c 5.065293
_cell_angle_alpha 90.000000
_cell_angle_beta 90.000000
_cell_angle_gamma 90.000000
_cell_volume 1965.330594
_symmetry_space_group_name_H-M "P N M A"
_symmetry_group_IT_number 62
_symmetry_cell_setting 'orthorhombic'
loop_
_space_group_symop_operation_xyz
x,y,z
1/2-x,-y,1/2+z
1/2+x,1/2-y,1/2-z
-x,1/2+y,-z
-x,-y,-z
1/2+x,y,1/2-z
1/2-x,1/2+y,1/2+z
x,1/2-y,z
loop_
_atom_site_type_symbol
_atom_site_label
_atom_site_fract_x
_atom_site_fract_y
_atom_site_fract_z
Si Si1 0.251851 0.817759 0.666515
Si Si2 0.967902 0.911097 0.503982
Si Si3 0.876261 0.412893 0.277301
Si Si4 0.407499 0.019660 0.741760
Si Si5 0.648761 0.317774 0.821310
O O1 0.220504 0.750000 0.619722
O O2 0.181632 0.858374 0.763093
O O3 0.314222 0.818395 0.893080
O O4 0.291912 0.842121 0.399174
O O5 0.926292 0.858982 0.340165
O O6 0.038088 0.885058 0.682170
O O7 0.004441 0.956449 0.282479
O O8 0.909793 0.947756 0.699064
O O9 0.852227 0.449761 0.539144
O O10 0.874264 0.461355 0.039874
O O11 0.623237 0.250000 0.742591
#
# Coordination Sequence:
#
# PCOD8251953 Si02
#       5
#     8   8   8   8   8
#     4  10  22  39  56  80 120 155 190 240 294 341
#     4   9  21  35  62  81 117 143 194 237 288 343
#     4  10  19  36  58  84 110 150 193 229 286 351
#     4   9  20  34  59  84 112 146 185 238 297 330
#     4  10  22  38  57  82 114 156 192 236 295 346
#
# _framework density 20.352809000000001
#
# number of rings (size 3 to 8) (size 9 to 14) (size 15 to 20)
#    1.200    1.200    0.000    1.800    2.800    0.800 
#    0.000    5.000    0.000    0.000    0.000    0.000 
#    0.000    0.000    0.000    0.000    0.000    0.000 
#
# Total GULP energy -495627.954042 kJ/mol
# GULP energy per Si atom -12390.698851 kJ/mol
# Density = 2.030649 g / cm^3
# Si number density = 20.352809 Si / 1000 Ang^3
#
#
#
# Elastic Constant Matrix: (Units=GPa)
#
#
# Indices 1 2 3 4 5 6 
#
# 1 45.2988 37.6125 13.5548 0.0000 0.0000 0.0000
# 2 37.6125 76.7827 15.4961 0.0000 0.0000 0.0000
# 3 13.5548 15.4961 98.9264 0.0000 0.0000 0.0000
# 4 0.0000 0.0000 0.0000 30.0915 0.0000 0.0000
# 5 0.0000 0.0000 0.0000 0.0000 21.0809 0.0000
# 6 0.0000 0.0000 0.0000 0.0000 0.0000 33.2627
#
#
#
# Elastic Compliance Matrix: (Units=1/GPa)
#
#
# Indices 1 2 3 4 5 6 
#
# 1 0.037732 -0.018009 -0.002349 0.000000 0.000000 0.000000
# 2 -0.018009 0.022045 -0.000986 0.000000 0.000000 0.000000
# 3 -0.002349 -0.000986 0.010585 0.000000 0.000000 0.000000
# 4 0.000000 0.000000 0.000000 0.033232 0.000000 0.000000
# 5 0.000000 0.000000 0.000000 0.000000 0.047436 0.000000
# 6 0.000000 0.000000 0.000000 0.000000 0.000000 0.030064
#
#
# Mechanical properties :
#
#
# Convention : Reuss Voigt Hill
#
# Bulk Modulus (GPa) = 36.13517 39.37054 37.75285
# Shear Modulus (GPa) = 21.45877 27.17666 24.31772
#
# Velocity S-wave (km/s) = 3.25058 3.65811 3.46035
# Velocity P-wave (km/s) = 5.64635 6.10151 5.87834
#
# Compressibility (1/GPa) = 0.02767387
#
# Stress axis : x y z
#
# Youngs Moduli (GPa) = 26.50282 45.36268 94.47546
#
# Poissons Ratio (x) = 0.81694 0.22192
# Poissons Ratio (y) = 0.47729 0.09311
# Poissons Ratio (z) = 0.06225 0.04471
#
# Static dielectric constant tensor:
#      x y z
#    x 3.287360 0.000000 0.000000 
#    y 0.000000 3.610030 0.000000 
#    z 0.000000 0.000000 3.645510 
# 
# 
# High freq. dielectric constant tensor:
#      x y z
#    x 1.762190 0.000000 0.000000 
#    y 0.000000 1.781780 0.000000 
#    z 0.000000 0.000000 1.805740 
# 
# From -- ./inp_files/2130.got.cif
#   From: 2010.03.12/outbox.cif.g09.slc.cpg/sg62_2_cif.got.tgz:2130.got - 2010.04.10 19:12:36.
