data_PCOD8251854
_publ_section_title
;
Structure prediction by ZEFSAII (Michael W. Deem and Ramdas Pophale) SiO2 
 PCOD8251854
Probable space group: P N M A
;
_chemical_formula_sum "Si O2"
_cell_formula_units_Z 64
_cell_length_a 19.840786
_cell_length_b 9.015237
_cell_length_c 19.234684
_cell_angle_alpha 90.000000
_cell_angle_beta 90.000000
_cell_angle_gamma 90.000000
_cell_volume 3440.496157
_symmetry_space_group_name_H-M "P N M A"
_symmetry_group_IT_number 62
_symmetry_cell_setting 'orthorhombic'
loop_
_space_group_symop_operation_xyz
x,y,z
1/2-x,-y,1/2+z
1/2+x,1/2-y,1/2-z
-x,1/2+y,-z
-x,-y,-z
1/2+x,y,1/2-z
1/2-x,1/2+y,1/2+z
x,1/2-y,z
loop_
_atom_site_type_symbol
_atom_site_label
_atom_site_fract_x
_atom_site_fract_y
_atom_site_fract_z
Si Si1 0.680624 0.925562 0.065706
Si Si2 0.965009 0.075169 0.065155
Si Si3 0.813808 0.423453 0.096829
Si Si4 0.710453 0.080422 0.737643
Si Si5 0.858523 0.078336 0.716563
Si Si6 0.911001 0.582281 0.326399
Si Si7 0.936943 0.423821 0.465125
Si Si8 0.986691 0.422732 0.796492
O O1 0.690646 0.750000 0.069395
O O2 0.648322 0.985801 0.138158
O O3 0.754082 0.997120 0.053699
O O4 0.631605 0.974469 0.003449
O O5 0.976739 0.250000 0.062282
O O6 0.885566 0.036090 0.062760
O O7 0.999319 0.014608 0.134682
O O8 0.000000 0.000000 0.000000
O O9 0.799936 0.250000 0.094780
O O10 0.814812 0.474741 0.176572
O O11 0.701931 0.250000 0.711200
O O12 0.788363 0.049495 0.756993
O O13 0.667106 0.053136 0.807087
O O14 0.876660 0.250000 0.709318
O O15 0.919498 0.007586 0.760475
O O16 0.922411 0.750000 0.353644
O O17 0.933318 0.468383 0.384963
O O18 0.952470 0.553616 0.256641
O O19 0.947294 0.250000 0.471699
O O20 0.000000 0.500000 0.500000
O O21 0.977935 0.250000 0.816461
#
# Coordination Sequence:
#
# PCOD8251854 Si02
#       8
#     8   8   8   8   8   8   8   8
#     4   9  19  37  59  82 114 155 195 230 276 338
#     4  11  24  40  58  82 112 145 185 235 288 343
#     4  10  20  35  58  85 111 141 185 238 283 331
#     4   9  17  33  56  80 108 146 185 221 271 336
#     4   8  15  30  55  82 107 140 183 226 267 322
#     4  10  20  34  56  82 112 153 193 229 276 338
#     4  11  23  38  57  83 117 155 194 239 287 338
#     4  10  19  35  59  84 112 146 185 227 276 335
#
# _framework density 18.601967999999999
#
# number of rings (size 3 to 8) (size 9 to 14) (size 15 to 20)
#    0.000    2.250    1.250    2.625    0.000    5.500 
#    2.250    2.500    0.000    0.000    0.000    0.000 
#    0.000    0.000    0.000    0.000    0.000    0.000 
#
# Total GULP energy -793560.401959 kJ/mol
# GULP energy per Si atom -12399.381281 kJ/mol
# Density = 1.855963 g / cm^3
# Si number density = 18.601968 Si / 1000 Ang^3
#
#
#
# Elastic Constant Matrix: (Units=GPa)
#
#
# Indices 1 2 3 4 5 6 
#
# 1 121.5135 51.8782 52.2973 0.0000 0.0000 0.0000
# 2 51.8782 61.6186 39.6074 0.0000 0.0000 0.0000
# 3 52.2973 39.6074 95.9135 0.0000 0.0000 0.0000
# 4 0.0000 0.0000 0.0000 29.6279 0.0000 0.0000
# 5 0.0000 0.0000 0.0000 0.0000 31.1582 0.0000
# 6 0.0000 0.0000 0.0000 0.0000 0.0000 26.9469
#
#
#
# Elastic Compliance Matrix: (Units=1/GPa)
#
#
# Indices 1 2 3 4 5 6 
#
# 1 0.013748 -0.009198 -0.003698 0.000000 0.000000 0.000000
# 2 -0.009198 0.028247 -0.006649 0.000000 0.000000 0.000000
# 3 -0.003698 -0.006649 0.015188 0.000000 0.000000 0.000000
# 4 0.000000 0.000000 0.000000 0.033752 0.000000 0.000000
# 5 0.000000 0.000000 0.000000 0.000000 0.032094 0.000000
# 6 0.000000 0.000000 0.000000 0.000000 0.000000 0.037110
#
#
# Mechanical properties :
#
#
# Convention : Reuss Voigt Hill
#
# Bulk Modulus (GPa) = 55.27047 62.95682 59.11365
# Shear Modulus (GPa) = 24.35935 26.56412 25.46174
#
# Velocity S-wave (km/s) = 3.62263 3.78302 3.70370
# Velocity P-wave (km/s) = 6.87565 7.28007 7.08075
#
# Compressibility (1/GPa) = 0.01809284
#
# Stress axis : x y z
#
# Youngs Moduli (GPa) = 72.73854 35.40232 65.84053
#
# Poissons Ratio (x) = 0.32562 0.24347
# Poissons Ratio (y) = 0.66903 0.43780
# Poissons Ratio (z) = 0.26898 0.23540
#
# Static dielectric constant tensor:
#      x y z
#    x 3.776010 0.000000 0.000000 
#    y 0.000000 3.282420 0.000000 
#    z 0.000000 0.000000 3.305170 
# 
# 
# High freq. dielectric constant tensor:
#      x y z
#    x 1.739960 0.000000 0.000000 
#    y 0.000000 1.706470 0.000000 
#    z 0.000000 0.000000 1.706330 
# 
# From -- ./inp_files/24848.got.cif
#   From: 2010.03.12/outbox.cif.g09.slc.cpg/sg62_13_cif.got.tgz:24848.got - 2010.04.10 19:12:36.
